MODEL 1
REMARK VINA RESULT:     4.343      0.000      0.000
REMARK INTER + INTRA:           4.597
REMARK INTER:                   4.597
REMARK INTRA:                   0.000
REMARK UNBOUND:                 0.000
REMARK SMILES O=c1ccc2cc(O)c(O)cc2o1
REMARK SMILES IDX 4 1 3 2 2 3 1 4 13 5 12 6 11 7 9 8 7 9 6 10 5 11 8 12 10 14
REMARK H PARENT 8 13 10 15
REMARK Flexibility Score: inf
ROOT
ATOM      1  C   UNL     1      -8.736  -7.148  19.877  1.00  0.00     0.019 A 
ATOM      2  C   UNL     1      -9.120  -7.886  20.996  1.00  0.00     0.094 A 
ATOM      3  C   UNL     1      -8.787  -7.410  22.270  1.00  0.00     0.336 A 
ATOM      4  O   UNL     1      -9.125  -8.061  23.292  1.00  0.00    -0.246 OA
ATOM      5  O   UNL     1      -8.114  -6.270  22.407  1.00  0.00    -0.423 OA
ATOM      6  C   UNL     1      -7.728  -5.537  21.366  1.00  0.00     0.142 A 
ATOM      7  C   UNL     1      -7.023  -4.347  21.573  1.00  0.00     0.098 A 
ATOM      8  C   UNL     1      -6.614  -3.569  20.479  1.00  0.00     0.161 A 
ATOM      9  C   UNL     1      -6.913  -3.985  19.173  1.00  0.00     0.158 A 
ATOM     10  C   UNL     1      -7.620  -5.177  18.960  1.00  0.00     0.062 A 
ATOM     11  C   UNL     1      -8.029  -5.954  20.053  1.00  0.00     0.022 A 
ENDROOT
BRANCH   9  12
ATOM     12  O   UNL     1      -6.502  -3.206  18.092  1.00  0.00    -0.504 OA
ATOM     13  H   UNL     1      -6.835  -3.387  17.152  1.00  0.00     0.293 HD
ENDBRANCH   9  12
BRANCH   8  14
ATOM     14  O   UNL     1      -5.911  -2.383  20.682  1.00  0.00    -0.504 OA
ATOM     15  H   UNL     1      -5.579  -2.114  21.601  1.00  0.00     0.293 HD
ENDBRANCH   8  14
TORSDOF 2
ENDMDL
MODEL 2
REMARK VINA RESULT:     4.576      1.482      4.418
REMARK INTER + INTRA:           4.843
REMARK INTER:                   4.843
REMARK INTRA:                   0.000
REMARK UNBOUND:                 0.000
REMARK SMILES O=c1ccc2cc(O)c(O)cc2o1
REMARK SMILES IDX 4 1 3 2 2 3 1 4 13 5 12 6 11 7 9 8 7 9 6 10 5 11 8 12 10 14
REMARK H PARENT 8 13 10 15
REMARK Flexibility Score: inf
ROOT
ATOM      1  C   UNL     1      -6.980  -3.808  18.852  1.00  0.00     0.019 A 
ATOM      2  C   UNL     1      -6.459  -2.695  19.511  1.00  0.00     0.094 A 
ATOM      3  C   UNL     1      -6.489  -2.659  20.910  1.00  0.00     0.336 A 
ATOM      4  O   UNL     1      -6.023  -1.663  21.523  1.00  0.00    -0.246 OA
ATOM      5  O   UNL     1      -7.008  -3.673  21.598  1.00  0.00    -0.423 OA
ATOM      6  C   UNL     1      -7.517  -4.752  21.008  1.00  0.00     0.142 A 
ATOM      7  C   UNL     1      -8.049  -5.786  21.784  1.00  0.00     0.098 A 
ATOM      8  C   UNL     1      -8.586  -6.927  21.168  1.00  0.00     0.161 A 
ATOM      9  C   UNL     1      -8.589  -7.032  19.770  1.00  0.00     0.158 A 
ATOM     10  C   UNL     1      -8.057  -5.998  18.986  1.00  0.00     0.062 A 
ATOM     11  C   UNL     1      -7.520  -4.858  19.602  1.00  0.00     0.022 A 
ENDROOT
BRANCH   9  12
ATOM     12  O   UNL     1      -9.125  -8.169  19.166  1.00  0.00    -0.504 OA
ATOM     13  H   UNL     1      -8.537  -8.942  18.878  1.00  0.00     0.293 HD
ENDBRANCH   9  12
BRANCH   8  14
ATOM     14  O   UNL     1      -9.117  -7.959  21.939  1.00  0.00    -0.504 OA
ATOM     15  H   UNL     1      -8.529  -8.539  22.526  1.00  0.00     0.293 HD
ENDBRANCH   8  14
TORSDOF 2
ENDMDL
MODEL 3
REMARK VINA RESULT:     7.185      1.477      4.971
REMARK INTER + INTRA:           7.605
REMARK INTER:                   7.605
REMARK INTRA:                   0.000
REMARK UNBOUND:                 0.000
REMARK SMILES O=c1ccc2cc(O)c(O)cc2o1
REMARK SMILES IDX 4 1 3 2 2 3 1 4 13 5 12 6 11 7 9 8 7 9 6 10 5 11 8 12 10 14
REMARK H PARENT 8 13 10 15
REMARK Flexibility Score: inf
ROOT
ATOM      1  C   UNL     1      -6.707  -3.735  21.851  1.00  0.00     0.019 A 
ATOM      2  C   UNL     1      -6.124  -2.715  21.100  1.00  0.00     0.094 A 
ATOM      3  C   UNL     1      -6.164  -2.793  19.703  1.00  0.00     0.336 A 
ATOM      4  O   UNL     1      -5.642  -1.882  19.008  1.00  0.00    -0.246 OA
ATOM      5  O   UNL     1      -6.752  -3.825  19.104  1.00  0.00    -0.423 OA
ATOM      6  C   UNL     1      -7.320  -4.819  19.782  1.00  0.00     0.142 A 
ATOM      7  C   UNL     1      -7.922  -5.878  19.097  1.00  0.00     0.098 A 
ATOM      8  C   UNL     1      -8.524  -6.928  19.807  1.00  0.00     0.161 A 
ATOM      9  C   UNL     1      -8.521  -6.917  21.209  1.00  0.00     0.158 A 
ATOM     10  C   UNL     1      -7.918  -5.858  21.903  1.00  0.00     0.062 A 
ATOM     11  C   UNL     1      -7.318  -4.808  21.193  1.00  0.00     0.022 A 
ENDROOT
BRANCH   9  12
ATOM     12  O   UNL     1      -9.120  -7.965  21.907  1.00  0.00    -0.504 OA
ATOM     13  H   UNL     1     -10.017  -7.852  22.365  1.00  0.00     0.293 HD
ENDBRANCH   9  12
BRANCH   8  14
ATOM     14  O   UNL     1      -9.125  -7.985  19.126  1.00  0.00    -0.504 OA
ATOM     15  H   UNL     1      -8.822  -8.943  19.261  1.00  0.00     0.293 HD
ENDBRANCH   8  14
TORSDOF 2
ENDMDL
