MODEL 1
REMARK VINA RESULT:    -3.931      0.000      0.000
REMARK INTER + INTRA:         -12.022
REMARK INTER:                  -8.527
REMARK INTRA:                  -3.495
REMARK UNBOUND:                -3.495
REMARK SMILES CCCCCCCCCCCCCCCCCCCCCC(=O)[O-]
REMARK SMILES IDX 12 1 11 2 10 3 9 4 8 5 7 6 6 7 5 8 4 9 3 10 2 11 1 12 13 13
REMARK SMILES IDX 14 14 15 15 16 16 17 17 18 18 19 19 20 20 21 21 22 22 23 23
REMARK SMILES IDX 24 24
REMARK H PARENT
REMARK Flexibility Score: inf
ROOT
ATOM      1  C   UNL     1     163.750 178.683 187.137  1.00  0.00     0.000 C 
ENDROOT
BRANCH   1   2
ATOM      2  C   UNL     1     163.120 177.536 187.947  1.00  0.00     0.000 C 
BRANCH   2   3
ATOM      3  C   UNL     1     161.599 177.721 188.128  1.00  0.00     0.000 C 
BRANCH   3   4
ATOM      4  C   UNL     1     160.770 177.235 186.927  1.00  0.00    -0.000 C 
BRANCH   4   5
ATOM      5  C   UNL     1     160.383 178.374 185.970  1.00  0.00    -0.000 C 
BRANCH   5   6
ATOM      6  C   UNL     1     160.095 177.882 184.539  1.00  0.00    -0.000 C 
BRANCH   6   7
ATOM      7  C   UNL     1     160.732 176.530 184.172  1.00  0.00    -0.000 C 
BRANCH   7   8
ATOM      8  C   UNL     1     160.626 176.202 182.674  1.00  0.00    -0.000 C 
BRANCH   8   9
ATOM      9  C   UNL     1     162.006 175.891 182.079  1.00  0.00    -0.000 C 
BRANCH   9  10
ATOM     10  C   UNL     1     162.750 177.150 181.596  1.00  0.00    -0.000 C 
BRANCH  10  11
ATOM     11  C   UNL     1     161.839 178.305 181.143  1.00  0.00    -0.003 C 
ATOM     12  C   UNL     1     161.403 178.185 179.683  1.00  0.00     0.004 C 
ENDBRANCH  10  11
ENDBRANCH   9  10
ENDBRANCH   8   9
ENDBRANCH   7   8
ENDBRANCH   6   7
ENDBRANCH   5   6
ENDBRANCH   4   5
ENDBRANCH   3   4
ENDBRANCH   2   3
ENDBRANCH   1   2
BRANCH   1  13
ATOM     13  C   UNL     1     164.745 178.189 186.074  1.00  0.00     0.000 C 
BRANCH  13  14
ATOM     14  C   UNL     1     164.103 177.213 185.074  1.00  0.00     0.000 C 
BRANCH  14  15
ATOM     15  C   UNL     1     164.698 175.798 185.162  1.00  0.00     0.000 C 
BRANCH  15  16
ATOM     16  C   UNL     1     163.631 174.722 185.434  1.00  0.00     0.000 C 
BRANCH  16  17
ATOM     17  C   UNL     1     163.861 173.990 186.767  1.00  0.00     0.000 C 
BRANCH  17  18
ATOM     18  C   UNL     1     162.608 173.977 187.657  1.00  0.00     0.000 C 
BRANCH  18  19
ATOM     19  C   UNL     1     161.355 173.646 186.838  1.00  0.00     0.000 C 
BRANCH  19  20
ATOM     20  C   UNL     1     160.396 172.757 187.638  1.00  0.00     0.006 C 
BRANCH  20  21
ATOM     21  C   UNL     1     160.938 171.329 187.760  1.00  0.00     0.053 C 
BRANCH  21  22
ATOM     22  C   UNL     1     161.153 170.733 186.405  1.00  0.00     0.041 C 
ATOM     23  O   UNL     1     160.195 170.644 185.592  1.00  0.00    -0.550 OA
ATOM     24  O   UNL     1     162.424 170.323 186.018  1.00  0.00    -0.550 OA
ENDBRANCH  21  22
ENDBRANCH  20  21
ENDBRANCH  19  20
ENDBRANCH  18  19
ENDBRANCH  17  18
ENDBRANCH  16  17
ENDBRANCH  15  16
ENDBRANCH  14  15
ENDBRANCH  13  14
ENDBRANCH   1  13
TORSDOF 20
ENDMDL
MODEL 2
REMARK VINA RESULT:    -3.925      2.909      6.306
REMARK INTER + INTRA:         -12.010
REMARK INTER:                  -8.398
REMARK INTRA:                  -3.612
REMARK UNBOUND:                -3.495
REMARK SMILES CCCCCCCCCCCCCCCCCCCCCC(=O)[O-]
REMARK SMILES IDX 12 1 11 2 10 3 9 4 8 5 7 6 6 7 5 8 4 9 3 10 2 11 1 12 13 13
REMARK SMILES IDX 14 14 15 15 16 16 17 17 18 18 19 19 20 20 21 21 22 22 23 23
REMARK SMILES IDX 24 24
REMARK H PARENT
REMARK Flexibility Score: inf
ROOT
ATOM      1  C   UNL     1     164.711 177.484 186.470  1.00  0.00     0.000 C 
ENDROOT
BRANCH   1   2
ATOM      2  C   UNL     1     164.208 176.575 185.335  1.00  0.00     0.000 C 
BRANCH   2   3
ATOM      3  C   UNL     1     164.706 175.122 185.492  1.00  0.00     0.000 C 
BRANCH   3   4
ATOM      4  C   UNL     1     163.624 174.148 185.991  1.00  0.00    -0.000 C 
BRANCH   4   5
ATOM      5  C   UNL     1     163.560 174.060 187.524  1.00  0.00    -0.000 C 
BRANCH   5   6
ATOM      6  C   UNL     1     162.381 173.208 188.026  1.00  0.00    -0.000 C 
BRANCH   6   7
ATOM      7  C   UNL     1     162.740 171.764 188.423  1.00  0.00    -0.000 C 
BRANCH   7   8
ATOM      8  C   UNL     1     161.601 170.767 188.161  1.00  0.00    -0.000 C 
BRANCH   8   9
ATOM      9  C   UNL     1     161.805 170.035 186.827  1.00  0.00    -0.000 C 
BRANCH   9  10
ATOM     10  C   UNL     1     160.728 170.380 185.782  1.00  0.00    -0.000 C 
BRANCH  10  11
ATOM     11  C   UNL     1     161.103 171.518 184.817  1.00  0.00    -0.003 C 
ATOM     12  C   UNL     1     160.191 172.738 184.948  1.00  0.00     0.004 C 
ENDBRANCH  10  11
ENDBRANCH   9  10
ENDBRANCH   8   9
ENDBRANCH   7   8
ENDBRANCH   6   7
ENDBRANCH   5   6
ENDBRANCH   4   5
ENDBRANCH   3   4
ENDBRANCH   2   3
ENDBRANCH   1   2
BRANCH   1  13
ATOM     13  C   UNL     1     163.593 178.335 187.094  1.00  0.00     0.000 C 
BRANCH  13  14
ATOM     14  C   UNL     1     162.800 177.571 188.168  1.00  0.00     0.000 C 
BRANCH  14  15
ATOM     15  C   UNL     1     161.279 177.692 187.980  1.00  0.00     0.000 C 
BRANCH  15  16
ATOM     16  C   UNL     1     160.638 176.386 187.478  1.00  0.00     0.000 C 
BRANCH  16  17
ATOM     17  C   UNL     1     160.669 176.267 185.945  1.00  0.00     0.000 C 
BRANCH  17  18
ATOM     18  C   UNL     1     160.477 177.622 185.245  1.00  0.00     0.000 C 
BRANCH  18  19
ATOM     19  C   UNL     1     160.330 177.442 183.729  1.00  0.00     0.000 C 
BRANCH  19  20
ATOM     20  C   UNL     1     161.331 176.409 183.200  1.00  0.00     0.006 C 
BRANCH  20  21
ATOM     21  C   UNL     1     161.841 176.796 181.809  1.00  0.00     0.053 C 
BRANCH  21  22
ATOM     22  C   UNL     1     162.339 178.207 181.805  1.00  0.00     0.041 C 
ATOM     23  O   UNL     1     163.376 178.515 182.450  1.00  0.00    -0.550 OA
ATOM     24  O   UNL     1     161.689 179.173 181.045  1.00  0.00    -0.550 OA
ENDBRANCH  21  22
ENDBRANCH  20  21
ENDBRANCH  19  20
ENDBRANCH  18  19
ENDBRANCH  17  18
ENDBRANCH  16  17
ENDBRANCH  15  16
ENDBRANCH  14  15
ENDBRANCH  13  14
ENDBRANCH   1  13
TORSDOF 20
ENDMDL
MODEL 3
REMARK VINA RESULT:    -3.888      3.062      6.957
REMARK INTER + INTRA:         -11.929
REMARK INTER:                  -8.786
REMARK INTRA:                  -3.143
REMARK UNBOUND:                -3.495
REMARK SMILES CCCCCCCCCCCCCCCCCCCCCC(=O)[O-]
REMARK SMILES IDX 12 1 11 2 10 3 9 4 8 5 7 6 6 7 5 8 4 9 3 10 2 11 1 12 13 13
REMARK SMILES IDX 14 14 15 15 16 16 17 17 18 18 19 19 20 20 21 21 22 22 23 23
REMARK SMILES IDX 24 24
REMARK H PARENT
REMARK Flexibility Score: inf
ROOT
ATOM      1  C   UNL     1     163.293 178.327 187.507  1.00  0.00     0.000 C 
ENDROOT
BRANCH   1   2
ATOM      2  C   UNL     1     164.531 177.911 186.694  1.00  0.00     0.000 C 
BRANCH   2   3
ATOM      3  C   UNL     1     164.170 177.517 185.247  1.00  0.00     0.000 C 
BRANCH   3   4
ATOM      4  C   UNL     1     164.281 176.007 184.971  1.00  0.00    -0.000 C 
BRANCH   4   5
ATOM      5  C   UNL     1     165.145 175.273 186.009  1.00  0.00    -0.000 C 
BRANCH   5   6
ATOM      6  C   UNL     1     164.424 174.072 186.647  1.00  0.00    -0.000 C 
BRANCH   6   7
ATOM      7  C   UNL     1     162.908 174.005 186.386  1.00  0.00    -0.000 C 
BRANCH   7   8
ATOM      8  C   UNL     1     162.123 173.393 187.556  1.00  0.00    -0.000 C 
BRANCH   8   9
ATOM      9  C   UNL     1     162.966 172.345 188.297  1.00  0.00    -0.000 C 
BRANCH   9  10
ATOM     10  C   UNL     1     162.112 171.247 188.958  1.00  0.00    -0.000 C 
BRANCH  10  11
ATOM     11  C   UNL     1     160.740 171.011 188.302  1.00  0.00    -0.003 C 
ATOM     12  C   UNL     1     160.713 169.775 187.402  1.00  0.00     0.004 C 
ENDBRANCH  10  11
ENDBRANCH   9  10
ENDBRANCH   8   9
ENDBRANCH   7   8
ENDBRANCH   6   7
ENDBRANCH   5   6
ENDBRANCH   4   5
ENDBRANCH   3   4
ENDBRANCH   2   3
ENDBRANCH   1   2
BRANCH   1  13
ATOM     13  C   UNL     1     162.603 177.139 188.196  1.00  0.00     0.000 C 
BRANCH  13  14
ATOM     14  C   UNL     1     161.110 177.037 187.841  1.00  0.00     0.000 C 
BRANCH  14  15
ATOM     15  C   UNL     1     160.601 178.259 187.060  1.00  0.00     0.000 C 
BRANCH  15  16
ATOM     16  C   UNL     1     160.464 177.985 185.551  1.00  0.00     0.000 C 
BRANCH  16  17
ATOM     17  C   UNL     1     160.611 176.493 185.209  1.00  0.00     0.000 C 
BRANCH  17  18
ATOM     18  C   UNL     1     160.752 176.245 183.698  1.00  0.00     0.000 C 
BRANCH  18  19
ATOM     19  C   UNL     1     161.083 177.545 182.956  1.00  0.00     0.000 C 
BRANCH  19  20
ATOM     20  C   UNL     1     161.770 177.252 181.617  1.00  0.00     0.006 C 
BRANCH  20  21
ATOM     21  C   UNL     1     161.774 178.491 180.716  1.00  0.00     0.053 C 
BRANCH  21  22
ATOM     22  C   UNL     1     161.233 178.156 179.362  1.00  0.00     0.041 C 
ATOM     23  O   UNL     1     160.777 179.065 178.619  1.00  0.00    -0.550 OA
ATOM     24  O   UNL     1     161.283 176.847 178.897  1.00  0.00    -0.550 OA
ENDBRANCH  21  22
ENDBRANCH  20  21
ENDBRANCH  19  20
ENDBRANCH  18  19
ENDBRANCH  17  18
ENDBRANCH  16  17
ENDBRANCH  15  16
ENDBRANCH  14  15
ENDBRANCH  13  14
ENDBRANCH   1  13
TORSDOF 20
ENDMDL
MODEL 4
REMARK VINA RESULT:    -3.855      3.079      6.125
REMARK INTER + INTRA:         -11.858
REMARK INTER:                  -8.006
REMARK INTRA:                  -3.852
REMARK UNBOUND:                -3.495
REMARK SMILES CCCCCCCCCCCCCCCCCCCCCC(=O)[O-]
REMARK SMILES IDX 12 1 11 2 10 3 9 4 8 5 7 6 6 7 5 8 4 9 3 10 2 11 1 12 13 13
REMARK SMILES IDX 14 14 15 15 16 16 17 17 18 18 19 19 20 20 21 21 22 22 23 23
REMARK SMILES IDX 24 24
REMARK H PARENT
REMARK Flexibility Score: inf
ROOT
ATOM      1  C   UNL     1     164.872 178.092 186.058  1.00  0.00     0.000 C 
ENDROOT
BRANCH   1   2
ATOM      2  C   UNL     1     165.497 176.821 186.658  1.00  0.00     0.000 C 
BRANCH   2   3
ATOM      3  C   UNL     1     165.524 175.655 185.647  1.00  0.00     0.000 C 
BRANCH   3   4
ATOM      4  C   UNL     1     164.175 175.411 184.948  1.00  0.00    -0.000 C 
BRANCH   4   5
ATOM      5  C   UNL     1     164.062 174.003 184.341  1.00  0.00    -0.000 C 
BRANCH   5   6
ATOM      6  C   UNL     1     162.657 173.698 183.792  1.00  0.00    -0.000 C 
BRANCH   6   7
ATOM      7  C   UNL     1     161.983 172.445 184.380  1.00  0.00    -0.000 C 
BRANCH   7   8
ATOM      8  C   UNL     1     160.459 172.591 184.515  1.00  0.00    -0.000 C 
BRANCH   8   9
ATOM      9  C   UNL     1     160.089 173.361 185.791  1.00  0.00    -0.000 C 
BRANCH   9  10
ATOM     10  C   UNL     1     160.971 172.982 186.996  1.00  0.00    -0.000 C 
BRANCH  10  11
ATOM     11  C   UNL     1     161.796 174.141 187.583  1.00  0.00    -0.003 C 
ATOM     12  C   UNL     1     163.203 173.719 188.004  1.00  0.00     0.004 C 
ENDBRANCH  10  11
ENDBRANCH   9  10
ENDBRANCH   8   9
ENDBRANCH   7   8
ENDBRANCH   6   7
ENDBRANCH   5   6
ENDBRANCH   4   5
ENDBRANCH   3   4
ENDBRANCH   2   3
ENDBRANCH   1   2
BRANCH   1  13
ATOM     13  C   UNL     1     163.737 178.666 186.921  1.00  0.00     0.000 C 
BRANCH  13  14
ATOM     14  C   UNL     1     162.969 177.576 187.687  1.00  0.00     0.000 C 
BRANCH  14  15
ATOM     15  C   UNL     1     161.485 177.924 187.884  1.00  0.00     0.000 C 
BRANCH  15  16
ATOM     16  C   UNL     1     160.756 178.192 186.554  1.00  0.00     0.000 C 
BRANCH  16  17
ATOM     17  C   UNL     1     160.775 176.973 185.617  1.00  0.00     0.000 C 
BRANCH  17  18
ATOM     18  C   UNL     1     160.738 177.369 184.132  1.00  0.00     0.000 C 
BRANCH  18  19
ATOM     19  C   UNL     1     160.208 176.219 183.268  1.00  0.00     0.000 C 
BRANCH  19  20
ATOM     20  C   UNL     1     160.916 176.183 181.909  1.00  0.00     0.006 C 
BRANCH  20  21
ATOM     21  C   UNL     1     162.044 177.217 181.846  1.00  0.00     0.053 C 
BRANCH  21  22
ATOM     22  C   UNL     1     161.765 178.235 180.787  1.00  0.00     0.041 C 
ATOM     23  O   UNL     1     161.542 179.434 181.103  1.00  0.00    -0.550 OA
ATOM     24  O   UNL     1     161.806 177.873 179.445  1.00  0.00    -0.550 OA
ENDBRANCH  21  22
ENDBRANCH  20  21
ENDBRANCH  19  20
ENDBRANCH  18  19
ENDBRANCH  17  18
ENDBRANCH  16  17
ENDBRANCH  15  16
ENDBRANCH  14  15
ENDBRANCH  13  14
ENDBRANCH   1  13
TORSDOF 20
ENDMDL
MODEL 5
REMARK VINA RESULT:    -3.843      6.972      9.591
REMARK INTER + INTRA:         -11.831
REMARK INTER:                  -9.802
REMARK INTRA:                  -2.030
REMARK UNBOUND:                -3.495
REMARK SMILES CCCCCCCCCCCCCCCCCCCCCC(=O)[O-]
REMARK SMILES IDX 12 1 11 2 10 3 9 4 8 5 7 6 6 7 5 8 4 9 3 10 2 11 1 12 13 13
REMARK SMILES IDX 14 14 15 15 16 16 17 17 18 18 19 19 20 20 21 21 22 22 23 23
REMARK SMILES IDX 24 24
REMARK H PARENT
REMARK Flexibility Score: inf
ROOT
ATOM      1  C   UNL     1     166.302 177.187 186.826  1.00  0.00     0.000 C 
ENDROOT
BRANCH   1   2
ATOM      2  C   UNL     1     165.478 178.156 185.960  1.00  0.00     0.000 C 
BRANCH   2   3
ATOM      3  C   UNL     1     164.413 178.908 186.784  1.00  0.00     0.000 C 
BRANCH   3   4
ATOM      4  C   UNL     1     163.007 178.290 186.688  1.00  0.00    -0.000 C 
BRANCH   4   5
ATOM      5  C   UNL     1     162.535 177.671 188.014  1.00  0.00    -0.000 C 
BRANCH   5   6
ATOM      6  C   UNL     1     161.037 177.317 188.010  1.00  0.00    -0.000 C 
BRANCH   6   7
ATOM      7  C   UNL     1     160.626 176.224 187.007  1.00  0.00    -0.000 C 
BRANCH   7   8
ATOM      8  C   UNL     1     160.479 174.839 187.655  1.00  0.00    -0.000 C 
BRANCH   8   9
ATOM      9  C   UNL     1     161.529 173.861 187.109  1.00  0.00    -0.000 C 
BRANCH   9  10
ATOM     10  C   UNL     1     162.873 173.946 187.855  1.00  0.00    -0.000 C 
BRANCH  10  11
ATOM     11  C   UNL     1     164.096 174.211 186.958  1.00  0.00    -0.003 C 
ATOM     12  C   UNL     1     163.722 174.795 185.596  1.00  0.00     0.004 C 
ENDBRANCH  10  11
ENDBRANCH   9  10
ENDBRANCH   8   9
ENDBRANCH   7   8
ENDBRANCH   6   7
ENDBRANCH   5   6
ENDBRANCH   4   5
ENDBRANCH   3   4
ENDBRANCH   2   3
ENDBRANCH   1   2
BRANCH   1  13
ATOM     13  C   UNL     1     167.439 177.886 187.589  1.00  0.00     0.000 C 
BRANCH  13  14
ATOM     14  C   UNL     1     168.709 178.049 186.737  1.00  0.00     0.000 C 
BRANCH  14  15
ATOM     15  C   UNL     1     169.995 178.027 187.579  1.00  0.00     0.000 C 
BRANCH  15  16
ATOM     16  C   UNL     1     170.828 179.312 187.422  1.00  0.00     0.000 C 
BRANCH  16  17
ATOM     17  C   UNL     1     171.596 179.355 186.091  1.00  0.00     0.000 C 
BRANCH  17  18
ATOM     18  C   UNL     1     173.095 179.641 186.283  1.00  0.00     0.000 C 
BRANCH  18  19
ATOM     19  C   UNL     1     173.462 179.674 187.772  1.00  0.00     0.000 C 
BRANCH  19  20
ATOM     20  C   UNL     1     174.506 178.602 188.103  1.00  0.00     0.006 C 
BRANCH  20  21
ATOM     21  C   UNL     1     175.858 178.931 187.462  1.00  0.00     0.053 C 
BRANCH  21  22
ATOM     22  C   UNL     1     176.379 177.754 186.701  1.00  0.00     0.041 C 
ATOM     23  O   UNL     1     177.571 177.376 186.855  1.00  0.00    -0.550 OA
ATOM     24  O   UNL     1     175.533 177.037 185.862  1.00  0.00    -0.550 OA
ENDBRANCH  21  22
ENDBRANCH  20  21
ENDBRANCH  19  20
ENDBRANCH  18  19
ENDBRANCH  17  18
ENDBRANCH  16  17
ENDBRANCH  15  16
ENDBRANCH  14  15
ENDBRANCH  13  14
ENDBRANCH   1  13
TORSDOF 20
ENDMDL
MODEL 6
REMARK VINA RESULT:    -3.830      5.740      8.731
REMARK INTER + INTRA:         -11.803
REMARK INTER:                  -9.986
REMARK INTRA:                  -1.817
REMARK UNBOUND:                -3.495
REMARK SMILES CCCCCCCCCCCCCCCCCCCCCC(=O)[O-]
REMARK SMILES IDX 12 1 11 2 10 3 9 4 8 5 7 6 6 7 5 8 4 9 3 10 2 11 1 12 13 13
REMARK SMILES IDX 14 14 15 15 16 16 17 17 18 18 19 19 20 20 21 21 22 22 23 23
REMARK SMILES IDX 24 24
REMARK H PARENT
REMARK Flexibility Score: inf
ROOT
ATOM      1  C   UNL     1     167.203 177.900 187.349  1.00  0.00     0.000 C 
ENDROOT
BRANCH   1   2
ATOM      2  C   UNL     1     168.211 177.873 188.511  1.00  0.00     0.000 C 
BRANCH   2   3
ATOM      3  C   UNL     1     169.391 176.918 188.235  1.00  0.00     0.000 C 
BRANCH   3   4
ATOM      4  C   UNL     1     170.585 177.595 187.539  1.00  0.00    -0.000 C 
BRANCH   4   5
ATOM      5  C   UNL     1     170.565 179.126 187.676  1.00  0.00    -0.000 C 
BRANCH   5   6
ATOM      6  C   UNL     1     171.193 179.843 186.467  1.00  0.00    -0.000 C 
BRANCH   6   7
ATOM      7  C   UNL     1     171.452 178.951 185.239  1.00  0.00    -0.000 C 
BRANCH   7   8
ATOM      8  C   UNL     1     172.947 178.749 184.948  1.00  0.00    -0.000 C 
BRANCH   8   9
ATOM      9  C   UNL     1     173.755 180.000 185.319  1.00  0.00    -0.000 C 
BRANCH   9  10
ATOM     10  C   UNL     1     175.076 179.670 186.039  1.00  0.00    -0.000 C 
BRANCH  10  11
ATOM     11  C   UNL     1     175.142 180.123 187.508  1.00  0.00    -0.003 C 
ATOM     12  C   UNL     1     174.847 178.993 188.495  1.00  0.00     0.004 C 
ENDBRANCH  10  11
ENDBRANCH   9  10
ENDBRANCH   8   9
ENDBRANCH   7   8
ENDBRANCH   6   7
ENDBRANCH   5   6
ENDBRANCH   4   5
ENDBRANCH   3   4
ENDBRANCH   2   3
ENDBRANCH   1   2
BRANCH   1  13
ATOM     13  C   UNL     1     166.580 176.524 187.065  1.00  0.00     0.000 C 
BRANCH  13  14
ATOM     14  C   UNL     1     165.173 176.629 186.453  1.00  0.00     0.000 C 
BRANCH  14  15
ATOM     15  C   UNL     1     164.764 178.080 186.151  1.00  0.00     0.000 C 
BRANCH  15  16
ATOM     16  C   UNL     1     163.679 178.603 187.110  1.00  0.00     0.000 C 
BRANCH  16  17
ATOM     17  C   UNL     1     162.887 177.467 187.777  1.00  0.00     0.000 C 
BRANCH  17  18
ATOM     18  C   UNL     1     161.425 177.851 188.055  1.00  0.00     0.000 C 
BRANCH  18  19
ATOM     19  C   UNL     1     160.699 178.230 186.758  1.00  0.00     0.000 C 
BRANCH  19  20
ATOM     20  C   UNL     1     160.740 177.075 185.751  1.00  0.00     0.006 C 
BRANCH  20  21
ATOM     21  C   UNL     1     160.558 177.586 184.318  1.00  0.00     0.053 C 
BRANCH  21  22
ATOM     22  C   UNL     1     160.481 176.441 183.359  1.00  0.00     0.041 C 
ATOM     23  O   UNL     1     160.010 175.333 183.730  1.00  0.00    -0.550 OA
ATOM     24  O   UNL     1     160.877 176.612 182.037  1.00  0.00    -0.550 OA
ENDBRANCH  21  22
ENDBRANCH  20  21
ENDBRANCH  19  20
ENDBRANCH  18  19
ENDBRANCH  17  18
ENDBRANCH  16  17
ENDBRANCH  15  16
ENDBRANCH  14  15
ENDBRANCH  13  14
ENDBRANCH   1  13
TORSDOF 20
ENDMDL
MODEL 7
REMARK VINA RESULT:    -3.797      2.919      4.750
REMARK INTER + INTRA:         -11.731
REMARK INTER:                  -7.614
REMARK INTRA:                  -4.117
REMARK UNBOUND:                -3.495
REMARK SMILES CCCCCCCCCCCCCCCCCCCCCC(=O)[O-]
REMARK SMILES IDX 12 1 11 2 10 3 9 4 8 5 7 6 6 7 5 8 4 9 3 10 2 11 1 12 13 13
REMARK SMILES IDX 14 14 15 15 16 16 17 17 18 18 19 19 20 20 21 21 22 22 23 23
REMARK SMILES IDX 24 24
REMARK H PARENT
REMARK Flexibility Score: inf
ROOT
ATOM      1  C   UNL     1     159.890 175.053 187.526  1.00  0.00     0.000 C 
ENDROOT
BRANCH   1   2
ATOM      2  C   UNL     1     161.226 175.816 187.545  1.00  0.00     0.000 C 
BRANCH   2   3
ATOM      3  C   UNL     1     161.063 177.257 188.074  1.00  0.00     0.000 C 
BRANCH   3   4
ATOM      4  C   UNL     1     160.771 178.291 186.972  1.00  0.00    -0.000 C 
BRANCH   4   5
ATOM      5  C   UNL     1     161.250 177.836 185.585  1.00  0.00    -0.000 C 
BRANCH   5   6
ATOM      6  C   UNL     1     160.120 177.809 184.540  1.00  0.00    -0.000 C 
BRANCH   6   7
ATOM      7  C   UNL     1     160.163 176.621 183.561  1.00  0.00    -0.000 C 
BRANCH   7   8
ATOM      8  C   UNL     1     161.220 175.571 183.937  1.00  0.00    -0.000 C 
BRANCH   8   9
ATOM      9  C   UNL     1     161.802 174.901 182.684  1.00  0.00    -0.000 C 
BRANCH   9  10
ATOM     10  C   UNL     1     163.171 175.477 182.277  1.00  0.00    -0.000 C 
BRANCH  10  11
ATOM     11  C   UNL     1     163.106 176.755 181.422  1.00  0.00    -0.003 C 
ATOM     12  C   UNL     1     163.328 178.031 182.235  1.00  0.00     0.004 C 
ENDBRANCH  10  11
ENDBRANCH   9  10
ENDBRANCH   8   9
ENDBRANCH   7   8
ENDBRANCH   6   7
ENDBRANCH   5   6
ENDBRANCH   4   5
ENDBRANCH   3   4
ENDBRANCH   2   3
ENDBRANCH   1   2
BRANCH   1  13
ATOM     13  C   UNL     1     160.004 173.664 186.878  1.00  0.00     0.000 C 
BRANCH  13  14
ATOM     14  C   UNL     1     161.089 172.793 187.534  1.00  0.00     0.000 C 
BRANCH  14  15
ATOM     15  C   UNL     1     161.690 171.764 186.564  1.00  0.00     0.000 C 
BRANCH  15  16
ATOM     16  C   UNL     1     162.505 172.418 185.434  1.00  0.00     0.000 C 
BRANCH  16  17
ATOM     17  C   UNL     1     163.575 173.386 185.965  1.00  0.00     0.000 C 
BRANCH  17  18
ATOM     18  C   UNL     1     164.760 173.544 184.997  1.00  0.00     0.000 C 
BRANCH  18  19
ATOM     19  C   UNL     1     165.430 174.913 185.168  1.00  0.00     0.000 C 
BRANCH  19  20
ATOM     20  C   UNL     1     164.551 175.854 185.999  1.00  0.00     0.006 C 
BRANCH  20  21
ATOM     21  C   UNL     1     164.807 177.318 185.630  1.00  0.00     0.053 C 
BRANCH  21  22
ATOM     22  C   UNL     1     166.143 177.761 186.135  1.00  0.00     0.041 C 
ATOM     23  O   UNL     1     166.953 178.340 185.362  1.00  0.00    -0.550 OA
ATOM     24  O   UNL     1     166.476 177.585 187.473  1.00  0.00    -0.550 OA
ENDBRANCH  21  22
ENDBRANCH  20  21
ENDBRANCH  19  20
ENDBRANCH  18  19
ENDBRANCH  17  18
ENDBRANCH  16  17
ENDBRANCH  15  16
ENDBRANCH  14  15
ENDBRANCH  13  14
ENDBRANCH   1  13
TORSDOF 20
ENDMDL
MODEL 8
REMARK VINA RESULT:    -3.770      4.161      7.209
REMARK INTER + INTRA:         -11.673
REMARK INTER:                  -8.781
REMARK INTRA:                  -2.892
REMARK UNBOUND:                -3.495
REMARK SMILES CCCCCCCCCCCCCCCCCCCCCC(=O)[O-]
REMARK SMILES IDX 12 1 11 2 10 3 9 4 8 5 7 6 6 7 5 8 4 9 3 10 2 11 1 12 13 13
REMARK SMILES IDX 14 14 15 15 16 16 17 17 18 18 19 19 20 20 21 21 22 22 23 23
REMARK SMILES IDX 24 24
REMARK H PARENT
REMARK Flexibility Score: inf
ROOT
ATOM      1  C   UNL     1     166.146 175.426 184.478  1.00  0.00     0.000 C 
ENDROOT
BRANCH   1   2
ATOM      2  C   UNL     1     165.544 174.895 185.791  1.00  0.00     0.000 C 
BRANCH   2   3
ATOM      3  C   UNL     1     166.247 175.485 187.032  1.00  0.00     0.000 C 
BRANCH   3   4
ATOM      4  C   UNL     1     167.332 176.522 186.694  1.00  0.00    -0.000 C 
BRANCH   4   5
ATOM      5  C   UNL     1     167.224 177.798 187.543  1.00  0.00    -0.000 C 
BRANCH   5   6
ATOM      6  C   UNL     1     168.483 178.063 188.389  1.00  0.00    -0.000 C 
BRANCH   6   7
ATOM      7  C   UNL     1     169.594 177.005 188.257  1.00  0.00    -0.000 C 
BRANCH   7   8
ATOM      8  C   UNL     1     170.890 177.567 187.651  1.00  0.00    -0.000 C 
BRANCH   8   9
ATOM      9  C   UNL     1     170.670 178.981 187.094  1.00  0.00    -0.000 C 
BRANCH   9  10
ATOM     10  C   UNL     1     171.689 180.002 187.631  1.00  0.00    -0.000 C 
BRANCH  10  11
ATOM     11  C   UNL     1     173.157 179.547 187.569  1.00  0.00    -0.003 C 
ATOM     12  C   UNL     1     173.758 179.656 186.167  1.00  0.00     0.004 C 
ENDBRANCH  10  11
ENDBRANCH   9  10
ENDBRANCH   8   9
ENDBRANCH   7   8
ENDBRANCH   6   7
ENDBRANCH   5   6
ENDBRANCH   4   5
ENDBRANCH   3   4
ENDBRANCH   2   3
ENDBRANCH   1   2
BRANCH   1  13
ATOM     13  C   UNL     1     165.218 176.409 183.748  1.00  0.00     0.000 C 
BRANCH  13  14
ATOM     14  C   UNL     1     163.764 176.327 184.244  1.00  0.00     0.000 C 
BRANCH  14  15
ATOM     15  C   UNL     1     163.227 177.681 184.734  1.00  0.00     0.000 C 
BRANCH  15  16
ATOM     16  C   UNL     1     164.235 178.434 185.621  1.00  0.00     0.000 C 
BRANCH  16  17
ATOM     17  C   UNL     1     163.722 178.631 187.057  1.00  0.00     0.000 C 
BRANCH  17  18
ATOM     18  C   UNL     1     163.164 177.335 187.667  1.00  0.00     0.000 C 
BRANCH  18  19
ATOM     19  C   UNL     1     161.809 177.584 188.341  1.00  0.00     0.000 C 
BRANCH  19  20
ATOM     20  C   UNL     1     160.698 176.788 187.647  1.00  0.00     0.006 C 
BRANCH  20  21
ATOM     21  C   UNL     1     161.123 175.335 187.412  1.00  0.00     0.053 C 
BRANCH  21  22
ATOM     22  C   UNL     1     160.757 174.898 186.030  1.00  0.00     0.041 C 
ATOM     23  O   UNL     1     160.239 175.715 185.223  1.00  0.00    -0.550 OA
ATOM     24  O   UNL     1     161.040 173.602 185.611  1.00  0.00    -0.550 OA
ENDBRANCH  21  22
ENDBRANCH  20  21
ENDBRANCH  19  20
ENDBRANCH  18  19
ENDBRANCH  17  18
ENDBRANCH  16  17
ENDBRANCH  15  16
ENDBRANCH  14  15
ENDBRANCH  13  14
ENDBRANCH   1  13
TORSDOF 20
ENDMDL
MODEL 9
REMARK VINA RESULT:    -3.767      3.830      7.203
REMARK INTER + INTRA:         -11.666
REMARK INTER:                  -8.218
REMARK INTRA:                  -3.448
REMARK UNBOUND:                -3.495
REMARK SMILES CCCCCCCCCCCCCCCCCCCCCC(=O)[O-]
REMARK SMILES IDX 12 1 11 2 10 3 9 4 8 5 7 6 6 7 5 8 4 9 3 10 2 11 1 12 13 13
REMARK SMILES IDX 14 14 15 15 16 16 17 17 18 18 19 19 20 20 21 21 22 22 23 23
REMARK SMILES IDX 24 24
REMARK H PARENT
REMARK Flexibility Score: inf
ROOT
ATOM      1  C   UNL     1     160.213 177.136 183.816  1.00  0.00     0.000 C 
ENDROOT
BRANCH   1   2
ATOM      2  C   UNL     1     161.301 177.853 184.634  1.00  0.00     0.000 C 
BRANCH   2   3
ATOM      3  C   UNL     1     162.674 177.161 184.506  1.00  0.00     0.000 C 
BRANCH   3   4
ATOM      4  C   UNL     1     163.761 177.771 185.408  1.00  0.00    -0.000 C 
BRANCH   4   5
ATOM      5  C   UNL     1     163.213 178.255 186.759  1.00  0.00    -0.000 C 
BRANCH   5   6
ATOM      6  C   UNL     1     162.827 177.098 187.699  1.00  0.00    -0.000 C 
BRANCH   6   7
ATOM      7  C   UNL     1     161.393 177.160 188.257  1.00  0.00    -0.000 C 
BRANCH   7   8
ATOM      8  C   UNL     1     160.500 176.019 187.745  1.00  0.00    -0.000 C 
BRANCH   8   9
ATOM      9  C   UNL     1     161.333 174.944 187.031  1.00  0.00    -0.000 C 
BRANCH   9  10
ATOM     10  C   UNL     1     160.560 173.630 186.816  1.00  0.00    -0.000 C 
BRANCH  10  11
ATOM     11  C   UNL     1     161.288 172.584 185.954  1.00  0.00    -0.003 C 
ATOM     12  C   UNL     1     160.421 172.035 184.821  1.00  0.00     0.004 C 
ENDBRANCH  10  11
ENDBRANCH   9  10
ENDBRANCH   8   9
ENDBRANCH   7   8
ENDBRANCH   6   7
ENDBRANCH   5   6
ENDBRANCH   4   5
ENDBRANCH   3   4
ENDBRANCH   2   3
ENDBRANCH   1   2
BRANCH   1  13
ATOM     13  C   UNL     1     160.533 175.654 183.564  1.00  0.00     0.000 C 
BRANCH  13  14
ATOM     14  C   UNL     1     159.875 175.118 182.281  1.00  0.00     0.000 C 
BRANCH  14  15
ATOM     15  C   UNL     1     160.891 174.500 181.307  1.00  0.00     0.000 C 
BRANCH  15  16
ATOM     16  C   UNL     1     162.317 174.454 181.887  1.00  0.00     0.000 C 
BRANCH  16  17
ATOM     17  C   UNL     1     163.252 175.482 181.230  1.00  0.00     0.000 C 
BRANCH  17  18
ATOM     18  C   UNL     1     162.514 176.411 180.253  1.00  0.00     0.000 C 
BRANCH  18  19
ATOM     19  C   UNL     1     162.266 177.787 180.883  1.00  0.00     0.000 C 
BRANCH  19  20
ATOM     20  C   UNL     1     161.370 178.647 179.985  1.00  0.00     0.006 C 
BRANCH  20  21
ATOM     21  C   UNL     1     160.968 177.888 178.716  1.00  0.00     0.053 C 
BRANCH  21  22
ATOM     22  C   UNL     1     160.235 178.791 177.775  1.00  0.00     0.041 C 
ATOM     23  O   UNL     1     159.980 179.980 178.106  1.00  0.00    -0.550 OA
ATOM     24  O   UNL     1     159.881 178.337 176.510  1.00  0.00    -0.550 OA
ENDBRANCH  21  22
ENDBRANCH  20  21
ENDBRANCH  19  20
ENDBRANCH  18  19
ENDBRANCH  17  18
ENDBRANCH  16  17
ENDBRANCH  15  16
ENDBRANCH  14  15
ENDBRANCH  13  14
ENDBRANCH   1  13
TORSDOF 20
ENDMDL
