MODEL 1
REMARK VINA RESULT:    -0.680      0.000      0.000
REMARK INTER + INTRA:          -0.720
REMARK INTER:                  -0.720
REMARK INTRA:                   0.000
REMARK UNBOUND:                 0.000
REMARK SMILES O=c1ccc2cc(O)c(O)cc2o1
REMARK SMILES IDX 4 1 3 2 2 3 1 4 13 5 12 6 11 7 9 8 7 9 6 10 5 11 8 12 10 14
REMARK H PARENT 8 13 10 15
REMARK Flexibility Score: inf
ROOT
ATOM      1  C   UNL     1      17.759   6.769 -10.533  1.00  0.00     0.019 A 
ATOM      2  C   UNL     1      17.854   6.496  -9.169  1.00  0.00     0.094 A 
ATOM      3  C   UNL     1      18.036   5.173  -8.753  1.00  0.00     0.336 A 
ATOM      4  O   UNL     1      18.124   4.907  -7.526  1.00  0.00    -0.246 OA
ATOM      5  O   UNL     1      18.117   4.191  -9.647  1.00  0.00    -0.423 OA
ATOM      6  C   UNL     1      18.031   4.408 -10.958  1.00  0.00     0.142 A 
ATOM      7  C   UNL     1      18.123   3.336 -11.851  1.00  0.00     0.098 A 
ATOM      8  C   UNL     1      18.033   3.558 -13.233  1.00  0.00     0.161 A 
ATOM      9  C   UNL     1      17.850   4.859 -13.723  1.00  0.00     0.158 A 
ATOM     10  C   UNL     1      17.758   5.938 -12.832  1.00  0.00     0.062 A 
ATOM     11  C   UNL     1      17.848   5.718 -11.451  1.00  0.00     0.022 A 
ENDROOT
BRANCH   9  12
ATOM     12  O   UNL     1      17.762   5.071 -15.098  1.00  0.00    -0.504 OA
ATOM     13  H   UNL     1      17.614   5.997 -15.484  1.00  0.00     0.293 HD
ENDBRANCH   9  12
BRANCH   8  14
ATOM     14  O   UNL     1      18.125   2.491 -14.125  1.00  0.00    -0.504 OA
ATOM     15  H   UNL     1      18.975   1.947 -14.215  1.00  0.00     0.293 HD
ENDBRANCH   8  14
TORSDOF 2
ENDMDL
MODEL 2
REMARK VINA RESULT:    -0.239      1.241      4.478
REMARK INTER + INTRA:          -0.253
REMARK INTER:                  -0.253
REMARK INTRA:                   0.000
REMARK UNBOUND:                 0.000
REMARK SMILES O=c1ccc2cc(O)c(O)cc2o1
REMARK SMILES IDX 4 1 3 2 2 3 1 4 13 5 12 6 11 7 9 8 7 9 6 10 5 11 8 12 10 14
REMARK H PARENT 8 13 10 15
REMARK Flexibility Score: inf
ROOT
ATOM      1  C   UNL     1      18.118   5.678 -13.379  1.00  0.00     0.019 A 
ATOM      2  C   UNL     1      18.119   4.488 -14.106  1.00  0.00     0.094 A 
ATOM      3  C   UNL     1      18.121   3.272 -13.416  1.00  0.00     0.336 A 
ATOM      4  O   UNL     1      18.121   2.187 -14.054  1.00  0.00    -0.246 OA
ATOM      5  O   UNL     1      18.122   3.252 -12.085  1.00  0.00    -0.423 OA
ATOM      6  C   UNL     1      18.121   4.364 -11.353  1.00  0.00     0.142 A 
ATOM      7  C   UNL     1      18.124   4.282  -9.957  1.00  0.00     0.098 A 
ATOM      8  C   UNL     1      18.123   5.450  -9.181  1.00  0.00     0.161 A 
ATOM      9  C   UNL     1      18.121   6.707  -9.805  1.00  0.00     0.158 A 
ATOM     10  C   UNL     1      18.119   6.795 -11.204  1.00  0.00     0.062 A 
ATOM     11  C   UNL     1      18.119   5.628 -11.982  1.00  0.00     0.022 A 
ENDROOT
BRANCH   9  12
ATOM     12  O   UNL     1      18.120   7.863  -9.026  1.00  0.00    -0.504 OA
ATOM     13  H   UNL     1      18.393   7.845  -8.050  1.00  0.00     0.293 HD
ENDBRANCH   9  12
BRANCH   8  14
ATOM     14  O   UNL     1      18.124   5.371  -7.790  1.00  0.00    -0.504 OA
ATOM     15  H   UNL     1      18.402   4.525  -7.307  1.00  0.00     0.293 HD
ENDBRANCH   8  14
TORSDOF 2
ENDMDL
MODEL 3
REMARK VINA RESULT:     0.346     20.700     21.017
REMARK INTER + INTRA:           0.366
REMARK INTER:                   0.366
REMARK INTRA:                   0.000
REMARK UNBOUND:                 0.000
REMARK SMILES O=c1ccc2cc(O)c(O)cc2o1
REMARK SMILES IDX 4 1 3 2 2 3 1 4 13 5 12 6 11 7 9 8 7 9 6 10 5 11 8 12 10 14
REMARK H PARENT 8 13 10 15
REMARK Flexibility Score: inf
ROOT
ATOM      1  C   UNL     1      -2.121   9.029 -10.693  1.00  0.00     0.019 A 
ATOM      2  C   UNL     1      -2.122   9.717  -9.481  1.00  0.00     0.094 A 
ATOM      3  C   UNL     1      -2.124  11.115  -9.495  1.00  0.00     0.336 A 
ATOM      4  O   UNL     1      -2.125  11.754  -8.410  1.00  0.00    -0.246 OA
ATOM      5  O   UNL     1      -2.125  11.778 -10.649  1.00  0.00    -0.423 OA
ATOM      6  C   UNL     1      -2.124  11.160 -11.828  1.00  0.00     0.142 A 
ATOM      7  C   UNL     1      -2.124  11.909 -13.009  1.00  0.00     0.098 A 
ATOM      8  C   UNL     1      -2.123  11.264 -14.255  1.00  0.00     0.161 A 
ATOM      9  C   UNL     1      -2.122   9.863 -14.318  1.00  0.00     0.158 A 
ATOM     10  C   UNL     1      -2.121   9.107 -13.137  1.00  0.00     0.062 A 
ATOM     11  C   UNL     1      -2.123   9.750 -11.891  1.00  0.00     0.022 A 
ENDROOT
BRANCH   9  12
ATOM     12  O   UNL     1      -2.121   9.229 -15.560  1.00  0.00    -0.504 OA
ATOM     13  H   UNL     1      -2.325   8.240 -15.651  1.00  0.00     0.293 HD
ENDBRANCH   9  12
BRANCH   8  14
ATOM     14  O   UNL     1      -2.125  12.007 -15.433  1.00  0.00    -0.504 OA
ATOM     15  H   UNL     1      -1.365  11.943 -16.101  1.00  0.00     0.293 HD
ENDBRANCH   8  14
TORSDOF 2
ENDMDL
MODEL 4
REMARK VINA RESULT:     0.403      1.566      4.959
REMARK INTER + INTRA:           0.426
REMARK INTER:                   0.426
REMARK INTRA:                   0.000
REMARK UNBOUND:                 0.000
REMARK SMILES O=c1ccc2cc(O)c(O)cc2o1
REMARK SMILES IDX 4 1 3 2 2 3 1 4 13 5 12 6 11 7 9 8 7 9 6 10 5 11 8 12 10 14
REMARK H PARENT 8 13 10 15
REMARK Flexibility Score: inf
ROOT
ATOM      1  C   UNL     1      18.125   3.163 -11.885  1.00  0.00     0.019 A 
ATOM      2  C   UNL     1      18.123   2.890 -13.252  1.00  0.00     0.094 A 
ATOM      3  C   UNL     1      18.119   3.957 -14.156  1.00  0.00     0.336 A 
ATOM      4  O   UNL     1      18.118   3.731 -15.394  1.00  0.00    -0.246 OA
ATOM      5  O   UNL     1      18.118   5.213 -13.716  1.00  0.00    -0.423 OA
ATOM      6  C   UNL     1      18.120   5.517 -12.420  1.00  0.00     0.142 A 
ATOM      7  C   UNL     1      18.118   6.856 -12.017  1.00  0.00     0.098 A 
ATOM      8  C   UNL     1      18.120   7.182 -10.652  1.00  0.00     0.161 A 
ATOM      9  C   UNL     1      18.123   6.164  -9.688  1.00  0.00     0.158 A 
ATOM     10  C   UNL     1      18.125   4.820 -10.087  1.00  0.00     0.062 A 
ATOM     11  C   UNL     1      18.124   4.492 -11.450  1.00  0.00     0.022 A 
ENDROOT
BRANCH   9  12
ATOM     12  O   UNL     1      18.125   6.497  -8.334  1.00  0.00    -0.504 OA
ATOM     13  H   UNL     1      18.714   6.009  -7.669  1.00  0.00     0.293 HD
ENDBRANCH   9  12
BRANCH   8  14
ATOM     14  O   UNL     1      18.119   8.515 -10.247  1.00  0.00    -0.504 OA
ATOM     15  H   UNL     1      18.970   8.983  -9.959  1.00  0.00     0.293 HD
ENDBRANCH   8  14
TORSDOF 2
ENDMDL
MODEL 5
REMARK VINA RESULT:     0.450     20.612     21.385
REMARK INTER + INTRA:           0.477
REMARK INTER:                   0.477
REMARK INTRA:                   0.000
REMARK UNBOUND:                 0.000
REMARK SMILES O=c1ccc2cc(O)c(O)cc2o1
REMARK SMILES IDX 4 1 3 2 2 3 1 4 13 5 12 6 11 7 9 8 7 9 6 10 5 11 8 12 10 14
REMARK H PARENT 8 13 10 15
REMARK Flexibility Score: inf
ROOT
ATOM      1  C   UNL     1      -2.116   9.039 -13.922  1.00  0.00     0.019 A 
ATOM      2  C   UNL     1      -2.116   9.927 -14.997  1.00  0.00     0.094 A 
ATOM      3  C   UNL     1      -2.118  11.302 -14.739  1.00  0.00     0.336 A 
ATOM      4  O   UNL     1      -2.117  12.120 -15.695  1.00  0.00    -0.246 OA
ATOM      5  O   UNL     1      -2.119  11.753 -13.487  1.00  0.00    -0.423 OA
ATOM      6  C   UNL     1      -2.120  10.939 -12.433  1.00  0.00     0.142 A 
ATOM      7  C   UNL     1      -2.123  11.471 -11.140  1.00  0.00     0.098 A 
ATOM      8  C   UNL     1      -2.123  10.618 -10.026  1.00  0.00     0.161 A 
ATOM      9  C   UNL     1      -2.121   9.227 -10.208  1.00  0.00     0.158 A 
ATOM     10  C   UNL     1      -2.118   8.689 -11.503  1.00  0.00     0.062 A 
ATOM     11  C   UNL     1      -2.118   9.540 -12.617  1.00  0.00     0.022 A 
ENDROOT
BRANCH   9  12
ATOM     12  O   UNL     1      -2.121   8.387  -9.095  1.00  0.00    -0.504 OA
ATOM     13  H   UNL     1      -2.930   7.825  -8.855  1.00  0.00     0.293 HD
ENDBRANCH   9  12
BRANCH   8  14
ATOM     14  O   UNL     1      -2.125  11.145  -8.736  1.00  0.00    -0.504 OA
ATOM     15  H   UNL     1      -2.714  10.760  -8.007  1.00  0.00     0.293 HD
ENDBRANCH   8  14
TORSDOF 2
ENDMDL
MODEL 6
REMARK VINA RESULT:     0.451      2.401      3.138
REMARK INTER + INTRA:           0.477
REMARK INTER:                   0.477
REMARK INTRA:                   0.000
REMARK UNBOUND:                 0.000
REMARK SMILES O=c1ccc2cc(O)c(O)cc2o1
REMARK SMILES IDX 4 1 3 2 2 3 1 4 13 5 12 6 11 7 9 8 7 9 6 10 5 11 8 12 10 14
REMARK H PARENT 8 13 10 15
REMARK Flexibility Score: inf
ROOT
ATOM      1  C   UNL     1      18.110   6.828  -9.477  1.00  0.00     0.019 A 
ATOM      2  C   UNL     1      18.113   8.222  -9.474  1.00  0.00     0.094 A 
ATOM      3  C   UNL     1      18.121   8.904 -10.695  1.00  0.00     0.336 A 
ATOM      4  O   UNL     1      18.123  10.162 -10.713  1.00  0.00    -0.246 OA
ATOM      5  O   UNL     1      18.123   8.229 -11.843  1.00  0.00    -0.423 OA
ATOM      6  C   UNL     1      18.120   6.899 -11.891  1.00  0.00     0.142 A 
ATOM      7  C   UNL     1      18.125   6.245 -13.126  1.00  0.00     0.098 A 
ATOM      8  C   UNL     1      18.121   4.843 -13.184  1.00  0.00     0.161 A 
ATOM      9  C   UNL     1      18.114   4.093 -11.998  1.00  0.00     0.158 A 
ATOM     10  C   UNL     1      18.110   4.744 -10.756  1.00  0.00     0.062 A 
ATOM     11  C   UNL     1      18.113   6.145 -10.697  1.00  0.00     0.022 A 
ENDROOT
BRANCH   9  12
ATOM     12  O   UNL     1      18.111   2.701 -12.063  1.00  0.00    -0.504 OA
ATOM     13  H   UNL     1      17.752   2.209 -12.874  1.00  0.00     0.293 HD
ENDBRANCH   9  12
BRANCH   8  14
ATOM     14  O   UNL     1      18.125   4.188 -14.413  1.00  0.00    -0.504 OA
ATOM     15  H   UNL     1      18.702   3.371 -14.577  1.00  0.00     0.293 HD
ENDBRANCH   8  14
TORSDOF 2
ENDMDL
MODEL 7
REMARK VINA RESULT:     1.593     20.300     20.697
REMARK INTER + INTRA:           1.687
REMARK INTER:                   1.687
REMARK INTRA:                   0.000
REMARK UNBOUND:                 0.000
REMARK SMILES O=c1ccc2cc(O)c(O)cc2o1
REMARK SMILES IDX 4 1 3 2 2 3 1 4 13 5 12 6 11 7 9 8 7 9 6 10 5 11 8 12 10 14
REMARK H PARENT 8 13 10 15
REMARK Flexibility Score: inf
ROOT
ATOM      1  C   UNL     1      -2.124   9.110  -9.898  1.00  0.00     0.019 A 
ATOM      2  C   UNL     1      -2.124   7.763  -9.538  1.00  0.00     0.094 A 
ATOM      3  C   UNL     1      -2.123   6.792 -10.544  1.00  0.00     0.336 A 
ATOM      4  O   UNL     1      -2.122   5.571 -10.239  1.00  0.00    -0.246 OA
ATOM      5  O   UNL     1      -2.123   7.150 -11.826  1.00  0.00    -0.423 OA
ATOM      6  C   UNL     1      -2.123   8.423 -12.213  1.00  0.00     0.142 A 
ATOM      7  C   UNL     1      -2.124   8.739 -13.575  1.00  0.00     0.098 A 
ATOM      8  C   UNL     1      -2.124  10.080 -13.989  1.00  0.00     0.161 A 
ATOM      9  C   UNL     1      -2.125  11.108 -13.036  1.00  0.00     0.158 A 
ATOM     10  C   UNL     1      -2.124  10.797 -11.668  1.00  0.00     0.062 A 
ATOM     11  C   UNL     1      -2.123   9.458 -11.253  1.00  0.00     0.022 A 
ENDROOT
BRANCH   9  12
ATOM     12  O   UNL     1      -2.125  12.438 -13.455  1.00  0.00    -0.504 OA
ATOM     13  H   UNL     1      -2.593  13.162 -12.923  1.00  0.00     0.293 HD
ENDBRANCH   9  12
BRANCH   8  14
ATOM     14  O   UNL     1      -2.124  10.398 -15.346  1.00  0.00    -0.504 OA
ATOM     15  H   UNL     1      -1.675  11.237 -15.694  1.00  0.00     0.293 HD
ENDBRANCH   8  14
TORSDOF 2
ENDMDL
