MODEL 1
REMARK VINA RESULT:    -4.177      0.000      0.000
REMARK INTER + INTRA:         -13.124
REMARK INTER:                  -9.061
REMARK INTRA:                  -4.063
REMARK UNBOUND:                -4.063
REMARK SMILES CCCCCCCCCCCCCCCCCCCCCC(=O)[O-]
REMARK SMILES IDX 12 1 11 2 10 3 9 4 8 5 7 6 6 7 5 8 4 9 3 10 2 11 1 12 13 13
REMARK SMILES IDX 14 14 15 15 16 16 17 17 18 18 19 19 20 20 21 21 22 22 23 23
REMARK SMILES IDX 24 24
REMARK H PARENT
REMARK Flexibility Score: inf
ROOT
ATOM      1  C   UNL     1       8.875 -18.554  22.338  1.00  0.00     0.000 C 
ENDROOT
BRANCH   1   2
ATOM      2  C   UNL     1       8.958 -17.131  21.749  1.00  0.00     0.000 C 
BRANCH   2   3
ATOM      3  C   UNL     1       7.791 -16.747  20.822  1.00  0.00     0.000 C 
BRANCH   3   4
ATOM      4  C   UNL     1       7.042 -15.490  21.297  1.00  0.00    -0.000 C 
BRANCH   4   5
ATOM      5  C   UNL     1       7.375 -15.113  22.749  1.00  0.00    -0.000 C 
BRANCH   5   6
ATOM      6  C   UNL     1       6.156 -15.216  23.682  1.00  0.00    -0.000 C 
BRANCH   6   7
ATOM      7  C   UNL     1       6.274 -16.383  24.675  1.00  0.00    -0.000 C 
BRANCH   7   8
ATOM      8  C   UNL     1       7.327 -16.126  25.765  1.00  0.00    -0.000 C 
BRANCH   8   9
ATOM      9  C   UNL     1       8.231 -17.353  25.955  1.00  0.00    -0.000 C 
BRANCH   9  10
ATOM     10  C   UNL     1       9.711 -17.039  25.649  1.00  0.00    -0.000 C 
BRANCH  10  11
ATOM     11  C   UNL     1       9.941 -15.617  25.112  1.00  0.00    -0.003 C 
ATOM     12  C   UNL     1      11.127 -15.523  24.154  1.00  0.00     0.004 C 
ENDBRANCH  10  11
ENDBRANCH   9  10
ENDBRANCH   8   9
ENDBRANCH   7   8
ENDBRANCH   6   7
ENDBRANCH   5   6
ENDBRANCH   4   5
ENDBRANCH   3   4
ENDBRANCH   2   3
ENDBRANCH   1   2
BRANCH   1  13
ATOM     13  C   UNL     1       7.452 -19.043  22.674  1.00  0.00     0.000 C 
BRANCH  13  14
ATOM     14  C   UNL     1       7.088 -20.426  22.107  1.00  0.00     0.000 C 
BRANCH  14  15
ATOM     15  C   UNL     1       7.615 -20.644  20.679  1.00  0.00     0.000 C 
BRANCH  15  16
ATOM     16  C   UNL     1       8.236 -22.037  20.490  1.00  0.00     0.000 C 
BRANCH  16  17
ATOM     17  C   UNL     1       8.777 -22.622  21.805  1.00  0.00     0.000 C 
BRANCH  17  18
ATOM     18  C   UNL     1      10.309 -22.592  21.831  1.00  0.00     0.000 C 
BRANCH  18  19
ATOM     19  C   UNL     1      10.828 -22.184  23.218  1.00  0.00     0.000 C 
BRANCH  19  20
ATOM     20  C   UNL     1       9.737 -22.228  24.299  1.00  0.00     0.006 C 
BRANCH  20  21
ATOM     21  C   UNL     1       9.598 -20.902  25.058  1.00  0.00     0.053 C 
BRANCH  21  22
ATOM     22  C   UNL     1       8.491 -20.984  26.061  1.00  0.00     0.041 C 
ATOM     23  O   UNL     1       8.754 -21.032  27.292  1.00  0.00    -0.550 OA
ATOM     24  O   UNL     1       7.169 -21.031  25.639  1.00  0.00    -0.550 OA
ENDBRANCH  21  22
ENDBRANCH  20  21
ENDBRANCH  19  20
ENDBRANCH  18  19
ENDBRANCH  17  18
ENDBRANCH  16  17
ENDBRANCH  15  16
ENDBRANCH  14  15
ENDBRANCH  13  14
ENDBRANCH   1  13
TORSDOF 20
ENDMDL
MODEL 2
REMARK VINA RESULT:    -4.165      2.569      5.421
REMARK INTER + INTRA:         -13.098
REMARK INTER:                  -9.345
REMARK INTRA:                  -3.753
REMARK UNBOUND:                -4.063
REMARK SMILES CCCCCCCCCCCCCCCCCCCCCC(=O)[O-]
REMARK SMILES IDX 12 1 11 2 10 3 9 4 8 5 7 6 6 7 5 8 4 9 3 10 2 11 1 12 13 13
REMARK SMILES IDX 14 14 15 15 16 16 17 17 18 18 19 19 20 20 21 21 22 22 23 23
REMARK SMILES IDX 24 24
REMARK H PARENT
REMARK Flexibility Score: inf
ROOT
ATOM      1  C   UNL     1       8.480 -20.129  20.902  1.00  0.00     0.000 C 
ENDROOT
BRANCH   1   2
ATOM      2  C   UNL     1       9.401 -21.226  20.330  1.00  0.00     0.000 C 
BRANCH   2   3
ATOM      3  C   UNL     1       9.252 -22.606  20.993  1.00  0.00     0.000 C 
BRANCH   3   4
ATOM      4  C   UNL     1      10.204 -22.800  22.185  1.00  0.00    -0.000 C 
BRANCH   4   5
ATOM      5  C   UNL     1      11.425 -21.869  22.129  1.00  0.00    -0.000 C 
BRANCH   5   6
ATOM      6  C   UNL     1      11.511 -20.930  23.345  1.00  0.00    -0.000 C 
BRANCH   6   7
ATOM      7  C   UNL     1      11.530 -19.448  22.941  1.00  0.00    -0.000 C 
BRANCH   7   8
ATOM      8  C   UNL     1      10.484 -18.616  23.699  1.00  0.00    -0.000 C 
BRANCH   8   9
ATOM      9  C   UNL     1      11.074 -18.038  24.993  1.00  0.00    -0.000 C 
BRANCH   9  10
ATOM     10  C   UNL     1      11.846 -16.724  24.746  1.00  0.00    -0.000 C 
BRANCH  10  11
ATOM     11  C   UNL     1      10.944 -15.547  24.339  1.00  0.00    -0.003 C 
ATOM     12  C   UNL     1      11.591 -14.625  23.308  1.00  0.00     0.004 C 
ENDBRANCH  10  11
ENDBRANCH   9  10
ENDBRANCH   8   9
ENDBRANCH   7   8
ENDBRANCH   6   7
ENDBRANCH   5   6
ENDBRANCH   4   5
ENDBRANCH   3   4
ENDBRANCH   2   3
ENDBRANCH   1   2
BRANCH   1  13
ATOM     13  C   UNL     1       7.133 -20.629  21.458  1.00  0.00     0.000 C 
BRANCH  13  14
ATOM     14  C   UNL     1       6.834 -20.216  22.910  1.00  0.00     0.000 C 
BRANCH  14  15
ATOM     15  C   UNL     1       7.745 -20.919  23.930  1.00  0.00     0.000 C 
BRANCH  15  16
ATOM     16  C   UNL     1       7.206 -20.814  25.367  1.00  0.00     0.000 C 
BRANCH  16  17
ATOM     17  C   UNL     1       8.049 -19.873  26.242  1.00  0.00     0.000 C 
BRANCH  17  18
ATOM     18  C   UNL     1       7.217 -18.681  26.728  1.00  0.00     0.000 C 
BRANCH  18  19
ATOM     19  C   UNL     1       7.625 -17.391  26.001  1.00  0.00     0.000 C 
BRANCH  19  20
ATOM     20  C   UNL     1       6.676 -17.032  24.847  1.00  0.00     0.006 C 
BRANCH  20  21
ATOM     21  C   UNL     1       7.401 -16.379  23.663  1.00  0.00     0.053 C 
BRANCH  21  22
ATOM     22  C   UNL     1       7.147 -14.905  23.639  1.00  0.00     0.041 C 
ATOM     23  O   UNL     1       7.659 -14.159  24.515  1.00  0.00    -0.550 OA
ATOM     24  O   UNL     1       6.325 -14.355  22.664  1.00  0.00    -0.550 OA
ENDBRANCH  21  22
ENDBRANCH  20  21
ENDBRANCH  19  20
ENDBRANCH  18  19
ENDBRANCH  17  18
ENDBRANCH  16  17
ENDBRANCH  15  16
ENDBRANCH  14  15
ENDBRANCH  13  14
ENDBRANCH   1  13
TORSDOF 20
ENDMDL
MODEL 3
REMARK VINA RESULT:    -4.126      2.520      5.934
REMARK INTER + INTRA:         -13.014
REMARK INTER:                  -8.772
REMARK INTRA:                  -4.243
REMARK UNBOUND:                -4.063
REMARK SMILES CCCCCCCCCCCCCCCCCCCCCC(=O)[O-]
REMARK SMILES IDX 12 1 11 2 10 3 9 4 8 5 7 6 6 7 5 8 4 9 3 10 2 11 1 12 13 13
REMARK SMILES IDX 14 14 15 15 16 16 17 17 18 18 19 19 20 20 21 21 22 22 23 23
REMARK SMILES IDX 24 24
REMARK H PARENT
REMARK Flexibility Score: inf
ROOT
ATOM      1  C   UNL     1       6.760 -19.985  23.067  1.00  0.00     0.000 C 
ENDROOT
BRANCH   1   2
ATOM      2  C   UNL     1       7.295 -20.526  21.726  1.00  0.00     0.000 C 
BRANCH   2   3
ATOM      3  C   UNL     1       8.506 -21.468  21.845  1.00  0.00     0.000 C 
BRANCH   3   4
ATOM      4  C   UNL     1       8.804 -21.872  23.299  1.00  0.00    -0.000 C 
BRANCH   4   5
ATOM      5  C   UNL     1      10.265 -21.611  23.701  1.00  0.00    -0.000 C 
BRANCH   5   6
ATOM      6  C   UNL     1      10.710 -20.167  23.410  1.00  0.00    -0.000 C 
BRANCH   6   7
ATOM      7  C   UNL     1      10.191 -19.171  24.459  1.00  0.00    -0.000 C 
BRANCH   7   8
ATOM      8  C   UNL     1      10.832 -19.381  25.840  1.00  0.00    -0.000 C 
BRANCH   8   9
ATOM      9  C   UNL     1       9.773 -19.323  26.951  1.00  0.00    -0.000 C 
BRANCH   9  10
ATOM     10  C   UNL     1       8.491 -18.592  26.497  1.00  0.00    -0.000 C 
BRANCH  10  11
ATOM     11  C   UNL     1       7.197 -19.355  26.827  1.00  0.00    -0.003 C 
ATOM     12  C   UNL     1       7.325 -20.864  26.627  1.00  0.00     0.004 C 
ENDBRANCH  10  11
ENDBRANCH   9  10
ENDBRANCH   8   9
ENDBRANCH   7   8
ENDBRANCH   6   7
ENDBRANCH   5   6
ENDBRANCH   4   5
ENDBRANCH   3   4
ENDBRANCH   2   3
ENDBRANCH   1   2
BRANCH   1  13
ATOM     13  C   UNL     1       6.787 -18.451  23.214  1.00  0.00     0.000 C 
BRANCH  13  14
ATOM     14  C   UNL     1       7.775 -17.725  22.284  1.00  0.00     0.000 C 
BRANCH  14  15
ATOM     15  C   UNL     1       7.387 -16.259  22.028  1.00  0.00     0.000 C 
BRANCH  15  16
ATOM     16  C   UNL     1       6.841 -15.569  23.288  1.00  0.00     0.000 C 
BRANCH  16  17
ATOM     17  C   UNL     1       7.688 -14.357  23.707  1.00  0.00     0.000 C 
BRANCH  17  18
ATOM     18  C   UNL     1       8.369 -14.602  25.058  1.00  0.00     0.000 C 
BRANCH  18  19
ATOM     19  C   UNL     1       9.601 -15.506  24.898  1.00  0.00     0.000 C 
BRANCH  19  20
ATOM     20  C   UNL     1      10.644 -14.925  23.931  1.00  0.00     0.006 C 
BRANCH  20  21
ATOM     21  C   UNL     1      11.005 -15.892  22.796  1.00  0.00     0.053 C 
BRANCH  21  22
ATOM     22  C   UNL     1      12.312 -16.565  23.075  1.00  0.00     0.041 C 
ATOM     23  O   UNL     1      12.912 -17.186  22.159  1.00  0.00    -0.550 OA
ATOM     24  O   UNL     1      12.857 -16.528  24.351  1.00  0.00    -0.550 OA
ENDBRANCH  21  22
ENDBRANCH  20  21
ENDBRANCH  19  20
ENDBRANCH  18  19
ENDBRANCH  17  18
ENDBRANCH  16  17
ENDBRANCH  15  16
ENDBRANCH  14  15
ENDBRANCH  13  14
ENDBRANCH   1  13
TORSDOF 20
ENDMDL
MODEL 4
REMARK VINA RESULT:    -4.112      2.448      3.818
REMARK INTER + INTRA:         -12.983
REMARK INTER:                  -8.782
REMARK INTRA:                  -4.201
REMARK UNBOUND:                -4.063
REMARK SMILES CCCCCCCCCCCCCCCCCCCCCC(=O)[O-]
REMARK SMILES IDX 12 1 11 2 10 3 9 4 8 5 7 6 6 7 5 8 4 9 3 10 2 11 1 12 13 13
REMARK SMILES IDX 14 14 15 15 16 16 17 17 18 18 19 19 20 20 21 21 22 22 23 23
REMARK SMILES IDX 24 24
REMARK H PARENT
REMARK Flexibility Score: inf
ROOT
ATOM      1  C   UNL     1       8.323 -17.222  26.235  1.00  0.00     0.000 C 
ENDROOT
BRANCH   1   2
ATOM      2  C   UNL     1       7.940 -15.734  26.369  1.00  0.00     0.000 C 
BRANCH   2   3
ATOM      3  C   UNL     1       7.899 -14.954  25.043  1.00  0.00     0.000 C 
BRANCH   3   4
ATOM      4  C   UNL     1       6.622 -15.228  24.231  1.00  0.00    -0.000 C 
BRANCH   4   5
ATOM      5  C   UNL     1       6.762 -14.836  22.752  1.00  0.00    -0.000 C 
BRANCH   5   6
ATOM      6  C   UNL     1       7.756 -15.732  21.993  1.00  0.00    -0.000 C 
BRANCH   6   7
ATOM      7  C   UNL     1       7.508 -17.228  22.246  1.00  0.00    -0.000 C 
BRANCH   7   8
ATOM      8  C   UNL     1       8.798 -17.989  22.591  1.00  0.00    -0.000 C 
BRANCH   8   9
ATOM      9  C   UNL     1      10.010 -17.046  22.585  1.00  0.00    -0.000 C 
BRANCH   9  10
ATOM     10  C   UNL     1      10.913 -17.251  23.820  1.00  0.00    -0.000 C 
BRANCH  10  11
ATOM     11  C   UNL     1      11.626 -15.969  24.282  1.00  0.00    -0.003 C 
ATOM     12  C   UNL     1      11.136 -14.718  23.556  1.00  0.00     0.004 C 
ENDBRANCH  10  11
ENDBRANCH   9  10
ENDBRANCH   8   9
ENDBRANCH   7   8
ENDBRANCH   6   7
ENDBRANCH   5   6
ENDBRANCH   4   5
ENDBRANCH   3   4
ENDBRANCH   2   3
ENDBRANCH   1   2
BRANCH   1  13
ATOM     13  C   UNL     1       7.137 -18.192  26.070  1.00  0.00     0.000 C 
BRANCH  13  14
ATOM     14  C   UNL     1       7.163 -19.418  27.000  1.00  0.00     0.000 C 
BRANCH  14  15
ATOM     15  C   UNL     1       7.137 -20.750  26.234  1.00  0.00     0.000 C 
BRANCH  15  16
ATOM     16  C   UNL     1       7.549 -20.587  24.762  1.00  0.00     0.000 C 
BRANCH  16  17
ATOM     17  C   UNL     1       8.696 -21.531  24.365  1.00  0.00     0.000 C 
BRANCH  17  18
ATOM     18  C   UNL     1      10.053 -20.831  24.495  1.00  0.00     0.000 C 
BRANCH  18  19
ATOM     19  C   UNL     1      10.919 -21.504  25.571  1.00  0.00     0.000 C 
BRANCH  19  20
ATOM     20  C   UNL     1      10.694 -20.913  26.971  1.00  0.00     0.006 C 
BRANCH  20  21
ATOM     21  C   UNL     1      11.121 -19.443  27.072  1.00  0.00     0.053 C 
BRANCH  21  22
ATOM     22  C   UNL     1      12.612 -19.323  27.020  1.00  0.00     0.041 C 
ATOM     23  O   UNL     1      13.170 -18.786  26.029  1.00  0.00    -0.550 OA
ATOM     24  O   UNL     1      13.388 -19.828  28.056  1.00  0.00    -0.550 OA
ENDBRANCH  21  22
ENDBRANCH  20  21
ENDBRANCH  19  20
ENDBRANCH  18  19
ENDBRANCH  17  18
ENDBRANCH  16  17
ENDBRANCH  15  16
ENDBRANCH  14  15
ENDBRANCH  13  14
ENDBRANCH   1  13
TORSDOF 20
ENDMDL
MODEL 5
REMARK VINA RESULT:    -4.104      2.768      5.639
REMARK INTER + INTRA:         -12.965
REMARK INTER:                  -9.474
REMARK INTRA:                  -3.491
REMARK UNBOUND:                -4.063
REMARK SMILES CCCCCCCCCCCCCCCCCCCCCC(=O)[O-]
REMARK SMILES IDX 12 1 11 2 10 3 9 4 8 5 7 6 6 7 5 8 4 9 3 10 2 11 1 12 13 13
REMARK SMILES IDX 14 14 15 15 16 16 17 17 18 18 19 19 20 20 21 21 22 22 23 23
REMARK SMILES IDX 24 24
REMARK H PARENT
REMARK Flexibility Score: inf
ROOT
ATOM      1  C   UNL     1       6.848 -15.497  23.356  1.00  0.00     0.000 C 
ENDROOT
BRANCH   1   2
ATOM      2  C   UNL     1       6.201 -16.467  24.364  1.00  0.00     0.000 C 
BRANCH   2   3
ATOM      3  C   UNL     1       6.811 -17.880  24.384  1.00  0.00     0.000 C 
BRANCH   3   4
ATOM      4  C   UNL     1       7.299 -18.337  22.999  1.00  0.00    -0.000 C 
BRANCH   4   5
ATOM      5  C   UNL     1       6.937 -19.799  22.693  1.00  0.00    -0.000 C 
BRANCH   5   6
ATOM      6  C   UNL     1       7.926 -20.463  21.719  1.00  0.00    -0.000 C 
BRANCH   6   7
ATOM      7  C   UNL     1       9.089 -21.157  22.446  1.00  0.00    -0.000 C 
BRANCH   7   8
ATOM      8  C   UNL     1       8.643 -21.856  23.740  1.00  0.00    -0.000 C 
BRANCH   8   9
ATOM      9  C   UNL     1       9.597 -21.527  24.898  1.00  0.00    -0.000 C 
BRANCH   9  10
ATOM     10  C   UNL     1       8.865 -20.868  26.087  1.00  0.00    -0.000 C 
BRANCH  10  11
ATOM     11  C   UNL     1       7.339 -21.054  26.050  1.00  0.00    -0.003 C 
ATOM     12  C   UNL     1       6.655 -20.645  27.353  1.00  0.00     0.004 C 
ENDBRANCH  10  11
ENDBRANCH   9  10
ENDBRANCH   8   9
ENDBRANCH   7   8
ENDBRANCH   6   7
ENDBRANCH   5   6
ENDBRANCH   4   5
ENDBRANCH   3   4
ENDBRANCH   2   3
ENDBRANCH   1   2
BRANCH   1  13
ATOM     13  C   UNL     1       7.586 -14.297  23.981  1.00  0.00     0.000 C 
BRANCH  13  14
ATOM     14  C   UNL     1       8.613 -14.660  25.070  1.00  0.00     0.000 C 
BRANCH  14  15
ATOM     15  C   UNL     1       9.881 -15.315  24.499  1.00  0.00     0.000 C 
BRANCH  15  16
ATOM     16  C   UNL     1      10.544 -16.277  25.498  1.00  0.00     0.000 C 
BRANCH  16  17
ATOM     17  C   UNL     1      10.382 -17.751  25.090  1.00  0.00     0.000 C 
BRANCH  17  18
ATOM     18  C   UNL     1      10.873 -17.981  23.657  1.00  0.00     0.000 C 
BRANCH  18  19
ATOM     19  C   UNL     1      12.048 -18.970  23.630  1.00  0.00     0.000 C 
BRANCH  19  20
ATOM     20  C   UNL     1      13.371 -18.336  24.088  1.00  0.00     0.006 C 
BRANCH  20  21
ATOM     21  C   UNL     1      14.441 -19.380  24.436  1.00  0.00     0.053 C 
BRANCH  21  22
ATOM     22  C   UNL     1      14.618 -19.478  25.918  1.00  0.00     0.041 C 
ATOM     23  O   UNL     1      15.243 -20.449  26.419  1.00  0.00    -0.550 OA
ATOM     24  O   UNL     1      14.072 -18.510  26.751  1.00  0.00    -0.550 OA
ENDBRANCH  21  22
ENDBRANCH  20  21
ENDBRANCH  19  20
ENDBRANCH  18  19
ENDBRANCH  17  18
ENDBRANCH  16  17
ENDBRANCH  15  16
ENDBRANCH  14  15
ENDBRANCH  13  14
ENDBRANCH   1  13
TORSDOF 20
ENDMDL
MODEL 6
REMARK VINA RESULT:    -4.087      2.425      5.506
REMARK INTER + INTRA:         -12.929
REMARK INTER:                  -8.712
REMARK INTRA:                  -4.217
REMARK UNBOUND:                -4.063
REMARK SMILES CCCCCCCCCCCCCCCCCCCCCC(=O)[O-]
REMARK SMILES IDX 12 1 11 2 10 3 9 4 8 5 7 6 6 7 5 8 4 9 3 10 2 11 1 12 13 13
REMARK SMILES IDX 14 14 15 15 16 16 17 17 18 18 19 19 20 20 21 21 22 22 23 23
REMARK SMILES IDX 24 24
REMARK H PARENT
REMARK Flexibility Score: inf
ROOT
ATOM      1  C   UNL     1       7.389 -14.751  23.992  1.00  0.00     0.000 C 
ENDROOT
BRANCH   1   2
ATOM      2  C   UNL     1       7.384 -16.057  23.173  1.00  0.00     0.000 C 
BRANCH   2   3
ATOM      3  C   UNL     1       6.820 -17.283  23.914  1.00  0.00     0.000 C 
BRANCH   3   4
ATOM      4  C   UNL     1       6.638 -17.035  25.421  1.00  0.00    -0.000 C 
BRANCH   4   5
ATOM      5  C   UNL     1       7.658 -17.803  26.277  1.00  0.00    -0.000 C 
BRANCH   5   6
ATOM      6  C   UNL     1       7.342 -19.306  26.368  1.00  0.00    -0.000 C 
BRANCH   6   7
ATOM      7  C   UNL     1       8.577 -20.144  26.734  1.00  0.00    -0.000 C 
BRANCH   7   8
ATOM      8  C   UNL     1       9.146 -20.914  25.532  1.00  0.00    -0.000 C 
BRANCH   8   9
ATOM      9  C   UNL     1       8.103 -21.030  24.411  1.00  0.00    -0.000 C 
BRANCH   9  10
ATOM     10  C   UNL     1       8.589 -21.929  23.254  1.00  0.00    -0.000 C 
BRANCH  10  11
ATOM     11  C   UNL     1       9.978 -22.544  23.493  1.00  0.00    -0.003 C 
ATOM     12  C   UNL     1      10.720 -22.867  22.198  1.00  0.00     0.004 C 
ENDBRANCH  10  11
ENDBRANCH   9  10
ENDBRANCH   8   9
ENDBRANCH   7   8
ENDBRANCH   6   7
ENDBRANCH   5   6
ENDBRANCH   4   5
ENDBRANCH   3   4
ENDBRANCH   2   3
ENDBRANCH   1   2
BRANCH   1  13
ATOM     13  C   UNL     1       8.741 -14.387  24.637  1.00  0.00     0.000 C 
BRANCH  13  14
ATOM     14  C   UNL     1       9.950 -15.180  24.108  1.00  0.00     0.000 C 
BRANCH  14  15
ATOM     15  C   UNL     1      10.609 -16.054  25.188  1.00  0.00     0.000 C 
BRANCH  15  16
ATOM     16  C   UNL     1      11.316 -17.284  24.596  1.00  0.00     0.000 C 
BRANCH  16  17
ATOM     17  C   UNL     1      10.425 -18.056  23.610  1.00  0.00     0.000 C 
BRANCH  17  18
ATOM     18  C   UNL     1      11.239 -19.091  22.826  1.00  0.00     0.000 C 
BRANCH  18  19
ATOM     19  C   UNL     1      10.636 -19.326  21.433  1.00  0.00     0.000 C 
BRANCH  19  20
ATOM     20  C   UNL     1       9.368 -18.494  21.184  1.00  0.00     0.006 C 
BRANCH  20  21
ATOM     21  C   UNL     1       8.158 -19.356  20.804  1.00  0.00     0.053 C 
BRANCH  21  22
ATOM     22  C   UNL     1       8.473 -20.210  19.616  1.00  0.00     0.041 C 
ATOM     23  O   UNL     1       8.423 -21.464  19.707  1.00  0.00    -0.550 OA
ATOM     24  O   UNL     1       8.845 -19.623  18.414  1.00  0.00    -0.550 OA
ENDBRANCH  21  22
ENDBRANCH  20  21
ENDBRANCH  19  20
ENDBRANCH  18  19
ENDBRANCH  17  18
ENDBRANCH  16  17
ENDBRANCH  15  16
ENDBRANCH  14  15
ENDBRANCH  13  14
ENDBRANCH   1  13
TORSDOF 20
ENDMDL
MODEL 7
REMARK VINA RESULT:    -4.069      2.290      5.687
REMARK INTER + INTRA:         -12.890
REMARK INTER:                  -9.059
REMARK INTRA:                  -3.831
REMARK UNBOUND:                -4.063
REMARK SMILES CCCCCCCCCCCCCCCCCCCCCC(=O)[O-]
REMARK SMILES IDX 12 1 11 2 10 3 9 4 8 5 7 6 6 7 5 8 4 9 3 10 2 11 1 12 13 13
REMARK SMILES IDX 14 14 15 15 16 16 17 17 18 18 19 19 20 20 21 21 22 22 23 23
REMARK SMILES IDX 24 24
REMARK H PARENT
REMARK Flexibility Score: inf
ROOT
ATOM      1  C   UNL     1       6.903 -17.307  24.665  1.00  0.00     0.000 C 
ENDROOT
BRANCH   1   2
ATOM      2  C   UNL     1       7.126 -17.624  26.157  1.00  0.00     0.000 C 
BRANCH   2   3
ATOM      3  C   UNL     1       7.828 -18.965  26.435  1.00  0.00     0.000 C 
BRANCH   3   4
ATOM      4  C   UNL     1       7.230 -20.128  25.626  1.00  0.00    -0.000 C 
BRANCH   4   5
ATOM      5  C   UNL     1       8.291 -21.138  25.163  1.00  0.00    -0.000 C 
BRANCH   5   6
ATOM      6  C   UNL     1       8.224 -21.417  23.651  1.00  0.00    -0.000 C 
BRANCH   6   7
ATOM      7  C   UNL     1       7.411 -20.355  22.894  1.00  0.00    -0.000 C 
BRANCH   7   8
ATOM      8  C   UNL     1       7.084 -20.778  21.454  1.00  0.00    -0.000 C 
BRANCH   8   9
ATOM      9  C   UNL     1       7.911 -19.969  20.443  1.00  0.00    -0.000 C 
BRANCH   9  10
ATOM     10  C   UNL     1       7.757 -18.448  20.650  1.00  0.00    -0.000 C 
BRANCH  10  11
ATOM     11  C   UNL     1       9.040 -17.653  20.351  1.00  0.00    -0.003 C 
ATOM     12  C   UNL     1       9.060 -16.279  21.017  1.00  0.00     0.004 C 
ENDBRANCH  10  11
ENDBRANCH   9  10
ENDBRANCH   8   9
ENDBRANCH   7   8
ENDBRANCH   6   7
ENDBRANCH   5   6
ENDBRANCH   4   5
ENDBRANCH   3   4
ENDBRANCH   2   3
ENDBRANCH   1   2
BRANCH   1  13
ATOM     13  C   UNL     1       6.242 -15.945  24.376  1.00  0.00     0.000 C 
BRANCH  13  14
ATOM     14  C   UNL     1       7.192 -14.863  23.830  1.00  0.00     0.000 C 
BRANCH  14  15
ATOM     15  C   UNL     1       8.260 -14.437  24.851  1.00  0.00     0.000 C 
BRANCH  15  16
ATOM     16  C   UNL     1       9.687 -14.742  24.366  1.00  0.00     0.000 C 
BRANCH  16  17
ATOM     17  C   UNL     1      10.316 -15.934  25.106  1.00  0.00     0.000 C 
BRANCH  17  18
ATOM     18  C   UNL     1      11.129 -16.809  24.146  1.00  0.00     0.000 C 
BRANCH  18  19
ATOM     19  C   UNL     1      10.459 -18.178  23.948  1.00  0.00     0.000 C 
BRANCH  19  20
ATOM     20  C   UNL     1      11.382 -19.351  24.315  1.00  0.00     0.006 C 
BRANCH  20  21
ATOM     21  C   UNL     1      11.579 -19.501  25.828  1.00  0.00     0.053 C 
BRANCH  21  22
ATOM     22  C   UNL     1      13.016 -19.298  26.194  1.00  0.00     0.041 C 
ATOM     23  O   UNL     1      13.835 -18.881  25.335  1.00  0.00    -0.550 OA
ATOM     24  O   UNL     1      13.457 -19.593  27.478  1.00  0.00    -0.550 OA
ENDBRANCH  21  22
ENDBRANCH  20  21
ENDBRANCH  19  20
ENDBRANCH  18  19
ENDBRANCH  17  18
ENDBRANCH  16  17
ENDBRANCH  15  16
ENDBRANCH  14  15
ENDBRANCH  13  14
ENDBRANCH   1  13
TORSDOF 20
ENDMDL
MODEL 8
REMARK VINA RESULT:    -4.055      2.625      4.559
REMARK INTER + INTRA:         -12.858
REMARK INTER:                  -9.096
REMARK INTRA:                  -3.763
REMARK UNBOUND:                -4.063
REMARK SMILES CCCCCCCCCCCCCCCCCCCCCC(=O)[O-]
REMARK SMILES IDX 12 1 11 2 10 3 9 4 8 5 7 6 6 7 5 8 4 9 3 10 2 11 1 12 13 13
REMARK SMILES IDX 14 14 15 15 16 16 17 17 18 18 19 19 20 20 21 21 22 22 23 23
REMARK SMILES IDX 24 24
REMARK H PARENT
REMARK Flexibility Score: inf
ROOT
ATOM      1  C   UNL     1       7.292 -20.333  23.925  1.00  0.00     0.000 C 
ENDROOT
BRANCH   1   2
ATOM      2  C   UNL     1       7.321 -21.049  25.291  1.00  0.00     0.000 C 
BRANCH   2   3
ATOM      3  C   UNL     1       7.988 -20.250  26.425  1.00  0.00     0.000 C 
BRANCH   3   4
ATOM      4  C   UNL     1       7.805 -18.731  26.270  1.00  0.00    -0.000 C 
BRANCH   4   5
ATOM      5  C   UNL     1       9.139 -17.967  26.285  1.00  0.00    -0.000 C 
BRANCH   5   6
ATOM      6  C   UNL     1      10.093 -18.419  25.166  1.00  0.00    -0.000 C 
BRANCH   6   7
ATOM      7  C   UNL     1      10.875 -17.247  24.552  1.00  0.00    -0.000 C 
BRANCH   7   8
ATOM      8  C   UNL     1      10.565 -15.908  25.238  1.00  0.00    -0.000 C 
BRANCH   8   9
ATOM      9  C   UNL     1       9.810 -14.965  24.288  1.00  0.00    -0.000 C 
BRANCH   9  10
ATOM     10  C   UNL     1       8.421 -14.574  24.836  1.00  0.00    -0.000 C 
BRANCH  10  11
ATOM     11  C   UNL     1       7.281 -15.469  24.321  1.00  0.00    -0.003 C 
ATOM     12  C   UNL     1       7.627 -16.188  23.019  1.00  0.00     0.004 C 
ENDBRANCH  10  11
ENDBRANCH   9  10
ENDBRANCH   8   9
ENDBRANCH   7   8
ENDBRANCH   6   7
ENDBRANCH   5   6
ENDBRANCH   4   5
ENDBRANCH   3   4
ENDBRANCH   2   3
ENDBRANCH   1   2
BRANCH   1  13
ATOM     13  C   UNL     1       8.378 -20.779  22.927  1.00  0.00     0.000 C 
BRANCH  13  14
ATOM     14  C   UNL     1       8.625 -22.297  22.869  1.00  0.00     0.000 C 
BRANCH  14  15
ATOM     15  C   UNL     1      10.110 -22.666  23.014  1.00  0.00     0.000 C 
BRANCH  15  16
ATOM     16  C   UNL     1      10.824 -21.816  24.077  1.00  0.00     0.000 C 
BRANCH  16  17
ATOM     17  C   UNL     1      11.153 -22.617  25.347  1.00  0.00     0.000 C 
BRANCH  17  18
ATOM     18  C   UNL     1      11.233 -21.699  26.572  1.00  0.00     0.000 C 
BRANCH  18  19
ATOM     19  C   UNL     1      12.645 -21.116  26.732  1.00  0.00     0.000 C 
BRANCH  19  20
ATOM     20  C   UNL     1      12.646 -19.733  27.402  1.00  0.00     0.006 C 
BRANCH  20  21
ATOM     21  C   UNL     1      11.675 -19.646  28.587  1.00  0.00     0.053 C 
BRANCH  21  22
ATOM     22  C   UNL     1      12.332 -20.129  29.841  1.00  0.00     0.041 C 
ATOM     23  O   UNL     1      13.307 -19.500  30.329  1.00  0.00    -0.550 OA
ATOM     24  O   UNL     1      11.883 -21.288  30.461  1.00  0.00    -0.550 OA
ENDBRANCH  21  22
ENDBRANCH  20  21
ENDBRANCH  19  20
ENDBRANCH  18  19
ENDBRANCH  17  18
ENDBRANCH  16  17
ENDBRANCH  15  16
ENDBRANCH  14  15
ENDBRANCH  13  14
ENDBRANCH   1  13
TORSDOF 20
ENDMDL
MODEL 9
REMARK VINA RESULT:    -4.049      1.865      2.673
REMARK INTER + INTRA:         -12.846
REMARK INTER:                  -9.229
REMARK INTRA:                  -3.617
REMARK UNBOUND:                -4.063
REMARK SMILES CCCCCCCCCCCCCCCCCCCCCC(=O)[O-]
REMARK SMILES IDX 12 1 11 2 10 3 9 4 8 5 7 6 6 7 5 8 4 9 3 10 2 11 1 12 13 13
REMARK SMILES IDX 14 14 15 15 16 16 17 17 18 18 19 19 20 20 21 21 22 22 23 23
REMARK SMILES IDX 24 24
REMARK H PARENT
REMARK Flexibility Score: inf
ROOT
ATOM      1  C   UNL     1       8.039 -15.942  20.347  1.00  0.00     0.000 C 
ENDROOT
BRANCH   1   2
ATOM      2  C   UNL     1       6.725 -15.279  19.889  1.00  0.00     0.000 C 
BRANCH   2   3
ATOM      3  C   UNL     1       6.405 -13.938  20.572  1.00  0.00     0.000 C 
BRANCH   3   4
ATOM      4  C   UNL     1       5.631 -14.110  21.890  1.00  0.00    -0.000 C 
BRANCH   4   5
ATOM      5  C   UNL     1       6.548 -14.437  23.079  1.00  0.00    -0.000 C 
BRANCH   5   6
ATOM      6  C   UNL     1       5.959 -15.520  24.000  1.00  0.00    -0.000 C 
BRANCH   6   7
ATOM      7  C   UNL     1       6.740 -16.841  23.926  1.00  0.00    -0.000 C 
BRANCH   7   8
ATOM      8  C   UNL     1       7.405 -17.209  25.261  1.00  0.00    -0.000 C 
BRANCH   8   9
ATOM      9  C   UNL     1       8.924 -17.365  25.094  1.00  0.00    -0.000 C 
BRANCH   9  10
ATOM     10  C   UNL     1       9.416 -16.846  23.726  1.00  0.00    -0.000 C 
BRANCH  10  11
ATOM     11  C   UNL     1      10.804 -17.377  23.328  1.00  0.00    -0.003 C 
ATOM     12  C   UNL     1      10.798 -18.865  22.980  1.00  0.00     0.004 C 
ENDBRANCH  10  11
ENDBRANCH   9  10
ENDBRANCH   8   9
ENDBRANCH   7   8
ENDBRANCH   6   7
ENDBRANCH   5   6
ENDBRANCH   4   5
ENDBRANCH   3   4
ENDBRANCH   2   3
ENDBRANCH   1   2
BRANCH   1  13
ATOM     13  C   UNL     1       8.221 -17.409  19.910  1.00  0.00     0.000 C 
BRANCH  13  14
ATOM     14  C   UNL     1       7.738 -18.457  20.927  1.00  0.00     0.000 C 
BRANCH  14  15
ATOM     15  C   UNL     1       7.964 -19.901  20.450  1.00  0.00     0.000 C 
BRANCH  15  16
ATOM     16  C   UNL     1       7.757 -20.929  21.575  1.00  0.00     0.000 C 
BRANCH  16  17
ATOM     17  C   UNL     1       7.339 -20.273  22.900  1.00  0.00     0.000 C 
BRANCH  17  18
ATOM     18  C   UNL     1       7.963 -21.003  24.095  1.00  0.00     0.000 C 
BRANCH  18  19
ATOM     19  C   UNL     1       7.068 -20.887  25.339  1.00  0.00     0.000 C 
BRANCH  19  20
ATOM     20  C   UNL     1       7.871 -20.681  26.633  1.00  0.00     0.006 C 
BRANCH  20  21
ATOM     21  C   UNL     1       9.385 -20.802  26.419  1.00  0.00     0.053 C 
BRANCH  21  22
ATOM     22  C   UNL     1      10.126 -20.391  27.652  1.00  0.00     0.041 C 
ATOM     23  O   UNL     1      10.261 -21.198  28.608  1.00  0.00    -0.550 OA
ATOM     24  O   UNL     1      10.646 -19.107  27.757  1.00  0.00    -0.550 OA
ENDBRANCH  21  22
ENDBRANCH  20  21
ENDBRANCH  19  20
ENDBRANCH  18  19
ENDBRANCH  17  18
ENDBRANCH  16  17
ENDBRANCH  15  16
ENDBRANCH  14  15
ENDBRANCH  13  14
ENDBRANCH   1  13
TORSDOF 20
ENDMDL
