MODEL 1
REMARK VINA RESULT:    -4.553      0.000      0.000
REMARK INTER + INTRA:          -8.726
REMARK INTER:                  -7.214
REMARK INTRA:                  -1.512
REMARK UNBOUND:                -1.512
REMARK SMILES CCCCCCCCCCCC(=O)[O-]
REMARK SMILES IDX 7 1 8 2 9 3 10 4 11 5 12 6 13 7 14 8 6 9 5 10 4 11 3 12 2 13
REMARK SMILES IDX 1 14
REMARK H PARENT
REMARK Flexibility Score: inf
ROOT
ATOM      1  C   UNL     1     -19.427  55.351  -3.266  1.00  0.00     0.000 C 
ENDROOT
BRANCH   1   2
ATOM      2  C   UNL     1     -18.929  53.902  -3.142  1.00  0.00     0.000 C 
BRANCH   2   3
ATOM      3  C   UNL     1     -19.891  53.016  -2.331  1.00  0.00     0.000 C 
BRANCH   3   4
ATOM      4  C   UNL     1     -21.089  53.802  -1.774  1.00  0.00     0.006 C 
BRANCH   4   5
ATOM      5  C   UNL     1     -21.528  53.308  -0.389  1.00  0.00     0.053 C 
BRANCH   5   6
ATOM      6  C   UNL     1     -22.660  54.140   0.127  1.00  0.00     0.041 C 
ATOM      7  O   UNL     1     -22.982  55.205  -0.461  1.00  0.00    -0.550 OA
ATOM      8  O   UNL     1     -23.326  53.764   1.287  1.00  0.00    -0.550 OA
ENDBRANCH   5   6
ENDBRANCH   4   5
ENDBRANCH   3   4
ENDBRANCH   2   3
ENDBRANCH   1   2
BRANCH   1   9
ATOM      9  C   UNL     1     -18.318  56.324  -3.709  1.00  0.00     0.000 C 
BRANCH   9  10
ATOM     10  C   UNL     1     -17.026  56.160  -2.895  1.00  0.00    -0.000 C 
BRANCH  10  11
ATOM     11  C   UNL     1     -17.167  56.673  -1.452  1.00  0.00    -0.000 C 
BRANCH  11  12
ATOM     12  C   UNL     1     -16.961  55.564  -0.407  1.00  0.00    -0.000 C 
BRANCH  12  13
ATOM     13  C   UNL     1     -18.261  55.184   0.318  1.00  0.00    -0.003 C 
ATOM     14  C   UNL     1     -19.259  56.339   0.294  1.00  0.00     0.004 C 
ENDBRANCH  12  13
ENDBRANCH  11  12
ENDBRANCH  10  11
ENDBRANCH   9  10
ENDBRANCH   1   9
TORSDOF 10
ENDMDL
MODEL 2
REMARK VINA RESULT:    -4.530      2.618      4.719
REMARK INTER + INTRA:          -8.691
REMARK INTER:                  -7.558
REMARK INTRA:                  -1.133
REMARK UNBOUND:                -1.512
REMARK SMILES CCCCCCCCCCCC(=O)[O-]
REMARK SMILES IDX 7 1 8 2 9 3 10 4 11 5 12 6 13 7 14 8 6 9 5 10 4 11 3 12 2 13
REMARK SMILES IDX 1 14
REMARK H PARENT
REMARK Flexibility Score: inf
ROOT
ATOM      1  C   UNL     1     -19.638  56.241  -2.701  1.00  0.00     0.000 C 
ENDROOT
BRANCH   1   2
ATOM      2  C   UNL     1     -18.444  56.590  -3.604  1.00  0.00     0.000 C 
BRANCH   2   3
ATOM      3  C   UNL     1     -17.136  55.930  -3.133  1.00  0.00     0.000 C 
BRANCH   3   4
ATOM      4  C   UNL     1     -17.371  54.562  -2.472  1.00  0.00     0.006 C 
BRANCH   4   5
ATOM      5  C   UNL     1     -16.553  54.378  -1.186  1.00  0.00     0.053 C 
BRANCH   5   6
ATOM      6  C   UNL     1     -16.990  55.360  -0.145  1.00  0.00     0.041 C 
ATOM      7  O   UNL     1     -18.134  55.268   0.372  1.00  0.00    -0.550 OA
ATOM      8  O   UNL     1     -16.153  56.408   0.217  1.00  0.00    -0.550 OA
ENDBRANCH   5   6
ENDBRANCH   4   5
ENDBRANCH   3   4
ENDBRANCH   2   3
ENDBRANCH   1   2
BRANCH   1   9
ATOM      9  C   UNL     1     -20.992  56.595  -3.344  1.00  0.00     0.000 C 
BRANCH   9  10
ATOM     10  C   UNL     1     -22.031  55.474  -3.192  1.00  0.00    -0.000 C 
BRANCH  10  11
ATOM     11  C   UNL     1     -22.428  55.232  -1.725  1.00  0.00    -0.000 C 
BRANCH  11  12
ATOM     12  C   UNL     1     -22.333  53.751  -1.324  1.00  0.00    -0.000 C 
BRANCH  12  13
ATOM     13  C   UNL     1     -20.975  53.391  -0.704  1.00  0.00    -0.003 C 
ATOM     14  C   UNL     1     -20.209  52.414  -1.593  1.00  0.00     0.004 C 
ENDBRANCH  12  13
ENDBRANCH  11  12
ENDBRANCH  10  11
ENDBRANCH   9  10
ENDBRANCH   1   9
TORSDOF 10
ENDMDL
MODEL 3
REMARK VINA RESULT:    -4.501      2.162      4.122
REMARK INTER + INTRA:          -8.644
REMARK INTER:                  -7.185
REMARK INTRA:                  -1.459
REMARK UNBOUND:                -1.512
REMARK SMILES CCCCCCCCCCCC(=O)[O-]
REMARK SMILES IDX 7 1 8 2 9 3 10 4 11 5 12 6 13 7 14 8 6 9 5 10 4 11 3 12 2 13
REMARK SMILES IDX 1 14
REMARK H PARENT
REMARK Flexibility Score: inf
ROOT
ATOM      1  C   UNL     1     -18.960  56.477  -3.364  1.00  0.00     0.000 C 
ENDROOT
BRANCH   1   2
ATOM      2  C   UNL     1     -18.450  55.042  -3.577  1.00  0.00     0.000 C 
BRANCH   2   3
ATOM      3  C   UNL     1     -17.642  54.519  -2.376  1.00  0.00     0.000 C 
BRANCH   3   4
ATOM      4  C   UNL     1     -17.168  55.649  -1.447  1.00  0.00     0.006 C 
BRANCH   4   5
ATOM      5  C   UNL     1     -17.697  55.497  -0.014  1.00  0.00     0.053 C 
BRANCH   5   6
ATOM      6  C   UNL     1     -18.473  56.712   0.386  1.00  0.00     0.041 C 
ATOM      7  O   UNL     1     -17.871  57.774   0.696  1.00  0.00    -0.550 OA
ATOM      8  O   UNL     1     -19.859  56.657   0.465  1.00  0.00    -0.550 OA
ENDBRANCH   5   6
ENDBRANCH   4   5
ENDBRANCH   3   4
ENDBRANCH   2   3
ENDBRANCH   1   2
BRANCH   1   9
ATOM      9  C   UNL     1     -20.492  56.549  -3.230  1.00  0.00     0.000 C 
BRANCH   9  10
ATOM     10  C   UNL     1     -21.138  55.166  -3.061  1.00  0.00    -0.000 C 
BRANCH  10  11
ATOM     11  C   UNL     1     -21.980  55.060  -1.778  1.00  0.00    -0.000 C 
BRANCH  11  12
ATOM     12  C   UNL     1     -21.994  53.637  -1.197  1.00  0.00    -0.000 C 
BRANCH  12  13
ATOM     13  C   UNL     1     -20.683  53.274  -0.484  1.00  0.00    -0.003 C 
ATOM     14  C   UNL     1     -20.019  52.066  -1.139  1.00  0.00     0.004 C 
ENDBRANCH  12  13
ENDBRANCH  11  12
ENDBRANCH  10  11
ENDBRANCH   9  10
ENDBRANCH   1   9
TORSDOF 10
ENDMDL
MODEL 4
REMARK VINA RESULT:    -4.482      3.785      5.848
REMARK INTER + INTRA:          -8.614
REMARK INTER:                  -7.305
REMARK INTRA:                  -1.309
REMARK UNBOUND:                -1.512
REMARK SMILES CCCCCCCCCCCC(=O)[O-]
REMARK SMILES IDX 7 1 8 2 9 3 10 4 11 5 12 6 13 7 14 8 6 9 5 10 4 11 3 12 2 13
REMARK SMILES IDX 1 14
REMARK H PARENT
REMARK Flexibility Score: inf
ROOT
ATOM      1  C   UNL     1     -18.455  53.950  -0.262  1.00  0.00     0.000 C 
ENDROOT
BRANCH   1   2
ATOM      2  C   UNL     1     -17.741  55.106   0.456  1.00  0.00     0.000 C 
BRANCH   2   3
ATOM      3  C   UNL     1     -18.452  56.456   0.252  1.00  0.00     0.000 C 
BRANCH   3   4
ATOM      4  C   UNL     1     -17.604  57.647   0.727  1.00  0.00     0.006 C 
BRANCH   4   5
ATOM      5  C   UNL     1     -16.103  57.326   0.768  1.00  0.00     0.053 C 
BRANCH   5   6
ATOM      6  C   UNL     1     -15.304  58.586   0.879  1.00  0.00     0.041 C 
ATOM      7  O   UNL     1     -15.776  59.674   0.459  1.00  0.00    -0.550 OA
ATOM      8  O   UNL     1     -14.017  58.548   1.402  1.00  0.00    -0.550 OA
ENDBRANCH   5   6
ENDBRANCH   4   5
ENDBRANCH   3   4
ENDBRANCH   2   3
ENDBRANCH   1   2
BRANCH   1   9
ATOM      9  C   UNL     1     -19.848  54.345  -0.786  1.00  0.00     0.000 C 
BRANCH   9  10
ATOM     10  C   UNL     1     -19.966  54.214  -2.312  1.00  0.00    -0.000 C 
BRANCH  10  11
ATOM     11  C   UNL     1     -20.547  55.477  -2.970  1.00  0.00    -0.000 C 
BRANCH  11  12
ATOM     12  C   UNL     1     -19.462  56.499  -3.347  1.00  0.00    -0.000 C 
BRANCH  12  13
ATOM     13  C   UNL     1     -18.153  55.833  -3.798  1.00  0.00    -0.003 C 
ATOM     14  C   UNL     1     -16.942  56.552  -3.210  1.00  0.00     0.004 C 
ENDBRANCH  12  13
ENDBRANCH  11  12
ENDBRANCH  10  11
ENDBRANCH   9  10
ENDBRANCH   1   9
TORSDOF 10
ENDMDL
MODEL 5
REMARK VINA RESULT:    -4.462      3.011      4.446
REMARK INTER + INTRA:          -8.583
REMARK INTER:                  -7.778
REMARK INTRA:                  -0.805
REMARK UNBOUND:                -1.512
REMARK SMILES CCCCCCCCCCCC(=O)[O-]
REMARK SMILES IDX 7 1 8 2 9 3 10 4 11 5 12 6 13 7 14 8 6 9 5 10 4 11 3 12 2 13
REMARK SMILES IDX 1 14
REMARK H PARENT
REMARK Flexibility Score: inf
ROOT
ATOM      1  C   UNL     1     -20.350  55.228  -0.492  1.00  0.00     0.000 C 
ENDROOT
BRANCH   1   2
ATOM      2  C   UNL     1     -19.339  54.112  -0.800  1.00  0.00     0.000 C 
BRANCH   2   3
ATOM      3  C   UNL     1     -19.664  53.366  -2.106  1.00  0.00     0.000 C 
BRANCH   3   4
ATOM      4  C   UNL     1     -18.938  53.963  -3.323  1.00  0.00     0.006 C 
BRANCH   4   5
ATOM      5  C   UNL     1     -17.772  54.879  -2.925  1.00  0.00     0.053 C 
BRANCH   5   6
ATOM      6  C   UNL     1     -18.061  56.292  -3.322  1.00  0.00     0.041 C 
ATOM      7  O   UNL     1     -17.136  57.145  -3.347  1.00  0.00    -0.550 OA
ATOM      8  O   UNL     1     -19.363  56.679  -3.616  1.00  0.00    -0.550 OA
ENDBRANCH   5   6
ENDBRANCH   4   5
ENDBRANCH   3   4
ENDBRANCH   2   3
ENDBRANCH   1   2
BRANCH   1   9
ATOM      9  C   UNL     1     -19.722  56.402   0.281  1.00  0.00     0.000 C 
BRANCH   9  10
ATOM     10  C   UNL     1     -18.197  56.272   0.418  1.00  0.00    -0.000 C 
BRANCH  10  11
ATOM     11  C   UNL     1     -17.520  57.610   0.761  1.00  0.00    -0.000 C 
BRANCH  11  12
ATOM     12  C   UNL     1     -16.007  57.594   0.487  1.00  0.00    -0.000 C 
BRANCH  12  13
ATOM     13  C   UNL     1     -15.402  59.004   0.416  1.00  0.00    -0.003 C 
ATOM     14  C   UNL     1     -14.052  59.058   1.125  1.00  0.00     0.004 C 
ENDBRANCH  12  13
ENDBRANCH  11  12
ENDBRANCH  10  11
ENDBRANCH   9  10
ENDBRANCH   1   9
TORSDOF 10
ENDMDL
MODEL 6
REMARK VINA RESULT:    -4.454      1.135      2.044
REMARK INTER + INTRA:          -8.570
REMARK INTER:                  -7.004
REMARK INTRA:                  -1.566
REMARK UNBOUND:                -1.512
REMARK SMILES CCCCCCCCCCCC(=O)[O-]
REMARK SMILES IDX 7 1 8 2 9 3 10 4 11 5 12 6 13 7 14 8 6 9 5 10 4 11 3 12 2 13
REMARK SMILES IDX 1 14
REMARK H PARENT
REMARK Flexibility Score: inf
ROOT
ATOM      1  C   UNL     1     -20.052  53.417  -2.747  1.00  0.00     0.000 C 
ENDROOT
BRANCH   1   2
ATOM      2  C   UNL     1     -20.025  52.477  -1.531  1.00  0.00     0.000 C 
BRANCH   2   3
ATOM      3  C   UNL     1     -21.031  52.890  -0.443  1.00  0.00     0.000 C 
BRANCH   3   4
ATOM      4  C   UNL     1     -22.101  53.862  -0.967  1.00  0.00     0.006 C 
BRANCH   4   5
ATOM      5  C   UNL     1     -22.390  55.008   0.012  1.00  0.00     0.053 C 
BRANCH   5   6
ATOM      6  C   UNL     1     -23.678  54.764   0.734  1.00  0.00     0.041 C 
ATOM      7  O   UNL     1     -23.727  53.931   1.676  1.00  0.00    -0.550 OA
ATOM      8  O   UNL     1     -24.834  55.421   0.333  1.00  0.00    -0.550 OA
ENDBRANCH   5   6
ENDBRANCH   4   5
ENDBRANCH   3   4
ENDBRANCH   2   3
ENDBRANCH   1   2
BRANCH   1   9
ATOM      9  C   UNL     1     -18.643  53.822  -3.217  1.00  0.00     0.000 C 
BRANCH   9  10
ATOM     10  C   UNL     1     -18.521  55.328  -3.494  1.00  0.00    -0.000 C 
BRANCH  10  11
ATOM     11  C   UNL     1     -19.145  56.186  -2.380  1.00  0.00    -0.000 C 
BRANCH  11  12
ATOM     12  C   UNL     1     -18.192  56.398  -1.193  1.00  0.00    -0.000 C 
BRANCH  12  13
ATOM     13  C   UNL     1     -18.709  55.758   0.104  1.00  0.00    -0.003 C 
ATOM     14  C   UNL     1     -17.794  54.623   0.557  1.00  0.00     0.004 C 
ENDBRANCH  12  13
ENDBRANCH  11  12
ENDBRANCH  10  11
ENDBRANCH   9  10
ENDBRANCH   1   9
TORSDOF 10
ENDMDL
MODEL 7
REMARK VINA RESULT:    -4.430      2.123      2.690
REMARK INTER + INTRA:          -8.532
REMARK INTER:                  -7.217
REMARK INTRA:                  -1.315
REMARK UNBOUND:                -1.512
REMARK SMILES CCCCCCCCCCCC(=O)[O-]
REMARK SMILES IDX 7 1 8 2 9 3 10 4 11 5 12 6 13 7 14 8 6 9 5 10 4 11 3 12 2 13
REMARK SMILES IDX 1 14
REMARK H PARENT
REMARK Flexibility Score: inf
ROOT
ATOM      1  C   UNL     1     -20.803  56.548  -3.264  1.00  0.00     0.000 C 
ENDROOT
BRANCH   1   2
ATOM      2  C   UNL     1     -22.024  55.669  -2.949  1.00  0.00     0.000 C 
BRANCH   2   3
ATOM      3  C   UNL     1     -22.113  55.296  -1.458  1.00  0.00     0.000 C 
BRANCH   3   4
ATOM      4  C   UNL     1     -22.141  53.776  -1.231  1.00  0.00     0.006 C 
BRANCH   4   5
ATOM      5  C   UNL     1     -20.943  53.278  -0.411  1.00  0.00     0.053 C 
BRANCH   5   6
ATOM      6  C   UNL     1     -20.149  52.283  -1.197  1.00  0.00     0.041 C 
ATOM      7  O   UNL     1     -19.829  51.180  -0.683  1.00  0.00    -0.550 OA
ATOM      8  O   UNL     1     -19.720  52.596  -2.481  1.00  0.00    -0.550 OA
ENDBRANCH   5   6
ENDBRANCH   4   5
ENDBRANCH   3   4
ENDBRANCH   2   3
ENDBRANCH   1   2
BRANCH   1   9
ATOM      9  C   UNL     1     -19.494  55.741  -3.343  1.00  0.00     0.000 C 
BRANCH   9  10
ATOM     10  C   UNL     1     -18.250  56.638  -3.438  1.00  0.00    -0.000 C 
BRANCH  10  11
ATOM     11  C   UNL     1     -17.368  56.557  -2.180  1.00  0.00    -0.000 C 
BRANCH  11  12
ATOM     12  C   UNL     1     -17.653  55.304  -1.337  1.00  0.00    -0.000 C 
BRANCH  12  13
ATOM     13  C   UNL     1     -17.850  55.623   0.152  1.00  0.00    -0.003 C 
ATOM     14  C   UNL     1     -19.083  56.497   0.367  1.00  0.00     0.004 C 
ENDBRANCH  12  13
ENDBRANCH  11  12
ENDBRANCH  10  11
ENDBRANCH   9  10
ENDBRANCH   1   9
TORSDOF 10
ENDMDL
MODEL 8
REMARK VINA RESULT:    -4.430      2.914      4.936
REMARK INTER + INTRA:          -8.531
REMARK INTER:                  -6.986
REMARK INTRA:                  -1.546
REMARK UNBOUND:                -1.512
REMARK SMILES CCCCCCCCCCCC(=O)[O-]
REMARK SMILES IDX 7 1 8 2 9 3 10 4 11 5 12 6 13 7 14 8 6 9 5 10 4 11 3 12 2 13
REMARK SMILES IDX 1 14
REMARK H PARENT
REMARK Flexibility Score: inf
ROOT
ATOM      1  C   UNL     1     -21.843  54.753  -0.254  1.00  0.00     0.000 C 
ENDROOT
BRANCH   1   2
ATOM      2  C   UNL     1     -21.412  56.224  -0.370  1.00  0.00     0.000 C 
BRANCH   2   3
ATOM      3  C   UNL     1     -20.312  56.598   0.639  1.00  0.00     0.000 C 
BRANCH   3   4
ATOM      4  C   UNL     1     -18.905  56.552   0.021  1.00  0.00     0.006 C 
BRANCH   4   5
ATOM      5  C   UNL     1     -18.114  55.307   0.443  1.00  0.00     0.053 C 
BRANCH   5   6
ATOM      6  C   UNL     1     -16.679  55.438   0.039  1.00  0.00     0.041 C 
ATOM      7  O   UNL     1     -16.100  56.554   0.113  1.00  0.00    -0.550 OA
ATOM      8  O   UNL     1     -15.996  54.340  -0.468  1.00  0.00    -0.550 OA
ENDBRANCH   5   6
ENDBRANCH   4   5
ENDBRANCH   3   4
ENDBRANCH   2   3
ENDBRANCH   1   2
BRANCH   1   9
ATOM      9  C   UNL     1     -21.627  53.967  -1.560  1.00  0.00     0.000 C 
BRANCH   9  10
ATOM     10  C   UNL     1     -20.492  52.938  -1.451  1.00  0.00    -0.000 C 
BRANCH  10  11
ATOM     11  C   UNL     1     -19.306  53.268  -2.374  1.00  0.00    -0.000 C 
BRANCH  11  12
ATOM     12  C   UNL     1     -19.496  54.594  -3.128  1.00  0.00    -0.000 C 
BRANCH  12  13
ATOM     13  C   UNL     1     -18.164  55.218  -3.573  1.00  0.00    -0.003 C 
ATOM     14  C   UNL     1     -18.251  56.742  -3.589  1.00  0.00     0.004 C 
ENDBRANCH  12  13
ENDBRANCH  11  12
ENDBRANCH  10  11
ENDBRANCH   9  10
ENDBRANCH   1   9
TORSDOF 10
ENDMDL
MODEL 9
REMARK VINA RESULT:    -4.363      1.894      2.912
REMARK INTER + INTRA:          -8.426
REMARK INTER:                  -7.423
REMARK INTRA:                  -1.003
REMARK UNBOUND:                -1.512
REMARK SMILES CCCCCCCCCCCC(=O)[O-]
REMARK SMILES IDX 7 1 8 2 9 3 10 4 11 5 12 6 13 7 14 8 6 9 5 10 4 11 3 12 2 13
REMARK SMILES IDX 1 14
REMARK H PARENT
REMARK Flexibility Score: inf
ROOT
ATOM      1  C   UNL     1     -17.107  56.495  -2.618  1.00  0.00     0.000 C 
ENDROOT
BRANCH   1   2
ATOM      2  C   UNL     1     -18.372  56.632  -3.481  1.00  0.00     0.000 C 
BRANCH   2   3
ATOM      3  C   UNL     1     -19.334  55.444  -3.310  1.00  0.00     0.000 C 
BRANCH   3   4
ATOM      4  C   UNL     1     -20.754  55.886  -2.921  1.00  0.00     0.006 C 
BRANCH   4   5
ATOM      5  C   UNL     1     -21.097  55.560  -1.461  1.00  0.00     0.053 C 
BRANCH   5   6
ATOM      6  C   UNL     1     -22.010  54.377  -1.392  1.00  0.00     0.041 C 
ATOM      7  O   UNL     1     -21.600  53.289  -0.909  1.00  0.00    -0.550 OA
ATOM      8  O   UNL     1     -23.297  54.461  -1.906  1.00  0.00    -0.550 OA
ENDBRANCH   5   6
ENDBRANCH   4   5
ENDBRANCH   3   4
ENDBRANCH   2   3
ENDBRANCH   1   2
BRANCH   1   9
ATOM      9  C   UNL     1     -17.117  55.225  -1.748  1.00  0.00     0.000 C 
BRANCH   9  10
ATOM     10  C   UNL     1     -16.728  55.503  -0.288  1.00  0.00    -0.000 C 
BRANCH  10  11
ATOM     11  C   UNL     1     -17.714  56.452   0.415  1.00  0.00    -0.000 C 
BRANCH  11  12
ATOM     12  C   UNL     1     -17.041  57.742   0.911  1.00  0.00    -0.000 C 
BRANCH  12  13
ATOM     13  C   UNL     1     -15.524  57.751   0.666  1.00  0.00    -0.003 C 
ATOM     14  C   UNL     1     -14.952  59.156   0.828  1.00  0.00     0.004 C 
ENDBRANCH  12  13
ENDBRANCH  11  12
ENDBRANCH  10  11
ENDBRANCH   9  10
ENDBRANCH   1   9
TORSDOF 10
ENDMDL
