MODEL 1
REMARK VINA RESULT:    -5.496      0.000      0.000
REMARK INTER + INTRA:         -10.596
REMARK INTER:                  -9.352
REMARK INTRA:                  -1.244
REMARK UNBOUND:                -1.244
REMARK SMILES CCCCCCCCCCCCCC(=O)[O-]
REMARK SMILES IDX 8 1 9 2 10 3 11 4 12 5 13 6 14 7 15 8 16 9 7 10 6 11 5 12
REMARK SMILES IDX 4 13 3 14 2 15 1 16
REMARK H PARENT
REMARK Flexibility Score: inf
ROOT
ATOM      1  C   UNL     1      88.090 325.322 193.035  1.00  0.00     0.000 C 
ENDROOT
BRANCH   1   2
ATOM      2  C   UNL     1      86.769 324.543 192.881  1.00  0.00     0.000 C 
BRANCH   2   3
ATOM      3  C   UNL     1      86.721 323.553 191.702  1.00  0.00     0.000 C 
BRANCH   3   4
ATOM      4  C   UNL     1      88.116 323.229 191.140  1.00  0.00     0.000 C 
BRANCH   4   5
ATOM      5  C   UNL     1      88.139 323.202 189.604  1.00  0.00     0.006 C 
BRANCH   5   6
ATOM      6  C   UNL     1      89.427 323.797 189.020  1.00  0.00     0.053 C 
BRANCH   6   7
ATOM      7  C   UNL     1      90.388 322.709 188.660  1.00  0.00     0.041 C 
ATOM      8  O   UNL     1      91.595 322.980 188.423  1.00  0.00    -0.550 OA
ATOM      9  O   UNL     1      89.962 321.386 188.635  1.00  0.00    -0.550 OA
ENDBRANCH   6   7
ENDBRANCH   5   6
ENDBRANCH   4   5
ENDBRANCH   3   4
ENDBRANCH   2   3
ENDBRANCH   1   2
BRANCH   1  10
ATOM     10  C   UNL     1      88.047 326.500 194.026  1.00  0.00     0.000 C 
BRANCH  10  11
ATOM     11  C   UNL     1      86.693 326.629 194.742  1.00  0.00    -0.000 C 
BRANCH  11  12
ATOM     12  C   UNL     1      86.803 326.411 196.259  1.00  0.00    -0.000 C 
BRANCH  12  13
ATOM     13  C   UNL     1      88.259 326.352 196.746  1.00  0.00    -0.000 C 
BRANCH  13  14
ATOM     14  C   UNL     1      88.513 325.079 197.563  1.00  0.00    -0.000 C 
BRANCH  14  15
ATOM     15  C   UNL     1      89.424 324.109 196.803  1.00  0.00    -0.003 C 
ATOM     16  C   UNL     1      88.613 323.176 195.909  1.00  0.00     0.004 C 
ENDBRANCH  14  15
ENDBRANCH  13  14
ENDBRANCH  12  13
ENDBRANCH  11  12
ENDBRANCH  10  11
ENDBRANCH   1  10
TORSDOF 12
ENDMDL
MODEL 2
REMARK VINA RESULT:    -5.406     18.626     21.126
REMARK INTER + INTRA:         -10.442
REMARK INTER:                  -9.876
REMARK INTRA:                  -0.565
REMARK UNBOUND:                -1.244
REMARK SMILES CCCCCCCCCCCCCC(=O)[O-]
REMARK SMILES IDX 8 1 9 2 10 3 11 4 12 5 13 6 14 7 15 8 16 9 7 10 6 11 5 12
REMARK SMILES IDX 4 13 3 14 2 15 1 16
REMARK H PARENT
REMARK Flexibility Score: inf
ROOT
ATOM      1  C   UNL     1     105.598 311.235 193.695  1.00  0.00     0.000 C 
ENDROOT
BRANCH   1   2
ATOM      2  C   UNL     1     105.733 311.584 195.191  1.00  0.00     0.000 C 
BRANCH   2   3
ATOM      3  C   UNL     1     104.453 312.116 195.861  1.00  0.00     0.000 C 
BRANCH   3   4
ATOM      4  C   UNL     1     104.079 311.336 197.133  1.00  0.00     0.000 C 
BRANCH   4   5
ATOM      5  C   UNL     1     103.441 312.232 198.206  1.00  0.00     0.006 C 
BRANCH   5   6
ATOM      6  C   UNL     1     104.112 312.083 199.578  1.00  0.00     0.053 C 
BRANCH   6   7
ATOM      7  C   UNL     1     103.093 311.761 200.625  1.00  0.00     0.041 C 
ATOM      8  O   UNL     1     101.876 312.015 200.426  1.00  0.00    -0.550 OA
ATOM      9  O   UNL     1     103.482 311.134 201.803  1.00  0.00    -0.550 OA
ENDBRANCH   6   7
ENDBRANCH   5   6
ENDBRANCH   4   5
ENDBRANCH   3   4
ENDBRANCH   2   3
ENDBRANCH   1   2
BRANCH   1  10
ATOM     10  C   UNL     1     104.219 311.527 193.074  1.00  0.00     0.000 C 
BRANCH  10  11
ATOM     11  C   UNL     1     104.114 312.946 192.492  1.00  0.00    -0.000 C 
BRANCH  11  12
ATOM     12  C   UNL     1     105.425 313.417 191.843  1.00  0.00    -0.000 C 
BRANCH  12  13
ATOM     13  C   UNL     1     105.196 314.413 190.695  1.00  0.00    -0.000 C 
BRANCH  13  14
ATOM     14  C   UNL     1     103.727 314.413 190.256  1.00  0.00    -0.000 C 
BRANCH  14  15
ATOM     15  C   UNL     1     103.598 314.735 188.763  1.00  0.00    -0.003 C 
ATOM     16  C   UNL     1     102.240 314.303 188.220  1.00  0.00     0.004 C 
ENDBRANCH  14  15
ENDBRANCH  13  14
ENDBRANCH  12  13
ENDBRANCH  11  12
ENDBRANCH  10  11
ENDBRANCH   1  10
TORSDOF 12
ENDMDL
MODEL 3
REMARK VINA RESULT:    -5.386     16.924     19.174
REMARK INTER + INTRA:         -10.408
REMARK INTER:                  -9.676
REMARK INTRA:                  -0.733
REMARK UNBOUND:                -1.244
REMARK SMILES CCCCCCCCCCCCCC(=O)[O-]
REMARK SMILES IDX 8 1 9 2 10 3 11 4 12 5 13 6 14 7 15 8 16 9 7 10 6 11 5 12
REMARK SMILES IDX 4 13 3 14 2 15 1 16
REMARK H PARENT
REMARK Flexibility Score: inf
ROOT
ATOM      1  C   UNL     1     104.303 313.106 192.535  1.00  0.00     0.000 C 
ENDROOT
BRANCH   1   2
ATOM      2  C   UNL     1     105.568 313.526 191.759  1.00  0.00     0.000 C 
BRANCH   2   3
ATOM      3  C   UNL     1     105.334 314.523 190.609  1.00  0.00     0.000 C 
BRANCH   3   4
ATOM      4  C   UNL     1     103.845 314.704 190.271  1.00  0.00     0.000 C 
BRANCH   4   5
ATOM      5  C   UNL     1     103.599 314.867 188.763  1.00  0.00     0.006 C 
BRANCH   5   6
ATOM      6  C   UNL     1     102.293 314.209 188.300  1.00  0.00     0.053 C 
BRANCH   6   7
ATOM      7  C   UNL     1     101.271 315.251 187.973  1.00  0.00     0.041 C 
ATOM      8  O   UNL     1     101.631 316.412 187.644  1.00  0.00    -0.550 OA
ATOM      9  O   UNL     1      99.919 314.926 187.985  1.00  0.00    -0.550 OA
ENDBRANCH   6   7
ENDBRANCH   5   6
ENDBRANCH   4   5
ENDBRANCH   3   4
ENDBRANCH   2   3
ENDBRANCH   1   2
BRANCH   1  10
ATOM     10  C   UNL     1     104.253 311.627 192.959  1.00  0.00     0.000 C 
BRANCH  10  11
ATOM     11  C   UNL     1     105.569 311.142 193.591  1.00  0.00    -0.000 C 
BRANCH  11  12
ATOM     12  C   UNL     1     105.745 311.631 195.037  1.00  0.00    -0.000 C 
BRANCH  12  13
ATOM     13  C   UNL     1     104.413 311.731 195.796  1.00  0.00    -0.000 C 
BRANCH  13  14
ATOM     14  C   UNL     1     104.201 313.147 196.346  1.00  0.00    -0.000 C 
BRANCH  14  15
ATOM     15  C   UNL     1     103.579 313.107 197.746  1.00  0.00    -0.003 C 
ATOM     16  C   UNL     1     103.784 311.745 198.403  1.00  0.00     0.004 C 
ENDBRANCH  14  15
ENDBRANCH  13  14
ENDBRANCH  12  13
ENDBRANCH  11  12
ENDBRANCH  10  11
ENDBRANCH   1  10
TORSDOF 12
ENDMDL
MODEL 4
REMARK VINA RESULT:    -5.384     19.844     22.302
REMARK INTER + INTRA:         -10.404
REMARK INTER:                  -9.687
REMARK INTRA:                  -0.717
REMARK UNBOUND:                -1.244
REMARK SMILES CCCCCCCCCCCCCC(=O)[O-]
REMARK SMILES IDX 8 1 9 2 10 3 11 4 12 5 13 6 14 7 15 8 16 9 7 10 6 11 5 12
REMARK SMILES IDX 4 13 3 14 2 15 1 16
REMARK H PARENT
REMARK Flexibility Score: inf
ROOT
ATOM      1  C   UNL     1     103.529 313.067 197.839  1.00  0.00     0.000 C 
ENDROOT
BRANCH   1   2
ATOM      2  C   UNL     1     103.729 311.656 198.428  1.00  0.00     0.000 C 
BRANCH   2   3
ATOM      3  C   UNL     1     103.193 311.457 199.858  1.00  0.00     0.000 C 
BRANCH   3   4
ATOM      4  C   UNL     1     104.273 311.667 200.933  1.00  0.00     0.000 C 
BRANCH   4   5
ATOM      5  C   UNL     1     103.684 311.746 202.350  1.00  0.00     0.006 C 
BRANCH   5   6
ATOM      6  C   UNL     1     104.156 310.600 203.254  1.00  0.00     0.053 C 
BRANCH   6   7
ATOM      7  C   UNL     1     104.194 311.043 204.682  1.00  0.00     0.041 C 
ATOM      8  O   UNL     1     103.340 310.616 205.503  1.00  0.00    -0.550 OA
ATOM      9  O   UNL     1     105.205 311.891 205.119  1.00  0.00    -0.550 OA
ENDBRANCH   6   7
ENDBRANCH   5   6
ENDBRANCH   4   5
ENDBRANCH   3   4
ENDBRANCH   2   3
ENDBRANCH   1   2
BRANCH   1  10
ATOM     10  C   UNL     1     103.927 313.225 196.360  1.00  0.00     0.000 C 
BRANCH  10  11
ATOM     11  C   UNL     1     104.087 311.877 195.638  1.00  0.00    -0.000 C 
BRANCH  11  12
ATOM     12  C   UNL     1     105.496 311.681 195.057  1.00  0.00    -0.000 C 
BRANCH  12  13
ATOM     13  C   UNL     1     105.477 311.279 193.574  1.00  0.00    -0.000 C 
BRANCH  13  14
ATOM     14  C   UNL     1     104.146 311.668 192.918  1.00  0.00    -0.000 C 
BRANCH  14  15
ATOM     15  C   UNL     1     104.325 312.862 191.974  1.00  0.00    -0.003 C 
ATOM     16  C   UNL     1     103.826 314.153 192.616  1.00  0.00     0.004 C 
ENDBRANCH  14  15
ENDBRANCH  13  14
ENDBRANCH  12  13
ENDBRANCH  11  12
ENDBRANCH  10  11
ENDBRANCH   1  10
TORSDOF 12
ENDMDL
MODEL 5
REMARK VINA RESULT:    -5.349      6.420      9.540
REMARK INTER + INTRA:         -10.346
REMARK INTER:                  -9.786
REMARK INTRA:                  -0.559
REMARK UNBOUND:                -1.244
REMARK SMILES CCCCCCCCCCCCCC(=O)[O-]
REMARK SMILES IDX 8 1 9 2 10 3 11 4 12 5 13 6 14 7 15 8 16 9 7 10 6 11 5 12
REMARK SMILES IDX 4 13 3 14 2 15 1 16
REMARK H PARENT
REMARK Flexibility Score: inf
ROOT
ATOM      1  C   UNL     1      88.285 325.985 196.719  1.00  0.00     0.000 C 
ENDROOT
BRANCH   1   2
ATOM      2  C   UNL     1      88.745 326.579 198.065  1.00  0.00     0.000 C 
BRANCH   2   3
ATOM      3  C   UNL     1      89.168 325.548 199.129  1.00  0.00     0.000 C 
BRANCH   3   4
ATOM      4  C   UNL     1      89.919 326.184 200.310  1.00  0.00     0.000 C 
BRANCH   4   5
ATOM      5  C   UNL     1      88.987 326.540 201.478  1.00  0.00     0.006 C 
BRANCH   5   6
ATOM      6  C   UNL     1      89.462 325.956 202.815  1.00  0.00     0.053 C 
BRANCH   6   7
ATOM      7  C   UNL     1      89.811 327.055 203.769  1.00  0.00     0.041 C 
ATOM      8  O   UNL     1      90.859 327.732 203.602  1.00  0.00    -0.550 OA
ATOM      9  O   UNL     1      88.951 327.364 204.817  1.00  0.00    -0.550 OA
ENDBRANCH   6   7
ENDBRANCH   5   6
ENDBRANCH   4   5
ENDBRANCH   3   4
ENDBRANCH   2   3
ENDBRANCH   1   2
BRANCH   1  10
ATOM     10  C   UNL     1      86.895 326.442 196.240  1.00  0.00     0.000 C 
BRANCH  10  11
ATOM     11  C   UNL     1      86.870 326.813 194.748  1.00  0.00    -0.000 C 
BRANCH  11  12
ATOM     12  C   UNL     1      88.127 326.342 194.000  1.00  0.00    -0.000 C 
BRANCH  12  13
ATOM     13  C   UNL     1      87.816 325.300 192.913  1.00  0.00    -0.000 C 
BRANCH  13  14
ATOM     14  C   UNL     1      88.253 323.899 193.356  1.00  0.00    -0.000 C 
BRANCH  14  15
ATOM     15  C   UNL     1      88.312 322.938 192.164  1.00  0.00    -0.003 C 
ATOM     16  C   UNL     1      88.157 323.686 190.843  1.00  0.00     0.004 C 
ENDBRANCH  14  15
ENDBRANCH  13  14
ENDBRANCH  12  13
ENDBRANCH  11  12
ENDBRANCH  10  11
ENDBRANCH   1  10
TORSDOF 12
ENDMDL
MODEL 6
REMARK VINA RESULT:    -5.345     19.263     21.561
REMARK INTER + INTRA:         -10.338
REMARK INTER:                  -9.891
REMARK INTRA:                  -0.448
REMARK UNBOUND:                -1.244
REMARK SMILES CCCCCCCCCCCCCC(=O)[O-]
REMARK SMILES IDX 8 1 9 2 10 3 11 4 12 5 13 6 14 7 15 8 16 9 7 10 6 11 5 12
REMARK SMILES IDX 4 13 3 14 2 15 1 16
REMARK H PARENT
REMARK Flexibility Score: inf
ROOT
ATOM      1  C   UNL     1     103.515 311.527 194.889  1.00  0.00     0.000 C 
ENDROOT
BRANCH   1   2
ATOM      2  C   UNL     1     104.417 311.771 196.116  1.00  0.00     0.000 C 
BRANCH   2   3
ATOM      3  C   UNL     1     103.920 311.148 197.433  1.00  0.00     0.000 C 
BRANCH   3   4
ATOM      4  C   UNL     1     103.642 312.198 198.522  1.00  0.00     0.000 C 
BRANCH   4   5
ATOM      5  C   UNL     1     103.241 311.563 199.863  1.00  0.00     0.006 C 
BRANCH   5   6
ATOM      6  C   UNL     1     104.320 311.726 200.942  1.00  0.00     0.053 C 
BRANCH   6   7
ATOM      7  C   UNL     1     103.754 311.427 202.294  1.00  0.00     0.041 C 
ATOM      8  O   UNL     1     102.783 312.095 202.738  1.00  0.00    -0.550 OA
ATOM      9  O   UNL     1     104.268 310.376 203.045  1.00  0.00    -0.550 OA
ENDBRANCH   6   7
ENDBRANCH   5   6
ENDBRANCH   4   5
ENDBRANCH   3   4
ENDBRANCH   2   3
ENDBRANCH   1   2
BRANCH   1  10
ATOM     10  C   UNL     1     104.259 311.324 193.556  1.00  0.00     0.000 C 
BRANCH  10  11
ATOM     11  C   UNL     1     105.594 312.085 193.495  1.00  0.00    -0.000 C 
BRANCH  11  12
ATOM     12  C   UNL     1     105.633 313.120 192.360  1.00  0.00    -0.000 C 
BRANCH  12  13
ATOM     13  C   UNL     1     104.296 313.229 191.610  1.00  0.00    -0.000 C 
BRANCH  13  14
ATOM     14  C   UNL     1     104.341 314.356 190.572  1.00  0.00    -0.000 C 
BRANCH  14  15
ATOM     15  C   UNL     1     103.342 314.099 189.437  1.00  0.00    -0.003 C 
ATOM     16  C   UNL     1     103.443 315.175 188.360  1.00  0.00     0.004 C 
ENDBRANCH  14  15
ENDBRANCH  13  14
ENDBRANCH  12  13
ENDBRANCH  11  12
ENDBRANCH  10  11
ENDBRANCH   1  10
TORSDOF 12
ENDMDL
MODEL 7
REMARK VINA RESULT:    -5.304     17.663     19.298
REMARK INTER + INTRA:         -10.269
REMARK INTER:                  -8.915
REMARK INTRA:                  -1.354
REMARK UNBOUND:                -1.244
REMARK SMILES CCCCCCCCCCCCCC(=O)[O-]
REMARK SMILES IDX 8 1 9 2 10 3 11 4 12 5 13 6 14 7 15 8 16 9 7 10 6 11 5 12
REMARK SMILES IDX 4 13 3 14 2 15 1 16
REMARK H PARENT
REMARK Flexibility Score: inf
ROOT
ATOM      1  C   UNL     1     104.387 311.777 192.890  1.00  0.00     0.000 C 
ENDROOT
BRANCH   1   2
ATOM      2  C   UNL     1     104.155 312.972 191.943  1.00  0.00     0.000 C 
BRANCH   2   3
ATOM      3  C   UNL     1     105.419 313.768 191.565  1.00  0.00     0.000 C 
BRANCH   3   4
ATOM      4  C   UNL     1     105.184 314.739 190.396  1.00  0.00     0.000 C 
BRANCH   4   5
ATOM      5  C   UNL     1     103.704 314.826 189.992  1.00  0.00     0.006 C 
BRANCH   5   6
ATOM      6  C   UNL     1     103.506 314.860 188.470  1.00  0.00     0.053 C 
BRANCH   6   7
ATOM      7  C   UNL     1     104.062 316.127 187.901  1.00  0.00     0.041 C 
ATOM      8  O   UNL     1     105.017 316.089 187.080  1.00  0.00    -0.550 OA
ATOM      9  O   UNL     1     103.492 317.350 188.239  1.00  0.00    -0.550 OA
ENDBRANCH   6   7
ENDBRANCH   5   6
ENDBRANCH   4   5
ENDBRANCH   3   4
ENDBRANCH   2   3
ENDBRANCH   1   2
BRANCH   1  10
ATOM     10  C   UNL     1     105.755 311.754 193.595  1.00  0.00     0.000 C 
BRANCH  10  11
ATOM     11  C   UNL     1     105.638 311.583 195.119  1.00  0.00    -0.000 C 
BRANCH  11  12
ATOM     12  C   UNL     1     104.182 311.622 195.608  1.00  0.00    -0.000 C 
BRANCH  12  13
ATOM     13  C   UNL     1     103.985 312.557 196.813  1.00  0.00    -0.000 C 
BRANCH  13  14
ATOM     14  C   UNL     1     103.257 313.840 196.397  1.00  0.00    -0.000 C 
BRANCH  14  15
ATOM     15  C   UNL     1     104.209 314.807 195.683  1.00  0.00    -0.003 C 
ATOM     16  C   UNL     1     103.554 315.415 194.447  1.00  0.00     0.004 C 
ENDBRANCH  14  15
ENDBRANCH  13  14
ENDBRANCH  12  13
ENDBRANCH  11  12
ENDBRANCH  10  11
ENDBRANCH   1  10
TORSDOF 12
ENDMDL
MODEL 8
REMARK VINA RESULT:    -5.302     18.824     21.330
REMARK INTER + INTRA:         -10.265
REMARK INTER:                  -9.216
REMARK INTRA:                  -1.049
REMARK UNBOUND:                -1.244
REMARK SMILES CCCCCCCCCCCCCC(=O)[O-]
REMARK SMILES IDX 8 1 9 2 10 3 11 4 12 5 13 6 14 7 15 8 16 9 7 10 6 11 5 12
REMARK SMILES IDX 4 13 3 14 2 15 1 16
REMARK H PARENT
REMARK Flexibility Score: inf
ROOT
ATOM      1  C   UNL     1     103.508 311.538 194.621  1.00  0.00     0.000 C 
ENDROOT
BRANCH   1   2
ATOM      2  C   UNL     1     104.353 311.946 195.845  1.00  0.00     0.000 C 
BRANCH   2   3
ATOM      3  C   UNL     1     103.944 311.289 197.176  1.00  0.00     0.000 C 
BRANCH   3   4
ATOM      4  C   UNL     1     103.802 312.304 198.323  1.00  0.00     0.000 C 
BRANCH   4   5
ATOM      5  C   UNL     1     103.350 311.648 199.637  1.00  0.00     0.006 C 
BRANCH   5   6
ATOM      6  C   UNL     1     104.416 311.730 200.738  1.00  0.00     0.053 C 
BRANCH   6   7
ATOM      7  C   UNL     1     103.790 311.545 202.084  1.00  0.00     0.041 C 
ATOM      8  O   UNL     1     104.223 310.660 202.869  1.00  0.00    -0.550 OA
ATOM      9  O   UNL     1     102.760 312.384 202.493  1.00  0.00    -0.550 OA
ENDBRANCH   6   7
ENDBRANCH   5   6
ENDBRANCH   4   5
ENDBRANCH   3   4
ENDBRANCH   2   3
ENDBRANCH   1   2
BRANCH   1  10
ATOM     10  C   UNL     1     104.310 311.219 193.346  1.00  0.00     0.000 C 
BRANCH  10  11
ATOM     11  C   UNL     1     105.698 311.880 193.331  1.00  0.00    -0.000 C 
BRANCH  11  12
ATOM     12  C   UNL     1     105.765 313.092 192.389  1.00  0.00    -0.000 C 
BRANCH  12  13
ATOM     13  C   UNL     1     104.435 313.356 191.665  1.00  0.00    -0.000 C 
BRANCH  13  14
ATOM     14  C   UNL     1     103.848 314.712 192.073  1.00  0.00    -0.000 C 
BRANCH  14  15
ATOM     15  C   UNL     1     104.508 315.235 193.354  1.00  0.00    -0.003 C 
ATOM     16  C   UNL     1     103.507 315.302 194.503  1.00  0.00     0.004 C 
ENDBRANCH  14  15
ENDBRANCH  13  14
ENDBRANCH  12  13
ENDBRANCH  11  12
ENDBRANCH  10  11
ENDBRANCH   1  10
TORSDOF 12
ENDMDL
MODEL 9
REMARK VINA RESULT:    -5.281      6.063      9.006
REMARK INTER + INTRA:         -10.229
REMARK INTER:                  -9.148
REMARK INTRA:                  -1.081
REMARK UNBOUND:                -1.244
REMARK SMILES CCCCCCCCCCCCCC(=O)[O-]
REMARK SMILES IDX 8 1 9 2 10 3 11 4 12 5 13 6 14 7 15 8 16 9 7 10 6 11 5 12
REMARK SMILES IDX 4 13 3 14 2 15 1 16
REMARK H PARENT
REMARK Flexibility Score: inf
ROOT
ATOM      1  C   UNL     1      88.484 326.150 196.558  1.00  0.00     0.000 C 
ENDROOT
BRANCH   1   2
ATOM      2  C   UNL     1      88.759 326.228 198.073  1.00  0.00     0.000 C 
BRANCH   2   3
ATOM      3  C   UNL     1      89.197 324.906 198.731  1.00  0.00     0.000 C 
BRANCH   3   4
ATOM      4  C   UNL     1      89.971 325.122 200.043  1.00  0.00     0.000 C 
BRANCH   4   5
ATOM      5  C   UNL     1      89.738 326.519 200.641  1.00  0.00     0.006 C 
BRANCH   5   6
ATOM      6  C   UNL     1      88.903 326.481 201.927  1.00  0.00     0.053 C 
BRANCH   6   7
ATOM      7  C   UNL     1      89.731 326.905 203.099  1.00  0.00     0.041 C 
ATOM      8  O   UNL     1      89.250 326.869 204.262  1.00  0.00    -0.550 OA
ATOM      9  O   UNL     1      91.052 327.295 202.911  1.00  0.00    -0.550 OA
ENDBRANCH   6   7
ENDBRANCH   5   6
ENDBRANCH   4   5
ENDBRANCH   3   4
ENDBRANCH   2   3
ENDBRANCH   1   2
BRANCH   1  10
ATOM     10  C   UNL     1      87.035 326.456 196.136  1.00  0.00     0.000 C 
BRANCH  10  11
ATOM     11  C   UNL     1      86.892 326.705 194.626  1.00  0.00    -0.000 C 
BRANCH  11  12
ATOM     12  C   UNL     1      88.087 326.166 193.822  1.00  0.00    -0.000 C 
BRANCH  12  13
ATOM     13  C   UNL     1      87.696 325.019 192.876  1.00  0.00    -0.000 C 
BRANCH  13  14
ATOM     14  C   UNL     1      88.405 323.719 193.270  1.00  0.00    -0.000 C 
BRANCH  14  15
ATOM     15  C   UNL     1      87.803 323.129 194.551  1.00  0.00    -0.003 C 
ATOM     16  C   UNL     1      88.893 322.749 195.549  1.00  0.00     0.004 C 
ENDBRANCH  14  15
ENDBRANCH  13  14
ENDBRANCH  12  13
ENDBRANCH  11  12
ENDBRANCH  10  11
ENDBRANCH   1  10
TORSDOF 12
ENDMDL
