MODEL 1
REMARK VINA RESULT:    -5.100      0.000      0.000
REMARK INTER + INTRA:          -9.676
REMARK INTER:                  -8.677
REMARK INTRA:                  -0.999
REMARK UNBOUND:                -0.999
REMARK SMILES CCCCCCCCCCCCCC(=O)[O-]
REMARK SMILES IDX 8 1 9 2 10 3 11 4 12 5 13 6 14 7 15 8 16 9 7 10 6 11 5 12
REMARK SMILES IDX 4 13 3 14 2 15 1 16
REMARK H PARENT
REMARK Flexibility Score: inf
ROOT
ATOM      1  C   UNL     1      46.570   4.911 130.348  1.00  0.00     0.000 C 
ENDROOT
BRANCH   1   2
ATOM      2  C   UNL     1      47.585   4.193 131.261  1.00  0.00     0.000 C 
BRANCH   2   3
ATOM      3  C   UNL     1      46.965   3.347 132.386  1.00  0.00     0.000 C 
BRANCH   3   4
ATOM      4  C   UNL     1      45.537   3.784 132.744  1.00  0.00     0.000 C 
BRANCH   4   5
ATOM      5  C   UNL     1      44.759   2.633 133.401  1.00  0.00     0.006 C 
BRANCH   5   6
ATOM      6  C   UNL     1      43.543   2.205 132.570  1.00  0.00     0.053 C 
BRANCH   6   7
ATOM      7  C   UNL     1      43.650   0.778 132.127  1.00  0.00     0.041 C 
ATOM      8  O   UNL     1      42.680   0.218 131.549  1.00  0.00    -0.550 OA
ATOM      9  O   UNL     1      44.831   0.074 132.326  1.00  0.00    -0.550 OA
ENDBRANCH   6   7
ENDBRANCH   5   6
ENDBRANCH   4   5
ENDBRANCH   3   4
ENDBRANCH   2   3
ENDBRANCH   1   2
BRANCH   1  10
ATOM     10  C   UNL     1      47.104   5.299 128.957  1.00  0.00     0.000 C 
BRANCH  10  11
ATOM     11  C   UNL     1      47.162   6.819 128.743  1.00  0.00    -0.000 C 
BRANCH  11  12
ATOM     12  C   UNL     1      45.871   7.492 129.233  1.00  0.00    -0.000 C 
BRANCH  12  13
ATOM     13  C   UNL     1      44.765   7.521 128.162  1.00  0.00    -0.000 C 
BRANCH  13  14
ATOM     14  C   UNL     1      43.375   7.081 128.653  1.00  0.00    -0.000 C 
BRANCH  14  15
ATOM     15  C   UNL     1      42.684   6.101 127.694  1.00  0.00    -0.003 C 
ATOM     16  C   UNL     1      43.705   5.343 126.851  1.00  0.00     0.004 C 
ENDBRANCH  14  15
ENDBRANCH  13  14
ENDBRANCH  12  13
ENDBRANCH  11  12
ENDBRANCH  10  11
ENDBRANCH   1  10
TORSDOF 12
ENDMDL
MODEL 2
REMARK VINA RESULT:    -5.086      1.080      1.597
REMARK INTER + INTRA:          -9.653
REMARK INTER:                  -8.834
REMARK INTRA:                  -0.819
REMARK UNBOUND:                -0.999
REMARK SMILES CCCCCCCCCCCCCC(=O)[O-]
REMARK SMILES IDX 8 1 9 2 10 3 11 4 12 5 13 6 14 7 15 8 16 9 7 10 6 11 5 12
REMARK SMILES IDX 4 13 3 14 2 15 1 16
REMARK H PARENT
REMARK Flexibility Score: inf
ROOT
ATOM      1  C   UNL     1      48.086   4.400 130.775  1.00  0.00     0.000 C 
ENDROOT
BRANCH   1   2
ATOM      2  C   UNL     1      46.888   4.445 131.745  1.00  0.00     0.000 C 
BRANCH   2   3
ATOM      3  C   UNL     1      46.577   3.118 132.459  1.00  0.00     0.000 C 
BRANCH   3   4
ATOM      4  C   UNL     1      45.884   3.318 133.815  1.00  0.00     0.000 C 
BRANCH   4   5
ATOM      5  C   UNL     1      44.727   2.323 133.992  1.00  0.00     0.006 C 
BRANCH   5   6
ATOM      6  C   UNL     1      43.842   2.234 132.741  1.00  0.00     0.053 C 
BRANCH   6   7
ATOM      7  C   UNL     1      43.694   0.820 132.268  1.00  0.00     0.041 C 
ATOM      8  O   UNL     1      42.586   0.411 131.830  1.00  0.00    -0.550 OA
ATOM      9  O   UNL     1      44.787  -0.036 132.282  1.00  0.00    -0.550 OA
ENDBRANCH   6   7
ENDBRANCH   5   6
ENDBRANCH   4   5
ENDBRANCH   3   4
ENDBRANCH   2   3
ENDBRANCH   1   2
BRANCH   1  10
ATOM     10  C   UNL     1      48.047   5.441 129.641  1.00  0.00     0.000 C 
BRANCH  10  11
ATOM     11  C   UNL     1      46.623   5.722 129.138  1.00  0.00    -0.000 C 
BRANCH  11  12
ATOM     12  C   UNL     1      46.303   4.876 127.897  1.00  0.00    -0.000 C 
BRANCH  12  13
ATOM     13  C   UNL     1      44.804   4.553 127.761  1.00  0.00    -0.000 C 
BRANCH  13  14
ATOM     14  C   UNL     1      44.136   5.097 126.485  1.00  0.00    -0.000 C 
BRANCH  14  15
ATOM     15  C   UNL     1      42.724   5.646 126.735  1.00  0.00    -0.003 C 
ATOM     16  C   UNL     1      42.646   6.371 128.076  1.00  0.00     0.004 C 
ENDBRANCH  14  15
ENDBRANCH  13  14
ENDBRANCH  12  13
ENDBRANCH  11  12
ENDBRANCH  10  11
ENDBRANCH   1  10
TORSDOF 12
ENDMDL
MODEL 3
REMARK VINA RESULT:    -4.984      1.719      2.162
REMARK INTER + INTRA:          -9.479
REMARK INTER:                  -8.168
REMARK INTRA:                  -1.311
REMARK UNBOUND:                -0.999
REMARK SMILES CCCCCCCCCCCCCC(=O)[O-]
REMARK SMILES IDX 8 1 9 2 10 3 11 4 12 5 13 6 14 7 15 8 16 9 7 10 6 11 5 12
REMARK SMILES IDX 4 13 3 14 2 15 1 16
REMARK H PARENT
REMARK Flexibility Score: inf
ROOT
ATOM      1  C   UNL     1      47.066   4.857 128.969  1.00  0.00     0.000 C 
ENDROOT
BRANCH   1   2
ATOM      2  C   UNL     1      47.791   4.915 130.330  1.00  0.00     0.000 C 
BRANCH   2   3
ATOM      3  C   UNL     1      46.948   4.466 131.537  1.00  0.00     0.000 C 
BRANCH   3   4
ATOM      4  C   UNL     1      45.449   4.368 131.215  1.00  0.00     0.000 C 
BRANCH   4   5
ATOM      5  C   UNL     1      44.691   3.655 132.345  1.00  0.00     0.006 C 
BRANCH   5   6
ATOM      6  C   UNL     1      45.520   2.530 132.980  1.00  0.00     0.053 C 
BRANCH   6   7
ATOM      7  C   UNL     1      45.418   2.544 134.474  1.00  0.00     0.041 C 
ATOM      8  O   UNL     1      46.207   3.251 135.158  1.00  0.00    -0.550 OA
ATOM      9  O   UNL     1      44.432   1.803 135.112  1.00  0.00    -0.550 OA
ENDBRANCH   6   7
ENDBRANCH   5   6
ENDBRANCH   4   5
ENDBRANCH   3   4
ENDBRANCH   2   3
ENDBRANCH   1   2
BRANCH   1  10
ATOM     10  C   UNL     1      47.125   6.155 128.143  1.00  0.00     0.000 C 
BRANCH  10  11
ATOM     11  C   UNL     1      46.983   7.417 129.006  1.00  0.00    -0.000 C 
BRANCH  11  12
ATOM     12  C   UNL     1      45.509   7.694 129.335  1.00  0.00    -0.000 C 
BRANCH  12  13
ATOM     13  C   UNL     1      44.554   7.301 128.194  1.00  0.00    -0.000 C 
BRANCH  13  14
ATOM     14  C   UNL     1      43.301   6.522 128.635  1.00  0.00    -0.000 C 
BRANCH  14  15
ATOM     15  C   UNL     1      42.477   5.995 127.451  1.00  0.00    -0.003 C 
ATOM     16  C   UNL     1      43.360   5.249 126.455  1.00  0.00     0.004 C 
ENDBRANCH  14  15
ENDBRANCH  13  14
ENDBRANCH  12  13
ENDBRANCH  11  12
ENDBRANCH  10  11
ENDBRANCH   1  10
TORSDOF 12
ENDMDL
MODEL 4
REMARK VINA RESULT:    -4.961      2.551      5.960
REMARK INTER + INTRA:          -9.440
REMARK INTER:                  -8.481
REMARK INTRA:                  -0.959
REMARK UNBOUND:                -0.999
REMARK SMILES CCCCCCCCCCCCCC(=O)[O-]
REMARK SMILES IDX 8 1 9 2 10 3 11 4 12 5 13 6 14 7 15 8 16 9 7 10 6 11 5 12
REMARK SMILES IDX 4 13 3 14 2 15 1 16
REMARK H PARENT
REMARK Flexibility Score: inf
ROOT
ATOM      1  C   UNL     1      46.514   4.974 130.400  1.00  0.00     0.000 C 
ENDROOT
BRANCH   1   2
ATOM      2  C   UNL     1      47.565   5.361 129.339  1.00  0.00     0.000 C 
BRANCH   2   3
ATOM      3  C   UNL     1      47.271   6.662 128.573  1.00  0.00     0.000 C 
BRANCH   3   4
ATOM      4  C   UNL     1      46.091   7.448 129.163  1.00  0.00     0.000 C 
BRANCH   4   5
ATOM      5  C   UNL     1      44.953   7.580 128.140  1.00  0.00     0.006 C 
BRANCH   5   6
ATOM      6  C   UNL     1      43.811   6.591 128.410  1.00  0.00     0.053 C 
BRANCH   6   7
ATOM      7  C   UNL     1      43.759   5.510 127.374  1.00  0.00     0.041 C 
ATOM      8  O   UNL     1      44.601   4.573 127.393  1.00  0.00    -0.550 OA
ATOM      9  O   UNL     1      42.762   5.521 126.407  1.00  0.00    -0.550 OA
ENDBRANCH   6   7
ENDBRANCH   5   6
ENDBRANCH   4   5
ENDBRANCH   3   4
ENDBRANCH   2   3
ENDBRANCH   1   2
BRANCH   1  10
ATOM     10  C   UNL     1      47.089   4.419 131.715  1.00  0.00     0.000 C 
BRANCH  10  11
ATOM     11  C   UNL     1      46.033   3.707 132.574  1.00  0.00    -0.000 C 
BRANCH  11  12
ATOM     12  C   UNL     1      44.652   3.762 131.903  1.00  0.00    -0.000 C 
BRANCH  12  13
ATOM     13  C   UNL     1      43.631   2.809 132.550  1.00  0.00    -0.000 C 
BRANCH  13  14
ATOM     14  C   UNL     1      43.964   1.312 132.414  1.00  0.00    -0.000 C 
BRANCH  14  15
ATOM     15  C   UNL     1      42.784   0.482 131.888  1.00  0.00    -0.003 C 
ATOM     16  C   UNL     1      42.083  -0.259 133.023  1.00  0.00     0.004 C 
ENDBRANCH  14  15
ENDBRANCH  13  14
ENDBRANCH  12  13
ENDBRANCH  11  12
ENDBRANCH  10  11
ENDBRANCH   1  10
TORSDOF 12
ENDMDL
MODEL 5
REMARK VINA RESULT:    -4.870      3.027      6.189
REMARK INTER + INTRA:          -9.286
REMARK INTER:                  -8.296
REMARK INTRA:                  -0.990
REMARK UNBOUND:                -0.999
REMARK SMILES CCCCCCCCCCCCCC(=O)[O-]
REMARK SMILES IDX 8 1 9 2 10 3 11 4 12 5 13 6 14 7 15 8 16 9 7 10 6 11 5 12
REMARK SMILES IDX 4 13 3 14 2 15 1 16
REMARK H PARENT
REMARK Flexibility Score: inf
ROOT
ATOM      1  C   UNL     1      47.487   4.591 130.563  1.00  0.00     0.000 C 
ENDROOT
BRANCH   1   2
ATOM      2  C   UNL     1      46.794   5.549 129.573  1.00  0.00     0.000 C 
BRANCH   2   3
ATOM      3  C   UNL     1      46.603   4.991 128.152  1.00  0.00     0.000 C 
BRANCH   3   4
ATOM      4  C   UNL     1      45.186   4.450 127.908  1.00  0.00     0.000 C 
BRANCH   4   5
ATOM      5  C   UNL     1      44.459   5.279 126.839  1.00  0.00     0.006 C 
BRANCH   5   6
ATOM      6  C   UNL     1      43.207   5.971 127.393  1.00  0.00     0.053 C 
BRANCH   6   7
ATOM      7  C   UNL     1      43.560   7.084 128.331  1.00  0.00     0.041 C 
ATOM      8  O   UNL     1      42.876   7.279 129.371  1.00  0.00    -0.550 OA
ATOM      9  O   UNL     1      44.663   7.888 128.073  1.00  0.00    -0.550 OA
ENDBRANCH   6   7
ENDBRANCH   5   6
ENDBRANCH   4   5
ENDBRANCH   3   4
ENDBRANCH   2   3
ENDBRANCH   1   2
BRANCH   1  10
ATOM     10  C   UNL     1      46.666   4.244 131.818  1.00  0.00     0.000 C 
BRANCH  10  11
ATOM     11  C   UNL     1      45.159   4.150 131.537  1.00  0.00    -0.000 C 
BRANCH  11  12
ATOM     12  C   UNL     1      44.484   3.156 132.494  1.00  0.00    -0.000 C 
BRANCH  12  13
ATOM     13  C   UNL     1      45.341   1.907 132.767  1.00  0.00    -0.000 C 
BRANCH  13  14
ATOM     14  C   UNL     1      44.565   0.578 132.787  1.00  0.00    -0.000 C 
BRANCH  14  15
ATOM     15  C   UNL     1      43.419   0.539 131.766  1.00  0.00    -0.003 C 
ATOM     16  C   UNL     1      42.109   0.114 132.425  1.00  0.00     0.004 C 
ENDBRANCH  14  15
ENDBRANCH  13  14
ENDBRANCH  12  13
ENDBRANCH  11  12
ENDBRANCH  10  11
ENDBRANCH   1  10
TORSDOF 12
ENDMDL
MODEL 6
REMARK VINA RESULT:    -4.852      3.078      6.353
REMARK INTER + INTRA:          -9.255
REMARK INTER:                  -8.190
REMARK INTRA:                  -1.064
REMARK UNBOUND:                -0.999
REMARK SMILES CCCCCCCCCCCCCC(=O)[O-]
REMARK SMILES IDX 8 1 9 2 10 3 11 4 12 5 13 6 14 7 15 8 16 9 7 10 6 11 5 12
REMARK SMILES IDX 4 13 3 14 2 15 1 16
REMARK H PARENT
REMARK Flexibility Score: inf
ROOT
ATOM      1  C   UNL     1      45.505   4.123 131.449  1.00  0.00     0.000 C 
ENDROOT
BRANCH   1   2
ATOM      2  C   UNL     1      46.998   4.511 131.470  1.00  0.00     0.000 C 
BRANCH   2   3
ATOM      3  C   UNL     1      47.622   4.778 130.090  1.00  0.00     0.000 C 
BRANCH   3   4
ATOM      4  C   UNL     1      46.798   5.757 129.241  1.00  0.00     0.000 C 
BRANCH   4   5
ATOM      5  C   UNL     1      46.343   5.098 127.930  1.00  0.00     0.006 C 
BRANCH   5   6
ATOM      6  C   UNL     1      44.827   4.865 127.892  1.00  0.00     0.053 C 
BRANCH   6   7
ATOM      7  C   UNL     1      44.178   5.625 126.776  1.00  0.00     0.041 C 
ATOM      8  O   UNL     1      42.925   5.608 126.641  1.00  0.00    -0.550 OA
ATOM      9  O   UNL     1      44.954   6.376 125.903  1.00  0.00    -0.550 OA
ENDBRANCH   6   7
ENDBRANCH   5   6
ENDBRANCH   4   5
ENDBRANCH   3   4
ENDBRANCH   2   3
ENDBRANCH   1   2
BRANCH   1  10
ATOM     10  C   UNL     1      44.820   4.089 132.827  1.00  0.00     0.000 C 
BRANCH  10  11
ATOM     11  C   UNL     1      45.816   3.918 133.983  1.00  0.00    -0.000 C 
BRANCH  11  12
ATOM     12  C   UNL     1      45.694   2.522 134.611  1.00  0.00    -0.000 C 
BRANCH  12  13
ATOM     13  C   UNL     1      44.271   1.942 134.516  1.00  0.00    -0.000 C 
BRANCH  13  14
ATOM     14  C   UNL     1      44.184   0.531 133.909  1.00  0.00    -0.000 C 
BRANCH  14  15
ATOM     15  C   UNL     1      44.250   0.534 132.375  1.00  0.00    -0.003 C 
ATOM     16  C   UNL     1      42.865   0.344 131.764  1.00  0.00     0.004 C 
ENDBRANCH  14  15
ENDBRANCH  13  14
ENDBRANCH  12  13
ENDBRANCH  11  12
ENDBRANCH  10  11
ENDBRANCH   1  10
TORSDOF 12
ENDMDL
MODEL 7
REMARK VINA RESULT:    -4.842      6.971      9.724
REMARK INTER + INTRA:          -9.238
REMARK INTER:                  -8.335
REMARK INTRA:                  -0.903
REMARK UNBOUND:                -0.999
REMARK SMILES CCCCCCCCCCCCCC(=O)[O-]
REMARK SMILES IDX 8 1 9 2 10 3 11 4 12 5 13 6 14 7 15 8 16 9 7 10 6 11 5 12
REMARK SMILES IDX 4 13 3 14 2 15 1 16
REMARK H PARENT
REMARK Flexibility Score: inf
ROOT
ATOM      1  C   UNL     1      46.461   7.850 125.768  1.00  0.00     0.000 C 
ENDROOT
BRANCH   1   2
ATOM      2  C   UNL     1      47.174   8.464 124.545  1.00  0.00     0.000 C 
BRANCH   2   3
ATOM      3  C   UNL     1      46.320   9.434 123.712  1.00  0.00     0.000 C 
BRANCH   3   4
ATOM      4  C   UNL     1      46.491  10.899 124.139  1.00  0.00     0.000 C 
BRANCH   4   5
ATOM      5  C   UNL     1      45.163  11.663 124.025  1.00  0.00     0.006 C 
BRANCH   5   6
ATOM      6  C   UNL     1      44.427  11.355 122.714  1.00  0.00     0.053 C 
BRANCH   6   7
ATOM      7  C   UNL     1      44.947  12.183 121.580  1.00  0.00     0.041 C 
ATOM      8  O   UNL     1      44.520  13.356 121.403  1.00  0.00    -0.550 OA
ATOM      9  O   UNL     1      45.925  11.673 120.737  1.00  0.00    -0.550 OA
ENDBRANCH   6   7
ENDBRANCH   5   6
ENDBRANCH   4   5
ENDBRANCH   3   4
ENDBRANCH   2   3
ENDBRANCH   1   2
BRANCH   1  10
ATOM     10  C   UNL     1      47.383   7.121 126.762  1.00  0.00     0.000 C 
BRANCH  10  11
ATOM     11  C   UNL     1      46.641   6.631 128.015  1.00  0.00    -0.000 C 
BRANCH  11  12
ATOM     12  C   UNL     1      46.337   5.128 127.920  1.00  0.00    -0.000 C 
BRANCH  12  13
ATOM     13  C   UNL     1      44.830   4.816 127.952  1.00  0.00    -0.000 C 
BRANCH  13  14
ATOM     14  C   UNL     1      44.122   4.895 126.587  1.00  0.00    -0.000 C 
BRANCH  14  15
ATOM     15  C   UNL     1      42.768   5.615 126.657  1.00  0.00    -0.003 C 
ATOM     16  C   UNL     1      42.606   6.358 127.980  1.00  0.00     0.004 C 
ENDBRANCH  14  15
ENDBRANCH  13  14
ENDBRANCH  12  13
ENDBRANCH  11  12
ENDBRANCH  10  11
ENDBRANCH   1  10
TORSDOF 12
ENDMDL
MODEL 8
REMARK VINA RESULT:    -4.770      2.623      5.993
REMARK INTER + INTRA:          -9.116
REMARK INTER:                  -8.006
REMARK INTRA:                  -1.109
REMARK UNBOUND:                -0.999
REMARK SMILES CCCCCCCCCCCCCC(=O)[O-]
REMARK SMILES IDX 8 1 9 2 10 3 11 4 12 5 13 6 14 7 15 8 16 9 7 10 6 11 5 12
REMARK SMILES IDX 4 13 3 14 2 15 1 16
REMARK H PARENT
REMARK Flexibility Score: inf
ROOT
ATOM      1  C   UNL     1      47.017   4.335 131.296  1.00  0.00     0.000 C 
ENDROOT
BRANCH   1   2
ATOM      2  C   UNL     1      47.881   4.900 130.150  1.00  0.00     0.000 C 
BRANCH   2   3
ATOM      3  C   UNL     1      47.114   5.231 128.858  1.00  0.00     0.000 C 
BRANCH   3   4
ATOM      4  C   UNL     1      47.031   6.739 128.582  1.00  0.00     0.000 C 
BRANCH   4   5
ATOM      5  C   UNL     1      45.688   7.105 127.932  1.00  0.00     0.006 C 
BRANCH   5   6
ATOM      6  C   UNL     1      44.876   5.864 127.539  1.00  0.00     0.053 C 
BRANCH   6   7
ATOM      7  C   UNL     1      43.437   5.999 127.932  1.00  0.00     0.041 C 
ATOM      8  O   UNL     1      42.526   5.734 127.102  1.00  0.00    -0.550 OA
ATOM      9  O   UNL     1      43.101   6.386 129.222  1.00  0.00    -0.550 OA
ENDBRANCH   6   7
ENDBRANCH   5   6
ENDBRANCH   4   5
ENDBRANCH   3   4
ENDBRANCH   2   3
ENDBRANCH   1   2
BRANCH   1  10
ATOM     10  C   UNL     1      45.497   4.495 131.107  1.00  0.00     0.000 C 
BRANCH  10  11
ATOM     11  C   UNL     1      44.696   4.108 132.359  1.00  0.00    -0.000 C 
BRANCH  11  12
ATOM     12  C   UNL     1      45.629   3.619 133.478  1.00  0.00    -0.000 C 
BRANCH  12  13
ATOM     13  C   UNL     1      45.190   2.272 134.080  1.00  0.00    -0.000 C 
BRANCH  13  14
ATOM     14  C   UNL     1      43.881   1.700 133.507  1.00  0.00    -0.000 C 
BRANCH  14  15
ATOM     15  C   UNL     1      44.115   0.568 132.495  1.00  0.00    -0.003 C 
ATOM     16  C   UNL     1      42.853   0.287 131.684  1.00  0.00     0.004 C 
ENDBRANCH  14  15
ENDBRANCH  13  14
ENDBRANCH  12  13
ENDBRANCH  11  12
ENDBRANCH  10  11
ENDBRANCH   1  10
TORSDOF 12
ENDMDL
MODEL 9
REMARK VINA RESULT:    -4.721      4.968      6.607
REMARK INTER + INTRA:          -9.031
REMARK INTER:                  -8.091
REMARK INTRA:                  -0.941
REMARK UNBOUND:                -0.999
REMARK SMILES CCCCCCCCCCCCCC(=O)[O-]
REMARK SMILES IDX 8 1 9 2 10 3 11 4 12 5 13 6 14 7 15 8 16 9 7 10 6 11 5 12
REMARK SMILES IDX 4 13 3 14 2 15 1 16
REMARK H PARENT
REMARK Flexibility Score: inf
ROOT
ATOM      1  C   UNL     1      46.630   7.931 125.625  1.00  0.00     0.000 C 
ENDROOT
BRANCH   1   2
ATOM      2  C   UNL     1      47.960   7.451 126.242  1.00  0.00     0.000 C 
BRANCH   2   3
ATOM      3  C   UNL     1      47.930   7.230 127.764  1.00  0.00     0.000 C 
BRANCH   3   4
ATOM      4  C   UNL     1      46.992   6.089 128.184  1.00  0.00     0.000 C 
BRANCH   4   5
ATOM      5  C   UNL     1      46.017   6.554 129.277  1.00  0.00     0.006 C 
BRANCH   5   6
ATOM      6  C   UNL     1      44.894   7.437 128.715  1.00  0.00     0.053 C 
BRANCH   6   7
ATOM      7  C   UNL     1      43.769   6.616 128.165  1.00  0.00     0.041 C 
ATOM      8  O   UNL     1      43.868   6.086 127.026  1.00  0.00    -0.550 OA
ATOM      9  O   UNL     1      42.623   6.409 128.922  1.00  0.00    -0.550 OA
ENDBRANCH   6   7
ENDBRANCH   5   6
ENDBRANCH   4   5
ENDBRANCH   3   4
ENDBRANCH   2   3
ENDBRANCH   1   2
BRANCH   1  10
ATOM     10  C   UNL     1      46.698   8.298 124.132  1.00  0.00     0.000 C 
BRANCH  10  11
ATOM     11  C   UNL     1      47.813   9.306 123.815  1.00  0.00    -0.000 C 
BRANCH  11  12
ATOM     12  C   UNL     1      47.250  10.537 123.089  1.00  0.00    -0.000 C 
BRANCH  12  13
ATOM     13  C   UNL     1      46.685  11.596 124.052  1.00  0.00    -0.000 C 
BRANCH  13  14
ATOM     14  C   UNL     1      45.148  11.688 124.086  1.00  0.00    -0.000 C 
BRANCH  14  15
ATOM     15  C   UNL     1      44.493  11.247 122.770  1.00  0.00    -0.003 C 
ATOM     16  C   UNL     1      44.416  12.404 121.778  1.00  0.00     0.004 C 
ENDBRANCH  14  15
ENDBRANCH  13  14
ENDBRANCH  12  13
ENDBRANCH  11  12
ENDBRANCH  10  11
ENDBRANCH   1  10
TORSDOF 12
ENDMDL
