MODEL 1
REMARK VINA RESULT:    -4.388      0.000      0.000
REMARK INTER + INTRA:          -7.689
REMARK INTER:                  -6.954
REMARK INTRA:                  -0.735
REMARK UNBOUND:                -0.735
REMARK SMILES CCCCCCCCCCCC(=O)[O-]
REMARK SMILES IDX 7 1 8 2 9 3 10 4 11 5 12 6 13 7 14 8 6 9 5 10 4 11 3 12 2 13
REMARK SMILES IDX 1 14
REMARK H PARENT
REMARK Flexibility Score: inf
ROOT
ATOM      1  C   UNL     1      31.526   8.637  49.227  1.00  0.00     0.000 C 
ENDROOT
BRANCH   1   2
ATOM      2  C   UNL     1      30.137   8.040  48.938  1.00  0.00     0.000 C 
BRANCH   2   3
ATOM      3  C   UNL     1      30.206   6.666  48.249  1.00  0.00     0.000 C 
BRANCH   3   4
ATOM      4  C   UNL     1      31.535   6.445  47.507  1.00  0.00     0.006 C 
BRANCH   4   5
ATOM      5  C   UNL     1      32.255   5.164  47.950  1.00  0.00     0.053 C 
BRANCH   5   6
ATOM      6  C   UNL     1      33.737   5.366  47.933  1.00  0.00     0.041 C 
ATOM      7  O   UNL     1      34.480   4.550  47.326  1.00  0.00    -0.550 OA
ATOM      8  O   UNL     1      34.295   6.482  48.543  1.00  0.00    -0.550 OA
ENDBRANCH   5   6
ENDBRANCH   4   5
ENDBRANCH   3   4
ENDBRANCH   2   3
ENDBRANCH   1   2
BRANCH   1   9
ATOM      9  C   UNL     1      31.824   9.977  48.530  1.00  0.00     0.000 C 
BRANCH   9  10
ATOM     10  C   UNL     1      33.326  10.204  48.285  1.00  0.00    -0.000 C 
BRANCH  10  11
ATOM     11  C   UNL     1      33.793   9.642  46.932  1.00  0.00    -0.000 C 
BRANCH  11  12
ATOM     12  C   UNL     1      34.740  10.599  46.186  1.00  0.00    -0.000 C 
BRANCH  12  13
ATOM     13  C   UNL     1      34.543  10.553  44.663  1.00  0.00    -0.003 C 
ATOM     14  C   UNL     1      34.663   9.138  44.096  1.00  0.00     0.004 C 
ENDBRANCH  12  13
ENDBRANCH  11  12
ENDBRANCH  10  11
ENDBRANCH   9  10
ENDBRANCH   1   9
TORSDOF 10
ENDMDL
MODEL 2
REMARK VINA RESULT:    -4.273      1.388      3.059
REMARK INTER + INTRA:          -7.506
REMARK INTER:                  -6.411
REMARK INTRA:                  -1.095
REMARK UNBOUND:                -0.735
REMARK SMILES CCCCCCCCCCCC(=O)[O-]
REMARK SMILES IDX 7 1 8 2 9 3 10 4 11 5 12 6 13 7 14 8 6 9 5 10 4 11 3 12 2 13
REMARK SMILES IDX 1 14
REMARK H PARENT
REMARK Flexibility Score: inf
ROOT
ATOM      1  C   UNL     1      29.683   6.057  48.726  1.00  0.00     0.000 C 
ENDROOT
BRANCH   1   2
ATOM      2  C   UNL     1      30.949   5.365  48.188  1.00  0.00     0.000 C 
BRANCH   2   3
ATOM      3  C   UNL     1      31.743   6.245  47.208  1.00  0.00     0.000 C 
BRANCH   3   4
ATOM      4  C   UNL     1      33.242   6.296  47.542  1.00  0.00     0.006 C 
BRANCH   4   5
ATOM      5  C   UNL     1      34.132   6.082  46.311  1.00  0.00     0.053 C 
BRANCH   5   6
ATOM      6  C   UNL     1      35.029   4.902  46.514  1.00  0.00     0.041 C 
ATOM      7  O   UNL     1      35.367   4.556  47.676  1.00  0.00    -0.550 OA
ATOM      8  O   UNL     1      35.452   4.153  45.423  1.00  0.00    -0.550 OA
ENDBRANCH   5   6
ENDBRANCH   4   5
ENDBRANCH   3   4
ENDBRANCH   2   3
ENDBRANCH   1   2
BRANCH   1   9
ATOM      9  C   UNL     1      29.913   7.034  49.894  1.00  0.00     0.000 C 
BRANCH   9  10
ATOM     10  C   UNL     1      30.087   8.491  49.432  1.00  0.00    -0.000 C 
BRANCH  10  11
ATOM     11  C   UNL     1      31.535   8.988  49.581  1.00  0.00    -0.000 C 
BRANCH  11  12
ATOM     12  C   UNL     1      31.985   9.868  48.402  1.00  0.00    -0.000 C 
BRANCH  12  13
ATOM     13  C   UNL     1      33.515   9.944  48.274  1.00  0.00    -0.003 C 
ATOM     14  C   UNL     1      33.990   9.867  46.824  1.00  0.00     0.004 C 
ENDBRANCH  12  13
ENDBRANCH  11  12
ENDBRANCH  10  11
ENDBRANCH   9  10
ENDBRANCH   1   9
TORSDOF 10
ENDMDL
MODEL 3
REMARK VINA RESULT:    -4.232      2.576      4.948
REMARK INTER + INTRA:          -7.441
REMARK INTER:                  -6.236
REMARK INTRA:                  -1.205
REMARK UNBOUND:                -0.735
REMARK SMILES CCCCCCCCCCCC(=O)[O-]
REMARK SMILES IDX 7 1 8 2 9 3 10 4 11 5 12 6 13 7 14 8 6 9 5 10 4 11 3 12 2 13
REMARK SMILES IDX 1 14
REMARK H PARENT
REMARK Flexibility Score: inf
ROOT
ATOM      1  C   UNL     1      31.601   9.259  48.315  1.00  0.00     0.000 C 
ENDROOT
BRANCH   1   2
ATOM      2  C   UNL     1      32.843   9.744  49.083  1.00  0.00     0.000 C 
BRANCH   2   3
ATOM      3  C   UNL     1      34.136   9.649  48.254  1.00  0.00     0.000 C 
BRANCH   3   4
ATOM      4  C   UNL     1      33.882   9.800  46.746  1.00  0.00     0.006 C 
BRANCH   4   5
ATOM      5  C   UNL     1      34.918  10.697  46.056  1.00  0.00     0.053 C 
BRANCH   5   6
ATOM      6  C   UNL     1      34.624  10.806  44.594  1.00  0.00     0.041 C 
ATOM      7  O   UNL     1      34.419  11.933  44.071  1.00  0.00    -0.550 OA
ATOM      8  O   UNL     1      34.625   9.669  43.797  1.00  0.00    -0.550 OA
ENDBRANCH   5   6
ENDBRANCH   4   5
ENDBRANCH   3   4
ENDBRANCH   2   3
ENDBRANCH   1   2
BRANCH   1   9
ATOM      9  C   UNL     1      30.594   8.438  49.142  1.00  0.00     0.000 C 
BRANCH   9  10
ATOM     10  C   UNL     1      30.475   6.980  48.665  1.00  0.00    -0.000 C 
BRANCH  10  11
ATOM     11  C   UNL     1      31.419   6.664  47.493  1.00  0.00    -0.000 C 
BRANCH  11  12
ATOM     12  C   UNL     1      32.521   5.659  47.872  1.00  0.00    -0.000 C 
BRANCH  12  13
ATOM     13  C   UNL     1      33.895   6.051  47.309  1.00  0.00    -0.003 C 
ATOM     14  C   UNL     1      33.849   6.377  45.816  1.00  0.00     0.004 C 
ENDBRANCH  12  13
ENDBRANCH  11  12
ENDBRANCH  10  11
ENDBRANCH   9  10
ENDBRANCH   1   9
TORSDOF 10
ENDMDL
MODEL 4
REMARK VINA RESULT:    -4.202      2.361      2.837
REMARK INTER + INTRA:          -7.393
REMARK INTER:                  -6.749
REMARK INTRA:                  -0.644
REMARK UNBOUND:                -0.735
REMARK SMILES CCCCCCCCCCCC(=O)[O-]
REMARK SMILES IDX 7 1 8 2 9 3 10 4 11 5 12 6 13 7 14 8 6 9 5 10 4 11 3 12 2 13
REMARK SMILES IDX 1 14
REMARK H PARENT
REMARK Flexibility Score: inf
ROOT
ATOM      1  C   UNL     1      31.906  10.225  48.393  1.00  0.00     0.000 C 
ENDROOT
BRANCH   1   2
ATOM      2  C   UNL     1      31.238   8.870  48.691  1.00  0.00     0.000 C 
BRANCH   2   3
ATOM      3  C   UNL     1      32.253   7.731  48.887  1.00  0.00     0.000 C 
BRANCH   3   4
ATOM      4  C   UNL     1      31.648   6.347  48.604  1.00  0.00     0.006 C 
BRANCH   4   5
ATOM      5  C   UNL     1      30.319   6.426  47.841  1.00  0.00     0.053 C 
BRANCH   5   6
ATOM      6  C   UNL     1      29.203   5.890  48.680  1.00  0.00     0.041 C 
ATOM      7  O   UNL     1      28.209   5.341  48.136  1.00  0.00    -0.550 OA
ATOM      8  O   UNL     1      29.282   5.951  50.065  1.00  0.00    -0.550 OA
ENDBRANCH   5   6
ENDBRANCH   4   5
ENDBRANCH   3   4
ENDBRANCH   2   3
ENDBRANCH   1   2
BRANCH   1   9
ATOM      9  C   UNL     1      33.251  10.466  49.102  1.00  0.00     0.000 C 
BRANCH   9  10
ATOM     10  C   UNL     1      34.378  10.862  48.132  1.00  0.00    -0.000 C 
BRANCH  10  11
ATOM     11  C   UNL     1      34.297  10.105  46.795  1.00  0.00    -0.000 C 
BRANCH  11  12
ATOM     12  C   UNL     1      34.989  10.857  45.644  1.00  0.00    -0.000 C 
BRANCH  12  13
ATOM     13  C   UNL     1      34.373  10.533  44.275  1.00  0.00    -0.003 C 
ATOM     14  C   UNL     1      34.634   9.092  43.837  1.00  0.00     0.004 C 
ENDBRANCH  12  13
ENDBRANCH  11  12
ENDBRANCH  10  11
ENDBRANCH   9  10
ENDBRANCH   1   9
TORSDOF 10
ENDMDL
MODEL 5
REMARK VINA RESULT:    -4.176      3.311      6.478
REMARK INTER + INTRA:          -7.352
REMARK INTER:                  -6.845
REMARK INTRA:                  -0.507
REMARK UNBOUND:                -0.735
REMARK SMILES CCCCCCCCCCCC(=O)[O-]
REMARK SMILES IDX 7 1 8 2 9 3 10 4 11 5 12 6 13 7 14 8 6 9 5 10 4 11 3 12 2 13
REMARK SMILES IDX 1 14
REMARK H PARENT
REMARK Flexibility Score: inf
ROOT
ATOM      1  C   UNL     1      33.695   7.509  44.494  1.00  0.00     0.000 C 
ENDROOT
BRANCH   1   2
ATOM      2  C   UNL     1      34.653   8.681  44.213  1.00  0.00     0.000 C 
BRANCH   2   3
ATOM      3  C   UNL     1      33.933   9.930  43.678  1.00  0.00     0.000 C 
BRANCH   3   4
ATOM      4  C   UNL     1      34.560  11.237  44.189  1.00  0.00     0.006 C 
BRANCH   4   5
ATOM      5  C   UNL     1      35.003  11.148  45.655  1.00  0.00     0.053 C 
BRANCH   5   6
ATOM      6  C   UNL     1      35.851  12.326  46.017  1.00  0.00     0.041 C 
ATOM      7  O   UNL     1      35.496  13.488  45.685  1.00  0.00    -0.550 OA
ATOM      8  O   UNL     1      37.009  12.148  46.763  1.00  0.00    -0.550 OA
ENDBRANCH   5   6
ENDBRANCH   4   5
ENDBRANCH   3   4
ENDBRANCH   2   3
ENDBRANCH   1   2
BRANCH   1   9
ATOM      9  C   UNL     1      33.985   6.714  45.780  1.00  0.00     0.000 C 
BRANCH   9  10
ATOM     10  C   UNL     1      33.478   7.422  47.049  1.00  0.00    -0.000 C 
BRANCH  10  11
ATOM     11  C   UNL     1      32.658   6.489  47.956  1.00  0.00    -0.000 C 
BRANCH  11  12
ATOM     12  C   UNL     1      31.201   6.332  47.484  1.00  0.00    -0.000 C 
BRANCH  12  13
ATOM     13  C   UNL     1      30.313   5.648  48.534  1.00  0.00    -0.003 C 
ATOM     14  C   UNL     1      28.825   5.916  48.313  1.00  0.00     0.004 C 
ENDBRANCH  12  13
ENDBRANCH  11  12
ENDBRANCH  10  11
ENDBRANCH   9  10
ENDBRANCH   1   9
TORSDOF 10
ENDMDL
MODEL 6
REMARK VINA RESULT:    -4.147      2.435      4.616
REMARK INTER + INTRA:          -7.306
REMARK INTER:                  -6.378
REMARK INTRA:                  -0.928
REMARK UNBOUND:                -0.735
REMARK SMILES CCCCCCCCCCCC(=O)[O-]
REMARK SMILES IDX 7 1 8 2 9 3 10 4 11 5 12 6 13 7 14 8 6 9 5 10 4 11 3 12 2 13
REMARK SMILES IDX 1 14
REMARK H PARENT
REMARK Flexibility Score: inf
ROOT
ATOM      1  C   UNL     1      30.145   7.990  48.960  1.00  0.00     0.000 C 
ENDROOT
BRANCH   1   2
ATOM      2  C   UNL     1      31.347   8.737  49.564  1.00  0.00     0.000 C 
BRANCH   2   3
ATOM      3  C   UNL     1      31.891   9.843  48.643  1.00  0.00     0.000 C 
BRANCH   3   4
ATOM      4  C   UNL     1      33.405   9.722  48.407  1.00  0.00     0.006 C 
BRANCH   4   5
ATOM      5  C   UNL     1      33.758   9.508  46.929  1.00  0.00     0.053 C 
BRANCH   5   6
ATOM      6  C   UNL     1      34.671  10.591  46.448  1.00  0.00     0.041 C 
ATOM      7  O   UNL     1      34.905  10.722  45.218  1.00  0.00    -0.550 OA
ATOM      8  O   UNL     1      35.224  11.488  47.353  1.00  0.00    -0.550 OA
ENDBRANCH   5   6
ENDBRANCH   4   5
ENDBRANCH   3   4
ENDBRANCH   2   3
ENDBRANCH   1   2
BRANCH   1   9
ATOM      9  C   UNL     1      30.395   6.510  48.614  1.00  0.00     0.000 C 
BRANCH   9  10
ATOM     10  C   UNL     1      31.449   6.323  47.508  1.00  0.00    -0.000 C 
BRANCH  10  11
ATOM     11  C   UNL     1      32.705   5.591  48.009  1.00  0.00    -0.000 C 
BRANCH  11  12
ATOM     12  C   UNL     1      33.940   5.863  47.132  1.00  0.00    -0.000 C 
BRANCH  12  13
ATOM     13  C   UNL     1      34.936   4.693  47.139  1.00  0.00    -0.003 C 
ATOM     14  C   UNL     1      35.467   4.363  45.744  1.00  0.00     0.004 C 
ENDBRANCH  12  13
ENDBRANCH  11  12
ENDBRANCH  10  11
ENDBRANCH   9  10
ENDBRANCH   1   9
TORSDOF 10
ENDMDL
MODEL 7
REMARK VINA RESULT:    -4.133     18.118     19.410
REMARK INTER + INTRA:          -7.283
REMARK INTER:                  -6.732
REMARK INTRA:                  -0.551
REMARK UNBOUND:                -0.735
REMARK SMILES CCCCCCCCCCCC(=O)[O-]
REMARK SMILES IDX 7 1 8 2 9 3 10 4 11 5 12 6 13 7 14 8 6 9 5 10 4 11 3 12 2 13
REMARK SMILES IDX 1 14
REMARK H PARENT
REMARK Flexibility Score: inf
ROOT
ATOM      1  C   UNL     1      20.746  14.069  34.674  1.00  0.00     0.000 C 
ENDROOT
BRANCH   1   2
ATOM      2  C   UNL     1      20.760  13.912  33.142  1.00  0.00     0.000 C 
BRANCH   2   3
ATOM      3  C   UNL     1      21.201  15.192  32.412  1.00  0.00     0.000 C 
BRANCH   3   4
ATOM      4  C   UNL     1      22.277  14.923  31.347  1.00  0.00     0.006 C 
BRANCH   4   5
ATOM      5  C   UNL     1      22.666  16.185  30.566  1.00  0.00     0.053 C 
BRANCH   5   6
ATOM      6  C   UNL     1      24.142  16.415  30.647  1.00  0.00     0.041 C 
ATOM      7  O   UNL     1      24.943  15.462  30.458  1.00  0.00    -0.550 OA
ATOM      8  O   UNL     1      24.636  17.692  30.881  1.00  0.00    -0.550 OA
ENDBRANCH   5   6
ENDBRANCH   4   5
ENDBRANCH   3   4
ENDBRANCH   2   3
ENDBRANCH   1   2
BRANCH   1   9
ATOM      9  C   UNL     1      19.511  13.484  35.384  1.00  0.00     0.000 C 
BRANCH   9  10
ATOM     10  C   UNL     1      19.842  12.249  36.241  1.00  0.00    -0.000 C 
BRANCH  10  11
ATOM     11  C   UNL     1      20.347  11.066  35.398  1.00  0.00    -0.000 C 
BRANCH  11  12
ATOM     12  C   UNL     1      21.712  10.538  35.872  1.00  0.00    -0.000 C 
BRANCH  12  13
ATOM     13  C   UNL     1      22.887  11.211  35.146  1.00  0.00    -0.003 C 
ATOM     14  C   UNL     1      24.241  10.859  35.763  1.00  0.00     0.004 C 
ENDBRANCH  12  13
ENDBRANCH  11  12
ENDBRANCH  10  11
ENDBRANCH   9  10
ENDBRANCH   1   9
TORSDOF 10
ENDMDL
MODEL 8
REMARK VINA RESULT:    -4.042     18.291     19.469
REMARK INTER + INTRA:          -7.139
REMARK INTER:                  -5.986
REMARK INTRA:                  -1.153
REMARK UNBOUND:                -0.735
REMARK SMILES CCCCCCCCCCCC(=O)[O-]
REMARK SMILES IDX 7 1 8 2 9 3 10 4 11 5 12 6 13 7 14 8 6 9 5 10 4 11 3 12 2 13
REMARK SMILES IDX 1 14
REMARK H PARENT
REMARK Flexibility Score: inf
ROOT
ATOM      1  C   UNL     1      20.460  13.753  35.354  1.00  0.00     0.000 C 
ENDROOT
BRANCH   1   2
ATOM      2  C   UNL     1      20.436  14.151  33.867  1.00  0.00     0.000 C 
BRANCH   2   3
ATOM      3  C   UNL     1      21.323  13.250  32.991  1.00  0.00     0.000 C 
BRANCH   3   4
ATOM      4  C   UNL     1      21.738  13.931  31.676  1.00  0.00     0.006 C 
BRANCH   4   5
ATOM      5  C   UNL     1      21.691  15.462  31.761  1.00  0.00     0.053 C 
BRANCH   5   6
ATOM      6  C   UNL     1      22.815  16.063  30.977  1.00  0.00     0.041 C 
ATOM      7  O   UNL     1      23.778  15.345  30.598  1.00  0.00    -0.550 OA
ATOM      8  O   UNL     1      22.776  17.405  30.621  1.00  0.00    -0.550 OA
ENDBRANCH   5   6
ENDBRANCH   4   5
ENDBRANCH   3   4
ENDBRANCH   2   3
ENDBRANCH   1   2
BRANCH   1   9
ATOM      9  C   UNL     1      19.238  12.952  35.841  1.00  0.00     0.000 C 
BRANCH   9  10
ATOM     10  C   UNL     1      19.597  11.525  36.291  1.00  0.00    -0.000 C 
BRANCH  10  11
ATOM     11  C   UNL     1      19.616  10.525  35.123  1.00  0.00    -0.000 C 
BRANCH  11  12
ATOM     12  C   UNL     1      21.031  10.014  34.802  1.00  0.00    -0.000 C 
BRANCH  12  13
ATOM     13  C   UNL     1      22.045  10.358  35.903  1.00  0.00    -0.003 C 
ATOM     14  C   UNL     1      23.274  11.090  35.366  1.00  0.00     0.004 C 
ENDBRANCH  12  13
ENDBRANCH  11  12
ENDBRANCH  10  11
ENDBRANCH   9  10
ENDBRANCH   1   9
TORSDOF 10
ENDMDL
MODEL 9
REMARK VINA RESULT:    -3.890     17.955     19.032
REMARK INTER + INTRA:          -6.898
REMARK INTER:                  -5.549
REMARK INTRA:                  -1.349
REMARK UNBOUND:                -0.735
REMARK SMILES CCCCCCCCCCCC(=O)[O-]
REMARK SMILES IDX 7 1 8 2 9 3 10 4 11 5 12 6 13 7 14 8 6 9 5 10 4 11 3 12 2 13
REMARK SMILES IDX 1 14
REMARK H PARENT
REMARK Flexibility Score: inf
ROOT
ATOM      1  C   UNL     1      19.425  12.998  35.682  1.00  0.00     0.000 C 
ENDROOT
BRANCH   1   2
ATOM      2  C   UNL     1      20.715  13.817  35.496  1.00  0.00     0.000 C 
BRANCH   2   3
ATOM      3  C   UNL     1      20.761  14.566  34.153  1.00  0.00     0.000 C 
BRANCH   3   4
ATOM      4  C   UNL     1      20.187  13.735  32.994  1.00  0.00     0.006 C 
BRANCH   4   5
ATOM      5  C   UNL     1      20.582  14.285  31.617  1.00  0.00     0.053 C 
BRANCH   5   6
ATOM      6  C   UNL     1      21.964  13.843  31.254  1.00  0.00     0.041 C 
ATOM      7  O   UNL     1      22.890  14.688  31.141  1.00  0.00    -0.550 OA
ATOM      8  O   UNL     1      22.242  12.492  31.090  1.00  0.00    -0.550 OA
ENDBRANCH   5   6
ENDBRANCH   4   5
ENDBRANCH   3   4
ENDBRANCH   2   3
ENDBRANCH   1   2
BRANCH   1   9
ATOM      9  C   UNL     1      19.561  11.749  36.573  1.00  0.00     0.000 C 
BRANCH   9  10
ATOM     10  C   UNL     1      19.456  10.434  35.782  1.00  0.00    -0.000 C 
BRANCH  10  11
ATOM     11  C   UNL     1      20.828   9.788  35.526  1.00  0.00    -0.000 C 
BRANCH  11  12
ATOM     12  C   UNL     1      21.435  10.198  34.173  1.00  0.00    -0.000 C 
BRANCH  12  13
ATOM     13  C   UNL     1      22.635  11.144  34.328  1.00  0.00    -0.003 C 
ATOM     14  C   UNL     1      23.333  10.993  35.680  1.00  0.00     0.004 C 
ENDBRANCH  12  13
ENDBRANCH  11  12
ENDBRANCH  10  11
ENDBRANCH   9  10
ENDBRANCH   1   9
TORSDOF 10
ENDMDL
