MODEL 1
REMARK VINA RESULT:    15.763      0.000      0.000
REMARK INTER + INTRA:          18.584
REMARK INTER:                  17.145
REMARK INTRA:                   1.438
REMARK UNBOUND:                 1.438
REMARK SMILES C[C@H]1[C@H](C)CC[C@]2(C(=O)[O-])CC[C@@]3(C)C(=CC[C@@H]4[C@]5(C)CC[C@@H](O)C(C)(C)[C@@H]5CC[C@]43C)[C@H]12
REMARK SMILES IDX 7 1 6 2 11 3 33 4 5 5 12 6 15 7 2 8 3 9 13 10 16 11 1 12
REMARK SMILES IDX 4 13 14 14 31 15 17 16 18 17 30 18 32 19 19 20 29 21 28 22
REMARK SMILES IDX 21 23 20 24 25 25 22 26 23 27 26 28 27 29 8 30 9 31 10 32
REMARK SMILES IDX 24 33
REMARK H PARENT 24 34
REMARK Flexibility Score: inf
ROOT
ATOM      1  C   UNL     1       1.337  -3.720  -4.350  1.00  0.00     0.017 C 
ATOM      2  C   UNL     1       1.080  -5.172  -4.871  1.00  0.00     0.014 C 
ATOM      3  C   UNL     1       1.220  -2.771  -5.572  1.00  0.00     0.014 C 
ATOM      4  C   UNL     1       2.778  -3.566  -3.729  1.00  0.00     0.030 C 
ATOM      5  C   UNL     1       1.799  -6.214  -4.016  1.00  0.00     0.004 C 
ATOM      6  C   UNL     1       1.258  -1.302  -5.169  1.00  0.00     0.013 C 
ATOM      7  C   UNL     1       3.254  -2.096  -3.663  1.00  0.00    -0.063 C 
ATOM      8  C   UNL     1       3.758  -4.575  -4.449  1.00  0.00    -0.003 C 
ATOM      9  C   UNL     1       3.338  -6.040  -4.080  1.00  0.00    -0.011 C 
ATOM     10  C   UNL     1       2.508  -0.885  -4.301  1.00  0.00    -0.006 C 
ATOM     11  C   UNL     1       4.317  -1.791  -2.876  1.00  0.00    -0.027 C 
ATOM     12  C   UNL     1       5.258  -4.369  -4.158  1.00  0.00     0.008 C 
ATOM     13  C   UNL     1       3.956  -7.089  -5.019  1.00  0.00     0.008 C 
ATOM     14  C   UNL     1       1.864  -0.162  -3.055  1.00  0.00     0.017 C 
ATOM     15  C   UNL     1       3.579   0.075  -5.104  1.00  0.00    -0.020 C 
ATOM     16  C   UNL     1       5.117  -0.533  -3.131  1.00  0.00     0.032 C 
ATOM     17  C   UNL     1       5.065  -0.252  -4.654  1.00  0.00     0.006 C 
ATOM     18  C   UNL     1       3.602  -0.166  -6.644  1.00  0.00     0.008 C 
ATOM     19  C   UNL     1       3.192   1.566  -4.866  1.00  0.00     0.012 C 
ATOM     20  C   UNL     1       6.267   0.569  -5.297  1.00  0.00    -0.025 C 
ATOM     21  C   UNL     1       4.653   0.678  -7.388  1.00  0.00     0.005 C 
ATOM     22  C   UNL     1       6.129   0.566  -6.891  1.00  0.00     0.003 C 
ATOM     23  C   UNL     1       6.393   2.005  -4.676  1.00  0.00     0.010 C 
ATOM     24  C   UNL     1       7.587  -0.208  -4.949  1.00  0.00     0.012 C 
ATOM     25  C   UNL     1       7.124   1.569  -7.674  1.00  0.00    -0.006 C 
ATOM     26  C   UNL     1       6.565   3.125  -5.709  1.00  0.00     0.033 C 
ATOM     27  C   UNL     1       7.612   2.760  -6.761  1.00  0.00     0.120 C 
ATOM     28  C   UNL     1       6.470   2.216  -8.940  1.00  0.00     0.014 C 
ATOM     29  C   UNL     1       8.334   0.775  -8.246  1.00  0.00     0.014 C 
ENDROOT
BRANCH   1  30
ATOM     30  C   UNL     1       0.259  -3.432  -3.308  1.00  0.00     0.048 C 
ATOM     31  O   UNL     1       0.087  -2.258  -2.875  1.00  0.00    -0.550 OA
ATOM     32  O   UNL     1      -0.642  -4.420  -2.928  1.00  0.00    -0.550 OA
ENDBRANCH   1  30
BRANCH  27  33
ATOM     33  O   UNL     1       8.836   2.485  -6.127  1.00  0.00    -0.393 OA
ATOM     34  H   UNL     1       9.191   3.340  -5.769  1.00  0.00     0.210 HD
ENDBRANCH  27  33
TORSDOF 2
ENDMDL
