MODEL 1
REMARK VINA RESULT:    -4.638      0.000      0.000
REMARK INTER + INTRA:         -10.053
REMARK INTER:                  -8.705
REMARK INTRA:                  -1.348
REMARK UNBOUND:                -1.348
REMARK SMILES CCCCCCCCC=CCCCCCCCC(=O)[O-]
REMARK SMILES IDX 10 1 9 2 11 3 12 4 13 5 14 6 15 7 16 8 17 9 18 10 19 11
REMARK SMILES IDX 20 12 8 13 7 14 6 15 5 16 4 17 3 18 2 19 1 20
REMARK H PARENT
REMARK Flexibility Score: inf
ROOT
ATOM      1  C   UNL     1      55.747  -0.214  83.817  1.00  0.00    -0.031 C 
ATOM      2  C   UNL     1      54.531  -0.220  83.250  1.00  0.00    -0.031 C 
ENDROOT
BRANCH   1   3
ATOM      3  C   UNL     1      56.760  -1.285  83.522  1.00  0.00     0.027 C 
BRANCH   3   4
ATOM      4  C   UNL     1      56.101  -2.513  82.881  1.00  0.00     0.004 C 
BRANCH   4   5
ATOM      5  C   UNL     1      57.104  -3.278  82.005  1.00  0.00     0.000 C 
BRANCH   5   6
ATOM      6  C   UNL     1      58.564  -3.086  82.455  1.00  0.00     0.000 C 
BRANCH   6   7
ATOM      7  C   UNL     1      59.482  -4.301  82.229  1.00  0.00     0.000 C 
BRANCH   7   8
ATOM      8  C   UNL     1      58.922  -5.596  82.842  1.00  0.00     0.006 C 
BRANCH   8   9
ATOM      9  C   UNL     1      60.031  -6.493  83.410  1.00  0.00     0.053 C 
BRANCH   9  10
ATOM     10  C   UNL     1      60.833  -7.143  82.324  1.00  0.00     0.041 C 
ATOM     11  O   UNL     1      62.018  -6.777  82.106  1.00  0.00    -0.550 OA
ATOM     12  O   UNL     1      60.263  -8.136  81.536  1.00  0.00    -0.550 OA
ENDBRANCH   9  10
ENDBRANCH   8   9
ENDBRANCH   7   8
ENDBRANCH   6   7
ENDBRANCH   5   6
ENDBRANCH   4   5
ENDBRANCH   3   4
ENDBRANCH   1   3
BRANCH   2  13
ATOM     13  C   UNL     1      53.520   0.855  83.541  1.00  0.00     0.027 C 
BRANCH  13  14
ATOM     14  C   UNL     1      52.178   0.549  82.860  1.00  0.00     0.004 C 
BRANCH  14  15
ATOM     15  C   UNL     1      52.134   1.032  81.401  1.00  0.00     0.000 C 
BRANCH  15  16
ATOM     16  C   UNL     1      51.939  -0.119  80.401  1.00  0.00     0.000 C 
BRANCH  16  17
ATOM     17  C   UNL     1      50.778  -1.053  80.785  1.00  0.00    -0.000 C 
BRANCH  17  18
ATOM     18  C   UNL     1      51.090  -2.548  80.569  1.00  0.00    -0.000 C 
BRANCH  18  19
ATOM     19  C   UNL     1      52.581  -2.798  80.297  1.00  0.00    -0.003 C 
ATOM     20  C   UNL     1      53.030  -4.136  80.876  1.00  0.00     0.004 C 
ENDBRANCH  18  19
ENDBRANCH  17  18
ENDBRANCH  16  17
ENDBRANCH  15  16
ENDBRANCH  14  15
ENDBRANCH  13  14
ENDBRANCH   2  13
TORSDOF 15
ENDMDL
MODEL 2
REMARK VINA RESULT:    -4.598      8.669     10.679
REMARK INTER + INTRA:          -9.978
REMARK INTER:                  -8.484
REMARK INTRA:                  -1.493
REMARK UNBOUND:                -1.348
REMARK SMILES CCCCCCCCC=CCCCCCCCC(=O)[O-]
REMARK SMILES IDX 10 1 9 2 11 3 12 4 13 5 14 6 15 7 16 8 17 9 18 10 19 11
REMARK SMILES IDX 20 12 8 13 7 14 6 15 5 16 4 17 3 18 2 19 1 20
REMARK H PARENT
REMARK Flexibility Score: inf
ROOT
ATOM      1  C   UNL     1      48.975  -4.564  72.389  1.00  0.00    -0.031 C 
ATOM      2  C   UNL     1      47.944  -4.010  73.045  1.00  0.00    -0.031 C 
ENDROOT
BRANCH   1   3
ATOM      3  C   UNL     1      50.086  -3.728  71.817  1.00  0.00     0.027 C 
BRANCH   3   4
ATOM      4  C   UNL     1      49.649  -2.269  71.638  1.00  0.00     0.004 C 
BRANCH   4   5
ATOM      5  C   UNL     1      50.607  -1.316  72.368  1.00  0.00     0.000 C 
BRANCH   5   6
ATOM      6  C   UNL     1      51.770  -2.048  73.062  1.00  0.00     0.000 C 
BRANCH   6   7
ATOM      7  C   UNL     1      53.152  -1.836  72.416  1.00  0.00     0.000 C 
BRANCH   7   8
ATOM      8  C   UNL     1      53.965  -3.137  72.303  1.00  0.00     0.006 C 
BRANCH   8   9
ATOM      9  C   UNL     1      53.614  -4.138  73.413  1.00  0.00     0.053 C 
BRANCH   9  10
ATOM     10  C   UNL     1      54.600  -5.264  73.481  1.00  0.00     0.041 C 
ATOM     11  O   UNL     1      55.686  -5.195  72.847  1.00  0.00    -0.550 OA
ATOM     12  O   UNL     1      54.308  -6.401  74.224  1.00  0.00    -0.550 OA
ENDBRANCH   9  10
ENDBRANCH   8   9
ENDBRANCH   7   8
ENDBRANCH   6   7
ENDBRANCH   5   6
ENDBRANCH   4   5
ENDBRANCH   3   4
ENDBRANCH   1   3
BRANCH   2  13
ATOM     13  C   UNL     1      46.835  -4.847  73.622  1.00  0.00     0.027 C 
BRANCH  13  14
ATOM     14  C   UNL     1      46.543  -4.449  75.076  1.00  0.00     0.004 C 
BRANCH  14  15
ATOM     15  C   UNL     1      47.813  -4.048  75.844  1.00  0.00     0.000 C 
BRANCH  15  16
ATOM     16  C   UNL     1      47.503  -3.324  77.164  1.00  0.00     0.000 C 
BRANCH  16  17
ATOM     17  C   UNL     1      47.754  -4.204  78.401  1.00  0.00    -0.000 C 
BRANCH  17  18
ATOM     18  C   UNL     1      49.120  -4.922  78.382  1.00  0.00    -0.000 C 
BRANCH  18  19
ATOM     19  C   UNL     1      48.973  -6.451  78.396  1.00  0.00    -0.003 C 
ATOM     20  C   UNL     1      47.503  -6.863  78.383  1.00  0.00     0.004 C 
ENDBRANCH  18  19
ENDBRANCH  17  18
ENDBRANCH  16  17
ENDBRANCH  15  16
ENDBRANCH  14  15
ENDBRANCH  13  14
ENDBRANCH   2  13
TORSDOF 15
ENDMDL
MODEL 3
REMARK VINA RESULT:    -4.598      9.134     11.653
REMARK INTER + INTRA:          -9.978
REMARK INTER:                  -7.677
REMARK INTRA:                  -2.300
REMARK UNBOUND:                -1.348
REMARK SMILES CCCCCCCCC=CCCCCCCCC(=O)[O-]
REMARK SMILES IDX 10 1 9 2 11 3 12 4 13 5 14 6 15 7 16 8 17 9 18 10 19 11
REMARK SMILES IDX 20 12 8 13 7 14 6 15 5 16 4 17 3 18 2 19 1 20
REMARK H PARENT
REMARK Flexibility Score: inf
ROOT
ATOM      1  C   UNL     1      47.267  -3.408  75.184  1.00  0.00    -0.031 C 
ATOM      2  C   UNL     1      46.866  -4.689  75.150  1.00  0.00    -0.031 C 
ENDROOT
BRANCH   1   3
ATOM      3  C   UNL     1      47.276  -2.619  76.464  1.00  0.00     0.027 C 
BRANCH   3   4
ATOM      4  C   UNL     1      48.674  -2.598  77.095  1.00  0.00     0.004 C 
BRANCH   4   5
ATOM      5  C   UNL     1      48.597  -2.853  78.607  1.00  0.00     0.000 C 
BRANCH   5   6
ATOM      6  C   UNL     1      48.321  -4.327  78.955  1.00  0.00     0.000 C 
BRANCH   6   7
ATOM      7  C   UNL     1      49.389  -5.323  78.469  1.00  0.00     0.000 C 
BRANCH   7   8
ATOM      8  C   UNL     1      48.793  -6.671  78.027  1.00  0.00     0.006 C 
BRANCH   8   9
ATOM      9  C   UNL     1      47.323  -6.818  78.441  1.00  0.00     0.053 C 
BRANCH   9  10
ATOM     10  C   UNL     1      46.760  -8.147  78.039  1.00  0.00     0.041 C 
ATOM     11  O   UNL     1      46.879  -9.142  78.801  1.00  0.00    -0.550 OA
ATOM     12  O   UNL     1      46.126  -8.292  76.811  1.00  0.00    -0.550 OA
ENDBRANCH   9  10
ENDBRANCH   8   9
ENDBRANCH   7   8
ENDBRANCH   6   7
ENDBRANCH   5   6
ENDBRANCH   4   5
ENDBRANCH   3   4
ENDBRANCH   1   3
BRANCH   2  13
ATOM     13  C   UNL     1      46.862  -5.480  73.871  1.00  0.00     0.027 C 
BRANCH  13  14
ATOM     14  C   UNL     1      47.539  -4.697  72.735  1.00  0.00     0.004 C 
BRANCH  14  15
ATOM     15  C   UNL     1      48.934  -5.243  72.394  1.00  0.00     0.000 C 
BRANCH  15  16
ATOM     16  C   UNL     1      49.934  -4.131  72.038  1.00  0.00     0.000 C 
BRANCH  16  17
ATOM     17  C   UNL     1      50.405  -3.336  73.267  1.00  0.00    -0.000 C 
BRANCH  17  18
ATOM     18  C   UNL     1      50.185  -1.813  73.142  1.00  0.00    -0.000 C 
BRANCH  18  19
ATOM     19  C   UNL     1      49.590  -1.423  71.781  1.00  0.00    -0.003 C 
ATOM     20  C   UNL     1      48.176  -0.870  71.936  1.00  0.00     0.004 C 
ENDBRANCH  18  19
ENDBRANCH  17  18
ENDBRANCH  16  17
ENDBRANCH  15  16
ENDBRANCH  14  15
ENDBRANCH  13  14
ENDBRANCH   2  13
TORSDOF 15
ENDMDL
MODEL 4
REMARK VINA RESULT:    -4.587      9.669     12.108
REMARK INTER + INTRA:          -9.957
REMARK INTER:                  -7.602
REMARK INTRA:                  -2.355
REMARK UNBOUND:                -1.348
REMARK SMILES CCCCCCCCC=CCCCCCCCC(=O)[O-]
REMARK SMILES IDX 10 1 9 2 11 3 12 4 13 5 14 6 15 7 16 8 17 9 18 10 19 11
REMARK SMILES IDX 20 12 8 13 7 14 6 15 5 16 4 17 3 18 2 19 1 20
REMARK H PARENT
REMARK Flexibility Score: inf
ROOT
ATOM      1  C   UNL     1      48.916  -4.116  76.460  1.00  0.00    -0.031 C 
ATOM      2  C   UNL     1      49.009  -4.113  75.121  1.00  0.00    -0.031 C 
ENDROOT
BRANCH   1   3
ATOM      3  C   UNL     1      50.091  -4.465  77.331  1.00  0.00     0.027 C 
BRANCH   3   4
ATOM      4  C   UNL     1      49.720  -5.537  78.362  1.00  0.00     0.004 C 
BRANCH   4   5
ATOM      5  C   UNL     1      48.210  -5.526  78.646  1.00  0.00     0.000 C 
BRANCH   5   6
ATOM      6  C   UNL     1      47.532  -6.875  78.347  1.00  0.00     0.000 C 
BRANCH   6   7
ATOM      7  C   UNL     1      48.344  -7.829  77.451  1.00  0.00     0.000 C 
BRANCH   7   8
ATOM      8  C   UNL     1      47.941  -7.747  75.969  1.00  0.00     0.006 C 
BRANCH   8   9
ATOM      9  C   UNL     1      46.599  -7.027  75.774  1.00  0.00     0.053 C 
BRANCH   9  10
ATOM     10  C   UNL     1      45.513  -7.974  75.363  1.00  0.00     0.041 C 
ATOM     11  O   UNL     1      45.200  -8.940  76.108  1.00  0.00    -0.550 OA
ATOM     12  O   UNL     1      44.865  -7.805  74.146  1.00  0.00    -0.550 OA
ENDBRANCH   9  10
ENDBRANCH   8   9
ENDBRANCH   7   8
ENDBRANCH   6   7
ENDBRANCH   5   6
ENDBRANCH   4   5
ENDBRANCH   3   4
ENDBRANCH   1   3
BRANCH   2  13
ATOM     13  C   UNL     1      47.835  -3.758  74.249  1.00  0.00     0.027 C 
BRANCH  13  14
ATOM     14  C   UNL     1      48.062  -4.221  72.803  1.00  0.00     0.004 C 
BRANCH  14  15
ATOM     15  C   UNL     1      49.552  -4.368  72.457  1.00  0.00     0.000 C 
BRANCH  15  16
ATOM     16  C   UNL     1      50.097  -3.169  71.664  1.00  0.00     0.000 C 
BRANCH  16  17
ATOM     17  C   UNL     1      50.829  -2.149  72.552  1.00  0.00    -0.000 C 
BRANCH  17  18
ATOM     18  C   UNL     1      50.473  -0.682  72.232  1.00  0.00    -0.000 C 
BRANCH  18  19
ATOM     19  C   UNL     1      49.028  -0.531  71.733  1.00  0.00    -0.003 C 
ATOM     20  C   UNL     1      48.077  -0.217  72.885  1.00  0.00     0.004 C 
ENDBRANCH  18  19
ENDBRANCH  17  18
ENDBRANCH  16  17
ENDBRANCH  15  16
ENDBRANCH  14  15
ENDBRANCH  13  14
ENDBRANCH   2  13
TORSDOF 15
ENDMDL
MODEL 5
REMARK VINA RESULT:    -4.568     10.062     12.481
REMARK INTER + INTRA:          -9.922
REMARK INTER:                  -7.104
REMARK INTRA:                  -2.818
REMARK UNBOUND:                -1.348
REMARK SMILES CCCCCCCCC=CCCCCCCCC(=O)[O-]
REMARK SMILES IDX 10 1 9 2 11 3 12 4 13 5 14 6 15 7 16 8 17 9 18 10 19 11
REMARK SMILES IDX 20 12 8 13 7 14 6 15 5 16 4 17 3 18 2 19 1 20
REMARK H PARENT
REMARK Flexibility Score: inf
ROOT
ATOM      1  C   UNL     1      51.135  -3.667  72.641  1.00  0.00    -0.031 C 
ATOM      2  C   UNL     1      51.737  -2.522  72.997  1.00  0.00    -0.031 C 
ENDROOT
BRANCH   1   3
ATOM      3  C   UNL     1      51.020  -4.826  73.592  1.00  0.00     0.027 C 
BRANCH   3   4
ATOM      4  C   UNL     1      49.643  -5.493  73.491  1.00  0.00     0.004 C 
BRANCH   4   5
ATOM      5  C   UNL     1      48.818  -4.879  72.350  1.00  0.00     0.000 C 
BRANCH   5   6
ATOM      6  C   UNL     1      47.500  -4.246  72.835  1.00  0.00     0.000 C 
BRANCH   6   7
ATOM      7  C   UNL     1      46.958  -4.805  74.163  1.00  0.00     0.000 C 
BRANCH   7   8
ATOM      8  C   UNL     1      45.705  -5.679  73.977  1.00  0.00     0.006 C 
BRANCH   8   9
ATOM      9  C   UNL     1      46.008  -7.171  74.167  1.00  0.00     0.053 C 
BRANCH   9  10
ATOM     10  C   UNL     1      45.726  -7.624  75.568  1.00  0.00     0.041 C 
ATOM     11  O   UNL     1      46.552  -7.385  76.489  1.00  0.00    -0.550 OA
ATOM     12  O   UNL     1      44.565  -8.332  75.851  1.00  0.00    -0.550 OA
ENDBRANCH   9  10
ENDBRANCH   8   9
ENDBRANCH   7   8
ENDBRANCH   6   7
ENDBRANCH   5   6
ENDBRANCH   4   5
ENDBRANCH   3   4
ENDBRANCH   1   3
BRANCH   2  13
ATOM     13  C   UNL     1      51.847  -1.360  72.048  1.00  0.00     0.027 C 
BRANCH  13  14
ATOM     14  C   UNL     1      50.716  -0.348  72.280  1.00  0.00     0.004 C 
BRANCH  14  15
ATOM     15  C   UNL     1      49.405  -0.761  71.594  1.00  0.00     0.000 C 
BRANCH  15  16
ATOM     16  C   UNL     1      48.194  -0.688  72.538  1.00  0.00     0.000 C 
BRANCH  16  17
ATOM     17  C   UNL     1      48.581  -0.312  73.978  1.00  0.00    -0.000 C 
BRANCH  17  18
ATOM     18  C   UNL     1      48.308  -1.431  75.005  1.00  0.00    -0.000 C 
BRANCH  18  19
ATOM     19  C   UNL     1      49.587  -1.884  75.725  1.00  0.00    -0.003 C 
ATOM     20  C   UNL     1      49.351  -3.171  76.509  1.00  0.00     0.004 C 
ENDBRANCH  18  19
ENDBRANCH  17  18
ENDBRANCH  16  17
ENDBRANCH  15  16
ENDBRANCH  14  15
ENDBRANCH  13  14
ENDBRANCH   2  13
TORSDOF 15
ENDMDL
MODEL 6
REMARK VINA RESULT:    -4.531      8.792     11.795
REMARK INTER + INTRA:          -9.853
REMARK INTER:                  -7.171
REMARK INTRA:                  -2.683
REMARK UNBOUND:                -1.348
REMARK SMILES CCCCCCCCC=CCCCCCCCC(=O)[O-]
REMARK SMILES IDX 10 1 9 2 11 3 12 4 13 5 14 6 15 7 16 8 17 9 18 10 19 11
REMARK SMILES IDX 20 12 8 13 7 14 6 15 5 16 4 17 3 18 2 19 1 20
REMARK H PARENT
REMARK Flexibility Score: inf
ROOT
ATOM      1  C   UNL     1      49.713  -0.481  71.598  1.00  0.00    -0.031 C 
ATOM      2  C   UNL     1      50.660  -0.888  72.457  1.00  0.00    -0.031 C 
ENDROOT
BRANCH   1   3
ATOM      3  C   UNL     1      48.266  -0.400  72.001  1.00  0.00     0.027 C 
BRANCH   3   4
ATOM      4  C   UNL     1      47.988   0.863  72.825  1.00  0.00     0.004 C 
BRANCH   4   5
ATOM      5  C   UNL     1      47.371   0.506  74.185  1.00  0.00     0.000 C 
BRANCH   5   6
ATOM      6  C   UNL     1      48.415   0.034  75.214  1.00  0.00     0.000 C 
BRANCH   6   7
ATOM      7  C   UNL     1      48.407  -1.478  75.505  1.00  0.00     0.000 C 
BRANCH   7   8
ATOM      8  C   UNL     1      49.820  -2.061  75.678  1.00  0.00     0.006 C 
BRANCH   8   9
ATOM      9  C   UNL     1      49.863  -3.166  76.742  1.00  0.00     0.053 C 
BRANCH   9  10
ATOM     10  C   UNL     1      49.535  -2.640  78.106  1.00  0.00     0.041 C 
ATOM     11  O   UNL     1      50.191  -1.679  78.589  1.00  0.00    -0.550 OA
ATOM     12  O   UNL     1      48.523  -3.228  78.855  1.00  0.00    -0.550 OA
ENDBRANCH   9  10
ENDBRANCH   8   9
ENDBRANCH   7   8
ENDBRANCH   6   7
ENDBRANCH   5   6
ENDBRANCH   4   5
ENDBRANCH   3   4
ENDBRANCH   1   3
BRANCH   2  13
ATOM     13  C   UNL     1      52.108  -0.965  72.056  1.00  0.00     0.027 C 
BRANCH  13  14
ATOM     14  C   UNL     1      52.706  -2.335  72.406  1.00  0.00     0.004 C 
BRANCH  14  15
ATOM     15  C   UNL     1      51.716  -3.487  72.175  1.00  0.00     0.000 C 
BRANCH  15  16
ATOM     16  C   UNL     1      51.585  -4.410  73.398  1.00  0.00     0.000 C 
BRANCH  16  17
ATOM     17  C   UNL     1      50.199  -5.068  73.503  1.00  0.00    -0.000 C 
BRANCH  17  18
ATOM     18  C   UNL     1      49.262  -4.729  72.324  1.00  0.00    -0.000 C 
BRANCH  18  19
ATOM     19  C   UNL     1      47.996  -3.992  72.782  1.00  0.00    -0.003 C 
ATOM     20  C   UNL     1      46.885  -4.975  73.143  1.00  0.00     0.004 C 
ENDBRANCH  18  19
ENDBRANCH  17  18
ENDBRANCH  16  17
ENDBRANCH  15  16
ENDBRANCH  14  15
ENDBRANCH  13  14
ENDBRANCH   2  13
TORSDOF 15
ENDMDL
MODEL 7
REMARK VINA RESULT:    -4.526      9.752     11.662
REMARK INTER + INTRA:          -9.842
REMARK INTER:                  -7.330
REMARK INTRA:                  -2.512
REMARK UNBOUND:                -1.348
REMARK SMILES CCCCCCCCC=CCCCCCCCC(=O)[O-]
REMARK SMILES IDX 10 1 9 2 11 3 12 4 13 5 14 6 15 7 16 8 17 9 18 10 19 11
REMARK SMILES IDX 20 12 8 13 7 14 6 15 5 16 4 17 3 18 2 19 1 20
REMARK H PARENT
REMARK Flexibility Score: inf
ROOT
ATOM      1  C   UNL     1      49.519  -3.977  72.120  1.00  0.00    -0.031 C 
ATOM      2  C   UNL     1      50.536  -4.037  72.994  1.00  0.00    -0.031 C 
ENDROOT
BRANCH   1   3
ATOM      3  C   UNL     1      48.163  -4.535  72.450  1.00  0.00     0.027 C 
BRANCH   3   4
ATOM      4  C   UNL     1      48.267  -5.707  73.434  1.00  0.00     0.004 C 
BRANCH   4   5
ATOM      5  C   UNL     1      47.194  -5.600  74.528  1.00  0.00     0.000 C 
BRANCH   5   6
ATOM      6  C   UNL     1      47.428  -4.418  75.487  1.00  0.00     0.000 C 
BRANCH   6   7
ATOM      7  C   UNL     1      48.576  -4.612  76.494  1.00  0.00     0.000 C 
BRANCH   7   8
ATOM      8  C   UNL     1      48.092  -5.128  77.860  1.00  0.00     0.006 C 
BRANCH   8   9
ATOM      9  C   UNL     1      48.862  -6.377  78.312  1.00  0.00     0.053 C 
BRANCH   9  10
ATOM     10  C   UNL     1      48.051  -7.625  78.138  1.00  0.00     0.041 C 
ATOM     11  O   UNL     1      46.859  -7.555  77.737  1.00  0.00    -0.550 OA
ATOM     12  O   UNL     1      48.603  -8.862  78.444  1.00  0.00    -0.550 OA
ENDBRANCH   9  10
ENDBRANCH   8   9
ENDBRANCH   7   8
ENDBRANCH   6   7
ENDBRANCH   5   6
ENDBRANCH   4   5
ENDBRANCH   3   4
ENDBRANCH   1   3
BRANCH   2  13
ATOM     13  C   UNL     1      51.892  -3.474  72.666  1.00  0.00     0.027 C 
BRANCH  13  14
ATOM     14  C   UNL     1      52.022  -2.025  73.158  1.00  0.00     0.004 C 
BRANCH  14  15
ATOM     15  C   UNL     1      52.216  -1.027  72.006  1.00  0.00     0.000 C 
BRANCH  15  16
ATOM     16  C   UNL     1      51.181   0.110  72.026  1.00  0.00     0.000 C 
BRANCH  16  17
ATOM     17  C   UNL     1      49.733  -0.400  71.927  1.00  0.00    -0.000 C 
BRANCH  17  18
ATOM     18  C   UNL     1      48.814   0.125  73.050  1.00  0.00    -0.000 C 
BRANCH  18  19
ATOM     19  C   UNL     1      48.282  -1.006  73.941  1.00  0.00    -0.003 C 
ATOM     20  C   UNL     1      49.081  -1.110  75.237  1.00  0.00     0.004 C 
ENDBRANCH  18  19
ENDBRANCH  17  18
ENDBRANCH  16  17
ENDBRANCH  15  16
ENDBRANCH  14  15
ENDBRANCH  13  14
ENDBRANCH   2  13
TORSDOF 15
ENDMDL
MODEL 8
REMARK VINA RESULT:    -4.521      8.974     11.963
REMARK INTER + INTRA:          -9.833
REMARK INTER:                  -7.805
REMARK INTRA:                  -2.028
REMARK UNBOUND:                -1.348
REMARK SMILES CCCCCCCCC=CCCCCCCCC(=O)[O-]
REMARK SMILES IDX 10 1 9 2 11 3 12 4 13 5 14 6 15 7 16 8 17 9 18 10 19 11
REMARK SMILES IDX 20 12 8 13 7 14 6 15 5 16 4 17 3 18 2 19 1 20
REMARK H PARENT
REMARK Flexibility Score: inf
ROOT
ATOM      1  C   UNL     1      48.891  -3.158  74.461  1.00  0.00    -0.031 C 
ATOM      2  C   UNL     1      47.891  -3.500  73.634  1.00  0.00    -0.031 C 
ENDROOT
BRANCH   1   3
ATOM      3  C   UNL     1      48.692  -2.157  75.566  1.00  0.00     0.027 C 
BRANCH   3   4
ATOM      4  C   UNL     1      47.766  -1.017  75.125  1.00  0.00     0.004 C 
BRANCH   4   5
ATOM      5  C   UNL     1      48.546   0.053  74.347  1.00  0.00     0.000 C 
BRANCH   5   6
ATOM      6  C   UNL     1      48.042   0.234  72.903  1.00  0.00     0.000 C 
BRANCH   6   7
ATOM      7  C   UNL     1      48.912  -0.430  71.821  1.00  0.00     0.000 C 
BRANCH   7   8
ATOM      8  C   UNL     1      50.419  -0.304  72.103  1.00  0.00     0.006 C 
BRANCH   8   9
ATOM      9  C   UNL     1      51.112  -1.672  72.163  1.00  0.00     0.053 C 
BRANCH   9  10
ATOM     10  C   UNL     1      52.585  -1.540  72.404  1.00  0.00     0.041 C 
ATOM     11  O   UNL     1      53.288  -0.815  71.651  1.00  0.00    -0.550 OA
ATOM     12  O   UNL     1      53.187  -2.239  73.443  1.00  0.00    -0.550 OA
ENDBRANCH   9  10
ENDBRANCH   8   9
ENDBRANCH   7   8
ENDBRANCH   6   7
ENDBRANCH   5   6
ENDBRANCH   4   5
ENDBRANCH   3   4
ENDBRANCH   1   3
BRANCH   2  13
ATOM     13  C   UNL     1      48.088  -4.504  72.532  1.00  0.00     0.027 C 
BRANCH  13  14
ATOM     14  C   UNL     1      47.373  -5.825  72.854  1.00  0.00     0.004 C 
BRANCH  14  15
ATOM     15  C   UNL     1      48.088  -6.631  73.949  1.00  0.00     0.000 C 
BRANCH  15  16
ATOM     16  C   UNL     1      47.185  -6.919  75.159  1.00  0.00     0.000 C 
BRANCH  16  17
ATOM     17  C   UNL     1      47.492  -6.012  76.363  1.00  0.00    -0.000 C 
BRANCH  17  18
ATOM     18  C   UNL     1      48.070  -6.770  77.576  1.00  0.00    -0.000 C 
BRANCH  18  19
ATOM     19  C   UNL     1      49.031  -5.901  78.401  1.00  0.00    -0.003 C 
ATOM     20  C   UNL     1      50.484  -6.282  78.136  1.00  0.00     0.004 C 
ENDBRANCH  18  19
ENDBRANCH  17  18
ENDBRANCH  16  17
ENDBRANCH  15  16
ENDBRANCH  14  15
ENDBRANCH  13  14
ENDBRANCH   2  13
TORSDOF 15
ENDMDL
MODEL 9
REMARK VINA RESULT:    -4.509      9.499     11.268
REMARK INTER + INTRA:          -9.812
REMARK INTER:                  -7.557
REMARK INTRA:                  -2.255
REMARK UNBOUND:                -1.348
REMARK SMILES CCCCCCCCC=CCCCCCCCC(=O)[O-]
REMARK SMILES IDX 10 1 9 2 11 3 12 4 13 5 14 6 15 7 16 8 17 9 18 10 19 11
REMARK SMILES IDX 20 12 8 13 7 14 6 15 5 16 4 17 3 18 2 19 1 20
REMARK H PARENT
REMARK Flexibility Score: inf
ROOT
ATOM      1  C   UNL     1      49.036  -1.082  75.285  1.00  0.00    -0.031 C 
ATOM      2  C   UNL     1      48.232  -1.144  74.212  1.00  0.00    -0.031 C 
ENDROOT
BRANCH   1   3
ATOM      3  C   UNL     1      48.834  -1.981  76.473  1.00  0.00     0.027 C 
BRANCH   3   4
ATOM      4  C   UNL     1      50.006  -2.957  76.637  1.00  0.00     0.004 C 
BRANCH   4   5
ATOM      5  C   UNL     1      49.503  -4.356  77.024  1.00  0.00     0.000 C 
BRANCH   5   6
ATOM      6  C   UNL     1      48.853  -4.396  78.419  1.00  0.00     0.000 C 
BRANCH   6   7
ATOM      7  C   UNL     1      48.061  -5.678  78.734  1.00  0.00     0.000 C 
BRANCH   7   8
ATOM      8  C   UNL     1      47.825  -6.555  77.493  1.00  0.00     0.006 C 
BRANCH   8   9
ATOM      9  C   UNL     1      48.176  -8.027  77.749  1.00  0.00     0.053 C 
BRANCH   9  10
ATOM     10  C   UNL     1      46.952  -8.865  77.955  1.00  0.00     0.041 C 
ATOM     11  O   UNL     1      46.669  -9.304  79.101  1.00  0.00    -0.550 OA
ATOM     12  O   UNL     1      46.136  -9.184  76.876  1.00  0.00    -0.550 OA
ENDBRANCH   9  10
ENDBRANCH   8   9
ENDBRANCH   7   8
ENDBRANCH   6   7
ENDBRANCH   5   6
ENDBRANCH   4   5
ENDBRANCH   3   4
ENDBRANCH   1   3
BRANCH   2  13
ATOM     13  C   UNL     1      48.436  -0.248  73.021  1.00  0.00     0.027 C 
BRANCH  13  14
ATOM     14  C   UNL     1      49.061  -1.021  71.850  1.00  0.00     0.004 C 
BRANCH  14  15
ATOM     15  C   UNL     1      50.583  -1.181  71.995  1.00  0.00     0.000 C 
BRANCH  15  16
ATOM     16  C   UNL     1      50.991  -2.596  72.436  1.00  0.00     0.000 C 
BRANCH  16  17
ATOM     17  C   UNL     1      50.053  -3.685  71.888  1.00  0.00    -0.000 C 
BRANCH  17  18
ATOM     18  C   UNL     1      49.317  -4.478  72.988  1.00  0.00    -0.000 C 
BRANCH  18  19
ATOM     19  C   UNL     1      47.796  -4.493  72.774  1.00  0.00    -0.003 C 
ATOM     20  C   UNL     1      47.055  -4.665  74.097  1.00  0.00     0.004 C 
ENDBRANCH  18  19
ENDBRANCH  17  18
ENDBRANCH  16  17
ENDBRANCH  15  16
ENDBRANCH  14  15
ENDBRANCH  13  14
ENDBRANCH   2  13
TORSDOF 15
ENDMDL
