MODEL 1
REMARK VINA RESULT:    -4.864      0.000      0.000
REMARK INTER + INTRA:          -5.006
REMARK INTER:                  -5.006
REMARK INTRA:                   0.000
REMARK UNBOUND:                 0.000
REMARK SMILES O=c1ccc2ccc(O)cc2o1
REMARK SMILES IDX 6 1 7 2 8 3 10 4 11 5 5 6 4 7 3 8 2 9 1 10 12 11 9 12
REMARK H PARENT 9 13
REMARK Flexibility Score: inf
ROOT
ATOM      1  C   UNL     1      18.769  22.786  18.894  1.00  0.00     0.016 A 
ATOM      2  C   UNL     1      19.638  23.819  18.529  1.00  0.00     0.047 A 
ATOM      3  C   UNL     1      20.171  24.673  19.507  1.00  0.00     0.119 A 
ATOM      4  C   UNL     1      19.832  24.492  20.853  1.00  0.00     0.094 A 
ATOM      5  C   UNL     1      18.963  23.461  21.226  1.00  0.00     0.142 A 
ATOM      6  C   UNL     1      18.428  22.602  20.242  1.00  0.00     0.018 A 
ATOM      7  C   UNL     1      17.563  21.581  20.646  1.00  0.00     0.019 A 
ATOM      8  C   UNL     1      17.255  21.440  21.998  1.00  0.00     0.094 A 
ATOM      9  C   UNL     1      17.823  22.328  22.919  1.00  0.00     0.336 A 
ATOM     10  O   UNL     1      17.557  22.218  24.145  1.00  0.00    -0.246 OA
ATOM     11  O   UNL     1      18.644  23.291  22.508  1.00  0.00    -0.423 OA
ENDROOT
BRANCH   3  12
ATOM     12  O   UNL     1      21.036  25.705  19.150  1.00  0.00    -0.508 OA
ATOM     13  H   UNL     1      20.780  26.678  19.273  1.00  0.00     0.293 HD
ENDBRANCH   3  12
TORSDOF 1
ENDMDL
MODEL 2
REMARK VINA RESULT:    -4.837      1.875      2.490
REMARK INTER + INTRA:          -4.978
REMARK INTER:                  -4.978
REMARK INTRA:                   0.000
REMARK UNBOUND:                 0.000
REMARK SMILES O=c1ccc2ccc(O)cc2o1
REMARK SMILES IDX 6 1 7 2 8 3 10 4 11 5 5 6 4 7 3 8 2 9 1 10 12 11 9 12
REMARK H PARENT 9 13
REMARK Flexibility Score: inf
ROOT
ATOM      1  C   UNL     1      20.252  24.718  20.039  1.00  0.00     0.016 A 
ATOM      2  C   UNL     1      20.981  24.691  18.845  1.00  0.00     0.047 A 
ATOM      3  C   UNL     1      21.041  23.517  18.080  1.00  0.00     0.119 A 
ATOM      4  C   UNL     1      20.370  22.366  18.511  1.00  0.00     0.094 A 
ATOM      5  C   UNL     1      19.640  22.384  19.705  1.00  0.00     0.142 A 
ATOM      6  C   UNL     1      19.580  23.567  20.474  1.00  0.00     0.018 A 
ATOM      7  C   UNL     1      18.842  23.554  21.661  1.00  0.00     0.019 A 
ATOM      8  C   UNL     1      18.192  22.384  22.049  1.00  0.00     0.094 A 
ATOM      9  C   UNL     1      18.295  21.249  21.237  1.00  0.00     0.336 A 
ATOM     10  O   UNL     1      17.715  20.182  21.571  1.00  0.00    -0.246 OA
ATOM     11  O   UNL     1      19.003  21.288  20.112  1.00  0.00    -0.423 OA
ENDROOT
BRANCH   3  12
ATOM     12  O   UNL     1      21.764  23.483  16.890  1.00  0.00    -0.508 OA
ATOM     13  H   UNL     1      22.771  23.367  16.885  1.00  0.00     0.293 HD
ENDBRANCH   3  12
TORSDOF 1
ENDMDL
MODEL 3
REMARK VINA RESULT:    -4.733      0.910      4.237
REMARK INTER + INTRA:          -4.871
REMARK INTER:                  -4.871
REMARK INTRA:                   0.000
REMARK UNBOUND:                 0.000
REMARK SMILES O=c1ccc2ccc(O)cc2o1
REMARK SMILES IDX 6 1 7 2 8 3 10 4 11 5 5 6 4 7 3 8 2 9 1 10 12 11 9 12
REMARK H PARENT 9 13
REMARK Flexibility Score: inf
ROOT
ATOM      1  C   UNL     1      17.474  21.422  20.451  1.00  0.00     0.016 A 
ATOM      2  C   UNL     1      17.213  21.482  21.823  1.00  0.00     0.047 A 
ATOM      3  C   UNL     1      17.875  22.421  22.629  1.00  0.00     0.119 A 
ATOM      4  C   UNL     1      18.803  23.300  22.057  1.00  0.00     0.094 A 
ATOM      5  C   UNL     1      19.072  23.245  20.686  1.00  0.00     0.142 A 
ATOM      6  C   UNL     1      18.403  22.301  19.876  1.00  0.00     0.018 A 
ATOM      7  C   UNL     1      18.692  22.270  18.509  1.00  0.00     0.019 A 
ATOM      8  C   UNL     1      19.624  23.166  17.987  1.00  0.00     0.094 A 
ATOM      9  C   UNL     1      20.247  24.076  18.848  1.00  0.00     0.336 A 
ATOM     10  O   UNL     1      21.092  24.892  18.396  1.00  0.00    -0.246 OA
ATOM     11  O   UNL     1      19.954  24.084  20.146  1.00  0.00    -0.423 OA
ENDROOT
BRANCH   3  12
ATOM     12  O   UNL     1      17.620  22.488  23.996  1.00  0.00    -0.508 OA
ATOM     13  H   UNL     1      17.234  21.698  24.502  1.00  0.00     0.293 HD
ENDBRANCH   3  12
TORSDOF 1
ENDMDL
MODEL 4
REMARK VINA RESULT:    -4.668      2.314      3.345
REMARK INTER + INTRA:          -4.804
REMARK INTER:                  -4.804
REMARK INTRA:                   0.000
REMARK UNBOUND:                 0.000
REMARK SMILES O=c1ccc2ccc(O)cc2o1
REMARK SMILES IDX 6 1 7 2 8 3 10 4 11 5 5 6 4 7 3 8 2 9 1 10 12 11 9 12
REMARK H PARENT 9 13
REMARK Flexibility Score: inf
ROOT
ATOM      1  C   UNL     1      19.557  24.550  18.979  1.00  0.00     0.016 A 
ATOM      2  C   UNL     1      20.048  25.080  20.176  1.00  0.00     0.047 A 
ATOM      3  C   UNL     1      20.238  24.250  21.291  1.00  0.00     0.119 A 
ATOM      4  C   UNL     1      19.935  22.886  21.206  1.00  0.00     0.094 A 
ATOM      5  C   UNL     1      19.442  22.348  20.013  1.00  0.00     0.142 A 
ATOM      6  C   UNL     1      19.252  23.184  18.891  1.00  0.00     0.018 A 
ATOM      7  C   UNL     1      18.759  22.618  17.712  1.00  0.00     0.019 A 
ATOM      8  C   UNL     1      18.472  21.254  17.676  1.00  0.00     0.094 A 
ATOM      9  C   UNL     1      18.685  20.485  18.826  1.00  0.00     0.336 A 
ATOM     10  O   UNL     1      18.431  19.253  18.814  1.00  0.00    -0.246 OA
ATOM     11  O   UNL     1      19.155  21.050  19.936  1.00  0.00    -0.423 OA
ENDROOT
BRANCH   3  12
ATOM     12  O   UNL     1      20.727  24.770  22.488  1.00  0.00    -0.508 OA
ATOM     13  H   UNL     1      20.952  24.171  23.273  1.00  0.00     0.293 HD
ENDBRANCH   3  12
TORSDOF 1
ENDMDL
MODEL 5
REMARK VINA RESULT:    -4.525      2.767      3.167
REMARK INTER + INTRA:          -4.657
REMARK INTER:                  -4.657
REMARK INTRA:                   0.000
REMARK UNBOUND:                 0.000
REMARK SMILES O=c1ccc2ccc(O)cc2o1
REMARK SMILES IDX 6 1 7 2 8 3 10 4 11 5 5 6 4 7 3 8 2 9 1 10 12 11 9 12
REMARK H PARENT 9 13
REMARK Flexibility Score: inf
ROOT
ATOM      1  C   UNL     1      21.204  23.700  19.544  1.00  0.00     0.016 A 
ATOM      2  C   UNL     1      20.868  24.694  18.619  1.00  0.00     0.047 A 
ATOM      3  C   UNL     1      19.736  24.546  17.803  1.00  0.00     0.119 A 
ATOM      4  C   UNL     1      18.940  23.400  17.914  1.00  0.00     0.094 A 
ATOM      5  C   UNL     1      19.269  22.401  18.836  1.00  0.00     0.142 A 
ATOM      6  C   UNL     1      20.409  22.551  19.657  1.00  0.00     0.018 A 
ATOM      7  C   UNL     1      20.713  21.536  20.569  1.00  0.00     0.019 A 
ATOM      8  C   UNL     1      19.889  20.414  20.642  1.00  0.00     0.094 A 
ATOM      9  C   UNL     1      18.776  20.332  19.797  1.00  0.00     0.336 A 
ATOM     10  O   UNL     1      18.021  19.326  19.848  1.00  0.00    -0.246 OA
ATOM     11  O   UNL     1      18.510  21.313  18.938  1.00  0.00    -0.423 OA
ENDROOT
BRANCH   3  12
ATOM     12  O   UNL     1      19.395  25.532  16.880  1.00  0.00    -0.508 OA
ATOM     13  H   UNL     1      19.620  26.507  17.039  1.00  0.00     0.293 HD
ENDBRANCH   3  12
TORSDOF 1
ENDMDL
MODEL 6
REMARK VINA RESULT:    -4.509      2.906      3.090
REMARK INTER + INTRA:          -4.640
REMARK INTER:                  -4.640
REMARK INTRA:                   0.000
REMARK UNBOUND:                 0.000
REMARK SMILES O=c1ccc2ccc(O)cc2o1
REMARK SMILES IDX 6 1 7 2 8 3 10 4 11 5 5 6 4 7 3 8 2 9 1 10 12 11 9 12
REMARK H PARENT 9 13
REMARK Flexibility Score: inf
ROOT
ATOM      1  C   UNL     1      18.844  22.470  18.269  1.00  0.00     0.016 A 
ATOM      2  C   UNL     1      18.976  23.620  17.484  1.00  0.00     0.047 A 
ATOM      3  C   UNL     1      20.080  24.469  17.653  1.00  0.00     0.119 A 
ATOM      4  C   UNL     1      21.056  24.164  18.610  1.00  0.00     0.094 A 
ATOM      5  C   UNL     1      20.932  23.016  19.399  1.00  0.00     0.142 A 
ATOM      6  C   UNL     1      19.819  22.163  19.228  1.00  0.00     0.018 A 
ATOM      7  C   UNL     1      19.723  21.023  20.032  1.00  0.00     0.019 A 
ATOM      8  C   UNL     1      20.720  20.762  20.971  1.00  0.00     0.094 A 
ATOM      9  C   UNL     1      21.794  21.651  21.085  1.00  0.00     0.336 A 
ATOM     10  O   UNL     1      22.703  21.434  21.928  1.00  0.00    -0.246 OA
ATOM     11  O   UNL     1      21.861  22.730  20.308  1.00  0.00    -0.423 OA
ENDROOT
BRANCH   3  12
ATOM     12  O   UNL     1      20.218  25.617  16.875  1.00  0.00    -0.508 OA
ATOM     13  H   UNL     1      20.324  26.532  17.296  1.00  0.00     0.293 HD
ENDBRANCH   3  12
TORSDOF 1
ENDMDL
MODEL 7
REMARK VINA RESULT:    -4.494      7.790      7.927
REMARK INTER + INTRA:          -4.625
REMARK INTER:                  -4.625
REMARK INTRA:                   0.000
REMARK UNBOUND:                 0.000
REMARK SMILES O=c1ccc2ccc(O)cc2o1
REMARK SMILES IDX 6 1 7 2 8 3 10 4 11 5 5 6 4 7 3 8 2 9 1 10 12 11 9 12
REMARK H PARENT 9 13
REMARK Flexibility Score: inf
ROOT
ATOM      1  C   UNL     1      24.578  16.111  18.814  1.00  0.00     0.016 A 
ATOM      2  C   UNL     1      25.789  16.802  18.925  1.00  0.00     0.047 A 
ATOM      3  C   UNL     1      25.939  17.815  19.883  1.00  0.00     0.119 A 
ATOM      4  C   UNL     1      24.874  18.137  20.733  1.00  0.00     0.094 A 
ATOM      5  C   UNL     1      23.659  17.451  20.628  1.00  0.00     0.142 A 
ATOM      6  C   UNL     1      23.510  16.431  19.663  1.00  0.00     0.018 A 
ATOM      7  C   UNL     1      22.284  15.763  19.582  1.00  0.00     0.019 A 
ATOM      8  C   UNL     1      21.253  16.120  20.450  1.00  0.00     0.094 A 
ATOM      9  C   UNL     1      21.472  17.140  21.382  1.00  0.00     0.336 A 
ATOM     10  O   UNL     1      20.553  17.477  22.174  1.00  0.00    -0.246 OA
ATOM     11  O   UNL     1      22.648  17.760  21.438  1.00  0.00    -0.423 OA
ENDROOT
BRANCH   3  12
ATOM     12  O   UNL     1      27.142  18.508  20.000  1.00  0.00    -0.508 OA
ATOM     13  H   UNL     1      27.568  18.683  20.903  1.00  0.00     0.293 HD
ENDBRANCH   3  12
TORSDOF 1
ENDMDL
MODEL 8
REMARK VINA RESULT:    -4.452      1.890      4.890
REMARK INTER + INTRA:          -4.582
REMARK INTER:                  -4.582
REMARK INTRA:                   0.000
REMARK UNBOUND:                 0.000
REMARK SMILES O=c1ccc2ccc(O)cc2o1
REMARK SMILES IDX 6 1 7 2 8 3 10 4 11 5 5 6 4 7 3 8 2 9 1 10 12 11 9 12
REMARK H PARENT 9 13
REMARK Flexibility Score: inf
ROOT
ATOM      1  C   UNL     1      18.892  23.556  21.675  1.00  0.00     0.016 A 
ATOM      2  C   UNL     1      18.275  22.359  22.052  1.00  0.00     0.047 A 
ATOM      3  C   UNL     1      18.321  21.242  21.205  1.00  0.00     0.119 A 
ATOM      4  C   UNL     1      18.987  21.325  19.976  1.00  0.00     0.094 A 
ATOM      5  C   UNL     1      19.605  22.518  19.590  1.00  0.00     0.142 A 
ATOM      6  C   UNL     1      19.559  23.642  20.445  1.00  0.00     0.018 A 
ATOM      7  C   UNL     1      20.187  24.821  20.033  1.00  0.00     0.019 A 
ATOM      8  C   UNL     1      20.837  24.854  18.800  1.00  0.00     0.094 A 
ATOM      9  C   UNL     1      20.843  23.703  18.005  1.00  0.00     0.336 A 
ATOM     10  O   UNL     1      21.424  23.713  16.888  1.00  0.00    -0.246 OA
ATOM     11  O   UNL     1      20.238  22.593  18.421  1.00  0.00    -0.423 OA
ENDROOT
BRANCH   3  12
ATOM     12  O   UNL     1      17.709  20.046  21.573  1.00  0.00    -0.508 OA
ATOM     13  H   UNL     1      18.251  19.214  21.777  1.00  0.00     0.293 HD
ENDBRANCH   3  12
TORSDOF 1
ENDMDL
MODEL 9
REMARK VINA RESULT:    -4.370      8.316      9.012
REMARK INTER + INTRA:          -4.498
REMARK INTER:                  -4.498
REMARK INTRA:                   0.000
REMARK UNBOUND:                 0.000
REMARK SMILES O=c1ccc2ccc(O)cc2o1
REMARK SMILES IDX 6 1 7 2 8 3 10 4 11 5 5 6 4 7 3 8 2 9 1 10 12 11 9 12
REMARK H PARENT 9 13
REMARK Flexibility Score: inf
ROOT
ATOM      1  C   UNL     1      22.406  16.616  20.613  1.00  0.00     0.016 A 
ATOM      2  C   UNL     1      22.291  17.761  21.408  1.00  0.00     0.047 A 
ATOM      3  C   UNL     1      23.310  18.725  21.411  1.00  0.00     0.119 A 
ATOM      4  C   UNL     1      24.447  18.542  20.616  1.00  0.00     0.094 A 
ATOM      5  C   UNL     1      24.571  17.399  19.819  1.00  0.00     0.142 A 
ATOM      6  C   UNL     1      23.544  16.429  19.816  1.00  0.00     0.018 A 
ATOM      7  C   UNL     1      23.696  15.298  19.009  1.00  0.00     0.019 A 
ATOM      8  C   UNL     1      24.847  15.160  18.234  1.00  0.00     0.094 A 
ATOM      9  C   UNL     1      25.824  16.161  18.286  1.00  0.00     0.336 A 
ATOM     10  O   UNL     1      26.871  16.055  17.595  1.00  0.00    -0.246 OA
ATOM     11  O   UNL     1      25.655  17.228  19.063  1.00  0.00    -0.423 OA
ENDROOT
BRANCH   3  12
ATOM     12  O   UNL     1      23.202  19.868  22.200  1.00  0.00    -0.508 OA
ATOM     13  H   UNL     1      22.558  20.614  21.966  1.00  0.00     0.293 HD
ENDBRANCH   3  12
TORSDOF 1
ENDMDL
