MODEL 1
REMARK VINA RESULT:    -5.843      0.000      0.000
REMARK INTER + INTRA:          -7.133
REMARK INTER:                  -6.868
REMARK INTRA:                  -0.265
REMARK UNBOUND:                -0.265
REMARK SMILES O=c1cc(-c2ccc(O)c(O)c2)oc2cc(O)cc(O)c12
REMARK SMILES IDX 4 1 3 2 2 3 1 4 21 5 19 6 18 7 16 8 15 9 14 10 13 11 5 12
REMARK SMILES IDX 6 13 7 14 8 15 12 16 10 17 9 18 11 20 20 22 17 24
REMARK H PARENT 9 19 11 21 20 23 17 25
REMARK Flexibility Score: inf
ROOT
ATOM      1  C   UNL     1       6.031 -17.287  14.330  1.00  0.00     0.138 A 
ATOM      2  C   UNL     1       6.964 -16.258  14.523  1.00  0.00     0.100 A 
ATOM      3  C   UNL     1       6.517 -14.959  14.767  1.00  0.00     0.197 A 
ATOM      4  O   UNL     1       7.376 -14.045  14.875  1.00  0.00    -0.289 OA
ATOM      5  C   UNL     1       5.129 -14.696  14.848  1.00  0.00     0.107 A 
ATOM      6  C   UNL     1       4.558 -13.419  15.131  1.00  0.00     0.134 A 
ATOM      7  C   UNL     1       3.169 -13.255  15.071  1.00  0.00     0.093 A 
ATOM      8  C   UNL     1       2.327 -14.331  14.797  1.00  0.00     0.123 A 
ATOM      9  C   UNL     1       2.870 -15.597  14.571  1.00  0.00     0.094 A 
ATOM     10  C   UNL     1       4.254 -15.786  14.590  1.00  0.00     0.146 A 
ATOM     11  O   UNL     1       4.733 -17.003  14.357  1.00  0.00    -0.456 OA
ENDROOT
BRANCH   1  12
ATOM     12  C   UNL     1       6.452 -18.687  14.069  1.00  0.00     0.021 A 
ATOM     13  C   UNL     1       6.237 -19.667  15.050  1.00  0.00     0.016 A 
ATOM     14  C   UNL     1       6.629 -20.988  14.832  1.00  0.00     0.051 A 
ATOM     15  C   UNL     1       7.253 -21.360  13.636  1.00  0.00     0.157 A 
ATOM     16  C   UNL     1       7.093 -19.057  12.871  1.00  0.00     0.062 A 
ATOM     17  C   UNL     1       7.493 -20.380  12.645  1.00  0.00     0.158 A 
BRANCH  15  18
ATOM     18  O   UNL     1       7.616 -22.699  13.478  1.00  0.00    -0.504 OA
ATOM     19  H   UNL     1       7.856 -23.312  14.243  1.00  0.00     0.293 HD
ENDBRANCH  15  18
BRANCH  17  20
ATOM     20  O   UNL     1       8.125 -20.672  11.435  1.00  0.00    -0.504 OA
ATOM     21  H   UNL     1       8.750 -20.041  10.956  1.00  0.00     0.293 HD
ENDBRANCH  17  20
ENDBRANCH   1  12
BRANCH   6  22
ATOM     22  O   UNL     1       5.304 -12.294  15.500  1.00  0.00    -0.507 OA
ATOM     23  H   UNL     1       6.289 -12.173  15.321  1.00  0.00     0.293 HD
ENDBRANCH   6  22
BRANCH   8  24
ATOM     24  O   UNL     1       0.948 -14.135  14.760  1.00  0.00    -0.508 OA
ATOM     25  H   UNL     1       0.537 -13.365  14.246  1.00  0.00     0.293 HD
ENDBRANCH   8  24
TORSDOF 5
ENDMDL
MODEL 2
REMARK VINA RESULT:    -5.657      1.590      7.205
REMARK INTER + INTRA:          -6.914
REMARK INTER:                  -6.649
REMARK INTRA:                  -0.265
REMARK UNBOUND:                -0.265
REMARK SMILES O=c1cc(-c2ccc(O)c(O)c2)oc2cc(O)cc(O)c12
REMARK SMILES IDX 4 1 3 2 2 3 1 4 21 5 19 6 18 7 16 8 15 9 14 10 13 11 5 12
REMARK SMILES IDX 6 13 7 14 8 15 12 16 10 17 9 18 11 20 20 22 17 24
REMARK H PARENT 9 19 11 21 20 23 17 25
REMARK Flexibility Score: inf
ROOT
ATOM      1  C   UNL     1       4.827 -16.993  15.451  1.00  0.00     0.138 A 
ATOM      2  C   UNL     1       4.842 -17.822  16.581  1.00  0.00     0.100 A 
ATOM      3  C   UNL     1       5.523 -19.040  16.534  1.00  0.00     0.197 A 
ATOM      4  O   UNL     1       5.468 -19.792  17.541  1.00  0.00    -0.289 OA
ATOM      5  C   UNL     1       6.217 -19.412  15.357  1.00  0.00     0.107 A 
ATOM      6  C   UNL     1       6.979 -20.610  15.207  1.00  0.00     0.134 A 
ATOM      7  C   UNL     1       7.526 -20.928  13.959  1.00  0.00     0.093 A 
ATOM      8  C   UNL     1       7.392 -20.065  12.872  1.00  0.00     0.123 A 
ATOM      9  C   UNL     1       6.695 -18.865  13.021  1.00  0.00     0.094 A 
ATOM     10  C   UNL     1       6.108 -18.535  14.244  1.00  0.00     0.146 A 
ATOM     11  O   UNL     1       5.441 -17.390  14.342  1.00  0.00    -0.456 OA
ENDROOT
BRANCH   1  12
ATOM     12  C   UNL     1       4.120 -15.687  15.448  1.00  0.00     0.021 A 
ATOM     13  C   UNL     1       4.785 -14.540  15.908  1.00  0.00     0.016 A 
ATOM     14  C   UNL     1       4.141 -13.302  15.922  1.00  0.00     0.051 A 
ATOM     15  C   UNL     1       2.816 -13.182  15.488  1.00  0.00     0.157 A 
ATOM     16  C   UNL     1       2.783 -15.569  15.025  1.00  0.00     0.062 A 
ATOM     17  C   UNL     1       2.126 -14.332  15.038  1.00  0.00     0.158 A 
BRANCH  15  18
ATOM     18  O   UNL     1       2.231 -11.914  15.521  1.00  0.00    -0.504 OA
ATOM     19  H   UNL     1       2.429 -11.220  16.227  1.00  0.00     0.293 HD
ENDBRANCH  15  18
BRANCH  17  20
ATOM     20  O   UNL     1       0.800 -14.292  14.605  1.00  0.00    -0.504 OA
ATOM     21  H   UNL     1       0.507 -13.926  13.711  1.00  0.00     0.293 HD
ENDBRANCH  17  20
ENDBRANCH   1  12
BRANCH   6  22
ATOM     22  O   UNL     1       7.246 -21.501  16.251  1.00  0.00    -0.507 OA
ATOM     23  H   UNL     1       6.970 -21.363  17.212  1.00  0.00     0.293 HD
ENDBRANCH   6  22
BRANCH   8  24
ATOM     24  O   UNL     1       7.964 -20.406  11.648  1.00  0.00    -0.508 OA
ATOM     25  H   UNL     1       8.960 -20.565  11.554  1.00  0.00     0.293 HD
ENDBRANCH   8  24
TORSDOF 5
ENDMDL
MODEL 3
REMARK VINA RESULT:    -5.391      2.417      4.308
REMARK INTER + INTRA:          -6.601
REMARK INTER:                  -6.322
REMARK INTRA:                  -0.278
REMARK UNBOUND:                -0.265
REMARK SMILES O=c1cc(-c2ccc(O)c(O)c2)oc2cc(O)cc(O)c12
REMARK SMILES IDX 4 1 3 2 2 3 1 4 21 5 19 6 18 7 16 8 15 9 14 10 13 11 5 12
REMARK SMILES IDX 6 13 7 14 8 15 12 16 10 17 9 18 11 20 20 22 17 24
REMARK H PARENT 9 19 11 21 20 23 17 25
REMARK Flexibility Score: inf
ROOT
ATOM      1  C   UNL     1       4.667 -14.349  15.316  1.00  0.00     0.138 A 
ATOM      2  C   UNL     1       3.814 -14.458  16.423  1.00  0.00     0.100 A 
ATOM      3  C   UNL     1       3.177 -13.319  16.919  1.00  0.00     0.197 A 
ATOM      4  O   UNL     1       2.467 -13.437  17.951  1.00  0.00    -0.289 OA
ATOM      5  C   UNL     1       3.374 -12.071  16.282  1.00  0.00     0.107 A 
ATOM      6  C   UNL     1       2.746 -10.850  16.674  1.00  0.00     0.134 A 
ATOM      7  C   UNL     1       3.106  -9.655  16.042  1.00  0.00     0.093 A 
ATOM      8  C   UNL     1       4.024  -9.642  14.992  1.00  0.00     0.123 A 
ATOM      9  C   UNL     1       4.605 -10.837  14.564  1.00  0.00     0.094 A 
ATOM     10  C   UNL     1       4.292 -12.042  15.198  1.00  0.00     0.146 A 
ATOM     11  O   UNL     1       4.876 -13.156  14.770  1.00  0.00    -0.456 OA
ENDROOT
BRANCH   1  12
ATOM     12  C   UNL     1       5.367 -15.529  14.748  1.00  0.00     0.021 A 
ATOM     13  C   UNL     1       6.727 -15.431  14.416  1.00  0.00     0.016 A 
ATOM     14  C   UNL     1       7.406 -16.524  13.874  1.00  0.00     0.051 A 
ATOM     15  C   UNL     1       6.743 -17.733  13.642  1.00  0.00     0.157 A 
ATOM     16  C   UNL     1       4.695 -16.741  14.501  1.00  0.00     0.062 A 
ATOM     17  C   UNL     1       5.368 -17.842  13.955  1.00  0.00     0.158 A 
BRANCH  15  18
ATOM     18  O   UNL     1       7.481 -18.789  13.103  1.00  0.00    -0.504 OA
ATOM     19  H   UNL     1       7.680 -18.894  12.119  1.00  0.00     0.293 HD
ENDBRANCH  15  18
BRANCH  17  20
ATOM     20  O   UNL     1       4.636 -19.011  13.736  1.00  0.00    -0.504 OA
ATOM     21  H   UNL     1       3.690 -19.028  13.385  1.00  0.00     0.293 HD
ENDBRANCH  17  20
ENDBRANCH   1  12
BRANCH   6  22
ATOM     22  O   UNL     1       1.752 -10.763  17.654  1.00  0.00    -0.507 OA
ATOM     23  H   UNL     1       0.872 -11.253  17.627  1.00  0.00     0.293 HD
ENDBRANCH   6  22
BRANCH   8  24
ATOM     24  O   UNL     1       4.348  -8.435  14.375  1.00  0.00    -0.508 OA
ATOM     25  H   UNL     1       4.320  -7.558  14.881  1.00  0.00     0.293 HD
ENDBRANCH   8  24
TORSDOF 5
ENDMDL
MODEL 4
REMARK VINA RESULT:    -5.379      3.851      6.544
REMARK INTER + INTRA:          -6.587
REMARK INTER:                  -6.323
REMARK INTRA:                  -0.264
REMARK UNBOUND:                -0.265
REMARK SMILES O=c1cc(-c2ccc(O)c(O)c2)oc2cc(O)cc(O)c12
REMARK SMILES IDX 4 1 3 2 2 3 1 4 21 5 19 6 18 7 16 8 15 9 14 10 13 11 5 12
REMARK SMILES IDX 6 13 7 14 8 15 12 16 10 17 9 18 11 20 20 22 17 24
REMARK H PARENT 9 19 11 21 20 23 17 25
REMARK Flexibility Score: inf
ROOT
ATOM      1  C   UNL     1       5.360 -12.043  14.443  1.00  0.00     0.138 A 
ATOM      2  C   UNL     1       5.253 -11.105  15.480  1.00  0.00     0.100 A 
ATOM      3  C   UNL     1       5.722  -9.805  15.286  1.00  0.00     0.197 A 
ATOM      4  O   UNL     1       5.670  -9.003  16.254  1.00  0.00    -0.289 OA
ATOM      5  C   UNL     1       6.275  -9.436  14.036  1.00  0.00     0.107 A 
ATOM      6  C   UNL     1       6.749  -8.130  13.710  1.00  0.00     0.134 A 
ATOM      7  C   UNL     1       7.381  -7.912  12.481  1.00  0.00     0.093 A 
ATOM      8  C   UNL     1       7.503  -8.934  11.541  1.00  0.00     0.123 A 
ATOM      9  C   UNL     1       6.996 -10.203  11.827  1.00  0.00     0.094 A 
ATOM     10  C   UNL     1       6.390 -10.461  13.059  1.00  0.00     0.146 A 
ATOM     11  O   UNL     1       5.932 -11.685  13.298  1.00  0.00    -0.456 OA
ENDROOT
BRANCH   1  12
ATOM     12  C   UNL     1       4.875 -13.438  14.595  1.00  0.00     0.021 A 
ATOM     13  C   UNL     1       5.803 -14.481  14.729  1.00  0.00     0.016 A 
ATOM     14  C   UNL     1       5.373 -15.801  14.868  1.00  0.00     0.051 A 
ATOM     15  C   UNL     1       4.009 -16.112  14.865  1.00  0.00     0.157 A 
ATOM     16  C   UNL     1       3.502 -13.750  14.579  1.00  0.00     0.062 A 
ATOM     17  C   UNL     1       3.061 -15.073  14.714  1.00  0.00     0.158 A 
BRANCH  15  18
ATOM     18  O   UNL     1       3.644 -17.452  15.013  1.00  0.00    -0.504 OA
ATOM     19  H   UNL     1       4.263 -18.228  14.829  1.00  0.00     0.293 HD
ENDBRANCH  15  18
BRANCH  17  20
ATOM     20  O   UNL     1       1.685 -15.308  14.686  1.00  0.00    -0.504 OA
ATOM     21  H   UNL     1       0.995 -14.672  15.058  1.00  0.00     0.293 HD
ENDBRANCH  17  20
ENDBRANCH   1  12
BRANCH   6  22
ATOM     22  O   UNL     1       6.601  -7.015  14.543  1.00  0.00    -0.507 OA
ATOM     23  H   UNL     1       6.343  -6.092  14.229  1.00  0.00     0.293 HD
ENDBRANCH   6  22
BRANCH   8  24
ATOM     24  O   UNL     1       8.125  -8.677  10.321  1.00  0.00    -0.508 OA
ATOM     25  H   UNL     1       7.594  -8.403   9.503  1.00  0.00     0.293 HD
ENDBRANCH   8  24
TORSDOF 5
ENDMDL
MODEL 5
REMARK VINA RESULT:    -5.305      2.910      7.363
REMARK INTER + INTRA:          -6.500
REMARK INTER:                  -6.182
REMARK INTRA:                  -0.318
REMARK UNBOUND:                -0.265
REMARK SMILES O=c1cc(-c2ccc(O)c(O)c2)oc2cc(O)cc(O)c12
REMARK SMILES IDX 4 1 3 2 2 3 1 4 21 5 19 6 18 7 16 8 15 9 14 10 13 11 5 12
REMARK SMILES IDX 6 13 7 14 8 15 12 16 10 17 9 18 11 20 20 22 17 24
REMARK H PARENT 9 19 11 21 20 23 17 25
REMARK Flexibility Score: inf
ROOT
ATOM      1  C   UNL     1       4.720 -13.475  15.817  1.00  0.00     0.138 A 
ATOM      2  C   UNL     1       4.309 -13.702  17.138  1.00  0.00     0.100 A 
ATOM      3  C   UNL     1       4.105 -15.009  17.583  1.00  0.00     0.197 A 
ATOM      4  O   UNL     1       3.676 -15.179  18.754  1.00  0.00    -0.289 OA
ATOM      5  C   UNL     1       4.344 -16.095  16.707  1.00  0.00     0.107 A 
ATOM      6  C   UNL     1       4.208 -17.471  17.062  1.00  0.00     0.134 A 
ATOM      7  C   UNL     1       4.359 -18.455  16.079  1.00  0.00     0.093 A 
ATOM      8  C   UNL     1       4.699 -18.120  14.769  1.00  0.00     0.123 A 
ATOM      9  C   UNL     1       4.887 -16.782  14.422  1.00  0.00     0.094 A 
ATOM     10  C   UNL     1       4.710 -15.773  15.373  1.00  0.00     0.146 A 
ATOM     11  O   UNL     1       4.885 -14.510  15.000  1.00  0.00    -0.456 OA
ENDROOT
BRANCH   1  12
ATOM     12  C   UNL     1       4.953 -12.106  15.294  1.00  0.00     0.021 A 
ATOM     13  C   UNL     1       4.775 -11.002  16.142  1.00  0.00     0.016 A 
ATOM     14  C   UNL     1       4.982  -9.705  15.673  1.00  0.00     0.051 A 
ATOM     15  C   UNL     1       5.360  -9.477  14.345  1.00  0.00     0.157 A 
ATOM     16  C   UNL     1       5.320 -11.877  13.954  1.00  0.00     0.062 A 
ATOM     17  C   UNL     1       5.527 -10.578  13.473  1.00  0.00     0.158 A 
BRANCH  15  18
ATOM     18  O   UNL     1       5.557  -8.155  13.940  1.00  0.00    -0.504 OA
ATOM     19  H   UNL     1       5.374  -7.818  13.007  1.00  0.00     0.293 HD
ENDBRANCH  15  18
BRANCH  17  20
ATOM     20  O   UNL     1       5.887 -10.428  12.133  1.00  0.00    -0.504 OA
ATOM     21  H   UNL     1       5.282 -10.038  11.425  1.00  0.00     0.293 HD
ENDBRANCH  17  20
ENDBRANCH   1  12
BRANCH   6  22
ATOM     22  O   UNL     1       3.953 -17.921  18.362  1.00  0.00    -0.507 OA
ATOM     23  H   UNL     1       3.266 -18.618  18.606  1.00  0.00     0.293 HD
ENDBRANCH   6  22
BRANCH   8  24
ATOM     24  O   UNL     1       4.856 -19.128  13.820  1.00  0.00    -0.508 OA
ATOM     25  H   UNL     1       5.581 -19.082  13.114  1.00  0.00     0.293 HD
ENDBRANCH   8  24
TORSDOF 5
ENDMDL
MODEL 6
REMARK VINA RESULT:    -5.248      3.554      5.882
REMARK INTER + INTRA:          -6.433
REMARK INTER:                  -6.160
REMARK INTRA:                  -0.272
REMARK UNBOUND:                -0.265
REMARK SMILES O=c1cc(-c2ccc(O)c(O)c2)oc2cc(O)cc(O)c12
REMARK SMILES IDX 4 1 3 2 2 3 1 4 21 5 19 6 18 7 16 8 15 9 14 10 13 11 5 12
REMARK SMILES IDX 6 13 7 14 8 15 12 16 10 17 9 18 11 20 20 22 17 24
REMARK H PARENT 9 19 11 21 20 23 17 25
REMARK Flexibility Score: inf
ROOT
ATOM      1  C   UNL     1       5.343 -12.519  14.557  1.00  0.00     0.138 A 
ATOM      2  C   UNL     1       4.950 -11.646  15.581  1.00  0.00     0.100 A 
ATOM      3  C   UNL     1       5.242 -10.285  15.477  1.00  0.00     0.197 A 
ATOM      4  O   UNL     1       4.933  -9.536  16.440  1.00  0.00    -0.289 OA
ATOM      5  C   UNL     1       5.903  -9.793  14.327  1.00  0.00     0.107 A 
ATOM      6  C   UNL     1       6.217  -8.421  14.093  1.00  0.00     0.134 A 
ATOM      7  C   UNL     1       6.976  -8.067  12.972  1.00  0.00     0.093 A 
ATOM      8  C   UNL     1       7.383  -9.025  12.045  1.00  0.00     0.123 A 
ATOM      9  C   UNL     1       7.036 -10.364  12.234  1.00  0.00     0.094 A 
ATOM     10  C   UNL     1       6.309 -10.754  13.361  1.00  0.00     0.146 A 
ATOM     11  O   UNL     1       6.010 -12.040  13.512  1.00  0.00    -0.456 OA
ENDROOT
BRANCH   1  12
ATOM     12  C   UNL     1       5.056 -13.975  14.616  1.00  0.00     0.021 A 
ATOM     13  C   UNL     1       3.726 -14.419  14.575  1.00  0.00     0.016 A 
ATOM     14  C   UNL     1       3.429 -15.781  14.635  1.00  0.00     0.051 A 
ATOM     15  C   UNL     1       4.451 -16.730  14.748  1.00  0.00     0.157 A 
ATOM     16  C   UNL     1       6.084 -14.928  14.743  1.00  0.00     0.062 A 
ATOM     17  C   UNL     1       5.796 -16.297  14.807  1.00  0.00     0.158 A 
BRANCH  15  18
ATOM     18  O   UNL     1       4.087 -18.078  14.798  1.00  0.00    -0.504 OA
ATOM     19  H   UNL     1       3.245 -18.450  14.384  1.00  0.00     0.293 HD
ENDBRANCH  15  18
BRANCH  17  20
ATOM     20  O   UNL     1       6.867 -17.184  14.936  1.00  0.00    -0.504 OA
ATOM     21  H   UNL     1       7.586 -17.307  14.238  1.00  0.00     0.293 HD
ENDBRANCH  17  20
ENDBRANCH   1  12
BRANCH   6  22
ATOM     22  O   UNL     1       5.787  -7.371  14.913  1.00  0.00    -0.507 OA
ATOM     23  H   UNL     1       5.631  -7.443  15.906  1.00  0.00     0.293 HD
ENDBRANCH   6  22
BRANCH   8  24
ATOM     24  O   UNL     1       8.125  -8.635  10.932  1.00  0.00    -0.508 OA
ATOM     25  H   UNL     1       7.748  -8.701   9.994  1.00  0.00     0.293 HD
ENDBRANCH   8  24
TORSDOF 5
ENDMDL
MODEL 7
REMARK VINA RESULT:    -5.241      2.831      7.720
REMARK INTER + INTRA:          -6.425
REMARK INTER:                  -6.138
REMARK INTRA:                  -0.287
REMARK UNBOUND:                -0.265
REMARK SMILES O=c1cc(-c2ccc(O)c(O)c2)oc2cc(O)cc(O)c12
REMARK SMILES IDX 4 1 3 2 2 3 1 4 21 5 19 6 18 7 16 8 15 9 14 10 13 11 5 12
REMARK SMILES IDX 6 13 7 14 8 15 12 16 10 17 9 18 11 20 20 22 17 24
REMARK H PARENT 9 19 11 21 20 23 17 25
REMARK Flexibility Score: inf
ROOT
ATOM      1  C   UNL     1       5.252 -13.071  14.457  1.00  0.00     0.138 A 
ATOM      2  C   UNL     1       3.983 -13.535  14.829  1.00  0.00     0.100 A 
ATOM      3  C   UNL     1       3.768 -14.906  14.986  1.00  0.00     0.197 A 
ATOM      4  O   UNL     1       2.604 -15.297  15.259  1.00  0.00    -0.289 OA
ATOM      5  C   UNL     1       4.839 -15.812  14.798  1.00  0.00     0.107 A 
ATOM      6  C   UNL     1       4.748 -17.226  14.970  1.00  0.00     0.134 A 
ATOM      7  C   UNL     1       5.844 -18.033  14.644  1.00  0.00     0.093 A 
ATOM      8  C   UNL     1       7.046 -17.476  14.210  1.00  0.00     0.123 A 
ATOM      9  C   UNL     1       7.165 -16.090  14.090  1.00  0.00     0.094 A 
ATOM     10  C   UNL     1       6.078 -15.260  14.374  1.00  0.00     0.146 A 
ATOM     11  O   UNL     1       6.227 -13.947  14.234  1.00  0.00    -0.456 OA
ENDROOT
BRANCH   1  12
ATOM     12  C   UNL     1       5.536 -11.625  14.278  1.00  0.00     0.021 A 
ATOM     13  C   UNL     1       5.181 -10.721  15.292  1.00  0.00     0.016 A 
ATOM     14  C   UNL     1       5.431  -9.356  15.145  1.00  0.00     0.051 A 
ATOM     15  C   UNL     1       6.030  -8.860  13.982  1.00  0.00     0.157 A 
ATOM     16  C   UNL     1       6.125 -11.125  13.101  1.00  0.00     0.062 A 
ATOM     17  C   UNL     1       6.377  -9.756  12.944  1.00  0.00     0.158 A 
BRANCH  15  18
ATOM     18  O   UNL     1       6.258  -7.484  13.901  1.00  0.00    -0.504 OA
ATOM     19  H   UNL     1       6.614  -7.020  13.079  1.00  0.00     0.293 HD
ENDBRANCH  15  18
BRANCH  17  20
ATOM     20  O   UNL     1       6.962  -9.333  11.749  1.00  0.00    -0.504 OA
ATOM     21  H   UNL     1       6.825  -9.790  10.860  1.00  0.00     0.293 HD
ENDBRANCH  17  20
ENDBRANCH   1  12
BRANCH   6  22
ATOM     22  O   UNL     1       3.620 -17.879  15.478  1.00  0.00    -0.507 OA
ATOM     23  H   UNL     1       2.780 -17.418  15.793  1.00  0.00     0.293 HD
ENDBRANCH   6  22
BRANCH   8  24
ATOM     24  O   UNL     1       8.121 -18.309  13.909  1.00  0.00    -0.508 OA
ATOM     25  H   UNL     1       8.410 -19.049  14.537  1.00  0.00     0.293 HD
ENDBRANCH   8  24
TORSDOF 5
ENDMDL
MODEL 8
REMARK VINA RESULT:    -5.238      4.099      7.924
REMARK INTER + INTRA:          -6.421
REMARK INTER:                  -6.104
REMARK INTRA:                  -0.317
REMARK UNBOUND:                -0.265
REMARK SMILES O=c1cc(-c2ccc(O)c(O)c2)oc2cc(O)cc(O)c12
REMARK SMILES IDX 4 1 3 2 2 3 1 4 21 5 19 6 18 7 16 8 15 9 14 10 13 11 5 12
REMARK SMILES IDX 6 13 7 14 8 15 12 16 10 17 9 18 11 20 20 22 17 24
REMARK H PARENT 9 19 11 21 20 23 17 25
REMARK Flexibility Score: inf
ROOT
ATOM      1  C   UNL     1       4.978 -11.028  14.526  1.00  0.00     0.138 A 
ATOM      2  C   UNL     1       4.182 -10.598  15.596  1.00  0.00     0.100 A 
ATOM      3  C   UNL     1       3.419 -11.527  16.306  1.00  0.00     0.197 A 
ATOM      4  O   UNL     1       2.666 -11.104  17.221  1.00  0.00    -0.289 OA
ATOM      5  C   UNL     1       3.479 -12.898  15.958  1.00  0.00     0.107 A 
ATOM      6  C   UNL     1       2.777 -13.940  16.635  1.00  0.00     0.134 A 
ATOM      7  C   UNL     1       2.822 -15.244  16.130  1.00  0.00     0.093 A 
ATOM      8  C   UNL     1       3.591 -15.557  15.010  1.00  0.00     0.123 A 
ATOM      9  C   UNL     1       4.325 -14.557  14.371  1.00  0.00     0.094 A 
ATOM     10  C   UNL     1       4.273 -13.239  14.830  1.00  0.00     0.146 A 
ATOM     11  O   UNL     1       4.975 -12.313  14.187  1.00  0.00    -0.456 OA
ENDROOT
BRANCH   1  12
ATOM     12  C   UNL     1       5.811 -10.082  13.740  1.00  0.00     0.021 A 
ATOM     13  C   UNL     1       5.965  -8.762  14.188  1.00  0.00     0.016 A 
ATOM     14  C   UNL     1       6.737  -7.852  13.465  1.00  0.00     0.051 A 
ATOM     15  C   UNL     1       7.362  -8.234  12.273  1.00  0.00     0.157 A 
ATOM     16  C   UNL     1       6.428 -10.464  12.534  1.00  0.00     0.062 A 
ATOM     17  C   UNL     1       7.202  -9.557  11.799  1.00  0.00     0.158 A 
BRANCH  15  18
ATOM     18  O   UNL     1       8.125  -7.277  11.599  1.00  0.00    -0.504 OA
ATOM     19  H   UNL     1       7.834  -6.321  11.460  1.00  0.00     0.293 HD
ENDBRANCH  15  18
BRANCH  17  20
ATOM     20  O   UNL     1       7.781 -10.007  10.611  1.00  0.00    -0.504 OA
ATOM     21  H   UNL     1       8.671 -10.480  10.560  1.00  0.00     0.293 HD
ENDBRANCH  17  20
ENDBRANCH   1  12
BRANCH   6  22
ATOM     22  O   UNL     1       2.047 -13.752  17.814  1.00  0.00    -0.507 OA
ATOM     23  H   UNL     1       2.161 -12.973  18.444  1.00  0.00     0.293 HD
ENDBRANCH   6  22
BRANCH   8  24
ATOM     24  O   UNL     1       3.625 -16.870  14.544  1.00  0.00    -0.508 OA
ATOM     25  H   UNL     1       2.842 -17.275  14.044  1.00  0.00     0.293 HD
ENDBRANCH   8  24
TORSDOF 5
ENDMDL
MODEL 9
REMARK VINA RESULT:    -5.168      1.890      7.180
REMARK INTER + INTRA:          -6.339
REMARK INTER:                  -6.072
REMARK INTRA:                  -0.267
REMARK UNBOUND:                -0.265
REMARK SMILES O=c1cc(-c2ccc(O)c(O)c2)oc2cc(O)cc(O)c12
REMARK SMILES IDX 4 1 3 2 2 3 1 4 21 5 19 6 18 7 16 8 15 9 14 10 13 11 5 12
REMARK SMILES IDX 6 13 7 14 8 15 12 16 10 17 9 18 11 20 20 22 17 24
REMARK H PARENT 9 19 11 21 20 23 17 25
REMARK Flexibility Score: inf
ROOT
ATOM      1  C   UNL     1       5.063 -17.216  15.170  1.00  0.00     0.138 A 
ATOM      2  C   UNL     1       5.523 -17.722  13.946  1.00  0.00     0.100 A 
ATOM      3  C   UNL     1       6.229 -18.926  13.919  1.00  0.00     0.197 A 
ATOM      4  O   UNL     1       6.684 -19.324  12.815  1.00  0.00    -0.289 OA
ATOM      5  C   UNL     1       6.446 -19.641  15.121  1.00  0.00     0.107 A 
ATOM      6  C   UNL     1       7.117 -20.898  15.209  1.00  0.00     0.134 A 
ATOM      7  C   UNL     1       7.375 -21.455  16.467  1.00  0.00     0.093 A 
ATOM      8  C   UNL     1       6.936 -20.834  17.635  1.00  0.00     0.123 A 
ATOM      9  C   UNL     1       6.232 -19.631  17.558  1.00  0.00     0.094 A 
ATOM     10  C   UNL     1       5.989 -19.032  16.320  1.00  0.00     0.146 A 
ATOM     11  O   UNL     1       5.327 -17.880  16.290  1.00  0.00    -0.456 OA
ENDROOT
BRANCH   1  12
ATOM     12  C   UNL     1       4.306 -15.941  15.255  1.00  0.00     0.021 A 
ATOM     13  C   UNL     1       4.885 -14.837  15.899  1.00  0.00     0.016 A 
ATOM     14  C   UNL     1       4.192 -13.630  15.999  1.00  0.00     0.051 A 
ATOM     15  C   UNL     1       2.904 -13.499  15.467  1.00  0.00     0.157 A 
ATOM     16  C   UNL     1       3.005 -15.816  14.733  1.00  0.00     0.062 A 
ATOM     17  C   UNL     1       2.301 -14.609  14.831  1.00  0.00     0.158 A 
BRANCH  15  18
ATOM     18  O   UNL     1       2.267 -12.263  15.595  1.00  0.00    -0.504 OA
ATOM     19  H   UNL     1       2.638 -11.398  15.232  1.00  0.00     0.293 HD
ENDBRANCH  15  18
BRANCH  17  20
ATOM     20  O   UNL     1       1.014 -14.559  14.291  1.00  0.00    -0.504 OA
ATOM     21  H   UNL     1       0.453 -15.374  14.090  1.00  0.00     0.293 HD
ENDBRANCH  17  20
ENDBRANCH   1  12
BRANCH   6  22
ATOM     22  O   UNL     1       7.523 -21.646  14.100  1.00  0.00    -0.507 OA
ATOM     23  H   UNL     1       7.608 -21.285  13.162  1.00  0.00     0.293 HD
ENDBRANCH   6  22
BRANCH   8  24
ATOM     24  O   UNL     1       7.198 -21.425  18.869  1.00  0.00    -0.508 OA
ATOM     25  H   UNL     1       7.141 -20.897  19.732  1.00  0.00     0.293 HD
ENDBRANCH   8  24
TORSDOF 5
ENDMDL
