MODEL 1
REMARK VINA RESULT:    -5.524      0.000      0.000
REMARK INTER + INTRA:          -9.569
REMARK INTER:                  -8.754
REMARK INTRA:                  -0.815
REMARK UNBOUND:                -0.815
REMARK SMILES CCCCCCCCCCCC(=O)[O-]
REMARK SMILES IDX 7 1 8 2 9 3 10 4 11 5 12 6 13 7 14 8 6 9 5 10 4 11 3 12 2 13
REMARK SMILES IDX 1 14
REMARK H PARENT
REMARK Flexibility Score: inf
ROOT
ATOM      1  C   UNL     1      13.341   2.618  15.282  1.00  0.00     0.000 C 
ENDROOT
BRANCH   1   2
ATOM      2  C   UNL     1      12.910   3.339  16.571  1.00  0.00     0.000 C 
BRANCH   2   3
ATOM      3  C   UNL     1      14.096   3.643  17.502  1.00  0.00     0.000 C 
BRANCH   3   4
ATOM      4  C   UNL     1      13.934   3.004  18.890  1.00  0.00     0.006 C 
BRANCH   4   5
ATOM      5  C   UNL     1      13.770   1.479  18.826  1.00  0.00     0.053 C 
BRANCH   5   6
ATOM      6  C   UNL     1      15.063   0.832  18.441  1.00  0.00     0.041 C 
ATOM      7  O   UNL     1      16.109   1.059  19.106  1.00  0.00    -0.550 OA
ATOM      8  O   UNL     1      15.125   0.015  17.319  1.00  0.00    -0.550 OA
ENDBRANCH   5   6
ENDBRANCH   4   5
ENDBRANCH   3   4
ENDBRANCH   2   3
ENDBRANCH   1   2
BRANCH   1   9
ATOM      9  C   UNL     1      14.863   2.667  15.059  1.00  0.00     0.000 C 
BRANCH   9  10
ATOM     10  C   UNL     1      15.235   2.987  13.602  1.00  0.00    -0.000 C 
BRANCH  10  11
ATOM     11  C   UNL     1      15.187   1.750  12.691  1.00  0.00    -0.000 C 
BRANCH  11  12
ATOM     12  C   UNL     1      15.830   2.050  11.328  1.00  0.00    -0.000 C 
BRANCH  12  13
ATOM     13  C   UNL     1      17.327   1.705  11.293  1.00  0.00    -0.003 C 
ATOM     14  C   UNL     1      17.674   0.490  12.154  1.00  0.00     0.004 C 
ENDBRANCH  12  13
ENDBRANCH  11  12
ENDBRANCH  10  11
ENDBRANCH   9  10
ENDBRANCH   1   9
TORSDOF 10
ENDMDL
MODEL 2
REMARK VINA RESULT:    -5.438      2.617      5.925
REMARK INTER + INTRA:          -9.432
REMARK INTER:                  -7.993
REMARK INTRA:                  -1.439
REMARK UNBOUND:                -0.815
REMARK SMILES CCCCCCCCCCCC(=O)[O-]
REMARK SMILES IDX 7 1 8 2 9 3 10 4 11 5 12 6 13 7 14 8 6 9 5 10 4 11 3 12 2 13
REMARK SMILES IDX 1 14
REMARK H PARENT
REMARK Flexibility Score: inf
ROOT
ATOM      1  C   UNL     1      16.506  -0.820  19.251  1.00  0.00     0.000 C 
ENDROOT
BRANCH   1   2
ATOM      2  C   UNL     1      17.523   0.333  19.224  1.00  0.00     0.000 C 
BRANCH   2   3
ATOM      3  C   UNL     1      17.960   0.702  17.795  1.00  0.00     0.000 C 
BRANCH   3   4
ATOM      4  C   UNL     1      16.919   1.566  17.066  1.00  0.00     0.006 C 
BRANCH   4   5
ATOM      5  C   UNL     1      16.151   0.787  15.989  1.00  0.00     0.053 C 
BRANCH   5   6
ATOM      6  C   UNL     1      15.855   1.670  14.819  1.00  0.00     0.041 C 
ATOM      7  O   UNL     1      15.536   2.875  14.998  1.00  0.00    -0.550 OA
ATOM      8  O   UNL     1      15.883   1.151  13.531  1.00  0.00    -0.550 OA
ENDBRANCH   5   6
ENDBRANCH   4   5
ENDBRANCH   3   4
ENDBRANCH   2   3
ENDBRANCH   1   2
BRANCH   1   9
ATOM      9  C   UNL     1      15.128  -0.381  19.775  1.00  0.00     0.000 C 
BRANCH   9  10
ATOM     10  C   UNL     1      15.191   0.934  20.570  1.00  0.00    -0.000 C 
BRANCH  10  11
ATOM     11  C   UNL     1      14.451   2.086  19.873  1.00  0.00    -0.000 C 
BRANCH  11  12
ATOM     12  C   UNL     1      13.652   1.572  18.665  1.00  0.00    -0.000 C 
BRANCH  12  13
ATOM     13  C   UNL     1      13.328   2.684  17.655  1.00  0.00    -0.003 C 
ATOM     14  C   UNL     1      13.988   4.016  18.011  1.00  0.00     0.004 C 
ENDBRANCH  12  13
ENDBRANCH  11  12
ENDBRANCH  10  11
ENDBRANCH   9  10
ENDBRANCH   1   9
TORSDOF 10
ENDMDL
MODEL 3
REMARK VINA RESULT:    -5.387      1.837      3.160
REMARK INTER + INTRA:          -9.351
REMARK INTER:                  -8.357
REMARK INTRA:                  -0.994
REMARK UNBOUND:                -0.815
REMARK SMILES CCCCCCCCCCCC(=O)[O-]
REMARK SMILES IDX 7 1 8 2 9 3 10 4 11 5 12 6 13 7 14 8 6 9 5 10 4 11 3 12 2 13
REMARK SMILES IDX 1 14
REMARK H PARENT
REMARK Flexibility Score: inf
ROOT
ATOM      1  C   UNL     1      15.497   3.018  12.947  1.00  0.00     0.000 C 
ENDROOT
BRANCH   1   2
ATOM      2  C   UNL     1      15.240   2.812  14.450  1.00  0.00     0.000 C 
BRANCH   2   3
ATOM      3  C   UNL     1      13.878   2.154  14.731  1.00  0.00     0.000 C 
BRANCH   3   4
ATOM      4  C   UNL     1      13.237   2.661  16.033  1.00  0.00     0.006 C 
BRANCH   4   5
ATOM      5  C   UNL     1      13.699   1.875  17.267  1.00  0.00     0.053 C 
BRANCH   5   6
ATOM      6  C   UNL     1      13.610   2.729  18.492  1.00  0.00     0.041 C 
ATOM      7  O   UNL     1      12.886   3.759  18.496  1.00  0.00    -0.550 OA
ATOM      8  O   UNL     1      14.365   2.415  19.615  1.00  0.00    -0.550 OA
ENDBRANCH   5   6
ENDBRANCH   4   5
ENDBRANCH   3   4
ENDBRANCH   2   3
ENDBRANCH   1   2
BRANCH   1   9
ATOM      9  C   UNL     1      15.404   1.707  12.147  1.00  0.00     0.000 C 
BRANCH   9  10
ATOM     10  C   UNL     1      16.633   1.473  11.254  1.00  0.00    -0.000 C 
BRANCH  10  11
ATOM     11  C   UNL     1      17.832   0.904  12.029  1.00  0.00    -0.000 C 
BRANCH  11  12
ATOM     12  C   UNL     1      17.435  -0.366  12.796  1.00  0.00    -0.000 C 
BRANCH  12  13
ATOM     13  C   UNL     1      17.843  -0.313  14.277  1.00  0.00    -0.003 C 
ATOM     14  C   UNL     1      16.643  -0.384  15.223  1.00  0.00     0.004 C 
ENDBRANCH  12  13
ENDBRANCH  11  12
ENDBRANCH  10  11
ENDBRANCH   9  10
ENDBRANCH   1   9
TORSDOF 10
ENDMDL
MODEL 4
REMARK VINA RESULT:    -5.356      1.952      3.890
REMARK INTER + INTRA:          -9.303
REMARK INTER:                  -8.351
REMARK INTRA:                  -0.951
REMARK UNBOUND:                -0.815
REMARK SMILES CCCCCCCCCCCC(=O)[O-]
REMARK SMILES IDX 7 1 8 2 9 3 10 4 11 5 12 6 13 7 14 8 6 9 5 10 4 11 3 12 2 13
REMARK SMILES IDX 1 14
REMARK H PARENT
REMARK Flexibility Score: inf
ROOT
ATOM      1  C   UNL     1      14.013   1.611  18.971  1.00  0.00     0.000 C 
ENDROOT
BRANCH   1   2
ATOM      2  C   UNL     1      14.728   1.521  20.330  1.00  0.00     0.000 C 
BRANCH   2   3
ATOM      3  C   UNL     1      15.507   0.204  20.501  1.00  0.00     0.000 C 
BRANCH   3   4
ATOM      4  C   UNL     1      16.563  -0.002  19.404  1.00  0.00     0.006 C 
BRANCH   4   5
ATOM      5  C   UNL     1      16.646  -1.458  18.926  1.00  0.00     0.053 C 
BRANCH   5   6
ATOM      6  C   UNL     1      15.717  -1.682  17.775  1.00  0.00     0.041 C 
ATOM      7  O   UNL     1      16.150  -1.638  16.593  1.00  0.00    -0.550 OA
ATOM      8  O   UNL     1      14.363  -1.891  18.004  1.00  0.00    -0.550 OA
ENDBRANCH   5   6
ENDBRANCH   4   5
ENDBRANCH   3   4
ENDBRANCH   2   3
ENDBRANCH   1   2
BRANCH   1   9
ATOM      9  C   UNL     1      13.768   3.064  18.528  1.00  0.00     0.000 C 
BRANCH   9  10
ATOM     10  C   UNL     1      14.393   3.377  17.159  1.00  0.00    -0.000 C 
BRANCH  10  11
ATOM     11  C   UNL     1      15.714   2.628  16.922  1.00  0.00    -0.000 C 
BRANCH  11  12
ATOM     12  C   UNL     1      15.742   1.998  15.521  1.00  0.00    -0.000 C 
BRANCH  12  13
ATOM     13  C   UNL     1      14.708   2.623  14.572  1.00  0.00    -0.003 C 
ATOM     14  C   UNL     1      15.285   2.930  13.189  1.00  0.00     0.004 C 
ENDBRANCH  12  13
ENDBRANCH  11  12
ENDBRANCH  10  11
ENDBRANCH   9  10
ENDBRANCH   1   9
TORSDOF 10
ENDMDL
MODEL 5
REMARK VINA RESULT:    -5.354      1.108      2.290
REMARK INTER + INTRA:          -9.299
REMARK INTER:                  -8.474
REMARK INTRA:                  -0.825
REMARK UNBOUND:                -0.815
REMARK SMILES CCCCCCCCCCCC(=O)[O-]
REMARK SMILES IDX 7 1 8 2 9 3 10 4 11 5 12 6 13 7 14 8 6 9 5 10 4 11 3 12 2 13
REMARK SMILES IDX 1 14
REMARK H PARENT
REMARK Flexibility Score: inf
ROOT
ATOM      1  C   UNL     1      13.981   3.725  17.422  1.00  0.00     0.000 C 
ENDROOT
BRANCH   1   2
ATOM      2  C   UNL     1      13.567   3.415  18.871  1.00  0.00     0.000 C 
BRANCH   2   3
ATOM      3  C   UNL     1      14.402   2.283  19.494  1.00  0.00     0.000 C 
BRANCH   3   4
ATOM      4  C   UNL     1      14.020   0.899  18.944  1.00  0.00     0.006 C 
BRANCH   4   5
ATOM      5  C   UNL     1      15.074   0.331  17.984  1.00  0.00     0.053 C 
BRANCH   5   6
ATOM      6  C   UNL     1      16.447   0.730  18.422  1.00  0.00     0.041 C 
ATOM      7  O   UNL     1      16.948   0.236  19.467  1.00  0.00    -0.550 OA
ATOM      8  O   UNL     1      17.157   1.684  17.704  1.00  0.00    -0.550 OA
ENDBRANCH   5   6
ENDBRANCH   4   5
ENDBRANCH   3   4
ENDBRANCH   2   3
ENDBRANCH   1   2
BRANCH   1   9
ATOM      9  C   UNL     1      12.875   3.387  16.407  1.00  0.00     0.000 C 
BRANCH   9  10
ATOM     10  C   UNL     1      13.378   2.491  15.263  1.00  0.00    -0.000 C 
BRANCH  10  11
ATOM     11  C   UNL     1      14.881   2.661  14.992  1.00  0.00    -0.000 C 
BRANCH  11  12
ATOM     12  C   UNL     1      15.132   3.052  13.528  1.00  0.00    -0.000 C 
BRANCH  12  13
ATOM     13  C   UNL     1      15.271   1.830  12.606  1.00  0.00    -0.003 C 
ATOM     14  C   UNL     1      16.131   2.114  11.374  1.00  0.00     0.004 C 
ENDBRANCH  12  13
ENDBRANCH  11  12
ENDBRANCH  10  11
ENDBRANCH   9  10
ENDBRANCH   1   9
TORSDOF 10
ENDMDL
MODEL 6
REMARK VINA RESULT:    -5.345      2.636      5.309
REMARK INTER + INTRA:          -9.285
REMARK INTER:                  -8.281
REMARK INTRA:                  -1.004
REMARK UNBOUND:                -0.815
REMARK SMILES CCCCCCCCCCCC(=O)[O-]
REMARK SMILES IDX 7 1 8 2 9 3 10 4 11 5 12 6 13 7 14 8 6 9 5 10 4 11 3 12 2 13
REMARK SMILES IDX 1 14
REMARK H PARENT
REMARK Flexibility Score: inf
ROOT
ATOM      1  C   UNL     1      13.995   1.927  19.006  1.00  0.00     0.000 C 
ENDROOT
BRANCH   1   2
ATOM      2  C   UNL     1      14.023   3.312  18.336  1.00  0.00     0.000 C 
BRANCH   2   3
ATOM      3  C   UNL     1      12.924   3.475  17.272  1.00  0.00     0.000 C 
BRANCH   3   4
ATOM      4  C   UNL     1      13.223   2.682  15.990  1.00  0.00     0.006 C 
BRANCH   4   5
ATOM      5  C   UNL     1      14.637   2.937  15.451  1.00  0.00     0.053 C 
BRANCH   5   6
ATOM      6  C   UNL     1      14.730   2.522  14.017  1.00  0.00     0.041 C 
ATOM      7  O   UNL     1      15.124   3.341  13.144  1.00  0.00    -0.550 OA
ATOM      8  O   UNL     1      14.337   1.246  13.635  1.00  0.00    -0.550 OA
ENDBRANCH   5   6
ENDBRANCH   4   5
ENDBRANCH   3   4
ENDBRANCH   2   3
ENDBRANCH   1   2
BRANCH   1   9
ATOM      9  C   UNL     1      14.726   1.912  20.360  1.00  0.00     0.000 C 
BRANCH   9  10
ATOM     10  C   UNL     1      15.313   0.531  20.698  1.00  0.00    -0.000 C 
BRANCH  10  11
ATOM     11  C   UNL     1      15.933  -0.166  19.477  1.00  0.00    -0.000 C 
BRANCH  11  12
ATOM     12  C   UNL     1      17.386   0.289  19.267  1.00  0.00    -0.000 C 
BRANCH  12  13
ATOM     13  C   UNL     1      17.627   0.862  17.861  1.00  0.00    -0.003 C 
ATOM     14  C   UNL     1      16.635   0.328  16.827  1.00  0.00     0.004 C 
ENDBRANCH  12  13
ENDBRANCH  11  12
ENDBRANCH  10  11
ENDBRANCH   9  10
ENDBRANCH   1   9
TORSDOF 10
ENDMDL
MODEL 7
REMARK VINA RESULT:    -5.313      2.421      5.204
REMARK INTER + INTRA:          -9.234
REMARK INTER:                  -8.089
REMARK INTRA:                  -1.145
REMARK UNBOUND:                -0.815
REMARK SMILES CCCCCCCCCCCC(=O)[O-]
REMARK SMILES IDX 7 1 8 2 9 3 10 4 11 5 12 6 13 7 14 8 6 9 5 10 4 11 3 12 2 13
REMARK SMILES IDX 1 14
REMARK H PARENT
REMARK Flexibility Score: inf
ROOT
ATOM      1  C   UNL     1      13.855   3.314  18.514  1.00  0.00     0.000 C 
ENDROOT
BRANCH   1   2
ATOM      2  C   UNL     1      13.095   3.637  17.216  1.00  0.00     0.000 C 
BRANCH   2   3
ATOM      3  C   UNL     1      13.362   2.609  16.104  1.00  0.00     0.000 C 
BRANCH   3   4
ATOM      4  C   UNL     1      14.795   2.696  15.553  1.00  0.00     0.006 C 
BRANCH   4   5
ATOM      5  C   UNL     1      15.435   1.317  15.347  1.00  0.00     0.053 C 
BRANCH   5   6
ATOM      6  C   UNL     1      16.698   1.205  16.142  1.00  0.00     0.041 C 
ATOM      7  O   UNL     1      17.567   0.347  15.834  1.00  0.00    -0.550 OA
ATOM      8  O   UNL     1      16.895   2.015  17.253  1.00  0.00    -0.550 OA
ENDBRANCH   5   6
ENDBRANCH   4   5
ENDBRANCH   3   4
ENDBRANCH   2   3
ENDBRANCH   1   2
BRANCH   1   9
ATOM      9  C   UNL     1      13.804   1.818  18.871  1.00  0.00     0.000 C 
BRANCH   9  10
ATOM     10  C   UNL     1      14.671   1.474  20.094  1.00  0.00    -0.000 C 
BRANCH  10  11
ATOM     11  C   UNL     1      14.989  -0.026  20.194  1.00  0.00    -0.000 C 
BRANCH  11  12
ATOM     12  C   UNL     1      16.430  -0.311  19.745  1.00  0.00    -0.000 C 
BRANCH  12  13
ATOM     13  C   UNL     1      16.522  -1.495  18.769  1.00  0.00    -0.003 C 
ATOM     14  C   UNL     1      15.244  -1.686  17.951  1.00  0.00     0.004 C 
ENDBRANCH  12  13
ENDBRANCH  11  12
ENDBRANCH  10  11
ENDBRANCH   9  10
ENDBRANCH   1   9
TORSDOF 10
ENDMDL
MODEL 8
REMARK VINA RESULT:    -5.306      2.502      3.597
REMARK INTER + INTRA:          -9.223
REMARK INTER:                  -7.842
REMARK INTRA:                  -1.380
REMARK UNBOUND:                -0.815
REMARK SMILES CCCCCCCCCCCC(=O)[O-]
REMARK SMILES IDX 7 1 8 2 9 3 10 4 11 5 12 6 13 7 14 8 6 9 5 10 4 11 3 12 2 13
REMARK SMILES IDX 1 14
REMARK H PARENT
REMARK Flexibility Score: inf
ROOT
ATOM      1  C   UNL     1      13.962   3.288  18.912  1.00  0.00     0.000 C 
ENDROOT
BRANCH   1   2
ATOM      2  C   UNL     1      13.997   1.754  19.012  1.00  0.00     0.000 C 
BRANCH   2   3
ATOM      3  C   UNL     1      15.082   1.251  19.981  1.00  0.00     0.000 C 
BRANCH   3   4
ATOM      4  C   UNL     1      15.078  -0.279  20.126  1.00  0.00     0.006 C 
BRANCH   4   5
ATOM      5  C   UNL     1      16.175  -0.956  19.293  1.00  0.00     0.053 C 
BRANCH   5   6
ATOM      6  C   UNL     1      15.576  -1.660  18.117  1.00  0.00     0.041 C 
ATOM      7  O   UNL     1      14.330  -1.831  18.047  1.00  0.00    -0.550 OA
ATOM      8  O   UNL     1      16.397  -2.171  17.120  1.00  0.00    -0.550 OA
ENDBRANCH   5   6
ENDBRANCH   4   5
ENDBRANCH   3   4
ENDBRANCH   2   3
ENDBRANCH   1   2
BRANCH   1   9
ATOM      9  C   UNL     1      13.735   3.781  17.472  1.00  0.00     0.000 C 
BRANCH   9  10
ATOM     10  C   UNL     1      13.125   2.698  16.567  1.00  0.00    -0.000 C 
BRANCH  10  11
ATOM     11  C   UNL     1      13.830   2.594  15.206  1.00  0.00    -0.000 C 
BRANCH  11  12
ATOM     12  C   UNL     1      15.354   2.701  15.369  1.00  0.00    -0.000 C 
BRANCH  12  13
ATOM     13  C   UNL     1      15.996   1.372  15.798  1.00  0.00    -0.003 C 
ATOM     14  C   UNL     1      17.073   1.555  16.868  1.00  0.00     0.004 C 
ENDBRANCH  12  13
ENDBRANCH  11  12
ENDBRANCH  10  11
ENDBRANCH   9  10
ENDBRANCH   1   9
TORSDOF 10
ENDMDL
MODEL 9
REMARK VINA RESULT:    -5.301      1.692      5.541
REMARK INTER + INTRA:          -9.214
REMARK INTER:                  -8.448
REMARK INTRA:                  -0.766
REMARK UNBOUND:                -0.815
REMARK SMILES CCCCCCCCCCCC(=O)[O-]
REMARK SMILES IDX 7 1 8 2 9 3 10 4 11 5 12 6 13 7 14 8 6 9 5 10 4 11 3 12 2 13
REMARK SMILES IDX 1 14
REMARK H PARENT
REMARK Flexibility Score: inf
ROOT
ATOM      1  C   UNL     1      15.546   1.971  12.025  1.00  0.00     0.000 C 
ENDROOT
BRANCH   1   2
ATOM      2  C   UNL     1      16.927   2.028  11.351  1.00  0.00     0.000 C 
BRANCH   2   3
ATOM      3  C   UNL     1      17.753   0.752  11.591  1.00  0.00     0.000 C 
BRANCH   3   4
ATOM      4  C   UNL     1      17.301  -0.016  12.843  1.00  0.00     0.006 C 
BRANCH   4   5
ATOM      5  C   UNL     1      18.392  -0.093  13.919  1.00  0.00     0.053 C 
BRANCH   5   6
ATOM      6  C   UNL     1      17.777  -0.147  15.282  1.00  0.00     0.041 C 
ATOM      7  O   UNL     1      18.427   0.246  16.287  1.00  0.00    -0.550 OA
ATOM      8  O   UNL     1      16.504  -0.676  15.450  1.00  0.00    -0.550 OA
ENDBRANCH   5   6
ENDBRANCH   4   5
ENDBRANCH   3   4
ENDBRANCH   2   3
ENDBRANCH   1   2
BRANCH   1   9
ATOM      9  C   UNL     1      15.390   3.018  13.142  1.00  0.00     0.000 C 
BRANCH   9  10
ATOM     10  C   UNL     1      14.556   2.500  14.325  1.00  0.00    -0.000 C 
BRANCH  10  11
ATOM     11  C   UNL     1      15.278   2.650  15.673  1.00  0.00    -0.000 C 
BRANCH  11  12
ATOM     12  C   UNL     1      14.407   2.119  16.822  1.00  0.00    -0.000 C 
BRANCH  12  13
ATOM     13  C   UNL     1      13.227   3.050  17.147  1.00  0.00    -0.003 C 
ATOM     14  C   UNL     1      13.407   3.792  18.472  1.00  0.00     0.004 C 
ENDBRANCH  12  13
ENDBRANCH  11  12
ENDBRANCH  10  11
ENDBRANCH   9  10
ENDBRANCH   1   9
TORSDOF 10
ENDMDL
