MODEL 1
REMARK VINA RESULT:    -3.211      0.000      0.000
REMARK INTER + INTRA:          -3.305
REMARK INTER:                  -3.305
REMARK INTRA:                   0.000
REMARK UNBOUND:                 0.000
REMARK SMILES CC1(C)[C@H]2CC[C@](C)(C2)[C@H]1O
REMARK SMILES IDX 1 1 2 2 4 3 5 4 6 5 7 6 9 7 10 8 8 9 3 10 11 11
REMARK H PARENT 11 12
REMARK Flexibility Score: inf
ROOT
ATOM      1  C   UNL     1     112.250 109.406 106.503  1.00  0.00     0.014 C 
ATOM      2  C   UNL     1     111.854 110.289 105.294  1.00  0.00    -0.006 C 
ATOM      3  C   UNL     1     112.169 111.795 105.601  1.00  0.00    -0.002 C 
ATOM      4  C   UNL     1     112.039 112.661 104.332  1.00  0.00     0.005 C 
ATOM      5  C   UNL     1     110.529 112.622 104.047  1.00  0.00     0.010 C 
ATOM      6  C   UNL     1     109.974 111.832 105.257  1.00  0.00    -0.006 C 
ATOM      7  C   UNL     1     110.929 112.248 106.355  1.00  0.00     0.013 C 
ATOM      8  C   UNL     1     110.299 110.324 105.114  1.00  0.00     0.126 C 
ATOM      9  C   UNL     1     108.502 112.126 105.566  1.00  0.00     0.014 C 
ATOM     10  C   UNL     1     112.612 109.745 104.056  1.00  0.00     0.014 C 
ENDROOT
BRANCH   8  11
ATOM     11  O   UNL     1     109.862 109.822 103.875  1.00  0.00    -0.392 OA
ATOM     12  H   UNL     1     110.367 108.983 103.719  1.00  0.00     0.211 HD
ENDBRANCH   8  11
TORSDOF 1
ENDMDL
MODEL 2
REMARK VINA RESULT:    -3.209      7.820      9.019
REMARK INTER + INTRA:          -3.303
REMARK INTER:                  -3.303
REMARK INTRA:                   0.000
REMARK UNBOUND:                 0.000
REMARK SMILES CC1(C)[C@H]2CC[C@](C)(C2)[C@H]1O
REMARK SMILES IDX 1 1 2 2 4 3 5 4 6 5 7 6 9 7 10 8 8 9 3 10 11 11
REMARK H PARENT 11 12
REMARK Flexibility Score: inf
ROOT
ATOM      1  C   UNL     1     115.340 114.032 108.167  1.00  0.00     0.014 C 
ATOM      2  C   UNL     1     116.552 114.441 109.039  1.00  0.00    -0.006 C 
ATOM      3  C   UNL     1     116.167 115.648 109.964  1.00  0.00    -0.002 C 
ATOM      4  C   UNL     1     117.256 115.905 111.026  1.00  0.00     0.005 C 
ATOM      5  C   UNL     1     118.439 116.410 110.185  1.00  0.00     0.010 C 
ATOM      6  C   UNL     1     117.837 116.487 108.762  1.00  0.00    -0.006 C 
ATOM      7  C   UNL     1     116.398 116.847 109.059  1.00  0.00     0.013 C 
ATOM      8  C   UNL     1     117.686 115.067 108.160  1.00  0.00     0.126 C 
ATOM      9  C   UNL     1     118.551 117.481 107.839  1.00  0.00     0.014 C 
ATOM     10  C   UNL     1     116.999 113.183 109.828  1.00  0.00     0.014 C 
ENDROOT
BRANCH   8  11
ATOM     11  O   UNL     1     118.899 114.358 108.213  1.00  0.00    -0.392 OA
ATOM     12  H   UNL     1     119.218 114.279 107.277  1.00  0.00     0.211 HD
ENDBRANCH   8  11
TORSDOF 1
ENDMDL
MODEL 3
REMARK VINA RESULT:    -3.202      7.861      9.888
REMARK INTER + INTRA:          -3.295
REMARK INTER:                  -3.295
REMARK INTRA:                   0.000
REMARK UNBOUND:                 0.000
REMARK SMILES CC1(C)[C@H]2CC[C@](C)(C2)[C@H]1O
REMARK SMILES IDX 1 1 2 2 4 3 5 4 6 5 7 6 9 7 10 8 8 9 3 10 11 11
REMARK H PARENT 11 12
REMARK Flexibility Score: inf
ROOT
ATOM      1  C   UNL     1     106.202 115.423 108.009  1.00  0.00     0.014 C 
ATOM      2  C   UNL     1     105.769 116.588 108.932  1.00  0.00    -0.006 C 
ATOM      3  C   UNL     1     104.585 116.133 109.855  1.00  0.00    -0.002 C 
ATOM      4  C   UNL     1     104.310 117.172 110.962  1.00  0.00     0.005 C 
ATOM      5  C   UNL     1     103.761 118.372 110.174  1.00  0.00     0.010 C 
ATOM      6  C   UNL     1     103.685 117.825 108.728  1.00  0.00    -0.006 C 
ATOM      7  C   UNL     1     103.369 116.365 108.973  1.00  0.00     0.013 C 
ATOM      8  C   UNL     1     105.101 117.738 108.106  1.00  0.00     0.126 C 
ATOM      9  C   UNL     1     102.659 118.545 107.846  1.00  0.00     0.014 C 
ATOM     10  C   UNL     1     107.024 117.040 109.724  1.00  0.00     0.014 C 
ENDROOT
BRANCH   8  11
ATOM     11  O   UNL     1     105.776 118.968 108.198  1.00  0.00    -0.392 OA
ATOM     12  H   UNL     1     105.907 119.143 109.166  1.00  0.00     0.211 HD
ENDBRANCH   8  11
TORSDOF 1
ENDMDL
MODEL 4
REMARK VINA RESULT:    -3.198      1.597      3.209
REMARK INTER + INTRA:          -3.291
REMARK INTER:                  -3.291
REMARK INTRA:                   0.000
REMARK UNBOUND:                 0.000
REMARK SMILES CC1(C)[C@H]2CC[C@](C)(C2)[C@H]1O
REMARK SMILES IDX 1 1 2 2 4 3 5 4 6 5 7 6 9 7 10 8 8 9 3 10 11 11
REMARK H PARENT 11 12
REMARK Flexibility Score: inf
ROOT
ATOM      1  C   UNL     1     110.667 112.197 106.493  1.00  0.00     0.014 C 
ATOM      2  C   UNL     1     109.824 111.756 105.272  1.00  0.00    -0.006 C 
ATOM      3  C   UNL     1     108.301 112.008 105.549  1.00  0.00    -0.002 C 
ATOM      4  C   UNL     1     107.464 111.832 104.265  1.00  0.00     0.005 C 
ATOM      5  C   UNL     1     107.574 110.324 103.991  1.00  0.00     0.010 C 
ATOM      6  C   UNL     1     108.364 109.811 105.219  1.00  0.00    -0.006 C 
ATOM      7  C   UNL     1     107.888 110.754 106.302  1.00  0.00     0.013 C 
ATOM      8  C   UNL     1     109.860 110.200 105.101  1.00  0.00     0.126 C 
ATOM      9  C   UNL     1     108.129 108.330 105.533  1.00  0.00     0.014 C 
ATOM     10  C   UNL     1     110.358 112.529 104.038  1.00  0.00     0.014 C 
ENDROOT
BRANCH   8  11
ATOM     11  O   UNL     1     110.402 109.777 103.875  1.00  0.00    -0.392 OA
ATOM     12  H   UNL     1     111.273 109.350 104.087  1.00  0.00     0.211 HD
ENDBRANCH   8  11
TORSDOF 1
ENDMDL
MODEL 5
REMARK VINA RESULT:    -3.189      1.560      3.111
REMARK INTER + INTRA:          -3.282
REMARK INTER:                  -3.282
REMARK INTRA:                   0.000
REMARK UNBOUND:                 0.000
REMARK SMILES CC1(C)[C@H]2CC[C@](C)(C2)[C@H]1O
REMARK SMILES IDX 1 1 2 2 4 3 5 4 6 5 7 6 9 7 10 8 8 9 3 10 11 11
REMARK H PARENT 11 12
REMARK Flexibility Score: inf
ROOT
ATOM      1  C   UNL     1     109.458 107.885 106.348  1.00  0.00     0.014 C 
ATOM      2  C   UNL     1     110.353 108.360 105.177  1.00  0.00    -0.006 C 
ATOM      3  C   UNL     1     111.857 108.035 105.484  1.00  0.00    -0.002 C 
ATOM      4  C   UNL     1     112.738 108.248 104.236  1.00  0.00     0.005 C 
ATOM      5  C   UNL     1     112.692 109.772 104.043  1.00  0.00     0.010 C 
ATOM      6  C   UNL     1     111.883 110.248 105.273  1.00  0.00    -0.006 C 
ATOM      7  C   UNL     1     112.292 109.231 106.317  1.00  0.00     0.013 C 
ATOM      8  C   UNL     1     110.379 109.923 105.092  1.00  0.00     0.126 C 
ATOM      9  C   UNL     1     112.163 111.700 105.675  1.00  0.00     0.014 C 
ATOM     10  C   UNL     1     109.829 107.675 103.889  1.00  0.00     0.014 C 
ENDROOT
BRANCH   8  11
ATOM     11  O   UNL     1     109.890 110.431 103.875  1.00  0.00    -0.392 OA
ATOM     12  H   UNL     1     109.221 109.776 103.547  1.00  0.00     0.211 HD
ENDBRANCH   8  11
TORSDOF 1
ENDMDL
MODEL 6
REMARK VINA RESULT:    -3.179      2.408      4.474
REMARK INTER + INTRA:          -3.272
REMARK INTER:                  -3.272
REMARK INTRA:                   0.000
REMARK UNBOUND:                 0.000
REMARK SMILES CC1(C)[C@H]2CC[C@](C)(C2)[C@H]1O
REMARK SMILES IDX 1 1 2 2 4 3 5 4 6 5 7 6 9 7 10 8 8 9 3 10 11 11
REMARK H PARENT 11 12
REMARK Flexibility Score: inf
ROOT
ATOM      1  C   UNL     1     107.752 110.562 106.378  1.00  0.00     0.014 C 
ATOM      2  C   UNL     1     108.267 109.766 105.155  1.00  0.00    -0.006 C 
ATOM      3  C   UNL     1     108.030 108.231 105.373  1.00  0.00    -0.002 C 
ATOM      4  C   UNL     1     108.283 107.438 104.073  1.00  0.00     0.005 C 
ATOM      5  C   UNL     1     109.800 107.581 103.877  1.00  0.00     0.010 C 
ATOM      6  C   UNL     1     110.238 108.341 105.152  1.00  0.00    -0.006 C 
ATOM      7  C   UNL     1     109.253 107.815 106.173  1.00  0.00     0.013 C 
ATOM      8  C   UNL     1     109.829 109.833 105.062  1.00  0.00     0.126 C 
ATOM      9  C   UNL     1     111.707 108.120 105.532  1.00  0.00     0.014 C 
ATOM     10  C   UNL     1     107.545 110.326 103.902  1.00  0.00     0.014 C 
ENDROOT
BRANCH   8  11
ATOM     11  O   UNL     1     110.300 110.421 103.875  1.00  0.00    -0.392 OA
ATOM     12  H   UNL     1     110.798 109.712 103.390  1.00  0.00     0.211 HD
ENDBRANCH   8  11
TORSDOF 1
ENDMDL
MODEL 7
REMARK VINA RESULT:    -3.069      2.471      3.978
REMARK INTER + INTRA:          -3.158
REMARK INTER:                  -3.158
REMARK INTRA:                   0.000
REMARK UNBOUND:                 0.000
REMARK SMILES CC1(C)[C@H]2CC[C@](C)(C2)[C@H]1O
REMARK SMILES IDX 1 1 2 2 4 3 5 4 6 5 7 6 9 7 10 8 8 9 3 10 11 11
REMARK H PARENT 11 12
REMARK Flexibility Score: inf
ROOT
ATOM      1  C   UNL     1     106.729 112.600 106.784  1.00  0.00     0.014 C 
ATOM      2  C   UNL     1     107.987 111.940 106.168  1.00  0.00    -0.006 C 
ATOM      3  C   UNL     1     108.184 112.431 104.691  1.00  0.00    -0.002 C 
ATOM      4  C   UNL     1     109.562 112.006 104.142  1.00  0.00     0.005 C 
ATOM      5  C   UNL     1     109.431 110.478 104.040  1.00  0.00     0.010 C 
ATOM      6  C   UNL     1     107.955 110.235 104.434  1.00  0.00    -0.006 C 
ATOM      7  C   UNL     1     107.289 111.486 103.905  1.00  0.00     0.013 C 
ATOM      8  C   UNL     1     107.768 110.403 105.963  1.00  0.00     0.126 C 
ATOM      9  C   UNL     1     107.370 108.933 103.875  1.00  0.00     0.014 C 
ATOM     10  C   UNL     1     109.185 112.280 107.091  1.00  0.00     0.014 C 
ENDROOT
BRANCH   8  11
ATOM     11  O   UNL     1     108.674 109.602 106.680  1.00  0.00    -0.392 OA
ATOM     12  H   UNL     1     108.627 108.697 106.276  1.00  0.00     0.211 HD
ENDBRANCH   8  11
TORSDOF 1
ENDMDL
MODEL 8
REMARK VINA RESULT:    -3.047      1.401      2.811
REMARK INTER + INTRA:          -3.137
REMARK INTER:                  -3.137
REMARK INTRA:                   0.000
REMARK UNBOUND:                 0.000
REMARK SMILES CC1(C)[C@H]2CC[C@](C)(C2)[C@H]1O
REMARK SMILES IDX 1 1 2 2 4 3 5 4 6 5 7 6 9 7 10 8 8 9 3 10 11 11
REMARK H PARENT 11 12
REMARK Flexibility Score: inf
ROOT
ATOM      1  C   UNL     1     112.560 113.086 106.571  1.00  0.00     0.014 C 
ATOM      2  C   UNL     1     111.734 112.441 105.432  1.00  0.00    -0.006 C 
ATOM      3  C   UNL     1     110.249 112.235 105.893  1.00  0.00    -0.002 C 
ATOM      4  C   UNL     1     109.345 111.848 104.704  1.00  0.00     0.005 C 
ATOM      5  C   UNL     1     109.846 110.441 104.340  1.00  0.00     0.010 C 
ATOM      6  C   UNL     1     110.896 110.158 105.441  1.00  0.00    -0.006 C 
ATOM      7  C   UNL     1     110.308 110.902 106.620  1.00  0.00     0.013 C 
ATOM      8  C   UNL     1     112.192 110.966 105.176  1.00  0.00     0.126 C 
ATOM      9  C   UNL     1     111.135 108.666 105.701  1.00  0.00     0.014 C 
ATOM     10  C   UNL     1     111.868 113.359 104.189  1.00  0.00     0.014 C 
ENDROOT
BRANCH   8  11
ATOM     11  O   UNL     1     112.676 110.741 103.875  1.00  0.00    -0.392 OA
ATOM     12  H   UNL     1     112.273 109.888 103.570  1.00  0.00     0.211 HD
ENDBRANCH   8  11
TORSDOF 1
ENDMDL
MODEL 9
REMARK VINA RESULT:    -3.041      2.275      3.613
REMARK INTER + INTRA:          -3.130
REMARK INTER:                  -3.130
REMARK INTRA:                   0.000
REMARK UNBOUND:                 0.000
REMARK SMILES CC1(C)[C@H]2CC[C@](C)(C2)[C@H]1O
REMARK SMILES IDX 1 1 2 2 4 3 5 4 6 5 7 6 9 7 10 8 8 9 3 10 11 11
REMARK H PARENT 11 12
REMARK Flexibility Score: inf
ROOT
ATOM      1  C   UNL     1     113.367 107.647 106.881  1.00  0.00     0.014 C 
ATOM      2  C   UNL     1     112.116 108.191 106.149  1.00  0.00    -0.006 C 
ATOM      3  C   UNL     1     112.092 107.676 104.667  1.00  0.00    -0.002 C 
ATOM      4  C   UNL     1     110.736 107.976 103.996  1.00  0.00     0.005 C 
ATOM      5  C   UNL     1     110.744 109.508 103.883  1.00  0.00     0.010 C 
ATOM      6  C   UNL     1     112.154 109.881 104.400  1.00  0.00    -0.006 C 
ATOM      7  C   UNL     1     112.969 108.689 103.948  1.00  0.00     0.013 C 
ATOM      8  C   UNL     1     112.220 109.740 105.942  1.00  0.00     0.126 C 
ATOM      9  C   UNL     1     112.671 111.225 103.875  1.00  0.00     0.014 C 
ATOM     10  C   UNL     1     110.875 107.755 106.969  1.00  0.00     0.014 C 
ENDROOT
BRANCH   8  11
ATOM     11  O   UNL     1     111.190 110.464 106.566  1.00  0.00    -0.392 OA
ATOM     12  H   UNL     1     111.316 111.413 106.303  1.00  0.00     0.211 HD
ENDBRANCH   8  11
TORSDOF 1
ENDMDL
