MODEL 1
REMARK VINA RESULT:    -5.258      0.000      0.000
REMARK INTER + INTRA:          -5.565
REMARK INTER:                  -5.565
REMARK INTRA:                   0.000
REMARK UNBOUND:                 0.000
REMARK SMILES O=c1ccc2cc(O)c(O)cc2o1
REMARK SMILES IDX 4 1 3 2 2 3 1 4 13 5 12 6 11 7 9 8 7 9 6 10 5 11 8 12 10 14
REMARK H PARENT 8 13 10 15
REMARK Flexibility Score: inf
ROOT
ATOM      1  C   UNL     1      36.182 -29.955  -5.173  1.00  0.00     0.019 A 
ATOM      2  C   UNL     1      35.328 -29.031  -5.775  1.00  0.00     0.094 A 
ATOM      3  C   UNL     1      35.563 -28.654  -7.101  1.00  0.00     0.336 A 
ATOM      4  O   UNL     1      34.804 -27.822  -7.662  1.00  0.00    -0.246 OA
ATOM      5  O   UNL     1      36.588 -29.170  -7.777  1.00  0.00    -0.423 OA
ATOM      6  C   UNL     1      37.425 -30.054  -7.240  1.00  0.00     0.142 A 
ATOM      7  C   UNL     1      38.485 -30.562  -7.998  1.00  0.00     0.098 A 
ATOM      8  C   UNL     1      39.372 -31.494  -7.439  1.00  0.00     0.161 A 
ATOM      9  C   UNL     1      39.196 -31.919  -6.109  1.00  0.00     0.158 A 
ATOM     10  C   UNL     1      38.137 -31.412  -5.348  1.00  0.00     0.062 A 
ATOM     11  C   UNL     1      37.250 -30.481  -5.906  1.00  0.00     0.022 A 
ENDROOT
BRANCH   9  12
ATOM     12  O   UNL     1      40.064 -32.844  -5.528  1.00  0.00    -0.504 OA
ATOM     13  H   UNL     1      41.044 -32.893  -5.779  1.00  0.00     0.293 HD
ENDBRANCH   9  12
BRANCH   8  14
ATOM     14  O   UNL     1      40.426 -31.998  -8.198  1.00  0.00    -0.504 OA
ATOM     15  H   UNL     1      40.276 -32.694  -8.919  1.00  0.00     0.293 HD
ENDBRANCH   8  14
TORSDOF 2
ENDMDL
MODEL 2
REMARK VINA RESULT:    -5.000      1.662      2.278
REMARK INTER + INTRA:          -5.293
REMARK INTER:                  -5.293
REMARK INTRA:                   0.000
REMARK UNBOUND:                 0.000
REMARK SMILES O=c1ccc2cc(O)c(O)cc2o1
REMARK SMILES IDX 4 1 3 2 2 3 1 4 13 5 12 6 11 7 9 8 7 9 6 10 5 11 8 12 10 14
REMARK H PARENT 8 13 10 15
REMARK Flexibility Score: inf
ROOT
ATOM      1  C   UNL     1      34.423 -28.581  -6.556  1.00  0.00     0.019 A 
ATOM      2  C   UNL     1      33.990 -28.154  -7.811  1.00  0.00     0.094 A 
ATOM      3  C   UNL     1      34.804 -28.387  -8.925  1.00  0.00     0.336 A 
ATOM      4  O   UNL     1      34.431 -28.008 -10.065  1.00  0.00    -0.246 OA
ATOM      5  O   UNL     1      35.974 -29.007  -8.786  1.00  0.00    -0.423 OA
ATOM      6  C   UNL     1      36.423 -29.431  -7.607  1.00  0.00     0.142 A 
ATOM      7  C   UNL     1      37.660 -30.077  -7.523  1.00  0.00     0.098 A 
ATOM      8  C   UNL     1      38.141 -30.527  -6.283  1.00  0.00     0.161 A 
ATOM      9  C   UNL     1      37.375 -30.326  -5.120  1.00  0.00     0.158 A 
ATOM     10  C   UNL     1      36.136 -29.680  -5.202  1.00  0.00     0.062 A 
ATOM     11  C   UNL     1      35.656 -29.231  -6.440  1.00  0.00     0.022 A 
ENDROOT
BRANCH   9  12
ATOM     12  O   UNL     1      37.829 -30.762  -3.875  1.00  0.00    -0.504 OA
ATOM     13  H   UNL     1      38.693 -30.424  -3.469  1.00  0.00     0.293 HD
ENDBRANCH   9  12
BRANCH   8  14
ATOM     14  O   UNL     1      39.374 -31.170  -6.203  1.00  0.00    -0.504 OA
ATOM     15  H   UNL     1      39.469 -32.086  -5.781  1.00  0.00     0.293 HD
ENDBRANCH   8  14
TORSDOF 2
ENDMDL
MODEL 3
REMARK VINA RESULT:    -4.658      1.611      4.330
REMARK INTER + INTRA:          -4.931
REMARK INTER:                  -4.931
REMARK INTRA:                   0.000
REMARK UNBOUND:                 0.000
REMARK SMILES O=c1ccc2cc(O)c(O)cc2o1
REMARK SMILES IDX 4 1 3 2 2 3 1 4 13 5 12 6 11 7 9 8 7 9 6 10 5 11 8 12 10 14
REMARK H PARENT 8 13 10 15
REMARK Flexibility Score: inf
ROOT
ATOM      1  C   UNL     1      39.299 -31.986  -6.120  1.00  0.00     0.019 A 
ATOM      2  C   UNL     1      39.986 -32.162  -7.320  1.00  0.00     0.094 A 
ATOM      3  C   UNL     1      39.553 -31.473  -8.458  1.00  0.00     0.336 A 
ATOM      4  O   UNL     1      40.160 -31.618  -9.550  1.00  0.00    -0.246 OA
ATOM      5  O   UNL     1      38.499 -30.662  -8.393  1.00  0.00    -0.423 OA
ATOM      6  C   UNL     1      37.816 -30.466  -7.268  1.00  0.00     0.142 A 
ATOM      7  C   UNL     1      36.716 -29.602  -7.260  1.00  0.00     0.098 A 
ATOM      8  C   UNL     1      35.990 -29.390  -6.078  1.00  0.00     0.161 A 
ATOM      9  C   UNL     1      36.370 -30.051  -4.895  1.00  0.00     0.158 A 
ATOM     10  C   UNL     1      37.470 -30.916  -4.900  1.00  0.00     0.062 A 
ATOM     11  C   UNL     1      38.195 -31.128  -6.081  1.00  0.00     0.022 A 
ENDROOT
BRANCH   9  12
ATOM     12  O   UNL     1      35.666 -29.859  -3.706  1.00  0.00    -0.504 OA
ATOM     13  H   UNL     1      34.819 -30.373  -3.493  1.00  0.00     0.293 HD
ENDBRANCH   9  12
BRANCH   8  14
ATOM     14  O   UNL     1      34.896 -28.528  -6.075  1.00  0.00    -0.504 OA
ATOM     15  H   UNL     1      34.971 -27.575  -5.738  1.00  0.00     0.293 HD
ENDBRANCH   8  14
TORSDOF 2
ENDMDL
MODEL 4
REMARK VINA RESULT:    -4.532      1.025      2.233
REMARK INTER + INTRA:          -4.797
REMARK INTER:                  -4.797
REMARK INTRA:                   0.000
REMARK UNBOUND:                 0.000
REMARK SMILES O=c1ccc2cc(O)c(O)cc2o1
REMARK SMILES IDX 4 1 3 2 2 3 1 4 13 5 12 6 11 7 9 8 7 9 6 10 5 11 8 12 10 14
REMARK H PARENT 8 13 10 15
REMARK Flexibility Score: inf
ROOT
ATOM      1  C   UNL     1      36.635 -28.938  -8.199  1.00  0.00     0.019 A 
ATOM      2  C   UNL     1      35.513 -28.414  -7.558  1.00  0.00     0.094 A 
ATOM      3  C   UNL     1      35.225 -28.823  -6.252  1.00  0.00     0.336 A 
ATOM      4  O   UNL     1      34.217 -28.361  -5.657  1.00  0.00    -0.246 OA
ATOM      5  O   UNL     1      36.011 -29.700  -5.632  1.00  0.00    -0.423 OA
ATOM      6  C   UNL     1      37.091 -30.224  -6.207  1.00  0.00     0.142 A 
ATOM      7  C   UNL     1      37.879 -31.142  -5.506  1.00  0.00     0.098 A 
ATOM      8  C   UNL     1      39.019 -31.698  -6.106  1.00  0.00     0.161 A 
ATOM      9  C   UNL     1      39.370 -31.333  -7.419  1.00  0.00     0.158 A 
ATOM     10  C   UNL     1      38.582 -30.414  -8.123  1.00  0.00     0.062 A 
ATOM     11  C   UNL     1      37.443 -29.857  -7.524  1.00  0.00     0.022 A 
ENDROOT
BRANCH   9  12
ATOM     12  O   UNL     1      40.497 -31.871  -8.039  1.00  0.00    -0.504 OA
ATOM     13  H   UNL     1      40.497 -32.141  -9.016  1.00  0.00     0.293 HD
ENDBRANCH   9  12
BRANCH   8  14
ATOM     14  O   UNL     1      39.802 -32.613  -5.404  1.00  0.00    -0.504 OA
ATOM     15  H   UNL     1      39.988 -33.541  -5.767  1.00  0.00     0.293 HD
ENDBRANCH   8  14
TORSDOF 2
ENDMDL
MODEL 5
REMARK VINA RESULT:    -4.322      1.440      2.727
REMARK INTER + INTRA:          -4.575
REMARK INTER:                  -4.575
REMARK INTRA:                   0.000
REMARK UNBOUND:                 0.000
REMARK SMILES O=c1ccc2cc(O)c(O)cc2o1
REMARK SMILES IDX 4 1 3 2 2 3 1 4 13 5 12 6 11 7 9 8 7 9 6 10 5 11 8 12 10 14
REMARK H PARENT 8 13 10 15
REMARK Flexibility Score: inf
ROOT
ATOM      1  C   UNL     1      36.970 -29.159  -8.272  1.00  0.00     0.019 A 
ATOM      2  C   UNL     1      35.886 -28.307  -8.480  1.00  0.00     0.094 A 
ATOM      3  C   UNL     1      34.964 -28.118  -7.445  1.00  0.00     0.336 A 
ATOM      4  O   UNL     1      33.979 -27.353  -7.613  1.00  0.00    -0.246 OA
ATOM      5  O   UNL     1      35.120 -28.744  -6.281  1.00  0.00    -0.423 OA
ATOM      6  C   UNL     1      36.140 -29.564  -6.041  1.00  0.00     0.142 A 
ATOM      7  C   UNL     1      36.253 -30.194  -4.798  1.00  0.00     0.098 A 
ATOM      8  C   UNL     1      37.325 -31.061  -4.539  1.00  0.00     0.161 A 
ATOM      9  C   UNL     1      38.291 -31.299  -5.534  1.00  0.00     0.158 A 
ATOM     10  C   UNL     1      38.181 -30.669  -6.779  1.00  0.00     0.062 A 
ATOM     11  C   UNL     1      37.110 -29.803  -7.039  1.00  0.00     0.022 A 
ENDROOT
BRANCH   9  12
ATOM     12  O   UNL     1      39.367 -32.156  -5.303  1.00  0.00    -0.504 OA
ATOM     13  H   UNL     1      40.209 -32.127  -5.864  1.00  0.00     0.293 HD
ENDBRANCH   9  12
BRANCH   8  14
ATOM     14  O   UNL     1      37.434 -31.687  -3.298  1.00  0.00    -0.504 OA
ATOM     15  H   UNL     1      38.332 -31.967  -2.922  1.00  0.00     0.293 HD
ENDBRANCH   8  14
TORSDOF 2
ENDMDL
MODEL 6
REMARK VINA RESULT:    -3.832      2.063      3.092
REMARK INTER + INTRA:          -4.056
REMARK INTER:                  -4.056
REMARK INTRA:                   0.000
REMARK UNBOUND:                 0.000
REMARK SMILES O=c1ccc2cc(O)c(O)cc2o1
REMARK SMILES IDX 4 1 3 2 2 3 1 4 13 5 12 6 11 7 9 8 7 9 6 10 5 11 8 12 10 14
REMARK H PARENT 8 13 10 15
REMARK Flexibility Score: inf
ROOT
ATOM      1  C   UNL     1      36.096 -29.460  -5.557  1.00  0.00     0.019 A 
ATOM      2  C   UNL     1      35.822 -29.507  -4.191  1.00  0.00     0.094 A 
ATOM      3  C   UNL     1      36.600 -30.330  -3.371  1.00  0.00     0.336 A 
ATOM      4  O   UNL     1      36.368 -30.385  -2.135  1.00  0.00    -0.246 OA
ATOM      5  O   UNL     1      37.587 -31.057  -3.889  1.00  0.00    -0.423 OA
ATOM      6  C   UNL     1      37.883 -31.041  -5.186  1.00  0.00     0.142 A 
ATOM      7  C   UNL     1      38.931 -31.826  -5.674  1.00  0.00     0.098 A 
ATOM      8  C   UNL     1      39.248 -31.815  -7.041  1.00  0.00     0.161 A 
ATOM      9  C   UNL     1      38.506 -31.010  -7.926  1.00  0.00     0.158 A 
ATOM     10  C   UNL     1      37.456 -30.223  -7.440  1.00  0.00     0.062 A 
ATOM     11  C   UNL     1      37.139 -30.234  -6.074  1.00  0.00     0.022 A 
ENDROOT
BRANCH   9  12
ATOM     12  O   UNL     1      38.799 -30.980  -9.289  1.00  0.00    -0.504 OA
ATOM     13  H   UNL     1      38.427 -30.267  -9.904  1.00  0.00     0.293 HD
ENDBRANCH   9  12
BRANCH   8  14
ATOM     14  O   UNL     1      40.294 -32.599  -7.523  1.00  0.00    -0.504 OA
ATOM     15  H   UNL     1      41.263 -32.344  -7.369  1.00  0.00     0.293 HD
ENDBRANCH   8  14
TORSDOF 2
ENDMDL
MODEL 7
REMARK VINA RESULT:    -3.623     19.701     20.198
REMARK INTER + INTRA:          -3.834
REMARK INTER:                  -3.834
REMARK INTRA:                   0.000
REMARK UNBOUND:                 0.000
REMARK SMILES O=c1ccc2cc(O)c(O)cc2o1
REMARK SMILES IDX 4 1 3 2 2 3 1 4 13 5 12 6 11 7 9 8 7 9 6 10 5 11 8 12 10 14
REMARK H PARENT 8 13 10 15
REMARK Flexibility Score: inf
ROOT
ATOM      1  C   UNL     1      21.926 -44.625  -3.211  1.00  0.00     0.019 A 
ATOM      2  C   UNL     1      21.123 -44.755  -4.343  1.00  0.00     0.094 A 
ATOM      3  C   UNL     1      21.727 -45.003  -5.580  1.00  0.00     0.336 A 
ATOM      4  O   UNL     1      21.019 -45.123  -6.613  1.00  0.00    -0.246 OA
ATOM      5  O   UNL     1      23.050 -45.112  -5.673  1.00  0.00    -0.423 OA
ATOM      6  C   UNL     1      23.853 -44.996  -4.617  1.00  0.00     0.142 A 
ATOM      7  C   UNL     1      25.237 -45.121  -4.775  1.00  0.00     0.098 A 
ATOM      8  C   UNL     1      26.090 -44.999  -3.668  1.00  0.00     0.161 A 
ATOM      9  C   UNL     1      25.550 -44.749  -2.392  1.00  0.00     0.158 A 
ATOM     10  C   UNL     1      24.166 -44.623  -2.231  1.00  0.00     0.062 A 
ATOM     11  C   UNL     1      23.314 -44.745  -3.337  1.00  0.00     0.022 A 
ENDROOT
BRANCH   9  12
ATOM     12  O   UNL     1      26.375 -44.623  -1.275  1.00  0.00    -0.504 OA
ATOM     13  H   UNL     1      27.375 -44.482  -1.357  1.00  0.00     0.293 HD
ENDBRANCH   9  12
BRANCH   8  14
ATOM     14  O   UNL     1      27.468 -45.125  -3.830  1.00  0.00    -0.504 OA
ATOM     15  H   UNL     1      28.031 -45.667  -3.184  1.00  0.00     0.293 HD
ENDBRANCH   8  14
TORSDOF 2
ENDMDL
MODEL 8
REMARK VINA RESULT:    -3.427      2.529      4.810
REMARK INTER + INTRA:          -3.628
REMARK INTER:                  -3.628
REMARK INTRA:                   0.000
REMARK UNBOUND:                 0.000
REMARK SMILES O=c1ccc2cc(O)c(O)cc2o1
REMARK SMILES IDX 4 1 3 2 2 3 1 4 13 5 12 6 11 7 9 8 7 9 6 10 5 11 8 12 10 14
REMARK H PARENT 8 13 10 15
REMARK Flexibility Score: inf
ROOT
ATOM      1  C   UNL     1      37.929 -30.589  -6.186  1.00  0.00     0.019 A 
ATOM      2  C   UNL     1      37.926 -30.927  -4.834  1.00  0.00     0.094 A 
ATOM      3  C   UNL     1      36.879 -30.475  -4.024  1.00  0.00     0.336 A 
ATOM      4  O   UNL     1      36.859 -30.769  -2.801  1.00  0.00    -0.246 OA
ATOM      5  O   UNL     1      35.901 -29.732  -4.539  1.00  0.00    -0.423 OA
ATOM      6  C   UNL     1      35.866 -29.388  -5.824  1.00  0.00     0.142 A 
ATOM      7  C   UNL     1      34.813 -28.606  -6.309  1.00  0.00     0.098 A 
ATOM      8  C   UNL     1      34.769 -28.239  -7.662  1.00  0.00     0.161 A 
ATOM      9  C   UNL     1      35.790 -28.659  -8.536  1.00  0.00     0.158 A 
ATOM     10  C   UNL     1      36.845 -29.441  -8.053  1.00  0.00     0.062 A 
ATOM     11  C   UNL     1      36.889 -29.808  -6.701  1.00  0.00     0.022 A 
ENDROOT
BRANCH   9  12
ATOM     12  O   UNL     1      35.771 -28.307  -9.885  1.00  0.00    -0.504 OA
ATOM     13  H   UNL     1      35.907 -27.352 -10.195  1.00  0.00     0.293 HD
ENDBRANCH   9  12
BRANCH   8  14
ATOM     14  O   UNL     1      33.718 -27.460  -8.141  1.00  0.00    -0.504 OA
ATOM     15  H   UNL     1      32.804 -27.858  -8.328  1.00  0.00     0.293 HD
ENDBRANCH   8  14
TORSDOF 2
ENDMDL
MODEL 9
REMARK VINA RESULT:    -3.404     20.198     20.840
REMARK INTER + INTRA:          -3.603
REMARK INTER:                  -3.603
REMARK INTRA:                   0.000
REMARK UNBOUND:                 0.000
REMARK SMILES O=c1ccc2cc(O)c(O)cc2o1
REMARK SMILES IDX 4 1 3 2 2 3 1 4 13 5 12 6 11 7 9 8 7 9 6 10 5 11 8 12 10 14
REMARK H PARENT 8 13 10 15
REMARK Flexibility Score: inf
ROOT
ATOM      1  C   UNL     1      21.533 -44.976  -3.083  1.00  0.00     0.019 A 
ATOM      2  C   UNL     1      20.881 -44.969  -1.850  1.00  0.00     0.094 A 
ATOM      3  C   UNL     1      21.645 -44.994  -0.679  1.00  0.00     0.336 A 
ATOM      4  O   UNL     1      21.075 -44.988   0.443  1.00  0.00    -0.246 OA
ATOM      5  O   UNL     1      22.974 -45.024  -0.742  1.00  0.00    -0.423 OA
ATOM      6  C   UNL     1      23.635 -45.031  -1.898  1.00  0.00     0.142 A 
ATOM      7  C   UNL     1      25.033 -45.063  -1.902  1.00  0.00     0.098 A 
ATOM      8  C   UNL     1      25.736 -45.071  -3.116  1.00  0.00     0.161 A 
ATOM      9  C   UNL     1      25.032 -45.048  -4.335  1.00  0.00     0.158 A 
ATOM     10  C   UNL     1      23.633 -45.015  -4.333  1.00  0.00     0.062 A 
ATOM     11  C   UNL     1      22.930 -45.007  -3.120  1.00  0.00     0.022 A 
ENDROOT
BRANCH   9  12
ATOM     12  O   UNL     1      25.707 -45.056  -5.556  1.00  0.00    -0.504 OA
ATOM     13  H   UNL     1      25.798 -44.224  -6.126  1.00  0.00     0.293 HD
ENDBRANCH   9  12
BRANCH   8  14
ATOM     14  O   UNL     1      27.130 -45.103  -3.117  1.00  0.00    -0.504 OA
ATOM     15  H   UNL     1      27.645 -45.798  -2.588  1.00  0.00     0.293 HD
ENDBRANCH   8  14
TORSDOF 2
ENDMDL
