MODEL 1
REMARK VINA RESULT:    -4.870      0.000      0.000
REMARK INTER + INTRA:          -6.823
REMARK INTER:                  -6.008
REMARK INTRA:                  -0.814
REMARK UNBOUND:                -0.814
REMARK SMILES C=CC(=C)CCC=C(C)C
REMARK SMILES IDX 5 1 6 2 7 3 9 4 8 5 10 6 3 7 4 8 2 9 1 10
REMARK H PARENT
REMARK Flexibility Score: inf
ROOT
ATOM      1  C   UNL     1       2.900  13.633   5.632  1.00  0.00     0.039 C 
ENDROOT
BRANCH   1   2
ATOM      2  C   UNL     1       1.790  13.105   6.548  1.00  0.00     0.032 C 
BRANCH   2   3
ATOM      3  C   UNL     1       0.508  13.870   6.331  1.00  0.00    -0.028 C 
ATOM      4  C   UNL     1      -1.886  14.192   5.881  1.00  0.00     0.039 C 
ATOM      5  C   UNL     1      -0.680  13.301   6.029  1.00  0.00    -0.080 C 
ATOM      6  C   UNL     1      -0.824  11.811   5.823  1.00  0.00     0.039 C 
ENDBRANCH   2   3
ENDBRANCH   1   2
BRANCH   1   7
ATOM      7  C   UNL     1       2.727  13.111   4.222  1.00  0.00    -0.055 C 
ATOM      8  C   UNL     1       2.975  11.820   3.974  1.00  0.00     0.012 C 
BRANCH   7   9
ATOM      9  C   UNL     1       2.243  13.970   3.111  1.00  0.00    -0.005 C 
ATOM     10  C   UNL     1       0.967  14.057   2.737  1.00  0.00     0.009 C 
ENDBRANCH   7   9
ENDBRANCH   1   7
TORSDOF 4
ENDMDL
MODEL 2
REMARK VINA RESULT:    -4.859      1.167      4.118
REMARK INTER + INTRA:          -6.809
REMARK INTER:                  -6.136
REMARK INTRA:                  -0.673
REMARK UNBOUND:                -0.814
REMARK SMILES C=CC(=C)CCC=C(C)C
REMARK SMILES IDX 5 1 6 2 7 3 9 4 8 5 10 6 3 7 4 8 2 9 1 10
REMARK H PARENT
REMARK Flexibility Score: inf
ROOT
ATOM      1  C   UNL     1       0.754  13.848   6.448  1.00  0.00     0.039 C 
ENDROOT
BRANCH   1   2
ATOM      2  C   UNL     1       2.134  13.183   6.491  1.00  0.00     0.032 C 
BRANCH   2   3
ATOM      3  C   UNL     1       3.086  13.864   5.540  1.00  0.00    -0.028 C 
ATOM      4  C   UNL     1       4.418  14.157   3.496  1.00  0.00     0.039 C 
ATOM      5  C   UNL     1       3.495  13.340   4.363  1.00  0.00    -0.080 C 
ATOM      6  C   UNL     1       3.067  11.965   3.906  1.00  0.00     0.039 C 
ENDBRANCH   2   3
ENDBRANCH   1   2
BRANCH   1   7
ATOM      7  C   UNL     1      -0.130  13.185   5.413  1.00  0.00    -0.055 C 
ATOM      8  C   UNL     1      -0.337  13.803   4.245  1.00  0.00     0.012 C 
BRANCH   7   9
ATOM      9  C   UNL     1      -0.739  11.848   5.631  1.00  0.00    -0.005 C 
ATOM     10  C   UNL     1      -1.447  11.517   6.712  1.00  0.00     0.009 C 
ENDBRANCH   7   9
ENDBRANCH   1   7
TORSDOF 4
ENDMDL
MODEL 3
REMARK VINA RESULT:    -4.771      1.003      3.660
REMARK INTER + INTRA:          -6.701
REMARK INTER:                  -5.828
REMARK INTRA:                  -0.874
REMARK UNBOUND:                -0.814
REMARK SMILES C=CC(=C)CCC=C(C)C
REMARK SMILES IDX 5 1 6 2 7 3 9 4 8 5 10 6 3 7 4 8 2 9 1 10
REMARK H PARENT
REMARK Flexibility Score: inf
ROOT
ATOM      1  C   UNL     1       0.716  13.785   6.477  1.00  0.00     0.039 C 
ENDROOT
BRANCH   1   2
ATOM      2  C   UNL     1       2.087  13.097   6.478  1.00  0.00     0.032 C 
BRANCH   2   3
ATOM      3  C   UNL     1       3.035  13.792   5.534  1.00  0.00    -0.028 C 
ATOM      4  C   UNL     1       4.387  14.102   3.506  1.00  0.00     0.039 C 
ATOM      5  C   UNL     1       3.471  13.270   4.366  1.00  0.00    -0.080 C 
ATOM      6  C   UNL     1       3.081  11.882   3.914  1.00  0.00     0.039 C 
ENDBRANCH   2   3
ENDBRANCH   1   2
BRANCH   1   7
ATOM      7  C   UNL     1      -0.214  13.127   5.480  1.00  0.00    -0.055 C 
ATOM      8  C   UNL     1      -0.679  11.901   5.739  1.00  0.00     0.012 C 
BRANCH   7   9
ATOM      9  C   UNL     1      -0.668  13.817   4.245  1.00  0.00    -0.005 C 
ATOM     10  C   UNL     1       0.137  14.137   3.231  1.00  0.00     0.009 C 
ENDBRANCH   7   9
ENDBRANCH   1   7
TORSDOF 4
ENDMDL
MODEL 4
REMARK VINA RESULT:    -4.702      1.264      2.447
REMARK INTER + INTRA:          -6.616
REMARK INTER:                  -5.812
REMARK INTRA:                  -0.804
REMARK UNBOUND:                -0.814
REMARK SMILES C=CC(=C)CCC=C(C)C
REMARK SMILES IDX 5 1 6 2 7 3 9 4 8 5 10 6 3 7 4 8 2 9 1 10
REMARK H PARENT
REMARK Flexibility Score: inf
ROOT
ATOM      1  C   UNL     1       2.974  12.571   2.769  1.00  0.00     0.039 C 
ENDROOT
BRANCH   1   2
ATOM      2  C   UNL     1       2.683  11.966   4.147  1.00  0.00     0.032 C 
BRANCH   2   3
ATOM      3  C   UNL     1       1.378  12.487   4.694  1.00  0.00    -0.028 C 
ATOM      4  C   UNL     1      -0.107  13.715   6.220  1.00  0.00     0.039 C 
ATOM      5  C   UNL     1       1.262  13.229   5.818  1.00  0.00    -0.080 C 
ATOM      6  C   UNL     1       2.456  13.570   6.679  1.00  0.00     0.039 C 
ENDBRANCH   2   3
ENDBRANCH   1   2
BRANCH   1   7
ATOM      7  C   UNL     1       3.267  14.052   2.883  1.00  0.00    -0.055 C 
ATOM      8  C   UNL     1       4.359  14.446   3.547  1.00  0.00     0.012 C 
BRANCH   7   9
ATOM      9  C   UNL     1       2.410  15.082   2.243  1.00  0.00    -0.005 C 
ATOM     10  C   UNL     1       1.146  14.876   1.873  1.00  0.00     0.009 C 
ENDBRANCH   7   9
ENDBRANCH   1   7
TORSDOF 4
ENDMDL
MODEL 5
REMARK VINA RESULT:    -4.666      1.171      4.335
REMARK INTER + INTRA:          -6.571
REMARK INTER:                  -5.726
REMARK INTRA:                  -0.845
REMARK UNBOUND:                -0.814
REMARK SMILES C=CC(=C)CCC=C(C)C
REMARK SMILES IDX 5 1 6 2 7 3 9 4 8 5 10 6 3 7 4 8 2 9 1 10
REMARK H PARENT
REMARK Flexibility Score: inf
ROOT
ATOM      1  C   UNL     1      -0.014  13.940   3.980  1.00  0.00     0.039 C 
ENDROOT
BRANCH   1   2
ATOM      2  C   UNL     1       1.008  13.478   2.934  1.00  0.00     0.032 C 
BRANCH   2   3
ATOM      3  C   UNL     1       2.305  14.233   3.085  1.00  0.00    -0.028 C 
ATOM      4  C   UNL     1       4.704  14.544   3.514  1.00  0.00     0.039 C 
ATOM      5  C   UNL     1       3.480  13.669   3.444  1.00  0.00    -0.080 C 
ATOM      6  C   UNL     1       3.592  12.202   3.789  1.00  0.00     0.039 C 
ENDBRANCH   2   3
ENDBRANCH   1   2
BRANCH   1   7
ATOM      7  C   UNL     1       0.173  13.189   5.281  1.00  0.00    -0.055 C 
ATOM      8  C   UNL     1      -0.294  11.940   5.381  1.00  0.00     0.012 C 
BRANCH   7   9
ATOM      9  C   UNL     1       0.900  13.774   6.436  1.00  0.00    -0.005 C 
ATOM     10  C   UNL     1       2.108  13.375   6.837  1.00  0.00     0.009 C 
ENDBRANCH   7   9
ENDBRANCH   1   7
TORSDOF 4
ENDMDL
MODEL 6
REMARK VINA RESULT:    -4.617      1.277      2.418
REMARK INTER + INTRA:          -6.511
REMARK INTER:                  -5.806
REMARK INTRA:                  -0.704
REMARK UNBOUND:                -0.814
REMARK SMILES C=CC(=C)CCC=C(C)C
REMARK SMILES IDX 5 1 6 2 7 3 9 4 8 5 10 6 3 7 4 8 2 9 1 10
REMARK H PARENT
REMARK Flexibility Score: inf
ROOT
ATOM      1  C   UNL     1       1.774  13.340   2.830  1.00  0.00     0.039 C 
ENDROOT
BRANCH   1   2
ATOM      2  C   UNL     1       0.865  14.080   3.818  1.00  0.00     0.032 C 
BRANCH   2   3
ATOM      3  C   UNL     1       0.015  13.107   4.595  1.00  0.00    -0.028 C 
ATOM      4  C   UNL     1      -0.758  11.841   6.555  1.00  0.00     0.039 C 
ATOM      5  C   UNL     1       0.199  12.804   5.900  1.00  0.00    -0.080 C 
ATOM      6  C   UNL     1       1.336  13.388   6.706  1.00  0.00     0.039 C 
ENDBRANCH   2   3
ENDBRANCH   1   2
BRANCH   1   7
ATOM      7  C   UNL     1       3.056  12.901   3.504  1.00  0.00    -0.055 C 
ATOM      8  C   UNL     1       3.370  11.602   3.516  1.00  0.00     0.012 C 
BRANCH   7   9
ATOM      9  C   UNL     1       4.003  13.870   4.113  1.00  0.00    -0.005 C 
ATOM     10  C   UNL     1       4.672  14.794   3.422  1.00  0.00     0.009 C 
ENDBRANCH   7   9
ENDBRANCH   1   7
TORSDOF 4
ENDMDL
MODEL 7
REMARK VINA RESULT:    -4.573      0.971      4.248
REMARK INTER + INTRA:          -6.457
REMARK INTER:                  -5.919
REMARK INTRA:                  -0.538
REMARK UNBOUND:                -0.814
REMARK SMILES C=CC(=C)CCC=C(C)C
REMARK SMILES IDX 5 1 6 2 7 3 9 4 8 5 10 6 3 7 4 8 2 9 1 10
REMARK H PARENT
REMARK Flexibility Score: inf
ROOT
ATOM      1  C   UNL     1       1.514  13.325   5.924  1.00  0.00     0.039 C 
ENDROOT
BRANCH   1   2
ATOM      2  C   UNL     1       2.009  12.641   4.644  1.00  0.00     0.032 C 
BRANCH   2   3
ATOM      3  C   UNL     1       2.658  13.640   3.720  1.00  0.00    -0.028 C 
ATOM      4  C   UNL     1       2.775  15.343   1.952  1.00  0.00     0.039 C 
ATOM      5  C   UNL     1       1.999  14.348   2.774  1.00  0.00    -0.080 C 
ATOM      6  C   UNL     1       0.523  14.156   2.514  1.00  0.00     0.039 C 
ENDBRANCH   2   3
ENDBRANCH   1   2
BRANCH   1   7
ATOM      7  C   UNL     1       0.016  13.168   6.072  1.00  0.00    -0.055 C 
ATOM      8  C   UNL     1      -0.740  14.263   6.203  1.00  0.00     0.012 C 
BRANCH   7   9
ATOM      9  C   UNL     1      -0.651  11.842   6.030  1.00  0.00    -0.005 C 
ATOM     10  C   UNL     1      -1.626  11.470   6.860  1.00  0.00     0.009 C 
ENDBRANCH   7   9
ENDBRANCH   1   7
TORSDOF 4
ENDMDL
MODEL 8
REMARK VINA RESULT:    -4.530      2.139      4.996
REMARK INTER + INTRA:          -6.403
REMARK INTER:                  -6.089
REMARK INTRA:                  -0.314
REMARK UNBOUND:                -0.814
REMARK SMILES C=CC(=C)CCC=C(C)C
REMARK SMILES IDX 5 1 6 2 7 3 9 4 8 5 10 6 3 7 4 8 2 9 1 10
REMARK H PARENT
REMARK Flexibility Score: inf
ROOT
ATOM      1  C   UNL     1       1.499  13.492   3.273  1.00  0.00     0.039 C 
ENDROOT
BRANCH   1   2
ATOM      2  C   UNL     1       2.113  14.106   2.010  1.00  0.00     0.032 C 
BRANCH   2   3
ATOM      3  C   UNL     1       3.048  15.235   2.365  1.00  0.00    -0.028 C 
ATOM      4  C   UNL     1       4.273  17.342   2.052  1.00  0.00     0.039 C 
ATOM      5  C   UNL     1       3.353  16.263   1.542  1.00  0.00    -0.080 C 
ATOM      6  C   UNL     1       2.813  16.348   0.133  1.00  0.00     0.039 C 
ENDBRANCH   2   3
ENDBRANCH   1   2
BRANCH   1   7
ATOM      7  C   UNL     1       2.571  12.883   4.151  1.00  0.00    -0.055 C 
ATOM      8  C   UNL     1       3.320  11.889   3.664  1.00  0.00     0.012 C 
BRANCH   7   9
ATOM      9  C   UNL     1       2.853  13.384   5.521  1.00  0.00    -0.005 C 
ATOM     10  C   UNL     1       1.955  13.406   6.507  1.00  0.00     0.009 C 
ENDBRANCH   7   9
ENDBRANCH   1   7
TORSDOF 4
ENDMDL
MODEL 9
REMARK VINA RESULT:    -4.486      0.852      4.082
REMARK INTER + INTRA:          -6.350
REMARK INTER:                  -6.000
REMARK INTRA:                  -0.349
REMARK UNBOUND:                -0.814
REMARK SMILES C=CC(=C)CCC=C(C)C
REMARK SMILES IDX 5 1 6 2 7 3 9 4 8 5 10 6 3 7 4 8 2 9 1 10
REMARK H PARENT
REMARK Flexibility Score: inf
ROOT
ATOM      1  C   UNL     1       0.599  13.726   6.576  1.00  0.00     0.039 C 
ENDROOT
BRANCH   1   2
ATOM      2  C   UNL     1       1.742  13.156   5.727  1.00  0.00     0.032 C 
BRANCH   2   3
ATOM      3  C   UNL     1       1.565  13.525   4.276  1.00  0.00    -0.028 C 
ATOM      4  C   UNL     1       1.939  13.408   1.850  1.00  0.00     0.039 C 
ATOM      5  C   UNL     1       2.254  12.967   3.256  1.00  0.00    -0.080 C 
ATOM      6  C   UNL     1       3.332  11.934   3.488  1.00  0.00     0.039 C 
ENDBRANCH   2   3
ENDBRANCH   1   2
BRANCH   1   7
ATOM      7  C   UNL     1      -0.738  13.197   6.101  1.00  0.00    -0.055 C 
ATOM      8  C   UNL     1      -0.952  11.877   6.110  1.00  0.00     0.012 C 
BRANCH   7   9
ATOM      9  C   UNL     1      -1.838  14.096   5.670  1.00  0.00    -0.005 C 
ATOM     10  C   UNL     1      -2.270  15.140   6.378  1.00  0.00     0.009 C 
ENDBRANCH   7   9
ENDBRANCH   1   7
TORSDOF 4
ENDMDL
