MODEL 1
REMARK VINA RESULT:    -6.659      0.000      0.000
REMARK INTER + INTRA:         -13.416
REMARK INTER:                 -10.941
REMARK INTRA:                  -2.476
REMARK UNBOUND:                -2.476
REMARK SMILES C[C@H]1O[C@H](OC[C@@H]2O[C@@H](Oc3c(-c4ccc(O)c(O)c4)oc4cc(O)cc(O)c4c3=O)[C@H](O)[C@H](O)[C@@H]2O)[C@H](O)[C@@H](O)[C@@H]1O
REMARK SMILES IDX 7 1 36 2 34 3 32 4 9 5 8 6 6 7 5 8 4 9 1 10 2 11 42 12 3 13
REMARK SMILES IDX 40 14 38 15 43 16 41 18 39 20 37 22 35 24 10 26 11 27 12 28
REMARK SMILES IDX 30 29 21 30 29 31 31 32 22 33 27 34 23 35 26 36 24 37 13 38
REMARK SMILES IDX 20 39 14 40 18 41 15 42 16 43 19 44 17 46 28 48 25 50 33 52
REMARK H PARENT 43 17 41 19 39 21 37 23 35 25 19 45 17 47 28 49 25 51 33 53
REMARK Flexibility Score: inf
ROOT
ATOM      1  C   UNL     1       0.420 -40.197 -29.666  1.00  0.00     0.180 C 
ATOM      2  C   UNL     1       1.976 -39.995 -29.431  1.00  0.00     0.177 C 
ATOM      3  C   UNL     1       2.830 -41.024 -30.238  1.00  0.00     0.180 C 
ATOM      4  C   UNL     1       1.996 -41.865 -31.415  1.00  0.00     0.214 C 
ATOM      5  C   UNL     1       0.538 -41.264 -31.844  1.00  0.00     0.339 C 
ATOM      6  O   UNL     1       0.246 -40.123 -31.085  1.00  0.00    -0.332 OA
ENDROOT
BRANCH   1   7
ATOM      7  C   UNL     1      -0.117 -41.486 -28.820  1.00  0.00     0.198 C 
BRANCH   7   8
ATOM      8  O   UNL     1      -1.543 -41.801 -29.119  1.00  0.00    -0.347 OA
BRANCH   8   9
ATOM      9  C   UNL     1      -2.470 -41.372 -28.185  1.00  0.00     0.281 C 
ATOM     10  C   UNL     1      -3.638 -38.034 -29.428  1.00  0.00     0.041 C 
ATOM     11  C   UNL     1      -3.649 -39.552 -29.249  1.00  0.00     0.150 C 
ATOM     12  C   UNL     1      -5.039 -40.244 -29.103  1.00  0.00     0.174 C 
ATOM     13  O   UNL     1      -2.751 -39.962 -28.197  1.00  0.00    -0.344 OA
ATOM     14  C   UNL     1      -4.851 -41.713 -29.128  1.00  0.00     0.179 C 
ATOM     15  C   UNL     1      -3.751 -42.154 -28.187  1.00  0.00     0.202 C 
BRANCH  12  16
ATOM     16  O   UNL     1      -5.984 -39.946 -30.114  1.00  0.00    -0.388 OA
ATOM     17  H   UNL     1      -6.307 -40.802 -30.514  1.00  0.00     0.211 HD
ENDBRANCH  12  16
BRANCH  14  18
ATOM     18  O   UNL     1      -6.064 -42.451 -29.081  1.00  0.00    -0.387 OA
ATOM     19  H   UNL     1      -5.834 -43.398 -29.374  1.00  0.00     0.211 HD
ENDBRANCH  14  18
BRANCH  15  20
ATOM     20  O   UNL     1      -3.402 -43.539 -28.227  1.00  0.00    -0.385 OA
ATOM     21  H   UNL     1      -3.988 -43.944 -27.518  1.00  0.00     0.211 HD
ENDBRANCH  15  20
ENDBRANCH   8   9
ENDBRANCH   7   8
ENDBRANCH   1   7
BRANCH   2  22
ATOM     22  O   UNL     1       2.163 -39.725 -28.029  1.00  0.00    -0.387 OA
ATOM     23  H   UNL     1       3.107 -39.427 -27.825  1.00  0.00     0.211 HD
ENDBRANCH   2  22
BRANCH   3  24
ATOM     24  O   UNL     1       3.416 -41.829 -29.124  1.00  0.00    -0.387 OA
ATOM     25  H   UNL     1       4.287 -41.416 -28.816  1.00  0.00     0.211 HD
ENDBRANCH   3  24
BRANCH   5  26
ATOM     26  O   UNL     1       0.157 -40.966 -33.241  1.00  0.00    -0.454 OA
BRANCH  26  27
ATOM     27  C   UNL     1      -1.025 -41.375 -33.944  1.00  0.00     0.214 A 
ATOM     28  C   UNL     1      -1.188 -42.732 -34.434  1.00  0.00     0.180 A 
ATOM     29  C   UNL     1      -2.152 -40.608 -33.926  1.00  0.00     0.239 A 
ATOM     30  O   UNL     1      -2.439 -43.170 -34.526  1.00  0.00    -0.452 OA
ATOM     31  C   UNL     1      -3.301 -41.221 -33.504  1.00  0.00     0.111 A 
ATOM     32  O   UNL     1      -2.229 -39.496 -34.624  1.00  0.00    -0.285 OA
ATOM     33  C   UNL     1      -3.435 -42.551 -33.900  1.00  0.00     0.146 A 
ATOM     34  C   UNL     1      -4.463 -40.442 -33.218  1.00  0.00     0.134 A 
ATOM     35  C   UNL     1      -4.658 -43.210 -33.727  1.00  0.00     0.094 A 
ATOM     36  C   UNL     1      -5.736 -41.085 -33.502  1.00  0.00     0.093 A 
ATOM     37  C   UNL     1      -5.825 -42.464 -33.839  1.00  0.00     0.123 A 
BRANCH  28  38
ATOM     38  C   UNL     1      -0.206 -43.919 -34.293  1.00  0.00     0.025 A 
ATOM     39  C   UNL     1       1.124 -43.620 -34.638  1.00  0.00     0.062 A 
ATOM     40  C   UNL     1      -0.751 -44.886 -35.161  1.00  0.00     0.016 A 
ATOM     41  C   UNL     1       1.310 -43.266 -36.056  1.00  0.00     0.158 A 
ATOM     42  C   UNL     1      -0.670 -44.521 -36.508  1.00  0.00     0.051 A 
ATOM     43  C   UNL     1       0.303 -43.668 -36.981  1.00  0.00     0.157 A 
BRANCH  41  44
ATOM     44  O   UNL     1       2.399 -42.513 -36.482  1.00  0.00    -0.504 OA
ATOM     45  H   UNL     1       3.104 -42.829 -37.132  1.00  0.00     0.293 HD
ENDBRANCH  41  44
BRANCH  43  46
ATOM     46  O   UNL     1       0.368 -43.407 -38.357  1.00  0.00    -0.504 OA
ATOM     47  H   UNL     1       1.298 -43.258 -38.770  1.00  0.00     0.293 HD
ENDBRANCH  43  46
ENDBRANCH  28  38
BRANCH  34  48
ATOM     48  O   UNL     1      -4.334 -39.191 -32.661  1.00  0.00    -0.507 OA
ATOM     49  H   UNL     1      -3.418 -38.794 -32.616  1.00  0.00     0.293 HD
ENDBRANCH  34  48
BRANCH  37  50
ATOM     50  O   UNL     1      -7.011 -42.987 -34.441  1.00  0.00    -0.508 OA
ATOM     51  H   UNL     1      -7.293 -43.832 -33.869  1.00  0.00     0.293 HD
ENDBRANCH  37  50
ENDBRANCH  26  27
ENDBRANCH   5  26
BRANCH   4  52
ATOM     52  O   UNL     1       1.742 -43.193 -31.067  1.00  0.00    -0.384 OA
ATOM     53  H   UNL     1       1.822 -43.746 -31.908  1.00  0.00     0.211 HD
ENDBRANCH   4  52
TORSDOF 16
ENDMDL
MODEL 2
REMARK VINA RESULT:    -6.586      3.748      7.286
REMARK INTER + INTRA:         -13.297
REMARK INTER:                 -11.577
REMARK INTRA:                  -1.720
REMARK UNBOUND:                -2.476
REMARK SMILES C[C@H]1O[C@H](OC[C@@H]2O[C@@H](Oc3c(-c4ccc(O)c(O)c4)oc4cc(O)cc(O)c4c3=O)[C@H](O)[C@H](O)[C@@H]2O)[C@H](O)[C@@H](O)[C@@H]1O
REMARK SMILES IDX 7 1 36 2 34 3 32 4 9 5 8 6 6 7 5 8 4 9 1 10 2 11 42 12 3 13
REMARK SMILES IDX 40 14 38 15 43 16 41 18 39 20 37 22 35 24 10 26 11 27 12 28
REMARK SMILES IDX 30 29 21 30 29 31 31 32 22 33 27 34 23 35 26 36 24 37 13 38
REMARK SMILES IDX 20 39 14 40 18 41 15 42 16 43 19 44 17 46 28 48 25 50 33 52
REMARK H PARENT 43 17 41 19 39 21 37 23 35 25 19 45 17 47 28 49 25 51 33 53
REMARK Flexibility Score: inf
ROOT
ATOM      1  C   UNL     1      -5.320 -36.502 -31.005  1.00  0.00     0.180 C 
ATOM      2  C   UNL     1      -5.348 -36.591 -29.422  1.00  0.00     0.177 C 
ATOM      3  C   UNL     1      -5.273 -38.066 -28.915  1.00  0.00     0.180 C 
ATOM      4  C   UNL     1      -4.835 -39.189 -30.071  1.00  0.00     0.214 C 
ATOM      5  C   UNL     1      -4.177 -38.598 -31.446  1.00  0.00     0.339 C 
ATOM      6  O   UNL     1      -4.132 -37.198 -31.395  1.00  0.00    -0.332 OA
ENDROOT
BRANCH   1   7
ATOM      7  C   UNL     1      -6.775 -36.913 -31.620  1.00  0.00     0.198 C 
BRANCH   7   8
ATOM      8  O   UNL     1      -7.761 -35.798 -31.527  1.00  0.00    -0.347 OA
BRANCH   8   9
ATOM      9  C   UNL     1      -9.095 -36.159 -31.600  1.00  0.00     0.281 C 
ATOM     10  C   UNL     1      -9.795 -37.980 -28.399  1.00  0.00     0.041 C 
ATOM     11  C   UNL     1      -9.710 -36.786 -29.350  1.00  0.00     0.150 C 
ATOM     12  C   UNL     1     -10.847 -35.723 -29.265  1.00  0.00     0.174 C 
ATOM     13  O   UNL     1      -9.500 -37.214 -30.712  1.00  0.00    -0.344 OA
ATOM     14  C   UNL     1     -10.492 -34.568 -30.121  1.00  0.00     0.179 C 
ATOM     15  C   UNL     1     -10.051 -35.006 -31.500  1.00  0.00     0.202 C 
BRANCH  12  16
ATOM     16  O   UNL     1     -11.105 -35.200 -27.975  1.00  0.00    -0.388 OA
ATOM     17  H   UNL     1     -10.842 -34.236 -27.961  1.00  0.00     0.211 HD
ENDBRANCH  12  16
BRANCH  14  18
ATOM     18  O   UNL     1     -11.424 -33.496 -30.060  1.00  0.00    -0.387 OA
ATOM     19  H   UNL     1     -11.159 -32.934 -29.254  1.00  0.00     0.211 HD
ENDBRANCH  14  18
BRANCH  15  20
ATOM     20  O   UNL     1      -9.565 -33.977 -32.365  1.00  0.00    -0.385 OA
ATOM     21  H   UNL     1     -10.398 -33.475 -32.614  1.00  0.00     0.211 HD
ENDBRANCH  15  20
ENDBRANCH   8   9
ENDBRANCH   7   8
ENDBRANCH   1   7
BRANCH   2  22
ATOM     22  O   UNL     1      -6.321 -35.635 -28.959  1.00  0.00    -0.387 OA
ATOM     23  H   UNL     1      -6.939 -36.031 -28.265  1.00  0.00     0.211 HD
ENDBRANCH   2  22
BRANCH   3  24
ATOM     24  O   UNL     1      -6.629 -38.219 -28.309  1.00  0.00    -0.387 OA
ATOM     25  H   UNL     1      -7.290 -37.609 -28.774  1.00  0.00     0.211 HD
ENDBRANCH   3  24
BRANCH   5  26
ATOM     26  O   UNL     1      -2.881 -39.055 -31.992  1.00  0.00    -0.454 OA
BRANCH  26  27
ATOM     27  C   UNL     1      -2.219 -40.309 -31.774  1.00  0.00     0.214 A 
ATOM     28  C   UNL     1      -2.055 -41.279 -32.842  1.00  0.00     0.180 A 
ATOM     29  C   UNL     1      -1.467 -40.519 -30.656  1.00  0.00     0.239 A 
ATOM     30  O   UNL     1      -0.997 -42.077 -32.744  1.00  0.00    -0.452 OA
ATOM     31  C   UNL     1      -0.172 -40.917 -30.857  1.00  0.00     0.111 A 
ATOM     32  O   UNL     1      -2.031 -40.714 -29.484  1.00  0.00    -0.285 OA
ATOM     33  C   UNL     1       0.013 -41.787 -31.930  1.00  0.00     0.146 A 
ATOM     34  C   UNL     1       0.751 -40.920 -29.767  1.00  0.00     0.134 A 
ATOM     35  C   UNL     1       1.242 -42.438 -32.094  1.00  0.00     0.094 A 
ATOM     36  C   UNL     1       1.767 -41.959 -29.809  1.00  0.00     0.093 A 
ATOM     37  C   UNL     1       1.960 -42.780 -30.955  1.00  0.00     0.123 A 
BRANCH  28  38
ATOM     38  C   UNL     1      -2.510 -41.158 -34.316  1.00  0.00     0.025 A 
ATOM     39  C   UNL     1      -3.740 -40.501 -34.494  1.00  0.00     0.062 A 
ATOM     40  C   UNL     1      -2.586 -42.502 -34.734  1.00  0.00     0.016 A 
ATOM     41  C   UNL     1      -4.889 -41.207 -33.900  1.00  0.00     0.158 A 
ATOM     42  C   UNL     1      -3.613 -43.213 -34.107  1.00  0.00     0.051 A 
ATOM     43  C   UNL     1      -4.745 -42.597 -33.623  1.00  0.00     0.157 A 
BRANCH  41  44
ATOM     44  O   UNL     1      -6.060 -40.537 -33.563  1.00  0.00    -0.504 OA
ATOM     45  H   UNL     1      -6.108 -39.593 -33.210  1.00  0.00     0.293 HD
ENDBRANCH  41  44
BRANCH  43  46
ATOM     46  O   UNL     1      -5.767 -43.385 -33.074  1.00  0.00    -0.504 OA
ATOM     47  H   UNL     1      -6.242 -44.052 -33.697  1.00  0.00     0.293 HD
ENDBRANCH  43  46
ENDBRANCH  28  38
BRANCH  34  48
ATOM     48  O   UNL     1       0.674 -39.950 -28.796  1.00  0.00    -0.507 OA
ATOM     49  H   UNL     1       1.291 -39.166 -28.872  1.00  0.00     0.293 HD
ENDBRANCH  34  48
BRANCH  37  50
ATOM     50  O   UNL     1       2.706 -43.995 -30.859  1.00  0.00    -0.508 OA
ATOM     51  H   UNL     1       2.071 -44.768 -31.201  1.00  0.00     0.293 HD
ENDBRANCH  37  50
ENDBRANCH  26  27
ENDBRANCH   5  26
BRANCH   4  52
ATOM     52  O   UNL     1      -5.902 -39.979 -30.502  1.00  0.00    -0.384 OA
ATOM     53  H   UNL     1      -5.511 -40.821 -30.900  1.00  0.00     0.211 HD
ENDBRANCH   4  52
TORSDOF 16
ENDMDL
MODEL 3
REMARK VINA RESULT:    -6.435      4.739      8.547
REMARK INTER + INTRA:         -13.050
REMARK INTER:                 -11.023
REMARK INTRA:                  -2.026
REMARK UNBOUND:                -2.476
REMARK SMILES C[C@H]1O[C@H](OC[C@@H]2O[C@@H](Oc3c(-c4ccc(O)c(O)c4)oc4cc(O)cc(O)c4c3=O)[C@H](O)[C@H](O)[C@@H]2O)[C@H](O)[C@@H](O)[C@@H]1O
REMARK SMILES IDX 7 1 36 2 34 3 32 4 9 5 8 6 6 7 5 8 4 9 1 10 2 11 42 12 3 13
REMARK SMILES IDX 40 14 38 15 43 16 41 18 39 20 37 22 35 24 10 26 11 27 12 28
REMARK SMILES IDX 30 29 21 30 29 31 31 32 22 33 27 34 23 35 26 36 24 37 13 38
REMARK SMILES IDX 20 39 14 40 18 41 15 42 16 43 19 44 17 46 28 48 25 50 33 52
REMARK H PARENT 43 17 41 19 39 21 37 23 35 25 19 45 17 47 28 49 25 51 33 53
REMARK Flexibility Score: inf
ROOT
ATOM      1  C   UNL     1      -7.647 -36.884 -29.130  1.00  0.00     0.180 C 
ATOM      2  C   UNL     1      -9.173 -36.897 -29.559  1.00  0.00     0.177 C 
ATOM      3  C   UNL     1      -9.354 -36.681 -31.095  1.00  0.00     0.180 C 
ATOM      4  C   UNL     1      -7.957 -36.831 -31.998  1.00  0.00     0.214 C 
ATOM      5  C   UNL     1      -6.686 -37.546 -31.259  1.00  0.00     0.339 C 
ATOM      6  O   UNL     1      -7.024 -37.885 -29.942  1.00  0.00    -0.332 OA
ENDROOT
BRANCH   1   7
ATOM      7  C   UNL     1      -7.081 -35.353 -29.101  1.00  0.00     0.198 C 
BRANCH   7   8
ATOM      8  O   UNL     1      -8.029 -34.389 -29.730  1.00  0.00    -0.347 OA
BRANCH   8   9
ATOM      9  C   UNL     1      -7.597 -33.077 -29.813  1.00  0.00     0.281 C 
ATOM     10  C   UNL     1      -4.531 -33.190 -31.968  1.00  0.00     0.041 C 
ATOM     11  C   UNL     1      -6.018 -33.042 -31.640  1.00  0.00     0.150 C 
ATOM     12  C   UNL     1      -6.820 -31.969 -32.436  1.00  0.00     0.174 C 
ATOM     13  O   UNL     1      -6.230 -32.901 -30.219  1.00  0.00    -0.344 OA
ATOM     14  C   UNL     1      -8.260 -32.105 -32.112  1.00  0.00     0.179 C 
ATOM     15  C   UNL     1      -8.494 -32.184 -30.620  1.00  0.00     0.202 C 
BRANCH  12  16
ATOM     16  O   UNL     1      -6.720 -32.045 -33.846  1.00  0.00    -0.388 OA
ATOM     17  H   UNL     1      -6.585 -33.000 -34.108  1.00  0.00     0.211 HD
ENDBRANCH  12  16
BRANCH  14  18
ATOM     18  O   UNL     1      -9.102 -31.224 -32.844  1.00  0.00    -0.387 OA
ATOM     19  H   UNL     1      -9.976 -31.169 -32.325  1.00  0.00     0.211 HD
ENDBRANCH  14  18
BRANCH  15  20
ATOM     20  O   UNL     1      -9.836 -32.444 -30.203  1.00  0.00    -0.385 OA
ATOM     21  H   UNL     1     -10.287 -32.735 -31.052  1.00  0.00     0.211 HD
ENDBRANCH  15  20
ENDBRANCH   8   9
ENDBRANCH   7   8
ENDBRANCH   1   7
BRANCH   2  22
ATOM     22  O   UNL     1      -9.904 -36.163 -28.557  1.00  0.00    -0.387 OA
ATOM     23  H   UNL     1      -9.504 -35.249 -28.392  1.00  0.00     0.211 HD
ENDBRANCH   2  22
BRANCH   3  24
ATOM     24  O   UNL     1     -10.023 -35.346 -31.110  1.00  0.00    -0.387 OA
ATOM     25  H   UNL     1     -10.286 -35.077 -30.170  1.00  0.00     0.211 HD
ENDBRANCH   3  24
BRANCH   5  26
ATOM     26  O   UNL     1      -5.953 -38.697 -31.828  1.00  0.00    -0.454 OA
BRANCH  26  27
ATOM     27  C   UNL     1      -4.534 -38.871 -31.951  1.00  0.00     0.214 A 
ATOM     28  C   UNL     1      -3.952 -39.626 -33.046  1.00  0.00     0.180 A 
ATOM     29  C   UNL     1      -3.669 -38.103 -31.229  1.00  0.00     0.239 A 
ATOM     30  O   UNL     1      -2.725 -39.267 -33.411  1.00  0.00    -0.452 OA
ATOM     31  C   UNL     1      -2.721 -37.416 -31.941  1.00  0.00     0.111 A 
ATOM     32  O   UNL     1      -3.492 -38.305 -29.941  1.00  0.00    -0.285 OA
ATOM     33  C   UNL     1      -2.209 -38.098 -33.043  1.00  0.00     0.146 A 
ATOM     34  C   UNL     1      -1.941 -36.406 -31.301  1.00  0.00     0.134 A 
ATOM     35  C   UNL     1      -1.082 -37.600 -33.709  1.00  0.00     0.094 A 
ATOM     36  C   UNL     1      -0.579 -36.262 -31.790  1.00  0.00     0.093 A 
ATOM     37  C   UNL     1      -0.123 -36.930 -32.960  1.00  0.00     0.123 A 
BRANCH  28  38
ATOM     38  C   UNL     1      -4.684 -40.324 -34.216  1.00  0.00     0.025 A 
ATOM     39  C   UNL     1      -5.635 -41.281 -33.820  1.00  0.00     0.062 A 
ATOM     40  C   UNL     1      -3.631 -40.923 -34.936  1.00  0.00     0.016 A 
ATOM     41  C   UNL     1      -5.062 -42.439 -33.112  1.00  0.00     0.158 A 
ATOM     42  C   UNL     1      -3.012 -41.964 -34.238  1.00  0.00     0.051 A 
ATOM     43  C   UNL     1      -3.672 -42.700 -33.280  1.00  0.00     0.157 A 
BRANCH  41  44
ATOM     44  O   UNL     1      -5.831 -43.226 -32.261  1.00  0.00    -0.504 OA
ATOM     45  H   UNL     1      -6.151 -44.160 -32.466  1.00  0.00     0.293 HD
ENDBRANCH  41  44
BRANCH  43  46
ATOM     46  O   UNL     1      -3.009 -43.778 -32.674  1.00  0.00    -0.504 OA
ATOM     47  H   UNL     1      -3.525 -44.662 -32.581  1.00  0.00     0.293 HD
ENDBRANCH  43  46
ENDBRANCH  28  38
BRANCH  34  48
ATOM     48  O   UNL     1      -2.503 -35.613 -30.329  1.00  0.00    -0.507 OA
ATOM     49  H   UNL     1      -3.284 -35.045 -30.586  1.00  0.00     0.293 HD
ENDBRANCH  34  48
BRANCH  37  50
ATOM     50  O   UNL     1       1.275 -37.052 -33.226  1.00  0.00    -0.508 OA
ATOM     51  H   UNL     1       1.605 -36.103 -33.557  1.00  0.00     0.293 HD
ENDBRANCH  37  50
ENDBRANCH  26  27
ENDBRANCH   5  26
BRANCH   4  52
ATOM     52  O   UNL     1      -7.459 -35.607 -32.450  1.00  0.00    -0.384 OA
ATOM     53  H   UNL     1      -8.252 -35.009 -32.632  1.00  0.00     0.211 HD
ENDBRANCH   4  52
TORSDOF 16
ENDMDL
MODEL 4
REMARK VINA RESULT:    -6.356      2.456      8.039
REMARK INTER + INTRA:         -12.920
REMARK INTER:                 -10.991
REMARK INTRA:                  -1.929
REMARK UNBOUND:                -2.476
REMARK SMILES C[C@H]1O[C@H](OC[C@@H]2O[C@@H](Oc3c(-c4ccc(O)c(O)c4)oc4cc(O)cc(O)c4c3=O)[C@H](O)[C@H](O)[C@@H]2O)[C@H](O)[C@@H](O)[C@@H]1O
REMARK SMILES IDX 7 1 36 2 34 3 32 4 9 5 8 6 6 7 5 8 4 9 1 10 2 11 42 12 3 13
REMARK SMILES IDX 40 14 38 15 43 16 41 18 39 20 37 22 35 24 10 26 11 27 12 28
REMARK SMILES IDX 30 29 21 30 29 31 31 32 22 33 27 34 23 35 26 36 24 37 13 38
REMARK SMILES IDX 20 39 14 40 18 41 15 42 16 43 19 44 17 46 28 48 25 50 33 52
REMARK H PARENT 43 17 41 19 39 21 37 23 35 25 19 45 17 47 28 49 25 51 33 53
REMARK Flexibility Score: inf
ROOT
ATOM      1  C   UNL     1      -0.073 -41.000 -34.672  1.00  0.00     0.180 C 
ATOM      2  C   UNL     1       0.580 -39.569 -34.876  1.00  0.00     0.177 C 
ATOM      3  C   UNL     1      -0.399 -38.570 -35.570  1.00  0.00     0.180 C 
ATOM      4  C   UNL     1      -1.991 -39.071 -35.634  1.00  0.00     0.214 C 
ATOM      5  C   UNL     1      -2.403 -40.315 -34.657  1.00  0.00     0.339 C 
ATOM      6  O   UNL     1      -1.280 -40.757 -33.943  1.00  0.00    -0.332 OA
ENDROOT
BRANCH   1   7
ATOM      7  C   UNL     1      -0.095 -41.818 -36.085  1.00  0.00     0.198 C 
BRANCH   7   8
ATOM      8  O   UNL     1       0.799 -41.202 -37.107  1.00  0.00    -0.347 OA
BRANCH   8   9
ATOM      9  C   UNL     1       1.965 -41.892 -37.390  1.00  0.00     0.281 C 
ATOM     10  C   UNL     1       0.884 -44.846 -39.429  1.00  0.00     0.041 C 
ATOM     11  C   UNL     1       1.382 -43.426 -39.163  1.00  0.00     0.150 C 
ATOM     12  C   UNL     1       2.453 -42.850 -40.139  1.00  0.00     0.174 C 
ATOM     13  O   UNL     1       1.791 -43.262 -37.788  1.00  0.00    -0.344 OA
ATOM     14  C   UNL     1       2.667 -41.417 -39.830  1.00  0.00     0.179 C 
ATOM     15  C   UNL     1       2.879 -41.188 -38.350  1.00  0.00     0.202 C 
BRANCH  12  16
ATOM     16  O   UNL     1       2.131 -42.918 -41.515  1.00  0.00    -0.388 OA
ATOM     17  H   UNL     1       2.722 -42.286 -42.016  1.00  0.00     0.211 HD
ENDBRANCH  12  16
BRANCH  14  18
ATOM     18  O   UNL     1       3.569 -40.765 -40.713  1.00  0.00    -0.387 OA
ATOM     19  H   UNL     1       4.505 -41.017 -40.401  1.00  0.00     0.211 HD
ENDBRANCH  14  18
BRANCH  15  20
ATOM     20  O   UNL     1       2.968 -39.826 -37.928  1.00  0.00    -0.385 OA
ATOM     21  H   UNL     1       3.667 -39.854 -37.207  1.00  0.00     0.211 HD
ENDBRANCH  15  20
ENDBRANCH   8   9
ENDBRANCH   7   8
ENDBRANCH   1   7
BRANCH   2  22
ATOM     22  O   UNL     1       1.941 -39.779 -35.298  1.00  0.00    -0.387 OA
ATOM     23  H   UNL     1       2.475 -38.921 -35.289  1.00  0.00     0.211 HD
ENDBRANCH   2  22
BRANCH   3  24
ATOM     24  O   UNL     1       0.295 -38.367 -36.876  1.00  0.00    -0.387 OA
ATOM     25  H   UNL     1       1.273 -38.611 -36.794  1.00  0.00     0.211 HD
ENDBRANCH   3  24
BRANCH   5  26
ATOM     26  O   UNL     1      -3.532 -40.265 -33.704  1.00  0.00    -0.454 OA
BRANCH  26  27
ATOM     27  C   UNL     1      -3.987 -41.295 -32.815  1.00  0.00     0.214 A 
ATOM     28  C   UNL     1      -3.899 -41.148 -31.373  1.00  0.00     0.180 A 
ATOM     29  C   UNL     1      -4.780 -42.309 -33.264  1.00  0.00     0.239 A 
ATOM     30  O   UNL     1      -4.811 -41.806 -30.665  1.00  0.00    -0.452 OA
ATOM     31  C   UNL     1      -5.969 -42.492 -32.609  1.00  0.00     0.111 A 
ATOM     32  O   UNL     1      -4.287 -43.284 -33.996  1.00  0.00    -0.285 OA
ATOM     33  C   UNL     1      -5.918 -42.277 -31.233  1.00  0.00     0.146 A 
ATOM     34  C   UNL     1      -6.962 -43.357 -33.160  1.00  0.00     0.134 A 
ATOM     35  C   UNL     1      -7.002 -42.651 -30.429  1.00  0.00     0.094 A 
ATOM     36  C   UNL     1      -7.780 -44.069 -32.192  1.00  0.00     0.093 A 
ATOM     37  C   UNL     1      -7.740 -43.767 -30.803  1.00  0.00     0.123 A 
BRANCH  28  38
ATOM     38  C   UNL     1      -3.356 -39.942 -30.570  1.00  0.00     0.025 A 
ATOM     39  C   UNL     1      -2.063 -39.532 -30.939  1.00  0.00     0.062 A 
ATOM     40  C   UNL     1      -3.379 -40.411 -29.241  1.00  0.00     0.016 A 
ATOM     41  C   UNL     1      -1.018 -40.538 -30.683  1.00  0.00     0.158 A 
ATOM     42  C   UNL     1      -2.458 -41.435 -29.005  1.00  0.00     0.051 A 
ATOM     43  C   UNL     1      -1.302 -41.568 -29.741  1.00  0.00     0.157 A 
BRANCH  41  44
ATOM     44  O   UNL     1       0.190 -40.526 -31.373  1.00  0.00    -0.504 OA
ATOM     45  H   UNL     1       0.851 -41.287 -31.399  1.00  0.00     0.293 HD
ENDBRANCH  41  44
BRANCH  43  46
ATOM     46  O   UNL     1      -0.388 -42.575 -29.397  1.00  0.00    -0.504 OA
ATOM     47  H   UNL     1       0.186 -42.430 -28.557  1.00  0.00     0.293 HD
ENDBRANCH  43  46
ENDBRANCH  28  38
BRANCH  34  48
ATOM     48  O   UNL     1      -7.128 -43.436 -34.523  1.00  0.00    -0.507 OA
ATOM     49  H   UNL     1      -6.744 -42.701 -35.082  1.00  0.00     0.293 HD
ENDBRANCH  34  48
BRANCH  37  50
ATOM     50  O   UNL     1      -8.275 -44.683 -29.846  1.00  0.00    -0.508 OA
ATOM     51  H   UNL     1      -7.886 -45.637 -30.089  1.00  0.00     0.293 HD
ENDBRANCH  37  50
ENDBRANCH  26  27
ENDBRANCH   5  26
BRANCH   4  52
ATOM     52  O   UNL     1      -2.389 -39.478 -36.910  1.00  0.00    -0.384 OA
ATOM     53  H   UNL     1      -1.823 -40.276 -37.161  1.00  0.00     0.211 HD
ENDBRANCH   4  52
TORSDOF 16
ENDMDL
MODEL 5
REMARK VINA RESULT:    -6.273      2.092      6.982
REMARK INTER + INTRA:         -12.783
REMARK INTER:                 -10.519
REMARK INTRA:                  -2.264
REMARK UNBOUND:                -2.476
REMARK SMILES C[C@H]1O[C@H](OC[C@@H]2O[C@@H](Oc3c(-c4ccc(O)c(O)c4)oc4cc(O)cc(O)c4c3=O)[C@H](O)[C@H](O)[C@@H]2O)[C@H](O)[C@@H](O)[C@@H]1O
REMARK SMILES IDX 7 1 36 2 34 3 32 4 9 5 8 6 6 7 5 8 4 9 1 10 2 11 42 12 3 13
REMARK SMILES IDX 40 14 38 15 43 16 41 18 39 20 37 22 35 24 10 26 11 27 12 28
REMARK SMILES IDX 30 29 21 30 29 31 31 32 22 33 27 34 23 35 26 36 24 37 13 38
REMARK SMILES IDX 20 39 14 40 18 41 15 42 16 43 19 44 17 46 28 48 25 50 33 52
REMARK H PARENT 43 17 41 19 39 21 37 23 35 25 19 45 17 47 28 49 25 51 33 53
REMARK Flexibility Score: inf
ROOT
ATOM      1  C   UNL     1      -1.326 -38.363 -34.338  1.00  0.00     0.180 C 
ATOM      2  C   UNL     1      -1.935 -38.316 -35.802  1.00  0.00     0.177 C 
ATOM      3  C   UNL     1      -2.648 -39.651 -36.185  1.00  0.00     0.180 C 
ATOM      4  C   UNL     1      -2.933 -40.691 -34.909  1.00  0.00     0.214 C 
ATOM      5  C   UNL     1      -2.798 -40.056 -33.409  1.00  0.00     0.339 C 
ATOM      6  O   UNL     1      -2.426 -38.707 -33.489  1.00  0.00    -0.332 OA
ENDROOT
BRANCH   1   7
ATOM      7  C   UNL     1       0.051 -39.241 -34.326  1.00  0.00     0.198 C 
BRANCH   7   8
ATOM      8  O   UNL     1       0.171 -40.117 -35.527  1.00  0.00    -0.347 OA
BRANCH   8   9
ATOM      9  C   UNL     1       1.291 -40.929 -35.578  1.00  0.00     0.281 C 
ATOM     10  C   UNL     1       1.591 -42.398 -32.142  1.00  0.00     0.041 C 
ATOM     11  C   UNL     1       1.159 -42.318 -33.606  1.00  0.00     0.150 C 
ATOM     12  C   UNL     1       1.167 -43.644 -34.426  1.00  0.00     0.174 C 
ATOM     13  O   UNL     1       1.864 -41.271 -34.305  1.00  0.00    -0.344 OA
ATOM     14  C   UNL     1       0.547 -43.396 -35.749  1.00  0.00     0.179 C 
ATOM     15  C   UNL     1       1.117 -42.163 -36.414  1.00  0.00     0.202 C 
BRANCH  12  16
ATOM     16  O   UNL     1       0.461 -44.728 -33.852  1.00  0.00    -0.388 OA
ATOM     17  H   UNL     1       1.090 -45.494 -33.730  1.00  0.00     0.211 HD
ENDBRANCH  12  16
BRANCH  14  18
ATOM     18  O   UNL     1       0.429 -44.559 -36.557  1.00  0.00    -0.387 OA
ATOM     19  H   UNL     1       1.336 -45.020 -36.529  1.00  0.00     0.211 HD
ENDBRANCH  14  18
BRANCH  15  20
ATOM     20  O   UNL     1       0.500 -41.762 -37.638  1.00  0.00    -0.385 OA
ATOM     21  H   UNL     1       1.213 -41.216 -38.087  1.00  0.00     0.211 HD
ENDBRANCH  15  20
ENDBRANCH   8   9
ENDBRANCH   7   8
ENDBRANCH   1   7
BRANCH   2  22
ATOM     22  O   UNL     1      -0.970 -37.655 -36.643  1.00  0.00    -0.387 OA
ATOM     23  H   UNL     1      -0.267 -37.170 -36.102  1.00  0.00     0.211 HD
ENDBRANCH   2  22
BRANCH   3  24
ATOM     24  O   UNL     1      -1.745 -40.146 -37.266  1.00  0.00    -0.387 OA
ATOM     25  H   UNL     1      -1.430 -39.374 -37.839  1.00  0.00     0.211 HD
ENDBRANCH   3  24
BRANCH   5  26
ATOM     26  O   UNL     1      -3.859 -40.153 -32.384  1.00  0.00    -0.454 OA
BRANCH  26  27
ATOM     27  C   UNL     1      -4.368 -41.332 -31.744  1.00  0.00     0.214 A 
ATOM     28  C   UNL     1      -4.421 -41.451 -30.298  1.00  0.00     0.180 A 
ATOM     29  C   UNL     1      -5.087 -42.255 -32.445  1.00  0.00     0.239 A 
ATOM     30  O   UNL     1      -5.378 -42.236 -29.814  1.00  0.00    -0.452 OA
ATOM     31  C   UNL     1      -6.327 -42.565 -31.954  1.00  0.00     0.111 A 
ATOM     32  O   UNL     1      -4.501 -43.075 -33.290  1.00  0.00    -0.285 OA
ATOM     33  C   UNL     1      -6.413 -42.605 -30.563  1.00  0.00     0.146 A 
ATOM     34  C   UNL     1      -7.240 -43.325 -32.747  1.00  0.00     0.134 A 
ATOM     35  C   UNL     1      -7.557 -43.130 -29.950  1.00  0.00     0.094 A 
ATOM     36  C   UNL     1      -8.127 -44.209 -32.009  1.00  0.00     0.093 A 
ATOM     37  C   UNL     1      -8.226 -44.166 -30.590  1.00  0.00     0.123 A 
BRANCH  28  38
ATOM     38  C   UNL     1      -3.989 -40.407 -29.240  1.00  0.00     0.025 A 
ATOM     39  C   UNL     1      -2.891 -39.615 -29.619  1.00  0.00     0.062 A 
ATOM     40  C   UNL     1      -3.678 -41.203 -28.120  1.00  0.00     0.016 A 
ATOM     41  C   UNL     1      -1.639 -40.371 -29.800  1.00  0.00     0.158 A 
ATOM     42  C   UNL     1      -2.545 -42.000 -28.310  1.00  0.00     0.051 A 
ATOM     43  C   UNL     1      -1.540 -41.651 -29.184  1.00  0.00     0.157 A 
BRANCH  41  44
ATOM     44  O   UNL     1      -0.604 -39.885 -30.592  1.00  0.00    -0.504 OA
ATOM     45  H   UNL     1      -0.386 -38.910 -30.729  1.00  0.00     0.293 HD
ENDBRANCH  41  44
BRANCH  43  46
ATOM     46  O   UNL     1      -0.399 -42.462 -29.267  1.00  0.00    -0.504 OA
ATOM     47  H   UNL     1       0.238 -42.473 -28.459  1.00  0.00     0.293 HD
ENDBRANCH  43  46
ENDBRANCH  28  38
BRANCH  34  48
ATOM     48  O   UNL     1      -7.274 -43.155 -34.111  1.00  0.00    -0.507 OA
ATOM     49  H   UNL     1      -7.689 -43.881 -34.660  1.00  0.00     0.293 HD
ENDBRANCH  34  48
BRANCH  37  50
ATOM     50  O   UNL     1      -8.824 -45.247 -29.872  1.00  0.00    -0.508 OA
ATOM     51  H   UNL     1      -9.851 -45.247 -30.126  1.00  0.00     0.293 HD
ENDBRANCH  37  50
ENDBRANCH  26  27
ENDBRANCH   5  26
BRANCH   4  52
ATOM     52  O   UNL     1      -2.083 -41.798 -34.901  1.00  0.00    -0.384 OA
ATOM     53  H   UNL     1      -1.445 -41.693 -35.678  1.00  0.00     0.211 HD
ENDBRANCH   4  52
TORSDOF 16
ENDMDL
MODEL 6
REMARK VINA RESULT:    -6.239      2.901      6.023
REMARK INTER + INTRA:         -12.727
REMARK INTER:                 -10.439
REMARK INTRA:                  -2.289
REMARK UNBOUND:                -2.476
REMARK SMILES C[C@H]1O[C@H](OC[C@@H]2O[C@@H](Oc3c(-c4ccc(O)c(O)c4)oc4cc(O)cc(O)c4c3=O)[C@H](O)[C@H](O)[C@@H]2O)[C@H](O)[C@@H](O)[C@@H]1O
REMARK SMILES IDX 7 1 36 2 34 3 32 4 9 5 8 6 6 7 5 8 4 9 1 10 2 11 42 12 3 13
REMARK SMILES IDX 40 14 38 15 43 16 41 18 39 20 37 22 35 24 10 26 11 27 12 28
REMARK SMILES IDX 30 29 21 30 29 31 31 32 22 33 27 34 23 35 26 36 24 37 13 38
REMARK SMILES IDX 20 39 14 40 18 41 15 42 16 43 19 44 17 46 28 48 25 50 33 52
REMARK H PARENT 43 17 41 19 39 21 37 23 35 25 19 45 17 47 28 49 25 51 33 53
REMARK Flexibility Score: inf
ROOT
ATOM      1  C   UNL     1      -1.195 -39.920 -32.267  1.00  0.00     0.180 C 
ATOM      2  C   UNL     1      -1.041 -41.080 -31.197  1.00  0.00     0.177 C 
ATOM      3  C   UNL     1      -0.942 -42.487 -31.867  1.00  0.00     0.180 C 
ATOM      4  C   UNL     1      -0.667 -42.468 -33.514  1.00  0.00     0.214 C 
ATOM      5  C   UNL     1      -0.160 -41.050 -34.150  1.00  0.00     0.339 C 
ATOM      6  O   UNL     1      -0.077 -40.075 -33.147  1.00  0.00    -0.332 OA
ENDROOT
BRANCH   1   7
ATOM      7  C   UNL     1      -2.722 -39.883 -32.846  1.00  0.00     0.198 C 
BRANCH   7   8
ATOM      8  O   UNL     1      -3.576 -40.950 -32.250  1.00  0.00    -0.347 OA
BRANCH   8   9
ATOM      9  C   UNL     1      -4.937 -40.699 -32.230  1.00  0.00     0.281 C 
ATOM     10  C   UNL     1      -6.443 -43.289 -34.484  1.00  0.00     0.041 C 
ATOM     11  C   UNL     1      -5.962 -42.674 -33.169  1.00  0.00     0.150 C 
ATOM     12  C   UNL     1      -6.822 -42.946 -31.897  1.00  0.00     0.174 C 
ATOM     13  O   UNL     1      -5.686 -41.266 -33.319  1.00  0.00    -0.344 OA
ATOM     14  C   UNL     1      -6.101 -42.431 -30.709  1.00  0.00     0.179 C 
ATOM     15  C   UNL     1      -5.602 -41.020 -30.924  1.00  0.00     0.202 C 
BRANCH  12  16
ATOM     16  O   UNL     1      -7.113 -44.305 -31.629  1.00  0.00    -0.388 OA
ATOM     17  H   UNL     1      -7.968 -44.356 -31.116  1.00  0.00     0.211 HD
ENDBRANCH  12  16
BRANCH  14  18
ATOM     18  O   UNL     1      -6.758 -42.695 -29.477  1.00  0.00    -0.387 OA
ATOM     19  H   UNL     1      -6.836 -41.801 -28.998  1.00  0.00     0.211 HD
ENDBRANCH  14  18
BRANCH  15  20
ATOM     20  O   UNL     1      -4.784 -40.474 -29.887  1.00  0.00    -0.385 OA
ATOM     21  H   UNL     1      -5.355 -40.577 -29.067  1.00  0.00     0.211 HD
ENDBRANCH  15  20
ENDBRANCH   8   9
ENDBRANCH   7   8
ENDBRANCH   1   7
BRANCH   2  22
ATOM     22  O   UNL     1      -1.932 -40.774 -30.106  1.00  0.00    -0.387 OA
ATOM     23  H   UNL     1      -2.827 -41.231 -30.211  1.00  0.00     0.211 HD
ENDBRANCH   2  22
BRANCH   3  24
ATOM     24  O   UNL     1      -2.222 -43.103 -31.406  1.00  0.00    -0.387 OA
ATOM     25  H   UNL     1      -2.223 -43.195 -30.398  1.00  0.00     0.211 HD
ENDBRANCH   3  24
BRANCH   5  26
ATOM     26  O   UNL     1       1.053 -40.918 -34.985  1.00  0.00    -0.454 OA
BRANCH  26  27
ATOM     27  C   UNL     1       1.181 -41.119 -36.400  1.00  0.00     0.214 A 
ATOM     28  C   UNL     1       2.186 -40.419 -37.180  1.00  0.00     0.180 A 
ATOM     29  C   UNL     1       0.578 -42.176 -37.014  1.00  0.00     0.239 A 
ATOM     30  O   UNL     1       2.617 -41.047 -38.269  1.00  0.00    -0.452 OA
ATOM     31  C   UNL     1       1.388 -42.999 -37.751  1.00  0.00     0.111 A 
ATOM     32  O   UNL     1      -0.721 -42.192 -37.221  1.00  0.00    -0.285 OA
ATOM     33  C   UNL     1       2.408 -42.348 -38.444  1.00  0.00     0.146 A 
ATOM     34  C   UNL     1       0.895 -44.254 -38.220  1.00  0.00     0.134 A 
ATOM     35  C   UNL     1       3.153 -43.045 -39.404  1.00  0.00     0.094 A 
ATOM     36  C   UNL     1       1.425 -44.698 -39.499  1.00  0.00     0.093 A 
ATOM     37  C   UNL     1       2.513 -44.038 -40.135  1.00  0.00     0.123 A 
BRANCH  28  38
ATOM     38  C   UNL     1       3.245 -39.408 -36.681  1.00  0.00     0.025 A 
ATOM     39  C   UNL     1       2.884 -38.715 -35.513  1.00  0.00     0.062 A 
ATOM     40  C   UNL     1       3.382 -38.528 -37.773  1.00  0.00     0.016 A 
ATOM     41  C   UNL     1       1.710 -37.839 -35.674  1.00  0.00     0.158 A 
ATOM     42  C   UNL     1       2.239 -37.756 -38.000  1.00  0.00     0.051 A 
ATOM     43  C   UNL     1       1.351 -37.444 -36.995  1.00  0.00     0.157 A 
BRANCH  41  44
ATOM     44  O   UNL     1       0.936 -37.450 -34.586  1.00  0.00    -0.504 OA
ATOM     45  H   UNL     1       0.009 -37.790 -34.382  1.00  0.00     0.293 HD
ENDBRANCH  41  44
BRANCH  43  46
ATOM     46  O   UNL     1       0.267 -36.602 -37.282  1.00  0.00    -0.504 OA
ATOM     47  H   UNL     1      -0.108 -36.029 -36.514  1.00  0.00     0.293 HD
ENDBRANCH  43  46
ENDBRANCH  28  38
BRANCH  34  48
ATOM     48  O   UNL     1       0.017 -44.981 -37.451  1.00  0.00    -0.507 OA
ATOM     49  H   UNL     1      -0.142 -45.935 -37.703  1.00  0.00     0.293 HD
ENDBRANCH  34  48
BRANCH  37  50
ATOM     50  O   UNL     1       2.789 -44.266 -41.518  1.00  0.00    -0.508 OA
ATOM     51  H   UNL     1       1.932 -44.732 -41.926  1.00  0.00     0.293 HD
ENDBRANCH  37  50
ENDBRANCH  26  27
ENDBRANCH   5  26
BRANCH   4  52
ATOM     52  O   UNL     1      -1.795 -42.807 -34.264  1.00  0.00    -0.384 OA
ATOM     53  H   UNL     1      -2.064 -43.743 -33.995  1.00  0.00     0.211 HD
ENDBRANCH   4  52
TORSDOF 16
ENDMDL
MODEL 7
REMARK VINA RESULT:    -6.231      3.128      5.887
REMARK INTER + INTRA:         -12.714
REMARK INTER:                 -10.245
REMARK INTRA:                  -2.469
REMARK UNBOUND:                -2.476
REMARK SMILES C[C@H]1O[C@H](OC[C@@H]2O[C@@H](Oc3c(-c4ccc(O)c(O)c4)oc4cc(O)cc(O)c4c3=O)[C@H](O)[C@H](O)[C@@H]2O)[C@H](O)[C@@H](O)[C@@H]1O
REMARK SMILES IDX 7 1 36 2 34 3 32 4 9 5 8 6 6 7 5 8 4 9 1 10 2 11 42 12 3 13
REMARK SMILES IDX 40 14 38 15 43 16 41 18 39 20 37 22 35 24 10 26 11 27 12 28
REMARK SMILES IDX 30 29 21 30 29 31 31 32 22 33 27 34 23 35 26 36 24 37 13 38
REMARK SMILES IDX 20 39 14 40 18 41 15 42 16 43 19 44 17 46 28 48 25 50 33 52
REMARK H PARENT 43 17 41 19 39 21 37 23 35 25 19 45 17 47 28 49 25 51 33 53
REMARK Flexibility Score: inf
ROOT
ATOM      1  C   UNL     1       1.974 -41.233 -31.580  1.00  0.00     0.180 C 
ATOM      2  C   UNL     1       3.456 -41.723 -31.300  1.00  0.00     0.177 C 
ATOM      3  C   UNL     1       3.990 -42.655 -32.433  1.00  0.00     0.180 C 
ATOM      4  C   UNL     1       3.075 -42.666 -33.830  1.00  0.00     0.214 C 
ATOM      5  C   UNL     1       1.990 -41.454 -33.998  1.00  0.00     0.339 C 
ATOM      6  O   UNL     1       2.023 -40.619 -32.872  1.00  0.00    -0.332 OA
ENDROOT
BRANCH   1   7
ATOM      7  C   UNL     1       0.912 -42.430 -31.258  1.00  0.00     0.198 C 
BRANCH   7   8
ATOM      8  O   UNL     1      -0.133 -42.556 -32.314  1.00  0.00    -0.347 OA
BRANCH   8   9
ATOM      9  C   UNL     1      -1.322 -41.889 -32.075  1.00  0.00     0.281 C 
ATOM     10  C   UNL     1      -1.115 -38.755 -34.122  1.00  0.00     0.041 C 
ATOM     11  C   UNL     1      -1.468 -40.208 -33.804  1.00  0.00     0.150 C 
ATOM     12  C   UNL     1      -2.827 -40.747 -34.344  1.00  0.00     0.174 C 
ATOM     13  O   UNL     1      -1.320 -40.487 -32.396  1.00  0.00    -0.344 OA
ATOM     14  C   UNL     1      -2.899 -42.206 -34.095  1.00  0.00     0.179 C 
ATOM     15  C   UNL     1      -2.530 -42.552 -32.670  1.00  0.00     0.202 C 
BRANCH  12  16
ATOM     16  O   UNL     1      -3.055 -40.567 -35.729  1.00  0.00    -0.388 OA
ATOM     17  H   UNL     1      -3.595 -39.736 -35.861  1.00  0.00     0.211 HD
ENDBRANCH  12  16
BRANCH  14  18
ATOM     18  O   UNL     1      -4.068 -42.823 -34.619  1.00  0.00    -0.387 OA
ATOM     19  H   UNL     1      -4.778 -42.095 -34.665  1.00  0.00     0.211 HD
ENDBRANCH  14  18
BRANCH  15  20
ATOM     20  O   UNL     1      -2.444 -43.944 -32.359  1.00  0.00    -0.385 OA
ATOM     21  H   UNL     1      -2.368 -44.377 -33.262  1.00  0.00     0.211 HD
ENDBRANCH  15  20
ENDBRANCH   8   9
ENDBRANCH   7   8
ENDBRANCH   1   7
BRANCH   2  22
ATOM     22  O   UNL     1       3.542 -42.039 -29.897  1.00  0.00    -0.387 OA
ATOM     23  H   UNL     1       4.500 -42.119 -29.586  1.00  0.00     0.211 HD
ENDBRANCH   2  22
BRANCH   3  24
ATOM     24  O   UNL     1       4.105 -43.948 -31.695  1.00  0.00    -0.387 OA
ATOM     25  H   UNL     1       5.063 -44.102 -31.406  1.00  0.00     0.211 HD
ENDBRANCH   3  24
BRANCH   5  26
ATOM     26  O   UNL     1       1.924 -40.577 -35.186  1.00  0.00    -0.454 OA
BRANCH  26  27
ATOM     27  C   UNL     1       1.707 -40.953 -36.554  1.00  0.00     0.214 A 
ATOM     28  C   UNL     1       2.599 -40.515 -37.613  1.00  0.00     0.180 A 
ATOM     29  C   UNL     1       0.846 -41.959 -36.876  1.00  0.00     0.239 A 
ATOM     30  O   UNL     1       2.690 -41.321 -38.666  1.00  0.00    -0.452 OA
ATOM     31  C   UNL     1       1.355 -42.979 -37.636  1.00  0.00     0.111 A 
ATOM     32  O   UNL     1      -0.456 -41.787 -36.810  1.00  0.00    -0.285 OA
ATOM     33  C   UNL     1       2.273 -42.583 -38.607  1.00  0.00     0.146 A 
ATOM     34  C   UNL     1       0.605 -44.182 -37.811  1.00  0.00     0.134 A 
ATOM     35  C   UNL     1       2.686 -43.493 -39.588  1.00  0.00     0.094 A 
ATOM     36  C   UNL     1       0.774 -44.845 -39.094  1.00  0.00     0.093 A 
ATOM     37  C   UNL     1       1.772 -44.444 -40.025  1.00  0.00     0.123 A 
BRANCH  28  38
ATOM     38  C   UNL     1       3.869 -39.640 -37.489  1.00  0.00     0.025 A 
ATOM     39  C   UNL     1       3.807 -38.665 -36.478  1.00  0.00     0.062 A 
ATOM     40  C   UNL     1       3.970 -39.046 -38.763  1.00  0.00     0.016 A 
ATOM     41  C   UNL     1       2.775 -37.637 -36.699  1.00  0.00     0.158 A 
ATOM     42  C   UNL     1       2.941 -38.137 -39.027  1.00  0.00     0.051 A 
ATOM     43  C   UNL     1       2.281 -37.463 -38.024  1.00  0.00     0.157 A 
BRANCH  41  44
ATOM     44  O   UNL     1       2.251 -36.893 -35.647  1.00  0.00    -0.504 OA
ATOM     45  H   UNL     1       2.611 -36.888 -34.704  1.00  0.00     0.293 HD
ENDBRANCH  41  44
BRANCH  43  46
ATOM     46  O   UNL     1       1.312 -36.510 -38.368  1.00  0.00    -0.504 OA
ATOM     47  H   UNL     1       0.368 -36.851 -38.596  1.00  0.00     0.293 HD
ENDBRANCH  43  46
ENDBRANCH  28  38
BRANCH  34  48
ATOM     48  O   UNL     1      -0.169 -44.667 -36.784  1.00  0.00    -0.507 OA
ATOM     49  H   UNL     1      -0.142 -45.650 -36.605  1.00  0.00     0.293 HD
ENDBRANCH  34  48
BRANCH  37  50
ATOM     50  O   UNL     1       1.702 -44.865 -41.388  1.00  0.00    -0.508 OA
ATOM     51  H   UNL     1       2.665 -44.719 -41.800  1.00  0.00     0.293 HD
ENDBRANCH  37  50
ENDBRANCH  26  27
ENDBRANCH   5  26
BRANCH   4  52
ATOM     52  O   UNL     1       2.326 -43.833 -33.988  1.00  0.00    -0.384 OA
ATOM     53  H   UNL     1       2.952 -44.614 -33.846  1.00  0.00     0.211 HD
ENDBRANCH   4  52
TORSDOF 16
ENDMDL
MODEL 8
REMARK VINA RESULT:    -6.226      2.349      6.877
REMARK INTER + INTRA:         -12.705
REMARK INTER:                 -10.156
REMARK INTRA:                  -2.549
REMARK UNBOUND:                -2.476
REMARK SMILES C[C@H]1O[C@H](OC[C@@H]2O[C@@H](Oc3c(-c4ccc(O)c(O)c4)oc4cc(O)cc(O)c4c3=O)[C@H](O)[C@H](O)[C@@H]2O)[C@H](O)[C@@H](O)[C@@H]1O
REMARK SMILES IDX 7 1 36 2 34 3 32 4 9 5 8 6 6 7 5 8 4 9 1 10 2 11 42 12 3 13
REMARK SMILES IDX 40 14 38 15 43 16 41 18 39 20 37 22 35 24 10 26 11 27 12 28
REMARK SMILES IDX 30 29 21 30 29 31 31 32 22 33 27 34 23 35 26 36 24 37 13 38
REMARK SMILES IDX 20 39 14 40 18 41 15 42 16 43 19 44 17 46 28 48 25 50 33 52
REMARK H PARENT 43 17 41 19 39 21 37 23 35 25 19 45 17 47 28 49 25 51 33 53
REMARK Flexibility Score: inf
ROOT
ATOM      1  C   UNL     1       2.328 -44.005 -33.541  1.00  0.00     0.180 C 
ATOM      2  C   UNL     1       2.858 -43.968 -32.047  1.00  0.00     0.177 C 
ATOM      3  C   UNL     1       2.611 -42.583 -31.370  1.00  0.00     0.180 C 
ATOM      4  C   UNL     1       1.564 -41.573 -32.190  1.00  0.00     0.214 C 
ATOM      5  C   UNL     1       0.645 -42.265 -33.351  1.00  0.00     0.339 C 
ATOM      6  O   UNL     1       0.950 -43.629 -33.456  1.00  0.00    -0.332 OA
ENDROOT
BRANCH   1   7
ATOM      7  C   UNL     1       3.358 -43.207 -34.526  1.00  0.00     0.198 C 
BRANCH   7   8
ATOM      8  O   UNL     1       3.166 -43.575 -35.958  1.00  0.00    -0.347 OA
BRANCH   8   9
ATOM      9  C   UNL     1       2.243 -42.820 -36.661  1.00  0.00     0.281 C 
ATOM     10  C   UNL     1       4.125 -41.474 -39.612  1.00  0.00     0.041 C 
ATOM     11  C   UNL     1       3.244 -42.448 -38.828  1.00  0.00     0.150 C 
ATOM     12  C   UNL     1       2.060 -43.114 -39.592  1.00  0.00     0.174 C 
ATOM     13  O   UNL     1       2.799 -41.867 -37.584  1.00  0.00    -0.344 OA
ATOM     14  C   UNL     1       1.449 -44.150 -38.727  1.00  0.00     0.179 C 
ATOM     15  C   UNL     1       1.173 -43.627 -37.335  1.00  0.00     0.202 C 
BRANCH  12  16
ATOM     16  O   UNL     1       2.396 -43.756 -40.808  1.00  0.00    -0.388 OA
ATOM     17  H   UNL     1       3.382 -43.913 -40.828  1.00  0.00     0.211 HD
ENDBRANCH  12  16
BRANCH  14  18
ATOM     18  O   UNL     1       0.404 -44.881 -39.354  1.00  0.00    -0.387 OA
ATOM     19  H   UNL     1      -0.221 -44.190 -39.764  1.00  0.00     0.211 HD
ENDBRANCH  14  18
BRANCH  15  20
ATOM     20  O   UNL     1       0.701 -44.583 -36.383  1.00  0.00    -0.385 OA
ATOM     21  H   UNL     1       1.548 -44.953 -35.991  1.00  0.00     0.211 HD
ENDBRANCH  15  20
ENDBRANCH   8   9
ENDBRANCH   7   8
ENDBRANCH   1   7
BRANCH   2  22
ATOM     22  O   UNL     1       4.125 -44.653 -32.027  1.00  0.00    -0.387 OA
ATOM     23  H   UNL     1       4.380 -44.948 -31.094  1.00  0.00     0.211 HD
ENDBRANCH   2  22
BRANCH   3  24
ATOM     24  O   UNL     1       4.015 -42.103 -31.203  1.00  0.00    -0.387 OA
ATOM     25  H   UNL     1       4.107 -41.161 -31.560  1.00  0.00     0.211 HD
ENDBRANCH   3  24
BRANCH   5  26
ATOM     26  O   UNL     1      -0.827 -42.143 -33.408  1.00  0.00    -0.454 OA
BRANCH  26  27
ATOM     27  C   UNL     1      -1.634 -40.998 -33.099  1.00  0.00     0.214 A 
ATOM     28  C   UNL     1      -2.226 -40.180 -34.142  1.00  0.00     0.180 A 
ATOM     29  C   UNL     1      -2.120 -40.803 -31.840  1.00  0.00     0.239 A 
ATOM     30  O   UNL     1      -3.357 -39.560 -33.823  1.00  0.00    -0.452 OA
ATOM     31  C   UNL     1      -3.475 -40.644 -31.725  1.00  0.00     0.111 A 
ATOM     32  O   UNL     1      -1.336 -40.402 -30.863  1.00  0.00    -0.285 OA
ATOM     33  C   UNL     1      -4.070 -39.927 -32.762  1.00  0.00     0.146 A 
ATOM     34  C   UNL     1      -4.093 -40.682 -30.438  1.00  0.00     0.134 A 
ATOM     35  C   UNL     1      -5.400 -39.505 -32.644  1.00  0.00     0.094 A 
ATOM     36  C   UNL     1      -5.261 -39.832 -30.278  1.00  0.00     0.093 A 
ATOM     37  C   UNL     1      -5.872 -39.172 -31.380  1.00  0.00     0.123 A 
BRANCH  28  38
ATOM     38  C   UNL     1      -2.127 -40.372 -35.674  1.00  0.00     0.025 A 
ATOM     39  C   UNL     1      -0.835 -40.671 -36.141  1.00  0.00     0.062 A 
ATOM     40  C   UNL     1      -2.575 -39.135 -36.178  1.00  0.00     0.016 A 
ATOM     41  C   UNL     1       0.145 -39.591 -35.926  1.00  0.00     0.158 A 
ATOM     42  C   UNL     1      -1.701 -38.080 -35.898  1.00  0.00     0.051 A 
ATOM     43  C   UNL     1      -0.352 -38.275 -35.705  1.00  0.00     0.157 A 
BRANCH  41  44
ATOM     44  O   UNL     1       1.512 -39.847 -35.881  1.00  0.00    -0.504 OA
ATOM     45  H   UNL     1       1.958 -40.514 -35.270  1.00  0.00     0.293 HD
ENDBRANCH  41  44
BRANCH  43  46
ATOM     46  O   UNL     1       0.474 -37.160 -35.504  1.00  0.00    -0.504 OA
ATOM     47  H   UNL     1       0.944 -36.760 -36.326  1.00  0.00     0.293 HD
ENDBRANCH  43  46
ENDBRANCH  28  38
BRANCH  34  48
ATOM     48  O   UNL     1      -3.608 -41.524 -29.466  1.00  0.00    -0.507 OA
ATOM     49  H   UNL     1      -3.778 -41.279 -28.511  1.00  0.00     0.293 HD
ENDBRANCH  34  48
BRANCH  37  50
ATOM     50  O   UNL     1      -6.782 -38.093 -31.165  1.00  0.00    -0.508 OA
ATOM     51  H   UNL     1      -7.752 -38.472 -31.353  1.00  0.00     0.293 HD
ENDBRANCH  37  50
ENDBRANCH  26  27
ENDBRANCH   5  26
BRANCH   4  52
ATOM     52  O   UNL     1       2.210 -40.516 -32.834  1.00  0.00    -0.384 OA
ATOM     53  H   UNL     1       2.603 -39.922 -32.118  1.00  0.00     0.211 HD
ENDBRANCH   4  52
TORSDOF 16
ENDMDL
MODEL 9
REMARK VINA RESULT:    -6.157      2.326      3.428
REMARK INTER + INTRA:         -12.592
REMARK INTER:                 -10.057
REMARK INTRA:                  -2.535
REMARK UNBOUND:                -2.476
REMARK SMILES C[C@H]1O[C@H](OC[C@@H]2O[C@@H](Oc3c(-c4ccc(O)c(O)c4)oc4cc(O)cc(O)c4c3=O)[C@H](O)[C@H](O)[C@@H]2O)[C@H](O)[C@@H](O)[C@@H]1O
REMARK SMILES IDX 7 1 36 2 34 3 32 4 9 5 8 6 6 7 5 8 4 9 1 10 2 11 42 12 3 13
REMARK SMILES IDX 40 14 38 15 43 16 41 18 39 20 37 22 35 24 10 26 11 27 12 28
REMARK SMILES IDX 30 29 21 30 29 31 31 32 22 33 27 34 23 35 26 36 24 37 13 38
REMARK SMILES IDX 20 39 14 40 18 41 15 42 16 43 19 44 17 46 28 48 25 50 33 52
REMARK H PARENT 43 17 41 19 39 21 37 23 35 25 19 45 17 47 28 49 25 51 33 53
REMARK Flexibility Score: inf
ROOT
ATOM      1  C   UNL     1       2.558 -40.194 -31.326  1.00  0.00     0.180 C 
ATOM      2  C   UNL     1       3.159 -41.592 -30.880  1.00  0.00     0.177 C 
ATOM      3  C   UNL     1       2.089 -42.729 -30.914  1.00  0.00     0.180 C 
ATOM      4  C   UNL     1       0.677 -42.346 -31.720  1.00  0.00     0.214 C 
ATOM      5  C   UNL     1       0.724 -41.025 -32.681  1.00  0.00     0.339 C 
ATOM      6  O   UNL     1       1.990 -40.429 -32.618  1.00  0.00    -0.332 OA
ENDROOT
BRANCH   1   7
ATOM      7  C   UNL     1       1.665 -39.551 -30.119  1.00  0.00     0.198 C 
BRANCH   7   8
ATOM      8  O   UNL     1       0.364 -39.011 -30.608  1.00  0.00    -0.347 OA
BRANCH   8   9
ATOM      9  C   UNL     1       0.325 -37.650 -30.856  1.00  0.00     0.281 C 
ATOM     10  C   UNL     1       1.508 -37.266 -34.393  1.00  0.00     0.041 C 
ATOM     11  C   UNL     1       0.500 -37.436 -33.256  1.00  0.00     0.150 C 
ATOM     12  C   UNL     1      -0.851 -36.669 -33.380  1.00  0.00     0.174 C 
ATOM     13  O   UNL     1       1.115 -37.203 -31.971  1.00  0.00    -0.344 OA
ATOM     14  C   UNL     1      -1.754 -37.103 -32.288  1.00  0.00     0.179 C 
ATOM     15  C   UNL     1      -1.061 -37.081 -30.944  1.00  0.00     0.202 C 
BRANCH  12  16
ATOM     16  O   UNL     1      -1.563 -36.865 -34.587  1.00  0.00    -0.388 OA
ATOM     17  H   UNL     1      -1.947 -37.787 -34.588  1.00  0.00     0.211 HD
ENDBRANCH  12  16
BRANCH  14  18
ATOM     18  O   UNL     1      -3.051 -36.525 -32.347  1.00  0.00    -0.387 OA
ATOM     19  H   UNL     1      -3.600 -36.981 -31.621  1.00  0.00     0.211 HD
ENDBRANCH  14  18
BRANCH  15  20
ATOM     20  O   UNL     1      -1.804 -37.603 -29.841  1.00  0.00    -0.385 OA
ATOM     21  H   UNL     1      -2.644 -37.945 -30.271  1.00  0.00     0.211 HD
ENDBRANCH  15  20
ENDBRANCH   8   9
ENDBRANCH   7   8
ENDBRANCH   1   7
BRANCH   2  22
ATOM     22  O   UNL     1       4.027 -41.344 -29.757  1.00  0.00    -0.387 OA
ATOM     23  H   UNL     1       3.522 -40.971 -28.965  1.00  0.00     0.211 HD
ENDBRANCH   2  22
BRANCH   3  24
ATOM     24  O   UNL     1       1.969 -43.038 -29.458  1.00  0.00    -0.387 OA
ATOM     25  H   UNL     1       2.656 -43.732 -29.190  1.00  0.00     0.211 HD
ENDBRANCH   3  24
BRANCH   5  26
ATOM     26  O   UNL     1       0.320 -41.037 -34.104  1.00  0.00    -0.454 OA
BRANCH  26  27
ATOM     27  C   UNL     1      -0.938 -41.436 -34.665  1.00  0.00     0.214 A 
ATOM     28  C   UNL     1      -1.165 -42.790 -35.139  1.00  0.00     0.180 A 
ATOM     29  C   UNL     1      -2.051 -40.664 -34.509  1.00  0.00     0.239 A 
ATOM     30  O   UNL     1      -2.421 -43.222 -35.085  1.00  0.00    -0.452 OA
ATOM     31  C   UNL     1      -3.146 -41.274 -33.958  1.00  0.00     0.111 A 
ATOM     32  O   UNL     1      -2.205 -39.548 -35.188  1.00  0.00    -0.285 OA
ATOM     33  C   UNL     1      -3.333 -42.601 -34.342  1.00  0.00     0.146 A 
ATOM     34  C   UNL     1      -4.262 -40.491 -33.533  1.00  0.00     0.134 A 
ATOM     35  C   UNL     1      -4.531 -43.255 -34.030  1.00  0.00     0.094 A 
ATOM     36  C   UNL     1      -5.563 -41.127 -33.668  1.00  0.00     0.093 A 
ATOM     37  C   UNL     1      -5.699 -42.503 -33.999  1.00  0.00     0.123 A 
BRANCH  28  38
ATOM     38  C   UNL     1      -0.180 -43.983 -35.120  1.00  0.00     0.025 A 
ATOM     39  C   UNL     1       1.174 -43.621 -35.223  1.00  0.00     0.062 A 
ATOM     40  C   UNL     1      -0.588 -44.746 -36.232  1.00  0.00     0.016 A 
ATOM     41  C   UNL     1       1.529 -42.980 -36.502  1.00  0.00     0.158 A 
ATOM     42  C   UNL     1      -0.346 -44.110 -37.453  1.00  0.00     0.051 A 
ATOM     43  C   UNL     1       0.657 -43.180 -37.611  1.00  0.00     0.157 A 
BRANCH  41  44
ATOM     44  O   UNL     1       2.645 -42.158 -36.620  1.00  0.00    -0.504 OA
ATOM     45  H   UNL     1       3.051 -41.852 -37.491  1.00  0.00     0.293 HD
ENDBRANCH  41  44
BRANCH  43  46
ATOM     46  O   UNL     1       0.889 -42.639 -38.883  1.00  0.00    -0.504 OA
ATOM     47  H   UNL     1       0.683 -43.232 -39.698  1.00  0.00     0.293 HD
ENDBRANCH  43  46
ENDBRANCH  28  38
BRANCH  34  48
ATOM     48  O   UNL     1      -4.062 -39.244 -32.989  1.00  0.00    -0.507 OA
ATOM     49  H   UNL     1      -4.692 -38.942 -32.273  1.00  0.00     0.293 HD
ENDBRANCH  34  48
BRANCH  37  50
ATOM     50  O   UNL     1      -6.950 -43.018 -34.459  1.00  0.00    -0.508 OA
ATOM     51  H   UNL     1      -6.726 -43.783 -35.154  1.00  0.00     0.293 HD
ENDBRANCH  37  50
ENDBRANCH  26  27
ENDBRANCH   5  26
BRANCH   4  52
ATOM     52  O   UNL     1      -0.402 -42.120 -30.862  1.00  0.00    -0.384 OA
ATOM     53  H   UNL     1      -0.841 -41.258 -31.153  1.00  0.00     0.211 HD
ENDBRANCH   4  52
TORSDOF 16
ENDMDL
