MODEL 1
REMARK VINA RESULT:    -4.640      0.000      0.000
REMARK INTER + INTRA:          -5.587
REMARK INTER:                  -5.453
REMARK INTRA:                  -0.133
REMARK UNBOUND:                -0.133
REMARK SMILES O=C([O-])C=Cc1ccc(O)c(O)c1
REMARK SMILES IDX 6 1 13 2 7 3 11 4 8 5 9 6 5 7 4 8 2 9 1 10 3 11 12 12 10 14
REMARK H PARENT 12 13 10 15
REMARK Flexibility Score: inf
ROOT
ATOM      1  C   UNL     1      19.407  -6.866  18.865  1.00  0.00    -0.022 A 
ATOM      2  C   UNL     1      20.155  -7.776  19.639  1.00  0.00     0.058 A 
ATOM      3  C   UNL     1      18.631  -7.358  17.803  1.00  0.00     0.012 A 
ATOM      4  C   UNL     1      20.147  -9.144  19.339  1.00  0.00     0.157 A 
ATOM      5  C   UNL     1      18.623  -8.721  17.501  1.00  0.00     0.051 A 
ATOM      6  C   UNL     1      19.381  -9.619  18.262  1.00  0.00     0.157 A 
ENDROOT
BRANCH   1   7
ATOM      7  C   UNL     1      19.375  -5.410  19.152  1.00  0.00     0.010 C 
ATOM      8  C   UNL     1      19.841  -4.475  18.312  1.00  0.00     0.025 C 
BRANCH   8   9
ATOM      9  C   UNL     1      19.777  -3.041  18.632  1.00  0.00     0.064 C 
ATOM     10  O   UNL     1      20.432  -2.593  19.610  1.00  0.00    -0.545 OA
ATOM     11  O   UNL     1      19.004  -2.170  17.874  1.00  0.00    -0.545 OA
ENDBRANCH   8   9
ENDBRANCH   1   7
BRANCH   4  12
ATOM     12  O   UNL     1      20.903 -10.014  20.124  1.00  0.00    -0.504 OA
ATOM     13  H   UNL     1      21.627  -9.683  20.749  1.00  0.00     0.293 HD
ENDBRANCH   4  12
BRANCH   6  14
ATOM     14  O   UNL     1      19.372 -10.979  17.957  1.00  0.00    -0.504 OA
ATOM     15  H   UNL     1      19.933 -11.644  18.477  1.00  0.00     0.293 HD
ENDBRANCH   6  14
TORSDOF 4
ENDMDL
MODEL 2
REMARK VINA RESULT:    -4.608      9.291     11.558
REMARK INTER + INTRA:          -5.549
REMARK INTER:                  -5.415
REMARK INTRA:                  -0.134
REMARK UNBOUND:                -0.133
REMARK SMILES O=C([O-])C=Cc1ccc(O)c(O)c1
REMARK SMILES IDX 6 1 13 2 7 3 11 4 8 5 9 6 5 7 4 8 2 9 1 10 3 11 12 12 10 14
REMARK H PARENT 12 13 10 15
REMARK Flexibility Score: inf
ROOT
ATOM      1  C   UNL     1      10.961  -1.110  17.570  1.00  0.00    -0.022 A 
ATOM      2  C   UNL     1      12.266  -1.362  18.039  1.00  0.00     0.058 A 
ATOM      3  C   UNL     1      10.354   0.118  17.882  1.00  0.00     0.012 A 
ATOM      4  C   UNL     1      12.937  -0.416  18.825  1.00  0.00     0.157 A 
ATOM      5  C   UNL     1      11.021   1.061  18.667  1.00  0.00     0.051 A 
ATOM      6  C   UNL     1      12.311   0.800  19.144  1.00  0.00     0.157 A 
ENDROOT
BRANCH   1   7
ATOM      7  C   UNL     1      10.214  -2.075  16.725  1.00  0.00     0.010 C 
ATOM      8  C   UNL     1       9.992  -1.901  15.415  1.00  0.00     0.025 C 
BRANCH   8   9
ATOM      9  C   UNL     1       9.257  -2.891  14.613  1.00  0.00     0.064 C 
ATOM     10  O   UNL     1       8.131  -3.295  15.004  1.00  0.00    -0.545 OA
ATOM     11  O   UNL     1       9.787  -3.390  13.429  1.00  0.00    -0.545 OA
ENDBRANCH   8   9
ENDBRANCH   1   7
BRANCH   4  12
ATOM     12  O   UNL     1      14.226  -0.702  19.274  1.00  0.00    -0.504 OA
ATOM     13  H   UNL     1      15.022  -0.127  19.028  1.00  0.00     0.293 HD
ENDBRANCH   4  12
BRANCH   6  14
ATOM     14  O   UNL     1      12.974   1.742  19.928  1.00  0.00    -0.504 OA
ATOM     15  H   UNL     1      12.723   2.724  19.904  1.00  0.00     0.293 HD
ENDBRANCH   6  14
TORSDOF 4
ENDMDL
MODEL 3
REMARK VINA RESULT:    -4.602      9.236     10.782
REMARK INTER + INTRA:          -5.542
REMARK INTER:                  -5.419
REMARK INTRA:                  -0.122
REMARK UNBOUND:                -0.133
REMARK SMILES O=C([O-])C=Cc1ccc(O)c(O)c1
REMARK SMILES IDX 6 1 13 2 7 3 11 4 8 5 9 6 5 7 4 8 2 9 1 10 3 11 12 12 10 14
REMARK H PARENT 12 13 10 15
REMARK Flexibility Score: inf
ROOT
ATOM      1  C   UNL     1      10.629  -2.585  18.373  1.00  0.00    -0.022 A 
ATOM      2  C   UNL     1      10.413  -2.174  17.042  1.00  0.00     0.058 A 
ATOM      3  C   UNL     1       9.527  -2.987  19.146  1.00  0.00     0.012 A 
ATOM      4  C   UNL     1       9.119  -2.141  16.507  1.00  0.00     0.157 A 
ATOM      5  C   UNL     1       8.236  -2.953  18.615  1.00  0.00     0.051 A 
ATOM      6  C   UNL     1       8.024  -2.528  17.297  1.00  0.00     0.157 A 
ENDROOT
BRANCH   1   7
ATOM      7  C   UNL     1      11.982  -2.648  18.980  1.00  0.00     0.010 C 
ATOM      8  C   UNL     1      12.916  -1.701  18.817  1.00  0.00     0.025 C 
BRANCH   8   9
ATOM      9  C   UNL     1      14.241  -1.799  19.448  1.00  0.00     0.064 C 
ATOM     10  O   UNL     1      15.038  -0.827  19.374  1.00  0.00    -0.545 OA
ATOM     11  O   UNL     1      14.630  -2.949  20.125  1.00  0.00    -0.545 OA
ENDBRANCH   8   9
ENDBRANCH   1   7
BRANCH   4  12
ATOM     12  O   UNL     1       8.943  -1.724  15.188  1.00  0.00    -0.504 OA
ATOM     13  H   UNL     1       9.191  -0.792  14.880  1.00  0.00     0.293 HD
ENDBRANCH   4  12
BRANCH   6  14
ATOM     14  O   UNL     1       6.734  -2.493  16.770  1.00  0.00    -0.504 OA
ATOM     15  H   UNL     1       6.569  -2.496  15.771  1.00  0.00     0.293 HD
ENDBRANCH   6  14
TORSDOF 4
ENDMDL
MODEL 4
REMARK VINA RESULT:    -4.566      1.220      6.181
REMARK INTER + INTRA:          -5.500
REMARK INTER:                  -5.358
REMARK INTRA:                  -0.142
REMARK UNBOUND:                -0.133
REMARK SMILES O=C([O-])C=Cc1ccc(O)c(O)c1
REMARK SMILES IDX 6 1 13 2 7 3 11 4 8 5 9 6 5 7 4 8 2 9 1 10 3 11 12 12 10 14
REMARK H PARENT 12 13 10 15
REMARK Flexibility Score: inf
ROOT
ATOM      1  C   UNL     1      20.029  -5.518  18.632  1.00  0.00    -0.022 A 
ATOM      2  C   UNL     1      19.483  -4.446  17.896  1.00  0.00     0.058 A 
ATOM      3  C   UNL     1      20.825  -5.234  19.754  1.00  0.00     0.012 A 
ATOM      4  C   UNL     1      19.751  -3.121  18.262  1.00  0.00     0.157 A 
ATOM      5  C   UNL     1      21.094  -3.913  20.118  1.00  0.00     0.051 A 
ATOM      6  C   UNL     1      20.563  -2.852  19.375  1.00  0.00     0.157 A 
ENDROOT
BRANCH   1   7
ATOM      7  C   UNL     1      19.765  -6.938  18.291  1.00  0.00     0.010 C 
ATOM      8  C   UNL     1      19.309  -7.842  19.169  1.00  0.00     0.025 C 
BRANCH   8   9
ATOM      9  C   UNL     1      19.048  -9.238  18.784  1.00  0.00     0.064 C 
ATOM     10  O   UNL     1      18.999  -9.547  17.565  1.00  0.00    -0.545 OA
ATOM     11  O   UNL     1      18.853 -10.222  19.746  1.00  0.00    -0.545 OA
ENDBRANCH   8   9
ENDBRANCH   1   7
BRANCH   4  12
ATOM     12  O   UNL     1      19.197  -2.086  17.508  1.00  0.00    -0.504 OA
ATOM     13  H   UNL     1      19.766  -1.364  17.085  1.00  0.00     0.293 HD
ENDBRANCH   4  12
BRANCH   6  14
ATOM     14  O   UNL     1      20.835  -1.535  19.741  1.00  0.00    -0.504 OA
ATOM     15  H   UNL     1      20.823  -1.239  20.710  1.00  0.00     0.293 HD
ENDBRANCH   6  14
TORSDOF 4
ENDMDL
MODEL 5
REMARK VINA RESULT:    -4.556     10.302     12.310
REMARK INTER + INTRA:          -5.488
REMARK INTER:                  -5.365
REMARK INTRA:                  -0.123
REMARK UNBOUND:                -0.133
REMARK SMILES O=C([O-])C=Cc1ccc(O)c(O)c1
REMARK SMILES IDX 6 1 13 2 7 3 11 4 8 5 9 6 5 7 4 8 2 9 1 10 3 11 12 12 10 14
REMARK H PARENT 12 13 10 15
REMARK Flexibility Score: inf
ROOT
ATOM      1  C   UNL     1      10.700  -0.902  17.454  1.00  0.00    -0.022 A 
ATOM      2  C   UNL     1       9.990   0.247  17.860  1.00  0.00     0.058 A 
ATOM      3  C   UNL     1      12.031  -1.060  17.875  1.00  0.00     0.012 A 
ATOM      4  C   UNL     1      10.609   1.227  18.646  1.00  0.00     0.157 A 
ATOM      5  C   UNL     1      12.649  -0.083  18.657  1.00  0.00     0.051 A 
ATOM      6  C   UNL     1      11.946   1.065  19.043  1.00  0.00     0.157 A 
ENDROOT
BRANCH   1   7
ATOM      7  C   UNL     1      10.084  -1.973  16.632  1.00  0.00     0.010 C 
ATOM      8  C   UNL     1       9.843  -1.857  15.319  1.00  0.00     0.025 C 
BRANCH   8   9
ATOM      9  C   UNL     1       9.241  -2.951  14.539  1.00  0.00     0.064 C 
ATOM     10  O   UNL     1       8.156  -3.462  14.921  1.00  0.00    -0.545 OA
ATOM     11  O   UNL     1       9.853  -3.431  13.387  1.00  0.00    -0.545 OA
ENDBRANCH   8   9
ENDBRANCH   1   7
BRANCH   4  12
ATOM     12  O   UNL     1       9.877   2.352  19.024  1.00  0.00    -0.504 OA
ATOM     13  H   UNL     1      10.314   3.253  19.176  1.00  0.00     0.293 HD
ENDBRANCH   4  12
BRANCH   6  14
ATOM     14  O   UNL     1      12.567   2.039  19.823  1.00  0.00    -0.504 OA
ATOM     15  H   UNL     1      12.412   2.098  20.823  1.00  0.00     0.293 HD
ENDBRANCH   6  14
TORSDOF 4
ENDMDL
MODEL 6
REMARK VINA RESULT:    -4.444     16.775     18.870
REMARK INTER + INTRA:          -5.356
REMARK INTER:                  -5.203
REMARK INTRA:                  -0.154
REMARK UNBOUND:                -0.133
REMARK SMILES O=C([O-])C=Cc1ccc(O)c(O)c1
REMARK SMILES IDX 6 1 13 2 7 3 11 4 8 5 9 6 5 7 4 8 2 9 1 10 3 11 12 12 10 14
REMARK H PARENT 12 13 10 15
REMARK Flexibility Score: inf
ROOT
ATOM      1  C   UNL     1       6.938   4.143  10.152  1.00  0.00    -0.022 A 
ATOM      2  C   UNL     1       6.515   2.905   9.625  1.00  0.00     0.058 A 
ATOM      3  C   UNL     1       7.948   4.154  11.129  1.00  0.00     0.012 A 
ATOM      4  C   UNL     1       7.072   1.706  10.086  1.00  0.00     0.157 A 
ATOM      5  C   UNL     1       8.503   2.959  11.590  1.00  0.00     0.051 A 
ATOM      6  C   UNL     1       8.068   1.731  11.076  1.00  0.00     0.157 A 
ENDROOT
BRANCH   1   7
ATOM      7  C   UNL     1       6.386   5.440   9.687  1.00  0.00     0.010 C 
ATOM      8  C   UNL     1       6.880   6.631  10.051  1.00  0.00     0.025 C 
BRANCH   8   9
ATOM      9  C   UNL     1       6.308   7.893   9.555  1.00  0.00     0.064 C 
ATOM     10  O   UNL     1       5.876   7.959   8.375  1.00  0.00    -0.545 OA
ATOM     11  O   UNL     1       6.240   9.018  10.370  1.00  0.00    -0.545 OA
ENDBRANCH   8   9
ENDBRANCH   1   7
BRANCH   4  12
ATOM     12  O   UNL     1       6.626   0.500   9.545  1.00  0.00    -0.504 OA
ATOM     13  H   UNL     1       7.175  -0.349   9.597  1.00  0.00     0.293 HD
ENDBRANCH   4  12
BRANCH   6  14
ATOM     14  O   UNL     1       8.623   0.540  11.540  1.00  0.00    -0.504 OA
ATOM     15  H   UNL     1       8.056  -0.173  11.984  1.00  0.00     0.293 HD
ENDBRANCH   6  14
TORSDOF 4
ENDMDL
MODEL 7
REMARK VINA RESULT:    -4.443      9.706     11.258
REMARK INTER + INTRA:          -5.355
REMARK INTER:                  -5.233
REMARK INTRA:                  -0.122
REMARK UNBOUND:                -0.133
REMARK SMILES O=C([O-])C=Cc1ccc(O)c(O)c1
REMARK SMILES IDX 6 1 13 2 7 3 11 4 8 5 9 6 5 7 4 8 2 9 1 10 3 11 12 12 10 14
REMARK H PARENT 12 13 10 15
REMARK Flexibility Score: inf
ROOT
ATOM      1  C   UNL     1      10.326  -2.076  18.269  1.00  0.00    -0.022 A 
ATOM      2  C   UNL     1      11.178  -3.044  18.839  1.00  0.00     0.058 A 
ATOM      3  C   UNL     1      10.879  -0.862  17.827  1.00  0.00     0.012 A 
ATOM      4  C   UNL     1      12.547  -2.790  18.988  1.00  0.00     0.157 A 
ATOM      5  C   UNL     1      12.243  -0.607  17.977  1.00  0.00     0.051 A 
ATOM      6  C   UNL     1      13.083  -1.565  18.558  1.00  0.00     0.157 A 
ENDROOT
BRANCH   1   7
ATOM      7  C   UNL     1       8.871  -2.303  18.080  1.00  0.00     0.010 C 
ATOM      8  C   UNL     1       8.114  -3.019  18.923  1.00  0.00     0.025 C 
BRANCH   8   9
ATOM      9  C   UNL     1       6.672  -3.209  18.703  1.00  0.00     0.064 C 
ATOM     10  O   UNL     1       6.054  -4.089  19.356  1.00  0.00    -0.545 OA
ATOM     11  O   UNL     1       5.979  -2.432  17.781  1.00  0.00    -0.545 OA
ENDBRANCH   8   9
ENDBRANCH   1   7
BRANCH   4  12
ATOM     12  O   UNL     1      13.358  -3.769  19.560  1.00  0.00    -0.504 OA
ATOM     13  H   UNL     1      14.334  -3.602  19.775  1.00  0.00     0.293 HD
ENDBRANCH   4  12
BRANCH   6  14
ATOM     14  O   UNL     1      14.444  -1.306  18.707  1.00  0.00    -0.504 OA
ATOM     15  H   UNL     1      14.880  -1.263  19.621  1.00  0.00     0.293 HD
ENDBRANCH   6  14
TORSDOF 4
ENDMDL
MODEL 8
REMARK VINA RESULT:    -4.372      9.325     11.427
REMARK INTER + INTRA:          -5.271
REMARK INTER:                  -5.123
REMARK INTRA:                  -0.149
REMARK UNBOUND:                -0.133
REMARK SMILES O=C([O-])C=Cc1ccc(O)c(O)c1
REMARK SMILES IDX 6 1 13 2 7 3 11 4 8 5 9 6 5 7 4 8 2 9 1 10 3 11 12 12 10 14
REMARK H PARENT 12 13 10 15
REMARK Flexibility Score: inf
ROOT
ATOM      1  C   UNL     1      11.280   0.222  18.670  1.00  0.00    -0.022 A 
ATOM      2  C   UNL     1      11.779  -0.857  17.911  1.00  0.00     0.058 A 
ATOM      3  C   UNL     1      12.067   0.737  19.713  1.00  0.00     0.012 A 
ATOM      4  C   UNL     1      13.025  -1.422  18.209  1.00  0.00     0.157 A 
ATOM      5  C   UNL     1      13.308   0.173  20.013  1.00  0.00     0.051 A 
ATOM      6  C   UNL     1      13.793  -0.909  19.267  1.00  0.00     0.157 A 
ENDROOT
BRANCH   1   7
ATOM      7  C   UNL     1       9.972   0.862  18.385  1.00  0.00     0.010 C 
ATOM      8  C   UNL     1       9.706   2.153  18.628  1.00  0.00     0.025 C 
BRANCH   8   9
ATOM      9  C   UNL     1       8.398   2.749  18.318  1.00  0.00     0.064 C 
ATOM     10  O   UNL     1       8.106   3.882  18.781  1.00  0.00    -0.545 OA
ATOM     11  O   UNL     1       7.475   2.079  17.523  1.00  0.00    -0.545 OA
ENDBRANCH   8   9
ENDBRANCH   1   7
BRANCH   4  12
ATOM     12  O   UNL     1      13.485  -2.491  17.439  1.00  0.00    -0.504 OA
ATOM     13  H   UNL     1      12.972  -2.836  16.637  1.00  0.00     0.293 HD
ENDBRANCH   4  12
BRANCH   6  14
ATOM     14  O   UNL     1      15.032  -1.471  19.570  1.00  0.00    -0.504 OA
ATOM     15  H   UNL     1      15.109  -2.355  20.059  1.00  0.00     0.293 HD
ENDBRANCH   6  14
TORSDOF 4
ENDMDL
MODEL 9
REMARK VINA RESULT:    -4.295      1.180      2.060
REMARK INTER + INTRA:          -5.181
REMARK INTER:                  -5.056
REMARK INTRA:                  -0.125
REMARK UNBOUND:                -0.133
REMARK SMILES O=C([O-])C=Cc1ccc(O)c(O)c1
REMARK SMILES IDX 6 1 13 2 7 3 11 4 8 5 9 6 5 7 4 8 2 9 1 10 3 11 12 12 10 14
REMARK H PARENT 12 13 10 15
REMARK Flexibility Score: inf
ROOT
ATOM      1  C   UNL     1      19.819  -6.428  19.315  1.00  0.00    -0.022 A 
ATOM      2  C   UNL     1      19.119  -6.801  18.150  1.00  0.00     0.058 A 
ATOM      3  C   UNL     1      20.371  -7.434  20.125  1.00  0.00     0.012 A 
ATOM      4  C   UNL     1      18.951  -8.152  17.819  1.00  0.00     0.157 A 
ATOM      5  C   UNL     1      20.203  -8.781  19.798  1.00  0.00     0.051 A 
ATOM      6  C   UNL     1      19.492  -9.148  18.649  1.00  0.00     0.157 A 
ENDROOT
BRANCH   1   7
ATOM      7  C   UNL     1      20.033  -5.011  19.699  1.00  0.00     0.010 C 
ATOM      8  C   UNL     1      20.108  -4.004  18.818  1.00  0.00     0.025 C 
BRANCH   8   9
ATOM      9  C   UNL     1      20.308  -2.610  19.246  1.00  0.00     0.064 C 
ATOM     10  O   UNL     1      21.459  -2.103  19.192  1.00  0.00    -0.545 OA
ATOM     11  O   UNL     1      19.246  -1.843  19.711  1.00  0.00    -0.545 OA
ENDBRANCH   8   9
ENDBRANCH   1   7
BRANCH   4  12
ATOM     12  O   UNL     1      18.249  -8.483  16.661  1.00  0.00    -0.504 OA
ATOM     13  H   UNL     1      17.253  -8.666  16.669  1.00  0.00     0.293 HD
ENDBRANCH   4  12
BRANCH   6  14
ATOM     14  O   UNL     1      19.326 -10.493  18.326  1.00  0.00    -0.504 OA
ATOM     15  H   UNL     1      18.453 -10.845  17.950  1.00  0.00     0.293 HD
ENDBRANCH   6  14
TORSDOF 4
ENDMDL
