MODEL 1
REMARK VINA RESULT:    -4.407      0.000      0.000
REMARK INTER + INTRA:         -13.033
REMARK INTER:                  -9.559
REMARK INTRA:                  -3.474
REMARK UNBOUND:                -3.474
REMARK SMILES CCCCCCCCCCCCCCCCCCCCCC(=O)[O-]
REMARK SMILES IDX 12 1 11 2 10 3 9 4 8 5 7 6 6 7 5 8 4 9 3 10 2 11 1 12 13 13
REMARK SMILES IDX 14 14 15 15 16 16 17 17 18 18 19 19 20 20 21 21 22 22 23 23
REMARK SMILES IDX 24 24
REMARK H PARENT
REMARK Flexibility Score: inf
ROOT
ATOM      1  C   UNL     1      -5.550 -27.923  -1.038  1.00  0.00     0.000 C 
ENDROOT
BRANCH   1   2
ATOM      2  C   UNL     1      -6.870 -28.084  -0.262  1.00  0.00     0.000 C 
BRANCH   2   3
ATOM      3  C   UNL     1      -7.919 -26.993  -0.542  1.00  0.00     0.000 C 
BRANCH   3   4
ATOM      4  C   UNL     1      -9.333 -27.564  -0.748  1.00  0.00    -0.000 C 
BRANCH   4   5
ATOM      5  C   UNL     1     -10.070 -26.900  -1.921  1.00  0.00    -0.000 C 
BRANCH   5   6
ATOM      6  C   UNL     1      -9.149 -26.648  -3.128  1.00  0.00    -0.000 C 
BRANCH   6   7
ATOM      7  C   UNL     1      -9.196 -25.181  -3.604  1.00  0.00    -0.000 C 
BRANCH   7   8
ATOM      8  C   UNL     1      -9.133 -24.162  -2.454  1.00  0.00    -0.000 C 
BRANCH   8   9
ATOM      9  C   UNL     1      -7.696 -23.748  -2.100  1.00  0.00    -0.000 C 
BRANCH   9  10
ATOM     10  C   UNL     1      -7.618 -22.352  -1.456  1.00  0.00    -0.000 C 
BRANCH  10  11
ATOM     11  C   UNL     1      -8.828 -21.984  -0.578  1.00  0.00    -0.003 C 
ATOM     12  C   UNL     1      -9.191 -20.501  -0.652  1.00  0.00     0.004 C 
ENDBRANCH  10  11
ENDBRANCH   9  10
ENDBRANCH   8   9
ENDBRANCH   7   8
ENDBRANCH   6   7
ENDBRANCH   5   6
ENDBRANCH   4   5
ENDBRANCH   3   4
ENDBRANCH   2   3
ENDBRANCH   1   2
BRANCH   1  13
ATOM     13  C   UNL     1      -5.505 -26.636  -1.879  1.00  0.00     0.000 C 
BRANCH  13  14
ATOM     14  C   UNL     1      -5.322 -26.919  -3.379  1.00  0.00     0.000 C 
BRANCH  14  15
ATOM     15  C   UNL     1      -5.516 -28.406  -3.726  1.00  0.00     0.000 C 
BRANCH  15  16
ATOM     16  C   UNL     1      -6.824 -28.664  -4.489  1.00  0.00     0.000 C 
BRANCH  16  17
ATOM     17  C   UNL     1      -7.349 -30.097  -4.289  1.00  0.00     0.000 C 
BRANCH  17  18
ATOM     18  C   UNL     1      -7.468 -30.483  -2.805  1.00  0.00     0.000 C 
BRANCH  18  19
ATOM     19  C   UNL     1      -8.917 -30.794  -2.393  1.00  0.00     0.000 C 
BRANCH  19  20
ATOM     20  C   UNL     1      -9.024 -31.386  -0.974  1.00  0.00     0.006 C 
BRANCH  20  21
ATOM     21  C   UNL     1      -7.664 -31.628  -0.295  1.00  0.00     0.053 C 
BRANCH  21  22
ATOM     22  C   UNL     1      -7.655 -32.865   0.551  1.00  0.00     0.041 C 
ATOM     23  O   UNL     1      -7.067 -32.867   1.664  1.00  0.00    -0.550 OA
ATOM     24  O   UNL     1      -8.282 -34.021   0.102  1.00  0.00    -0.550 OA
ENDBRANCH  21  22
ENDBRANCH  20  21
ENDBRANCH  19  20
ENDBRANCH  18  19
ENDBRANCH  17  18
ENDBRANCH  16  17
ENDBRANCH  15  16
ENDBRANCH  14  15
ENDBRANCH  13  14
ENDBRANCH   1  13
TORSDOF 20
ENDMDL
MODEL 2
REMARK VINA RESULT:    -4.272     12.875     15.962
REMARK INTER + INTRA:         -12.742
REMARK INTER:                  -9.470
REMARK INTRA:                  -3.272
REMARK UNBOUND:                -3.474
REMARK SMILES CCCCCCCCCCCCCCCCCCCCCC(=O)[O-]
REMARK SMILES IDX 12 1 11 2 10 3 9 4 8 5 7 6 6 7 5 8 4 9 3 10 2 11 1 12 13 13
REMARK SMILES IDX 14 14 15 15 16 16 17 17 18 18 19 19 20 20 21 21 22 22 23 23
REMARK SMILES IDX 24 24
REMARK H PARENT
REMARK Flexibility Score: inf
ROOT
ATOM      1  C   UNL     1       0.118 -21.573  -5.194  1.00  0.00     0.000 C 
ENDROOT
BRANCH   1   2
ATOM      2  C   UNL     1       1.124 -22.101  -6.233  1.00  0.00     0.000 C 
BRANCH   2   3
ATOM      3  C   UNL     1       0.811 -21.711  -7.689  1.00  0.00     0.000 C 
BRANCH   3   4
ATOM      4  C   UNL     1       1.937 -20.890  -8.341  1.00  0.00    -0.000 C 
BRANCH   4   5
ATOM      5  C   UNL     1       3.215 -20.864  -7.488  1.00  0.00    -0.000 C 
BRANCH   5   6
ATOM      6  C   UNL     1       3.511 -19.466  -6.914  1.00  0.00    -0.000 C 
BRANCH   6   7
ATOM      7  C   UNL     1       4.282 -19.533  -5.580  1.00  0.00    -0.000 C 
BRANCH   7   8
ATOM      8  C   UNL     1       4.344 -20.948  -4.978  1.00  0.00    -0.000 C 
BRANCH   8   9
ATOM      9  C   UNL     1       5.783 -21.440  -4.757  1.00  0.00    -0.000 C 
BRANCH   9  10
ATOM     10  C   UNL     1       6.710 -21.124  -5.944  1.00  0.00    -0.000 C 
BRANCH  10  11
ATOM     11  C   UNL     1       6.566 -22.079  -7.143  1.00  0.00    -0.003 C 
ATOM     12  C   UNL     1       7.736 -21.991  -8.122  1.00  0.00     0.004 C 
ENDBRANCH  10  11
ENDBRANCH   9  10
ENDBRANCH   8   9
ENDBRANCH   7   8
ENDBRANCH   6   7
ENDBRANCH   5   6
ENDBRANCH   4   5
ENDBRANCH   3   4
ENDBRANCH   2   3
ENDBRANCH   1   2
BRANCH   1  13
ATOM     13  C   UNL     1       0.588 -20.275  -4.515  1.00  0.00     0.000 C 
BRANCH  13  14
ATOM     14  C   UNL     1       0.972 -20.487  -3.042  1.00  0.00     0.000 C 
BRANCH  14  15
ATOM     15  C   UNL     1       1.965 -19.427  -2.533  1.00  0.00     0.000 C 
BRANCH  15  16
ATOM     16  C   UNL     1       1.768 -18.064  -3.217  1.00  0.00     0.000 C 
BRANCH  16  17
ATOM     17  C   UNL     1       2.560 -16.940  -2.525  1.00  0.00     0.000 C 
BRANCH  17  18
ATOM     18  C   UNL     1       3.655 -17.476  -1.588  1.00  0.00     0.000 C 
BRANCH  18  19
ATOM     19  C   UNL     1       5.060 -17.368  -2.204  1.00  0.00     0.000 C 
BRANCH  19  20
ATOM     20  C   UNL     1       5.801 -18.719  -2.249  1.00  0.00     0.006 C 
BRANCH  20  21
ATOM     21  C   UNL     1       7.317 -18.608  -2.011  1.00  0.00     0.053 C 
BRANCH  21  22
ATOM     22  C   UNL     1       7.676 -18.637  -0.556  1.00  0.00     0.041 C 
ATOM     23  O   UNL     1       7.777 -17.563   0.093  1.00  0.00    -0.550 OA
ATOM     24  O   UNL     1       7.913 -19.850   0.079  1.00  0.00    -0.550 OA
ENDBRANCH  21  22
ENDBRANCH  20  21
ENDBRANCH  19  20
ENDBRANCH  18  19
ENDBRANCH  17  18
ENDBRANCH  16  17
ENDBRANCH  15  16
ENDBRANCH  14  15
ENDBRANCH  13  14
ENDBRANCH   1  13
TORSDOF 20
ENDMDL
MODEL 3
REMARK VINA RESULT:    -4.215      1.674      2.420
REMARK INTER + INTRA:         -12.617
REMARK INTER:                  -8.371
REMARK INTRA:                  -4.247
REMARK UNBOUND:                -3.474
REMARK SMILES CCCCCCCCCCCCCCCCCCCCCC(=O)[O-]
REMARK SMILES IDX 12 1 11 2 10 3 9 4 8 5 7 6 6 7 5 8 4 9 3 10 2 11 1 12 13 13
REMARK SMILES IDX 14 14 15 15 16 16 17 17 18 18 19 19 20 20 21 21 22 22 23 23
REMARK SMILES IDX 24 24
REMARK H PARENT
REMARK Flexibility Score: inf
ROOT
ATOM      1  C   UNL     1      -5.680 -26.622  -2.152  1.00  0.00     0.000 C 
ENDROOT
BRANCH   1   2
ATOM      2  C   UNL     1      -5.577 -27.748  -1.106  1.00  0.00     0.000 C 
BRANCH   2   3
ATOM      3  C   UNL     1      -6.879 -28.033  -0.336  1.00  0.00     0.000 C 
BRANCH   3   4
ATOM      4  C   UNL     1      -7.979 -26.996  -0.622  1.00  0.00    -0.000 C 
BRANCH   4   5
ATOM      5  C   UNL     1      -9.380 -27.626  -0.674  1.00  0.00    -0.000 C 
BRANCH   5   6
ATOM      6  C   UNL     1     -10.098 -27.353  -2.009  1.00  0.00    -0.000 C 
BRANCH   6   7
ATOM      7  C   UNL     1      -9.115 -27.274  -3.195  1.00  0.00    -0.000 C 
BRANCH   7   8
ATOM      8  C   UNL     1      -9.258 -25.986  -4.025  1.00  0.00    -0.000 C 
BRANCH   8   9
ATOM      9  C   UNL     1      -9.642 -24.767  -3.173  1.00  0.00    -0.000 C 
BRANCH   9  10
ATOM     10  C   UNL     1      -8.417 -24.002  -2.640  1.00  0.00    -0.000 C 
BRANCH  10  11
ATOM     11  C   UNL     1      -8.628 -23.325  -1.274  1.00  0.00    -0.003 C 
ATOM     12  C   UNL     1      -9.978 -23.664  -0.642  1.00  0.00     0.004 C 
ENDBRANCH  10  11
ENDBRANCH   9  10
ENDBRANCH   8   9
ENDBRANCH   7   8
ENDBRANCH   6   7
ENDBRANCH   5   6
ENDBRANCH   4   5
ENDBRANCH   3   4
ENDBRANCH   2   3
ENDBRANCH   1   2
BRANCH   1  13
ATOM     13  C   UNL     1      -5.516 -27.131  -3.595  1.00  0.00     0.000 C 
BRANCH  13  14
ATOM     14  C   UNL     1      -5.288 -28.650  -3.661  1.00  0.00     0.000 C 
BRANCH  14  15
ATOM     15  C   UNL     1      -6.542 -29.415  -4.119  1.00  0.00     0.000 C 
BRANCH  15  16
ATOM     16  C   UNL     1      -6.928 -30.541  -3.148  1.00  0.00     0.000 C 
BRANCH  16  17
ATOM     17  C   UNL     1      -8.453 -30.724  -3.037  1.00  0.00     0.000 C 
BRANCH  17  18
ATOM     18  C   UNL     1      -8.910 -31.034  -1.602  1.00  0.00     0.000 C 
BRANCH  18  19
ATOM     19  C   UNL     1      -7.735 -31.391  -0.675  1.00  0.00     0.000 C 
BRANCH  19  20
ATOM     20  C   UNL     1      -8.187 -31.775   0.747  1.00  0.00     0.006 C 
BRANCH  20  21
ATOM     21  C   UNL     1      -8.624 -30.577   1.608  1.00  0.00     0.053 C 
BRANCH  21  22
ATOM     22  C   UNL     1     -10.036 -30.701   2.093  1.00  0.00     0.041 C 
ATOM     23  O   UNL     1     -10.978 -30.173   1.445  1.00  0.00    -0.550 OA
ATOM     24  O   UNL     1     -10.311 -31.386   3.271  1.00  0.00    -0.550 OA
ENDBRANCH  21  22
ENDBRANCH  20  21
ENDBRANCH  19  20
ENDBRANCH  18  19
ENDBRANCH  17  18
ENDBRANCH  16  17
ENDBRANCH  15  16
ENDBRANCH  14  15
ENDBRANCH  13  14
ENDBRANCH   1  13
TORSDOF 20
ENDMDL
MODEL 4
REMARK VINA RESULT:    -4.207     13.036     16.211
REMARK INTER + INTRA:         -12.600
REMARK INTER:                  -9.212
REMARK INTRA:                  -3.388
REMARK UNBOUND:                -3.474
REMARK SMILES CCCCCCCCCCCCCCCCCCCCCC(=O)[O-]
REMARK SMILES IDX 12 1 11 2 10 3 9 4 8 5 7 6 6 7 5 8 4 9 3 10 2 11 1 12 13 13
REMARK SMILES IDX 14 14 15 15 16 16 17 17 18 18 19 19 20 20 21 21 22 22 23 23
REMARK SMILES IDX 24 24
REMARK H PARENT
REMARK Flexibility Score: inf
ROOT
ATOM      1  C   UNL     1       0.723 -22.311  -6.405  1.00  0.00     0.000 C 
ENDROOT
BRANCH   1   2
ATOM      2  C   UNL     1       1.206 -22.080  -7.849  1.00  0.00     0.000 C 
BRANCH   2   3
ATOM      3  C   UNL     1       1.635 -20.635  -8.162  1.00  0.00     0.000 C 
BRANCH   3   4
ATOM      4  C   UNL     1       3.130 -20.387  -7.899  1.00  0.00    -0.000 C 
BRANCH   4   5
ATOM      5  C   UNL     1       3.368 -19.280  -6.859  1.00  0.00    -0.000 C 
BRANCH   5   6
ATOM      6  C   UNL     1       4.009 -19.816  -5.566  1.00  0.00    -0.000 C 
BRANCH   6   7
ATOM      7  C   UNL     1       4.275 -21.334  -5.631  1.00  0.00    -0.000 C 
BRANCH   7   8
ATOM      8  C   UNL     1       5.768 -21.692  -5.728  1.00  0.00    -0.000 C 
BRANCH   8   9
ATOM      9  C   UNL     1       6.187 -22.129  -7.139  1.00  0.00    -0.000 C 
BRANCH   9  10
ATOM     10  C   UNL     1       7.359 -21.301  -7.697  1.00  0.00    -0.000 C 
BRANCH  10  11
ATOM     11  C   UNL     1       7.140 -19.777  -7.662  1.00  0.00    -0.003 C 
ATOM     12  C   UNL     1       6.504 -19.236  -8.943  1.00  0.00     0.004 C 
ENDBRANCH  10  11
ENDBRANCH   9  10
ENDBRANCH   8   9
ENDBRANCH   7   8
ENDBRANCH   6   7
ENDBRANCH   5   6
ENDBRANCH   4   5
ENDBRANCH   3   4
ENDBRANCH   2   3
ENDBRANCH   1   2
BRANCH   1  13
ATOM     13  C   UNL     1       0.445 -20.998  -5.652  1.00  0.00     0.000 C 
BRANCH  13  14
ATOM     14  C   UNL     1       0.460 -21.180  -4.126  1.00  0.00     0.000 C 
BRANCH  14  15
ATOM     15  C   UNL     1       0.143 -19.876  -3.373  1.00  0.00     0.000 C 
BRANCH  15  16
ATOM     16  C   UNL     1       1.332 -18.903  -3.362  1.00  0.00     0.000 C 
BRANCH  16  17
ATOM     17  C   UNL     1       2.400 -19.292  -2.325  1.00  0.00     0.000 C 
BRANCH  17  18
ATOM     18  C   UNL     1       3.227 -18.087  -1.844  1.00  0.00     0.000 C 
BRANCH  18  19
ATOM     19  C   UNL     1       4.712 -18.204  -2.227  1.00  0.00     0.000 C 
BRANCH  19  20
ATOM     20  C   UNL     1       5.166 -17.107  -3.211  1.00  0.00     0.006 C 
BRANCH  20  21
ATOM     21  C   UNL     1       4.006 -16.341  -3.871  1.00  0.00     0.053 C 
BRANCH  21  22
ATOM     22  C   UNL     1       3.961 -14.901  -3.462  1.00  0.00     0.041 C 
ATOM     23  O   UNL     1       3.545 -14.027  -4.267  1.00  0.00    -0.550 OA
ATOM     24  O   UNL     1       4.391 -14.521  -2.197  1.00  0.00    -0.550 OA
ENDBRANCH  21  22
ENDBRANCH  20  21
ENDBRANCH  19  20
ENDBRANCH  18  19
ENDBRANCH  17  18
ENDBRANCH  16  17
ENDBRANCH  15  16
ENDBRANCH  14  15
ENDBRANCH  13  14
ENDBRANCH   1  13
TORSDOF 20
ENDMDL
MODEL 5
REMARK VINA RESULT:    -4.198      4.509      9.221
REMARK INTER + INTRA:         -12.582
REMARK INTER:                 -10.325
REMARK INTRA:                  -2.257
REMARK UNBOUND:                -3.474
REMARK SMILES CCCCCCCCCCCCCCCCCCCCCC(=O)[O-]
REMARK SMILES IDX 12 1 11 2 10 3 9 4 8 5 7 6 6 7 5 8 4 9 3 10 2 11 1 12 13 13
REMARK SMILES IDX 14 14 15 15 16 16 17 17 18 18 19 19 20 20 21 21 22 22 23 23
REMARK SMILES IDX 24 24
REMARK H PARENT
REMARK Flexibility Score: inf
ROOT
ATOM      1  C   UNL     1      -7.511 -23.156  -1.904  1.00  0.00     0.000 C 
ENDROOT
BRANCH   1   2
ATOM      2  C   UNL     1      -8.619 -23.959  -2.610  1.00  0.00     0.000 C 
BRANCH   2   3
ATOM      3  C   UNL     1      -8.508 -25.486  -2.453  1.00  0.00     0.000 C 
BRANCH   3   4
ATOM      4  C   UNL     1      -7.520 -25.901  -1.348  1.00  0.00    -0.000 C 
BRANCH   4   5
ATOM      5  C   UNL     1      -7.983 -27.152  -0.585  1.00  0.00    -0.000 C 
BRANCH   5   6
ATOM      6  C   UNL     1      -6.893 -28.237  -0.519  1.00  0.00    -0.000 C 
BRANCH   6   7
ATOM      7  C   UNL     1      -5.571 -27.778  -1.168  1.00  0.00    -0.000 C 
BRANCH   7   8
ATOM      8  C   UNL     1      -5.218 -28.549  -2.452  1.00  0.00    -0.000 C 
BRANCH   8   9
ATOM      9  C   UNL     1      -5.712 -27.846  -3.725  1.00  0.00    -0.000 C 
BRANCH   9  10
ATOM     10  C   UNL     1      -7.011 -28.459  -4.279  1.00  0.00    -0.000 C 
BRANCH  10  11
ATOM     11  C   UNL     1      -7.127 -29.984  -4.101  1.00  0.00    -0.003 C 
ATOM     12  C   UNL     1      -8.288 -30.394  -3.196  1.00  0.00     0.004 C 
ENDBRANCH  10  11
ENDBRANCH   9  10
ENDBRANCH   8   9
ENDBRANCH   7   8
ENDBRANCH   6   7
ENDBRANCH   5   6
ENDBRANCH   4   5
ENDBRANCH   3   4
ENDBRANCH   2   3
ENDBRANCH   1   2
BRANCH   1  13
ATOM     13  C   UNL     1      -8.062 -21.988  -1.067  1.00  0.00     0.000 C 
BRANCH  13  14
ATOM     14  C   UNL     1      -9.336 -22.367  -0.295  1.00  0.00     0.000 C 
BRANCH  14  15
ATOM     15  C   UNL     1     -10.172 -21.138   0.102  1.00  0.00     0.000 C 
BRANCH  15  16
ATOM     16  C   UNL     1      -9.588 -19.828  -0.452  1.00  0.00     0.000 C 
BRANCH  16  17
ATOM     17  C   UNL     1      -9.606 -18.692   0.586  1.00  0.00     0.000 C 
BRANCH  17  18
ATOM     18  C   UNL     1     -10.190 -19.132   1.939  1.00  0.00     0.000 C 
BRANCH  18  19
ATOM     19  C   UNL     1      -9.207 -18.914   3.102  1.00  0.00     0.000 C 
BRANCH  19  20
ATOM     20  C   UNL     1      -8.515 -20.214   3.556  1.00  0.00     0.006 C 
BRANCH  20  21
ATOM     21  C   UNL     1      -7.162 -19.990   4.254  1.00  0.00     0.053 C 
BRANCH  21  22
ATOM     22  C   UNL     1      -7.208 -20.311   5.716  1.00  0.00     0.041 C 
ATOM     23  O   UNL     1      -6.156 -20.268   6.407  1.00  0.00    -0.550 OA
ATOM     24  O   UNL     1      -8.409 -20.673   6.314  1.00  0.00    -0.550 OA
ENDBRANCH  21  22
ENDBRANCH  20  21
ENDBRANCH  19  20
ENDBRANCH  18  19
ENDBRANCH  17  18
ENDBRANCH  16  17
ENDBRANCH  15  16
ENDBRANCH  14  15
ENDBRANCH  13  14
ENDBRANCH   1  13
TORSDOF 20
ENDMDL
MODEL 6
REMARK VINA RESULT:    -4.185     12.530     14.989
REMARK INTER + INTRA:         -12.553
REMARK INTER:                  -9.145
REMARK INTRA:                  -3.408
REMARK UNBOUND:                -3.474
REMARK SMILES CCCCCCCCCCCCCCCCCCCCCC(=O)[O-]
REMARK SMILES IDX 12 1 11 2 10 3 9 4 8 5 7 6 6 7 5 8 4 9 3 10 2 11 1 12 13 13
REMARK SMILES IDX 14 14 15 15 16 16 17 17 18 18 19 19 20 20 21 21 22 22 23 23
REMARK SMILES IDX 24 24
REMARK H PARENT
REMARK Flexibility Score: inf
ROOT
ATOM      1  C   UNL     1       0.336 -21.837  -5.273  1.00  0.00     0.000 C 
ENDROOT
BRANCH   1   2
ATOM      2  C   UNL     1       0.800 -20.425  -4.871  1.00  0.00     0.000 C 
BRANCH   2   3
ATOM      3  C   UNL     1       0.636 -20.094  -3.377  1.00  0.00     0.000 C 
BRANCH   3   4
ATOM      4  C   UNL     1       1.979 -20.021  -2.631  1.00  0.00    -0.000 C 
BRANCH   4   5
ATOM      5  C   UNL     1       3.180 -20.273  -3.557  1.00  0.00    -0.000 C 
BRANCH   5   6
ATOM      6  C   UNL     1       4.105 -19.047  -3.667  1.00  0.00    -0.000 C 
BRANCH   6   7
ATOM      7  C   UNL     1       3.663 -18.080  -4.785  1.00  0.00    -0.000 C 
BRANCH   7   8
ATOM      8  C   UNL     1       3.255 -16.690  -4.268  1.00  0.00    -0.000 C 
BRANCH   8   9
ATOM      9  C   UNL     1       1.740 -16.556  -4.049  1.00  0.00    -0.000 C 
BRANCH   9  10
ATOM     10  C   UNL     1       1.377 -16.197  -2.597  1.00  0.00    -0.000 C 
BRANCH  10  11
ATOM     11  C   UNL     1       2.475 -16.514  -1.565  1.00  0.00    -0.003 C 
ATOM     12  C   UNL     1       2.856 -15.306  -0.709  1.00  0.00     0.004 C 
ENDBRANCH  10  11
ENDBRANCH   9  10
ENDBRANCH   8   9
ENDBRANCH   7   8
ENDBRANCH   6   7
ENDBRANCH   5   6
ENDBRANCH   4   5
ENDBRANCH   3   4
ENDBRANCH   2   3
ENDBRANCH   1   2
BRANCH   1  13
ATOM     13  C   UNL     1      -0.031 -21.943  -6.764  1.00  0.00     0.000 C 
BRANCH  13  14
ATOM     14  C   UNL     1       1.192 -22.215  -7.653  1.00  0.00     0.000 C 
BRANCH  14  15
ATOM     15  C   UNL     1       1.588 -20.993  -8.501  1.00  0.00     0.000 C 
BRANCH  15  16
ATOM     16  C   UNL     1       2.763 -20.213  -7.890  1.00  0.00     0.000 C 
BRANCH  16  17
ATOM     17  C   UNL     1       3.715 -21.117  -7.087  1.00  0.00     0.000 C 
BRANCH  17  18
ATOM     18  C   UNL     1       5.177 -20.645  -7.152  1.00  0.00     0.000 C 
BRANCH  18  19
ATOM     19  C   UNL     1       6.168 -21.744  -6.731  1.00  0.00     0.000 C 
BRANCH  19  20
ATOM     20  C   UNL     1       7.373 -21.195  -5.941  1.00  0.00     0.006 C 
BRANCH  20  21
ATOM     21  C   UNL     1       7.153 -21.152  -4.419  1.00  0.00     0.053 C 
BRANCH  21  22
ATOM     22  C   UNL     1       7.595 -19.857  -3.809  1.00  0.00     0.041 C 
ATOM     23  O   UNL     1       7.787 -18.848  -4.535  1.00  0.00    -0.550 OA
ATOM     24  O   UNL     1       7.810 -19.770  -2.438  1.00  0.00    -0.550 OA
ENDBRANCH  21  22
ENDBRANCH  20  21
ENDBRANCH  19  20
ENDBRANCH  18  19
ENDBRANCH  17  18
ENDBRANCH  16  17
ENDBRANCH  15  16
ENDBRANCH  14  15
ENDBRANCH  13  14
ENDBRANCH   1  13
TORSDOF 20
ENDMDL
MODEL 7
REMARK VINA RESULT:    -4.182     13.095     15.565
REMARK INTER + INTRA:         -12.546
REMARK INTER:                  -8.800
REMARK INTRA:                  -3.745
REMARK UNBOUND:                -3.474
REMARK SMILES CCCCCCCCCCCCCCCCCCCCCC(=O)[O-]
REMARK SMILES IDX 12 1 11 2 10 3 9 4 8 5 7 6 6 7 5 8 4 9 3 10 2 11 1 12 13 13
REMARK SMILES IDX 14 14 15 15 16 16 17 17 18 18 19 19 20 20 21 21 22 22 23 23
REMARK SMILES IDX 24 24
REMARK H PARENT
REMARK Flexibility Score: inf
ROOT
ATOM      1  C   UNL     1       2.084 -20.241  -2.543  1.00  0.00     0.000 C 
ENDROOT
BRANCH   1   2
ATOM      2  C   UNL     1       3.307 -20.181  -3.477  1.00  0.00     0.000 C 
BRANCH   2   3
ATOM      3  C   UNL     1       4.455 -19.286  -2.978  1.00  0.00     0.000 C 
BRANCH   3   4
ATOM      4  C   UNL     1       4.882 -18.232  -4.014  1.00  0.00    -0.000 C 
BRANCH   4   5
ATOM      5  C   UNL     1       3.755 -17.887  -5.000  1.00  0.00    -0.000 C 
BRANCH   5   6
ATOM      6  C   UNL     1       3.165 -16.487  -4.753  1.00  0.00    -0.000 C 
BRANCH   6   7
ATOM      7  C   UNL     1       1.841 -16.542  -3.962  1.00  0.00    -0.000 C 
BRANCH   7   8
ATOM      8  C   UNL     1       1.884 -15.756  -2.640  1.00  0.00    -0.000 C 
BRANCH   8   9
ATOM      9  C   UNL     1       2.420 -16.590  -1.467  1.00  0.00    -0.000 C 
BRANCH   9  10
ATOM     10  C   UNL     1       3.845 -16.183  -1.049  1.00  0.00    -0.000 C 
BRANCH  10  11
ATOM     11  C   UNL     1       3.944 -14.809  -0.362  1.00  0.00    -0.003 C 
ATOM     12  C   UNL     1       5.378 -14.426   0.003  1.00  0.00     0.004 C 
ENDBRANCH  10  11
ENDBRANCH   9  10
ENDBRANCH   8   9
ENDBRANCH   7   8
ENDBRANCH   6   7
ENDBRANCH   5   6
ENDBRANCH   4   5
ENDBRANCH   3   4
ENDBRANCH   2   3
ENDBRANCH   1   2
BRANCH   1  13
ATOM     13  C   UNL     1       0.755 -20.014  -3.285  1.00  0.00     0.000 C 
BRANCH  13  14
ATOM     14  C   UNL     1       0.916 -20.074  -4.812  1.00  0.00     0.000 C 
BRANCH  14  15
ATOM     15  C   UNL     1       0.498 -21.436  -5.395  1.00  0.00     0.000 C 
BRANCH  15  16
ATOM     16  C   UNL     1       1.308 -21.811  -6.646  1.00  0.00     0.000 C 
BRANCH  16  17
ATOM     17  C   UNL     1       1.597 -20.595  -7.545  1.00  0.00     0.000 C 
BRANCH  17  18
ATOM     18  C   UNL     1       3.102 -20.333  -7.724  1.00  0.00     0.000 C 
BRANCH  18  19
ATOM     19  C   UNL     1       3.970 -21.347  -6.958  1.00  0.00     0.000 C 
BRANCH  19  20
ATOM     20  C   UNL     1       5.393 -20.827  -6.677  1.00  0.00     0.006 C 
BRANCH  20  21
ATOM     21  C   UNL     1       5.894 -19.793  -7.700  1.00  0.00     0.053 C 
BRANCH  21  22
ATOM     22  C   UNL     1       7.264 -20.109  -8.216  1.00  0.00     0.041 C 
ATOM     23  O   UNL     1       7.601 -21.303  -8.429  1.00  0.00    -0.550 OA
ATOM     24  O   UNL     1       8.175 -19.085  -8.447  1.00  0.00    -0.550 OA
ENDBRANCH  21  22
ENDBRANCH  20  21
ENDBRANCH  19  20
ENDBRANCH  18  19
ENDBRANCH  17  18
ENDBRANCH  16  17
ENDBRANCH  15  16
ENDBRANCH  14  15
ENDBRANCH  13  14
ENDBRANCH   1  13
TORSDOF 20
ENDMDL
MODEL 8
REMARK VINA RESULT:    -4.174     13.376     15.963
REMARK INTER + INTRA:         -12.528
REMARK INTER:                  -8.985
REMARK INTRA:                  -3.544
REMARK UNBOUND:                -3.474
REMARK SMILES CCCCCCCCCCCCCCCCCCCCCC(=O)[O-]
REMARK SMILES IDX 12 1 11 2 10 3 9 4 8 5 7 6 6 7 5 8 4 9 3 10 2 11 1 12 13 13
REMARK SMILES IDX 14 14 15 15 16 16 17 17 18 18 19 19 20 20 21 21 22 22 23 23
REMARK SMILES IDX 24 24
REMARK H PARENT
REMARK Flexibility Score: inf
ROOT
ATOM      1  C   UNL     1       4.238 -21.127  -6.670  1.00  0.00     0.000 C 
ENDROOT
BRANCH   1   2
ATOM      2  C   UNL     1       3.297 -20.141  -7.386  1.00  0.00     0.000 C 
BRANCH   2   3
ATOM      3  C   UNL     1       2.445 -20.762  -8.507  1.00  0.00     0.000 C 
BRANCH   3   4
ATOM      4  C   UNL     1       0.999 -21.049  -8.068  1.00  0.00    -0.000 C 
BRANCH   4   5
ATOM      5  C   UNL     1       0.828 -22.466  -7.498  1.00  0.00    -0.000 C 
BRANCH   5   6
ATOM      6  C   UNL     1       0.412 -22.457  -6.016  1.00  0.00    -0.000 C 
BRANCH   6   7
ATOM      7  C   UNL     1       0.348 -21.030  -5.435  1.00  0.00    -0.000 C 
BRANCH   7   8
ATOM      8  C   UNL     1       0.416 -20.989  -3.898  1.00  0.00    -0.000 C 
BRANCH   8   9
ATOM      9  C   UNL     1       0.299 -19.566  -3.332  1.00  0.00    -0.000 C 
BRANCH   9  10
ATOM     10  C   UNL     1       1.339 -18.600  -3.929  1.00  0.00    -0.000 C 
BRANCH  10  11
ATOM     11  C   UNL     1       2.579 -18.369  -3.046  1.00  0.00    -0.003 C 
ATOM     12  C   UNL     1       3.611 -17.446  -3.695  1.00  0.00     0.004 C 
ENDBRANCH  10  11
ENDBRANCH   9  10
ENDBRANCH   8   9
ENDBRANCH   7   8
ENDBRANCH   6   7
ENDBRANCH   5   6
ENDBRANCH   4   5
ENDBRANCH   3   4
ENDBRANCH   2   3
ENDBRANCH   1   2
BRANCH   1  13
ATOM     13  C   UNL     1       4.014 -21.168  -5.148  1.00  0.00     0.000 C 
BRANCH  13  14
ATOM     14  C   UNL     1       5.247 -20.701  -4.359  1.00  0.00     0.000 C 
BRANCH  14  15
ATOM     15  C   UNL     1       6.539 -21.400  -4.816  1.00  0.00     0.000 C 
BRANCH  15  16
ATOM     16  C   UNL     1       7.725 -20.429  -4.921  1.00  0.00     0.000 C 
BRANCH  16  17
ATOM     17  C   UNL     1       8.514 -20.604  -6.231  1.00  0.00     0.000 C 
BRANCH  17  18
ATOM     18  C   UNL     1       7.931 -21.704  -7.133  1.00  0.00     0.000 C 
BRANCH  18  19
ATOM     19  C   UNL     1       7.562 -21.182  -8.532  1.00  0.00     0.000 C 
BRANCH  19  20
ATOM     20  C   UNL     1       7.736 -19.657  -8.670  1.00  0.00     0.006 C 
BRANCH  20  21
ATOM     21  C   UNL     1       6.410 -18.876  -8.674  1.00  0.00     0.053 C 
BRANCH  21  22
ATOM     22  C   UNL     1       6.406 -17.742  -7.695  1.00  0.00     0.041 C 
ATOM     23  O   UNL     1       6.995 -16.665  -7.970  1.00  0.00    -0.550 OA
ATOM     24  O   UNL     1       5.763 -17.881  -6.471  1.00  0.00    -0.550 OA
ENDBRANCH  21  22
ENDBRANCH  20  21
ENDBRANCH  19  20
ENDBRANCH  18  19
ENDBRANCH  17  18
ENDBRANCH  16  17
ENDBRANCH  15  16
ENDBRANCH  14  15
ENDBRANCH  13  14
ENDBRANCH   1  13
TORSDOF 20
ENDMDL
MODEL 9
REMARK VINA RESULT:    -4.044     13.205     16.060
REMARK INTER + INTRA:         -12.247
REMARK INTER:                  -8.326
REMARK INTRA:                  -3.921
REMARK UNBOUND:                -3.474
REMARK SMILES CCCCCCCCCCCCCCCCCCCCCC(=O)[O-]
REMARK SMILES IDX 12 1 11 2 10 3 9 4 8 5 7 6 6 7 5 8 4 9 3 10 2 11 1 12 13 13
REMARK SMILES IDX 14 14 15 15 16 16 17 17 18 18 19 19 20 20 21 21 22 22 23 23
REMARK SMILES IDX 24 24
REMARK H PARENT
REMARK Flexibility Score: inf
ROOT
ATOM      1  C   UNL     1       2.818 -20.638  -8.264  1.00  0.00     0.000 C 
ENDROOT
BRANCH   1   2
ATOM      2  C   UNL     1       3.692 -20.259  -7.055  1.00  0.00     0.000 C 
BRANCH   2   3
ATOM      3  C   UNL     1       4.583 -21.395  -6.522  1.00  0.00     0.000 C 
BRANCH   3   4
ATOM      4  C   UNL     1       5.398 -20.984  -5.284  1.00  0.00    -0.000 C 
BRANCH   4   5
ATOM      5  C   UNL     1       6.913 -21.109  -5.509  1.00  0.00    -0.000 C 
BRANCH   5   6
ATOM      6  C   UNL     1       7.263 -21.480  -6.962  1.00  0.00    -0.000 C 
BRANCH   6   7
ATOM      7  C   UNL     1       7.988 -20.335  -7.699  1.00  0.00    -0.000 C 
BRANCH   7   8
ATOM      8  C   UNL     1       7.307 -19.926  -9.016  1.00  0.00    -0.000 C 
BRANCH   8   9
ATOM      9  C   UNL     1       6.435 -18.669  -8.873  1.00  0.00    -0.000 C 
BRANCH   9  10
ATOM     10  C   UNL     1       6.890 -17.756  -7.720  1.00  0.00    -0.000 C 
BRANCH  10  11
ATOM     11  C   UNL     1       5.807 -17.467  -6.665  1.00  0.00    -0.003 C 
ATOM     12  C   UNL     1       6.367 -17.367  -5.246  1.00  0.00     0.004 C 
ENDBRANCH  10  11
ENDBRANCH   9  10
ENDBRANCH   8   9
ENDBRANCH   7   8
ENDBRANCH   6   7
ENDBRANCH   5   6
ENDBRANCH   4   5
ENDBRANCH   3   4
ENDBRANCH   2   3
ENDBRANCH   1   2
BRANCH   1  13
ATOM     13  C   UNL     1       1.322 -20.729  -7.915  1.00  0.00     0.000 C 
BRANCH  13  14
ATOM     14  C   UNL     1       0.892 -22.155  -7.536  1.00  0.00     0.000 C 
BRANCH  14  15
ATOM     15  C   UNL     1       0.472 -22.271  -6.060  1.00  0.00     0.000 C 
BRANCH  15  16
ATOM     16  C   UNL     1       0.447 -20.909  -5.349  1.00  0.00     0.000 C 
BRANCH  16  17
ATOM     17  C   UNL     1       1.586 -20.759  -4.325  1.00  0.00     0.000 C 
BRANCH  17  18
ATOM     18  C   UNL     1       1.165 -19.958  -3.082  1.00  0.00     0.000 C 
BRANCH  18  19
ATOM     19  C   UNL     1       2.285 -19.036  -2.570  1.00  0.00     0.000 C 
BRANCH  19  20
ATOM     20  C   UNL     1       3.122 -18.419  -3.707  1.00  0.00     0.006 C 
BRANCH  20  21
ATOM     21  C   UNL     1       2.831 -16.930  -3.959  1.00  0.00     0.053 C 
BRANCH  21  22
ATOM     22  C   UNL     1       1.975 -16.706  -5.169  1.00  0.00     0.041 C 
ATOM     23  O   UNL     1       1.767 -17.646  -5.980  1.00  0.00    -0.550 OA
ATOM     24  O   UNL     1       1.420 -15.455  -5.408  1.00  0.00    -0.550 OA
ENDBRANCH  21  22
ENDBRANCH  20  21
ENDBRANCH  19  20
ENDBRANCH  18  19
ENDBRANCH  17  18
ENDBRANCH  16  17
ENDBRANCH  15  16
ENDBRANCH  14  15
ENDBRANCH  13  14
ENDBRANCH   1  13
TORSDOF 20
ENDMDL
