MODEL 1
REMARK VINA RESULT:    -4.043      0.000      0.000
REMARK INTER + INTRA:         -13.398
REMARK INTER:                 -10.662
REMARK INTRA:                  -2.736
REMARK UNBOUND:                -2.736
REMARK SMILES CCCCCCCCCCCCCCCCCCCCCCCCCCCCCC(=O)[O-]
REMARK SMILES IDX 16 1 17 2 18 3 19 4 20 5 21 6 22 7 23 8 24 9 25 10 26 11
REMARK SMILES IDX 27 12 28 13 29 14 30 15 31 16 32 17 15 18 14 19 13 20 12 21
REMARK SMILES IDX 11 22 10 23 9 24 8 25 7 26 6 27 5 28 4 29 3 30 2 31 1 32
REMARK H PARENT
REMARK Flexibility Score: inf
ROOT
ATOM      1  C   UNL     1       3.539   9.611  12.887  1.00  0.00     0.000 C 
ENDROOT
BRANCH   1   2
ATOM      2  C   UNL     1       2.142   9.392  12.281  1.00  0.00     0.000 C 
BRANCH   2   3
ATOM      3  C   UNL     1       2.138   8.650  10.927  1.00  0.00     0.000 C 
BRANCH   3   4
ATOM      4  C   UNL     1       2.020   7.111  11.011  1.00  0.00     0.000 C 
BRANCH   4   5
ATOM      5  C   UNL     1       3.343   6.339  11.204  1.00  0.00     0.000 C 
BRANCH   5   6
ATOM      6  C   UNL     1       4.623   7.186  11.088  1.00  0.00     0.000 C 
BRANCH   6   7
ATOM      7  C   UNL     1       5.084   7.374   9.634  1.00  0.00     0.000 C 
BRANCH   7   8
ATOM      8  C   UNL     1       4.649   8.729   9.044  1.00  0.00     0.000 C 
BRANCH   8   9
ATOM      9  C   UNL     1       5.789   9.766   8.963  1.00  0.00     0.000 C 
BRANCH   9  10
ATOM     10  C   UNL     1       6.347  10.125  10.352  1.00  0.00     0.000 C 
BRANCH  10  11
ATOM     11  C   UNL     1       7.867   9.915  10.453  1.00  0.00     0.000 C 
BRANCH  11  12
ATOM     12  C   UNL     1       8.276   8.452  10.209  1.00  0.00     0.000 C 
BRANCH  12  13
ATOM     13  C   UNL     1       8.262   7.605  11.495  1.00  0.00     0.006 C 
BRANCH  13  14
ATOM     14  C   UNL     1       9.001   6.262  11.383  1.00  0.00     0.053 C 
BRANCH  14  15
ATOM     15  C   UNL     1       9.082   5.780   9.966  1.00  0.00     0.041 C 
ATOM     16  O   UNL     1      10.145   5.928   9.306  1.00  0.00    -0.550 OA
ATOM     17  O   UNL     1       7.986   5.162   9.376  1.00  0.00    -0.550 OA
ENDBRANCH  14  15
ENDBRANCH  13  14
ENDBRANCH  12  13
ENDBRANCH  11  12
ENDBRANCH  10  11
ENDBRANCH   9  10
ENDBRANCH   8   9
ENDBRANCH   7   8
ENDBRANCH   6   7
ENDBRANCH   5   6
ENDBRANCH   4   5
ENDBRANCH   3   4
ENDBRANCH   2   3
ENDBRANCH   1   2
BRANCH   1  18
ATOM     18  C   UNL     1       3.493  10.103  14.343  1.00  0.00     0.000 C 
BRANCH  18  19
ATOM     19  C   UNL     1       3.251   8.976  15.367  1.00  0.00     0.000 C 
BRANCH  19  20
ATOM     20  C   UNL     1       1.904   9.040  16.113  1.00  0.00     0.000 C 
BRANCH  20  21
ATOM     21  C   UNL     1       1.983   9.806  17.445  1.00  0.00     0.000 C 
BRANCH  21  22
ATOM     22  C   UNL     1       2.602   8.972  18.581  1.00  0.00     0.000 C 
BRANCH  22  23
ATOM     23  C   UNL     1       2.237   7.475  18.562  1.00  0.00     0.000 C 
BRANCH  23  24
ATOM     24  C   UNL     1       3.381   6.566  19.052  1.00  0.00    -0.000 C 
BRANCH  24  25
ATOM     25  C   UNL     1       3.951   5.676  17.927  1.00  0.00    -0.000 C 
BRANCH  25  26
ATOM     26  C   UNL     1       4.483   6.463  16.712  1.00  0.00    -0.000 C 
BRANCH  26  27
ATOM     27  C   UNL     1       5.171   5.608  15.633  1.00  0.00    -0.000 C 
BRANCH  27  28
ATOM     28  C   UNL     1       5.473   6.396  14.350  1.00  0.00    -0.000 C 
BRANCH  28  29
ATOM     29  C   UNL     1       6.927   6.889  14.339  1.00  0.00    -0.000 C 
BRANCH  29  30
ATOM     30  C   UNL     1       7.862   5.989  15.162  1.00  0.00    -0.000 C 
BRANCH  30  31
ATOM     31  C   UNL     1       8.321   4.745  14.386  1.00  0.00    -0.003 C 
ATOM     32  C   UNL     1       9.754   4.366  14.748  1.00  0.00     0.004 C 
ENDBRANCH  30  31
ENDBRANCH  29  30
ENDBRANCH  28  29
ENDBRANCH  27  28
ENDBRANCH  26  27
ENDBRANCH  25  26
ENDBRANCH  24  25
ENDBRANCH  23  24
ENDBRANCH  22  23
ENDBRANCH  21  22
ENDBRANCH  20  21
ENDBRANCH  19  20
ENDBRANCH  18  19
ENDBRANCH   1  18
TORSDOF 28
ENDMDL
MODEL 2
REMARK VINA RESULT:    -3.702      2.682      6.303
REMARK INTER + INTRA:         -12.496
REMARK INTER:                  -9.230
REMARK INTRA:                  -3.266
REMARK UNBOUND:                -2.736
REMARK SMILES CCCCCCCCCCCCCCCCCCCCCCCCCCCCCC(=O)[O-]
REMARK SMILES IDX 16 1 17 2 18 3 19 4 20 5 21 6 22 7 23 8 24 9 25 10 26 11
REMARK SMILES IDX 27 12 28 13 29 14 30 15 31 16 32 17 15 18 14 19 13 20 12 21
REMARK SMILES IDX 11 22 10 23 9 24 8 25 7 26 6 27 5 28 4 29 3 30 2 31 1 32
REMARK H PARENT
REMARK Flexibility Score: inf
ROOT
ATOM      1  C   UNL     1       2.063   8.006  17.077  1.00  0.00     0.000 C 
ENDROOT
BRANCH   1   2
ATOM      2  C   UNL     1       2.014   6.860  18.102  1.00  0.00     0.000 C 
BRANCH   2   3
ATOM      3  C   UNL     1       3.395   6.389  18.608  1.00  0.00     0.000 C 
BRANCH   3   4
ATOM      4  C   UNL     1       4.011   5.195  17.845  1.00  0.00     0.000 C 
BRANCH   4   5
ATOM      5  C   UNL     1       4.190   5.381  16.323  1.00  0.00     0.000 C 
BRANCH   5   6
ATOM      6  C   UNL     1       5.278   6.387  15.905  1.00  0.00     0.000 C 
BRANCH   6   7
ATOM      7  C   UNL     1       5.590   6.338  14.402  1.00  0.00     0.000 C 
BRANCH   7   8
ATOM      8  C   UNL     1       7.100   6.419  14.106  1.00  0.00     0.000 C 
BRANCH   8   9
ATOM      9  C   UNL     1       7.985   5.850  15.235  1.00  0.00     0.000 C 
BRANCH   9  10
ATOM     10  C   UNL     1       9.237   5.139  14.689  1.00  0.00     0.000 C 
BRANCH  10  11
ATOM     11  C   UNL     1      10.076   4.483  15.797  1.00  0.00     0.000 C 
BRANCH  11  12
ATOM     12  C   UNL     1      11.588   4.644  15.565  1.00  0.00     0.000 C 
BRANCH  12  13
ATOM     13  C   UNL     1      12.437   3.921  16.626  1.00  0.00     0.006 C 
BRANCH  13  14
ATOM     14  C   UNL     1      12.025   2.464  16.889  1.00  0.00     0.053 C 
BRANCH  14  15
ATOM     15  C   UNL     1      12.902   1.490  16.162  1.00  0.00     0.041 C 
ATOM     16  O   UNL     1      13.776   1.905  15.354  1.00  0.00    -0.550 OA
ATOM     17  O   UNL     1      12.759   0.125  16.378  1.00  0.00    -0.550 OA
ENDBRANCH  14  15
ENDBRANCH  13  14
ENDBRANCH  12  13
ENDBRANCH  11  12
ENDBRANCH  10  11
ENDBRANCH   9  10
ENDBRANCH   8   9
ENDBRANCH   7   8
ENDBRANCH   6   7
ENDBRANCH   5   6
ENDBRANCH   4   5
ENDBRANCH   3   4
ENDBRANCH   2   3
ENDBRANCH   1   2
BRANCH   1  18
ATOM     18  C   UNL     1       3.026   9.135  17.483  1.00  0.00     0.000 C 
BRANCH  18  19
ATOM     19  C   UNL     1       3.980   9.567  16.352  1.00  0.00     0.000 C 
BRANCH  19  20
ATOM     20  C   UNL     1       3.295  10.060  15.062  1.00  0.00     0.000 C 
BRANCH  20  21
ATOM     21  C   UNL     1       3.411   9.064  13.895  1.00  0.00     0.000 C 
BRANCH  21  22
ATOM     22  C   UNL     1       2.060   8.443  13.498  1.00  0.00     0.000 C 
BRANCH  22  23
ATOM     23  C   UNL     1       2.093   7.571  12.228  1.00  0.00     0.000 C 
BRANCH  23  24
ATOM     24  C   UNL     1       3.129   8.050  11.192  1.00  0.00    -0.000 C 
BRANCH  24  25
ATOM     25  C   UNL     1       4.254   7.018  10.962  1.00  0.00    -0.000 C 
BRANCH  25  26
ATOM     26  C   UNL     1       5.084   7.268   9.687  1.00  0.00    -0.000 C 
BRANCH  26  27
ATOM     27  C   UNL     1       5.998   8.504   9.736  1.00  0.00    -0.000 C 
BRANCH  27  28
ATOM     28  C   UNL     1       6.334   8.942  11.170  1.00  0.00    -0.000 C 
BRANCH  28  29
ATOM     29  C   UNL     1       7.756   8.510  11.556  1.00  0.00    -0.000 C 
BRANCH  29  30
ATOM     30  C   UNL     1       8.447   7.698  10.449  1.00  0.00    -0.000 C 
BRANCH  30  31
ATOM     31  C   UNL     1       8.787   6.266  10.890  1.00  0.00    -0.003 C 
ATOM     32  C   UNL     1       9.714   5.586   9.887  1.00  0.00     0.004 C 
ENDBRANCH  30  31
ENDBRANCH  29  30
ENDBRANCH  28  29
ENDBRANCH  27  28
ENDBRANCH  26  27
ENDBRANCH  25  26
ENDBRANCH  24  25
ENDBRANCH  23  24
ENDBRANCH  22  23
ENDBRANCH  21  22
ENDBRANCH  20  21
ENDBRANCH  19  20
ENDBRANCH  18  19
ENDBRANCH   1  18
TORSDOF 28
ENDMDL
MODEL 3
REMARK VINA RESULT:    -3.154      4.286      7.760
REMARK INTER + INTRA:         -11.053
REMARK INTER:                  -7.916
REMARK INTRA:                  -3.137
REMARK UNBOUND:                -2.736
REMARK SMILES CCCCCCCCCCCCCCCCCCCCCCCCCCCCCC(=O)[O-]
REMARK SMILES IDX 16 1 17 2 18 3 19 4 20 5 21 6 22 7 23 8 24 9 25 10 26 11
REMARK SMILES IDX 27 12 28 13 29 14 30 15 31 16 32 17 15 18 14 19 13 20 12 21
REMARK SMILES IDX 11 22 10 23 9 24 8 25 7 26 6 27 5 28 4 29 3 30 2 31 1 32
REMARK H PARENT
REMARK Flexibility Score: inf
ROOT
ATOM      1  C   UNL     1       4.601   5.188  16.759  1.00  0.00     0.000 C 
ENDROOT
BRANCH   1   2
ATOM      2  C   UNL     1       5.375   6.452  16.346  1.00  0.00     0.000 C 
BRANCH   2   3
ATOM      3  C   UNL     1       5.707   6.539  14.840  1.00  0.00     0.000 C 
BRANCH   3   4
ATOM      4  C   UNL     1       6.851   5.620  14.357  1.00  0.00     0.000 C 
BRANCH   4   5
ATOM      5  C   UNL     1       8.141   5.637  15.204  1.00  0.00     0.000 C 
BRANCH   5   6
ATOM      6  C   UNL     1       9.360   4.951  14.563  1.00  0.00     0.000 C 
BRANCH   6   7
ATOM      7  C   UNL     1      10.206   4.166  15.579  1.00  0.00     0.000 C 
BRANCH   7   8
ATOM      8  C   UNL     1      11.590   4.800  15.815  1.00  0.00     0.000 C 
BRANCH   8   9
ATOM      9  C   UNL     1      12.589   3.863  16.527  1.00  0.00     0.000 C 
BRANCH   9  10
ATOM     10  C   UNL     1      11.995   2.464  16.777  1.00  0.00     0.000 C 
BRANCH  10  11
ATOM     11  C   UNL     1      12.764   1.354  16.042  1.00  0.00     0.000 C 
BRANCH  11  12
ATOM     12  C   UNL     1      14.158   1.811  15.578  1.00  0.00     0.000 C 
BRANCH  12  13
ATOM     13  C   UNL     1      15.213   0.693  15.668  1.00  0.00     0.006 C 
BRANCH  13  14
ATOM     14  C   UNL     1      16.645   1.186  15.927  1.00  0.00     0.053 C 
BRANCH  14  15
ATOM     15  C   UNL     1      17.617   0.052  16.051  1.00  0.00     0.041 C 
ATOM     16  O   UNL     1      17.876  -0.673  15.053  1.00  0.00    -0.550 OA
ATOM     17  O   UNL     1      18.242  -0.202  17.265  1.00  0.00    -0.550 OA
ENDBRANCH  14  15
ENDBRANCH  13  14
ENDBRANCH  12  13
ENDBRANCH  11  12
ENDBRANCH  10  11
ENDBRANCH   9  10
ENDBRANCH   8   9
ENDBRANCH   7   8
ENDBRANCH   6   7
ENDBRANCH   5   6
ENDBRANCH   4   5
ENDBRANCH   3   4
ENDBRANCH   2   3
ENDBRANCH   1   2
BRANCH   1  18
ATOM     18  C   UNL     1       3.076   5.386  16.745  1.00  0.00     0.000 C 
BRANCH  18  19
ATOM     19  C   UNL     1       2.639   6.838  17.019  1.00  0.00     0.000 C 
BRANCH  19  20
ATOM     20  C   UNL     1       2.206   7.643  15.777  1.00  0.00     0.000 C 
BRANCH  20  21
ATOM     21  C   UNL     1       2.402   9.160  15.938  1.00  0.00     0.000 C 
BRANCH  21  22
ATOM     22  C   UNL     1       2.657   9.877  14.601  1.00  0.00     0.000 C 
BRANCH  22  23
ATOM     23  C   UNL     1       3.893   9.383  13.824  1.00  0.00     0.000 C 
BRANCH  23  24
ATOM     24  C   UNL     1       3.560   8.906  12.397  1.00  0.00    -0.000 C 
BRANCH  24  25
ATOM     25  C   UNL     1       3.312   7.383  12.326  1.00  0.00    -0.000 C 
BRANCH  25  26
ATOM     26  C   UNL     1       4.099   6.670  11.208  1.00  0.00    -0.000 C 
BRANCH  26  27
ATOM     27  C   UNL     1       4.569   7.581  10.060  1.00  0.00    -0.000 C 
BRANCH  27  28
ATOM     28  C   UNL     1       6.087   7.520   9.833  1.00  0.00    -0.000 C 
BRANCH  28  29
ATOM     29  C   UNL     1       6.821   8.486  10.776  1.00  0.00    -0.000 C 
BRANCH  29  30
ATOM     30  C   UNL     1       8.168   7.928  11.260  1.00  0.00    -0.000 C 
BRANCH  30  31
ATOM     31  C   UNL     1       8.209   6.392  11.259  1.00  0.00    -0.003 C 
ATOM     32  C   UNL     1       9.406   5.873  10.469  1.00  0.00     0.004 C 
ENDBRANCH  30  31
ENDBRANCH  29  30
ENDBRANCH  28  29
ENDBRANCH  27  28
ENDBRANCH  26  27
ENDBRANCH  25  26
ENDBRANCH  24  25
ENDBRANCH  23  24
ENDBRANCH  22  23
ENDBRANCH  21  22
ENDBRANCH  20  21
ENDBRANCH  19  20
ENDBRANCH  18  19
ENDBRANCH   1  18
TORSDOF 28
ENDMDL
MODEL 4
REMARK VINA RESULT:    -3.063      2.701      6.010
REMARK INTER + INTRA:         -10.811
REMARK INTER:                  -8.310
REMARK INTRA:                  -2.502
REMARK UNBOUND:                -2.736
REMARK SMILES CCCCCCCCCCCCCCCCCCCCCCCCCCCCCC(=O)[O-]
REMARK SMILES IDX 16 1 17 2 18 3 19 4 20 5 21 6 22 7 23 8 24 9 25 10 26 11
REMARK SMILES IDX 27 12 28 13 29 14 30 15 31 16 32 17 15 18 14 19 13 20 12 21
REMARK SMILES IDX 11 22 10 23 9 24 8 25 7 26 6 27 5 28 4 29 3 30 2 31 1 32
REMARK H PARENT
REMARK Flexibility Score: inf
ROOT
ATOM      1  C   UNL     1       2.185   5.796  17.236  1.00  0.00     0.000 C 
ENDROOT
BRANCH   1   2
ATOM      2  C   UNL     1       2.462   7.084  18.031  1.00  0.00     0.000 C 
BRANCH   2   3
ATOM      3  C   UNL     1       2.008   8.383  17.330  1.00  0.00     0.000 C 
BRANCH   3   4
ATOM      4  C   UNL     1       3.021   9.549  17.368  1.00  0.00     0.000 C 
BRANCH   4   5
ATOM      5  C   UNL     1       4.102   9.545  16.266  1.00  0.00     0.000 C 
BRANCH   5   6
ATOM      6  C   UNL     1       3.776   8.694  15.026  1.00  0.00     0.000 C 
BRANCH   6   7
ATOM      7  C   UNL     1       2.932   9.450  13.988  1.00  0.00     0.000 C 
BRANCH   7   8
ATOM      8  C   UNL     1       2.820   8.695  12.650  1.00  0.00     0.000 C 
BRANCH   8   9
ATOM      9  C   UNL     1       3.906   7.616  12.453  1.00  0.00     0.000 C 
BRANCH   9  10
ATOM     10  C   UNL     1       3.759   6.884  11.107  1.00  0.00     0.000 C 
BRANCH  10  11
ATOM     11  C   UNL     1       4.966   7.100  10.179  1.00  0.00     0.000 C 
BRANCH  11  12
ATOM     12  C   UNL     1       5.066   8.548   9.671  1.00  0.00     0.000 C 
BRANCH  12  13
ATOM     13  C   UNL     1       6.148   9.365  10.402  1.00  0.00     0.006 C 
BRANCH  13  14
ATOM     14  C   UNL     1       7.591   8.998  10.022  1.00  0.00     0.053 C 
BRANCH  14  15
ATOM     15  C   UNL     1       8.223   8.081  11.026  1.00  0.00     0.041 C 
ATOM     16  O   UNL     1       8.162   8.351  12.255  1.00  0.00    -0.550 OA
ATOM     17  O   UNL     1       8.873   6.928  10.606  1.00  0.00    -0.550 OA
ENDBRANCH  14  15
ENDBRANCH  13  14
ENDBRANCH  12  13
ENDBRANCH  11  12
ENDBRANCH  10  11
ENDBRANCH   9  10
ENDBRANCH   8   9
ENDBRANCH   7   8
ENDBRANCH   6   7
ENDBRANCH   5   6
ENDBRANCH   4   5
ENDBRANCH   3   4
ENDBRANCH   2   3
ENDBRANCH   1   2
BRANCH   1  18
ATOM     18  C   UNL     1       3.415   4.880  17.124  1.00  0.00     0.000 C 
BRANCH  18  19
ATOM     19  C   UNL     1       4.750   5.647  17.057  1.00  0.00     0.000 C 
BRANCH  19  20
ATOM     20  C   UNL     1       5.252   5.979  15.638  1.00  0.00     0.000 C 
BRANCH  20  21
ATOM     21  C   UNL     1       6.784   6.068  15.541  1.00  0.00     0.000 C 
BRANCH  21  22
ATOM     22  C   UNL     1       7.318   5.731  14.137  1.00  0.00     0.000 C 
BRANCH  22  23
ATOM     23  C   UNL     1       8.614   4.898  14.117  1.00  0.00     0.000 C 
BRANCH  23  24
ATOM     24  C   UNL     1       9.598   5.282  15.240  1.00  0.00    -0.000 C 
BRANCH  24  25
ATOM     25  C   UNL     1      10.616   4.160  15.541  1.00  0.00    -0.000 C 
BRANCH  25  26
ATOM     26  C   UNL     1      11.914   4.654  16.211  1.00  0.00    -0.000 C 
BRANCH  26  27
ATOM     27  C   UNL     1      12.713   3.573  16.960  1.00  0.00    -0.000 C 
BRANCH  27  28
ATOM     28  C   UNL     1      12.015   2.204  16.956  1.00  0.00    -0.000 C 
BRANCH  28  29
ATOM     29  C   UNL     1      12.724   1.232  16.002  1.00  0.00    -0.000 C 
BRANCH  29  30
ATOM     30  C   UNL     1      14.124   1.717  15.597  1.00  0.00    -0.000 C 
BRANCH  30  31
ATOM     31  C   UNL     1      15.174   0.595  15.636  1.00  0.00    -0.003 C 
ATOM     32  C   UNL     1      16.571   1.156  15.884  1.00  0.00     0.004 C 
ENDBRANCH  30  31
ENDBRANCH  29  30
ENDBRANCH  28  29
ENDBRANCH  27  28
ENDBRANCH  26  27
ENDBRANCH  25  26
ENDBRANCH  24  25
ENDBRANCH  23  24
ENDBRANCH  22  23
ENDBRANCH  21  22
ENDBRANCH  20  21
ENDBRANCH  19  20
ENDBRANCH  18  19
ENDBRANCH   1  18
TORSDOF 28
ENDMDL
MODEL 5
REMARK VINA RESULT:    -3.036      4.770      8.703
REMARK INTER + INTRA:         -10.740
REMARK INTER:                  -7.826
REMARK INTRA:                  -2.914
REMARK UNBOUND:                -2.736
REMARK SMILES CCCCCCCCCCCCCCCCCCCCCCCCCCCCCC(=O)[O-]
REMARK SMILES IDX 16 1 17 2 18 3 19 4 20 5 21 6 22 7 23 8 24 9 25 10 26 11
REMARK SMILES IDX 27 12 28 13 29 14 30 15 31 16 32 17 15 18 14 19 13 20 12 21
REMARK SMILES IDX 11 22 10 23 9 24 8 25 7 26 6 27 5 28 4 29 3 30 2 31 1 32
REMARK H PARENT
REMARK Flexibility Score: inf
ROOT
ATOM      1  C   UNL     1       8.179   7.166  11.875  1.00  0.00     0.000 C 
ENDROOT
BRANCH   1   2
ATOM      2  C   UNL     1       7.106   7.558  12.906  1.00  0.00     0.000 C 
BRANCH   2   3
ATOM      3  C   UNL     1       6.762   6.452  13.927  1.00  0.00     0.000 C 
BRANCH   3   4
ATOM      4  C   UNL     1       7.904   6.055  14.889  1.00  0.00     0.000 C 
BRANCH   4   5
ATOM      5  C   UNL     1       8.412   4.602  14.777  1.00  0.00     0.000 C 
BRANCH   5   6
ATOM      6  C   UNL     1       9.939   4.444  14.668  1.00  0.00     0.000 C 
BRANCH   6   7
ATOM      7  C   UNL     1      10.665   4.739  15.989  1.00  0.00     0.000 C 
BRANCH   7   8
ATOM      8  C   UNL     1      12.039   4.049  16.079  1.00  0.00     0.000 C 
BRANCH   8   9
ATOM      9  C   UNL     1      12.019   2.724  16.870  1.00  0.00     0.000 C 
BRANCH   9  10
ATOM     10  C   UNL     1      12.661   1.568  16.083  1.00  0.00     0.000 C 
BRANCH  10  11
ATOM     11  C   UNL     1      14.101   1.878  15.643  1.00  0.00     0.000 C 
BRANCH  11  12
ATOM     12  C   UNL     1      15.003   0.633  15.656  1.00  0.00     0.000 C 
BRANCH  12  13
ATOM     13  C   UNL     1      16.475   0.963  15.964  1.00  0.00     0.006 C 
BRANCH  13  14
ATOM     14  C   UNL     1      17.474  -0.132  15.559  1.00  0.00     0.053 C 
BRANCH  14  15
ATOM     15  C   UNL     1      18.699  -0.123  16.422  1.00  0.00     0.041 C 
ATOM     16  O   UNL     1      18.590  -0.106  17.677  1.00  0.00    -0.550 OA
ATOM     17  O   UNL     1      19.961  -0.141  15.842  1.00  0.00    -0.550 OA
ENDBRANCH  14  15
ENDBRANCH  13  14
ENDBRANCH  12  13
ENDBRANCH  11  12
ENDBRANCH  10  11
ENDBRANCH   9  10
ENDBRANCH   8   9
ENDBRANCH   7   8
ENDBRANCH   6   7
ENDBRANCH   5   6
ENDBRANCH   4   5
ENDBRANCH   3   4
ENDBRANCH   2   3
ENDBRANCH   1   2
BRANCH   1  18
ATOM     18  C   UNL     1       8.236   8.123  10.672  1.00  0.00     0.000 C 
BRANCH  18  19
ATOM     19  C   UNL     1       7.070   9.130  10.630  1.00  0.00     0.000 C 
BRANCH  19  20
ATOM     20  C   UNL     1       5.965   8.819   9.601  1.00  0.00     0.000 C 
BRANCH  20  21
ATOM     21  C   UNL     1       5.532   7.342   9.604  1.00  0.00     0.000 C 
BRANCH  21  22
ATOM     22  C   UNL     1       4.357   7.064  10.559  1.00  0.00     0.000 C 
BRANCH  22  23
ATOM     23  C   UNL     1       3.112   7.943  10.332  1.00  0.00     0.000 C 
BRANCH  23  24
ATOM     24  C   UNL     1       2.532   8.520  11.638  1.00  0.00    -0.000 C 
BRANCH  24  25
ATOM     25  C   UNL     1       2.905   7.674  12.874  1.00  0.00    -0.000 C 
BRANCH  25  26
ATOM     26  C   UNL     1       3.459   8.497  14.055  1.00  0.00    -0.000 C 
BRANCH  26  27
ATOM     27  C   UNL     1       3.269   7.856  15.441  1.00  0.00    -0.000 C 
BRANCH  27  28
ATOM     28  C   UNL     1       4.436   8.145  16.398  1.00  0.00    -0.000 C 
BRANCH  28  29
ATOM     29  C   UNL     1       5.027   6.840  16.950  1.00  0.00    -0.000 C 
BRANCH  29  30
ATOM     30  C   UNL     1       4.263   5.596  16.470  1.00  0.00    -0.000 C 
BRANCH  30  31
ATOM     31  C   UNL     1       3.564   4.852  17.618  1.00  0.00    -0.003 C 
ATOM     32  C   UNL     1       2.375   5.647  18.148  1.00  0.00     0.004 C 
ENDBRANCH  30  31
ENDBRANCH  29  30
ENDBRANCH  28  29
ENDBRANCH  27  28
ENDBRANCH  26  27
ENDBRANCH  25  26
ENDBRANCH  24  25
ENDBRANCH  23  24
ENDBRANCH  22  23
ENDBRANCH  21  22
ENDBRANCH  20  21
ENDBRANCH  19  20
ENDBRANCH  18  19
ENDBRANCH   1  18
TORSDOF 28
ENDMDL
MODEL 6
REMARK VINA RESULT:    -3.015      3.124      6.792
REMARK INTER + INTRA:         -10.686
REMARK INTER:                  -7.991
REMARK INTRA:                  -2.695
REMARK UNBOUND:                -2.736
REMARK SMILES CCCCCCCCCCCCCCCCCCCCCCCCCCCCCC(=O)[O-]
REMARK SMILES IDX 16 1 17 2 18 3 19 4 20 5 21 6 22 7 23 8 24 9 25 10 26 11
REMARK SMILES IDX 27 12 28 13 29 14 30 15 31 16 32 17 15 18 14 19 13 20 12 21
REMARK SMILES IDX 11 22 10 23 9 24 8 25 7 26 6 27 5 28 4 29 3 30 2 31 1 32
REMARK H PARENT
REMARK Flexibility Score: inf
ROOT
ATOM      1  C   UNL     1       4.941   4.943  16.879  1.00  0.00     0.000 C 
ENDROOT
BRANCH   1   2
ATOM      2  C   UNL     1       3.734   4.822  17.824  1.00  0.00     0.000 C 
BRANCH   2   3
ATOM      3  C   UNL     1       2.604   5.841  17.558  1.00  0.00     0.000 C 
BRANCH   3   4
ATOM      4  C   UNL     1       2.451   6.956  18.617  1.00  0.00     0.000 C 
BRANCH   4   5
ATOM      5  C   UNL     1       2.030   8.343  18.086  1.00  0.00     0.000 C 
BRANCH   5   6
ATOM      6  C   UNL     1       2.768   8.817  16.822  1.00  0.00     0.000 C 
BRANCH   6   7
ATOM      7  C   UNL     1       1.967   9.850  16.015  1.00  0.00     0.000 C 
BRANCH   7   8
ATOM      8  C   UNL     1       2.299   9.818  14.511  1.00  0.00     0.000 C 
BRANCH   8   9
ATOM      9  C   UNL     1       2.435   8.391  13.936  1.00  0.00     0.000 C 
BRANCH   9  10
ATOM     10  C   UNL     1       2.614   8.397  12.407  1.00  0.00     0.000 C 
BRANCH  10  11
ATOM     11  C   UNL     1       3.556   7.284  11.917  1.00  0.00     0.000 C 
BRANCH  11  12
ATOM     12  C   UNL     1       3.483   7.078  10.395  1.00  0.00     0.000 C 
BRANCH  12  13
ATOM     13  C   UNL     1       4.690   7.679   9.651  1.00  0.00     0.006 C 
BRANCH  13  14
ATOM     14  C   UNL     1       6.040   7.033   9.999  1.00  0.00     0.053 C 
BRANCH  14  15
ATOM     15  C   UNL     1       7.111   8.056  10.229  1.00  0.00     0.041 C 
ATOM     16  O   UNL     1       8.201   7.723  10.767  1.00  0.00    -0.550 OA
ATOM     17  O   UNL     1       6.909   9.376   9.845  1.00  0.00    -0.550 OA
ENDBRANCH  14  15
ENDBRANCH  13  14
ENDBRANCH  12  13
ENDBRANCH  11  12
ENDBRANCH  10  11
ENDBRANCH   9  10
ENDBRANCH   8   9
ENDBRANCH   7   8
ENDBRANCH   6   7
ENDBRANCH   5   6
ENDBRANCH   4   5
ENDBRANCH   3   4
ENDBRANCH   2   3
ENDBRANCH   1   2
BRANCH   1  18
ATOM     18  C   UNL     1       5.574   6.345  16.888  1.00  0.00     0.000 C 
BRANCH  18  19
ATOM     19  C   UNL     1       5.421   7.099  15.552  1.00  0.00     0.000 C 
BRANCH  19  20
ATOM     20  C   UNL     1       5.986   6.372  14.315  1.00  0.00     0.000 C 
BRANCH  20  21
ATOM     21  C   UNL     1       7.492   6.606  14.109  1.00  0.00     0.000 C 
BRANCH  21  22
ATOM     22  C   UNL     1       8.319   5.311  14.195  1.00  0.00     0.000 C 
BRANCH  22  23
ATOM     23  C   UNL     1       9.251   5.214  15.419  1.00  0.00     0.000 C 
BRANCH  23  24
ATOM     24  C   UNL     1      10.505   4.357  15.159  1.00  0.00    -0.000 C 
BRANCH  24  25
ATOM     25  C   UNL     1      11.704   4.786  16.032  1.00  0.00    -0.000 C 
BRANCH  25  26
ATOM     26  C   UNL     1      12.373   3.626  16.795  1.00  0.00    -0.000 C 
BRANCH  26  27
ATOM     27  C   UNL     1      11.713   2.250  16.597  1.00  0.00    -0.000 C 
BRANCH  27  28
ATOM     28  C   UNL     1      12.735   1.118  16.413  1.00  0.00    -0.000 C 
BRANCH  28  29
ATOM     29  C   UNL     1      13.983   1.622  15.675  1.00  0.00    -0.000 C 
BRANCH  29  30
ATOM     30  C   UNL     1      15.109   0.577  15.637  1.00  0.00    -0.000 C 
BRANCH  30  31
ATOM     31  C   UNL     1      16.488   1.181  15.946  1.00  0.00    -0.003 C 
ATOM     32  C   UNL     1      17.589   0.131  15.826  1.00  0.00     0.004 C 
ENDBRANCH  30  31
ENDBRANCH  29  30
ENDBRANCH  28  29
ENDBRANCH  27  28
ENDBRANCH  26  27
ENDBRANCH  25  26
ENDBRANCH  24  25
ENDBRANCH  23  24
ENDBRANCH  22  23
ENDBRANCH  21  22
ENDBRANCH  20  21
ENDBRANCH  19  20
ENDBRANCH  18  19
ENDBRANCH   1  18
TORSDOF 28
ENDMDL
MODEL 7
REMARK VINA RESULT:    -2.992      4.089      7.714
REMARK INTER + INTRA:         -10.624
REMARK INTER:                  -7.941
REMARK INTRA:                  -2.683
REMARK UNBOUND:                -2.736
REMARK SMILES CCCCCCCCCCCCCCCCCCCCCCCCCCCCCC(=O)[O-]
REMARK SMILES IDX 16 1 17 2 18 3 19 4 20 5 21 6 22 7 23 8 24 9 25 10 26 11
REMARK SMILES IDX 27 12 28 13 29 14 30 15 31 16 32 17 15 18 14 19 13 20 12 21
REMARK SMILES IDX 11 22 10 23 9 24 8 25 7 26 6 27 5 28 4 29 3 30 2 31 1 32
REMARK H PARENT
REMARK Flexibility Score: inf
ROOT
ATOM      1  C   UNL     1       5.549   6.573  16.540  1.00  0.00     0.000 C 
ENDROOT
BRANCH   1   2
ATOM      2  C   UNL     1       4.944   5.643  17.605  1.00  0.00     0.000 C 
BRANCH   2   3
ATOM      3  C   UNL     1       3.655   4.915  17.167  1.00  0.00     0.000 C 
BRANCH   3   4
ATOM      4  C   UNL     1       2.333   5.558  17.643  1.00  0.00     0.000 C 
BRANCH   4   5
ATOM      5  C   UNL     1       1.924   6.870  16.941  1.00  0.00     0.000 C 
BRANCH   5   6
ATOM      6  C   UNL     1       2.304   8.162  17.687  1.00  0.00     0.000 C 
BRANCH   6   7
ATOM      7  C   UNL     1       2.348   9.391  16.766  1.00  0.00     0.000 C 
BRANCH   7   8
ATOM      8  C   UNL     1       3.645   9.468  15.938  1.00  0.00     0.000 C 
BRANCH   8   9
ATOM      9  C   UNL     1       3.416   9.837  14.457  1.00  0.00     0.000 C 
BRANCH   9  10
ATOM     10  C   UNL     1       2.827   8.665  13.651  1.00  0.00     0.000 C 
BRANCH  10  11
ATOM     11  C   UNL     1       3.355   8.615  12.208  1.00  0.00     0.000 C 
BRANCH  11  12
ATOM     12  C   UNL     1       4.857   8.291  12.140  1.00  0.00     0.000 C 
BRANCH  12  13
ATOM     13  C   UNL     1       5.156   6.999  11.358  1.00  0.00     0.006 C 
BRANCH  13  14
ATOM     14  C   UNL     1       6.026   7.196  10.106  1.00  0.00     0.053 C 
BRANCH  14  15
ATOM     15  C   UNL     1       7.480   6.972  10.390  1.00  0.00     0.041 C 
ATOM     16  O   UNL     1       8.061   5.946   9.945  1.00  0.00    -0.550 OA
ATOM     17  O   UNL     1       8.195   7.897  11.140  1.00  0.00    -0.550 OA
ENDBRANCH  14  15
ENDBRANCH  13  14
ENDBRANCH  12  13
ENDBRANCH  11  12
ENDBRANCH  10  11
ENDBRANCH   9  10
ENDBRANCH   8   9
ENDBRANCH   7   8
ENDBRANCH   6   7
ENDBRANCH   5   6
ENDBRANCH   4   5
ENDBRANCH   3   4
ENDBRANCH   2   3
ENDBRANCH   1   2
BRANCH   1  18
ATOM     18  C   UNL     1       5.376   6.041  15.107  1.00  0.00     0.000 C 
BRANCH  18  19
ATOM     19  C   UNL     1       6.710   5.761  14.388  1.00  0.00     0.000 C 
BRANCH  19  20
ATOM     20  C   UNL     1       7.966   5.823  15.280  1.00  0.00     0.000 C 
BRANCH  20  21
ATOM     21  C   UNL     1       9.205   5.184  14.628  1.00  0.00     0.000 C 
BRANCH  21  22
ATOM     22  C   UNL     1      10.012   4.309  15.604  1.00  0.00     0.000 C 
BRANCH  22  23
ATOM     23  C   UNL     1      11.438   4.812  15.900  1.00  0.00     0.000 C 
BRANCH  23  24
ATOM     24  C   UNL     1      12.364   3.714  16.459  1.00  0.00    -0.000 C 
BRANCH  24  25
ATOM     25  C   UNL     1      11.784   2.297  16.262  1.00  0.00    -0.000 C 
BRANCH  25  26
ATOM     26  C   UNL     1      12.841   1.175  16.303  1.00  0.00    -0.000 C 
BRANCH  26  27
ATOM     27  C   UNL     1      14.176   1.513  15.617  1.00  0.00    -0.000 C 
BRANCH  27  28
ATOM     28  C   UNL     1      15.267   0.465  15.884  1.00  0.00    -0.000 C 
BRANCH  28  29
ATOM     29  C   UNL     1      16.666   1.090  15.771  1.00  0.00    -0.000 C 
BRANCH  29  30
ATOM     30  C   UNL     1      17.788   0.042  15.841  1.00  0.00    -0.000 C 
BRANCH  30  31
ATOM     31  C   UNL     1      18.487   0.013  17.208  1.00  0.00    -0.003 C 
ATOM     32  C   UNL     1      20.003  -0.070  17.051  1.00  0.00     0.004 C 
ENDBRANCH  30  31
ENDBRANCH  29  30
ENDBRANCH  28  29
ENDBRANCH  27  28
ENDBRANCH  26  27
ENDBRANCH  25  26
ENDBRANCH  24  25
ENDBRANCH  23  24
ENDBRANCH  22  23
ENDBRANCH  21  22
ENDBRANCH  20  21
ENDBRANCH  19  20
ENDBRANCH  18  19
ENDBRANCH   1  18
TORSDOF 28
ENDMDL
MODEL 8
REMARK VINA RESULT:    -2.990      3.761      7.199
REMARK INTER + INTRA:         -10.621
REMARK INTER:                  -7.506
REMARK INTRA:                  -3.115
REMARK UNBOUND:                -2.736
REMARK SMILES CCCCCCCCCCCCCCCCCCCCCCCCCCCCCC(=O)[O-]
REMARK SMILES IDX 16 1 17 2 18 3 19 4 20 5 21 6 22 7 23 8 24 9 25 10 26 11
REMARK SMILES IDX 27 12 28 13 29 14 30 15 31 16 32 17 15 18 14 19 13 20 12 21
REMARK SMILES IDX 11 22 10 23 9 24 8 25 7 26 6 27 5 28 4 29 3 30 2 31 1 32
REMARK H PARENT
REMARK Flexibility Score: inf
ROOT
ATOM      1  C   UNL     1       7.824   6.970  11.503  1.00  0.00     0.000 C 
ENDROOT
BRANCH   1   2
ATOM      2  C   UNL     1       8.256   8.044  10.490  1.00  0.00     0.000 C 
BRANCH   2   3
ATOM      3  C   UNL     1       7.690   9.454  10.767  1.00  0.00     0.000 C 
BRANCH   3   4
ATOM      4  C   UNL     1       6.815  10.053   9.643  1.00  0.00     0.000 C 
BRANCH   4   5
ATOM      5  C   UNL     1       5.550   9.253   9.268  1.00  0.00     0.000 C 
BRANCH   5   6
ATOM      6  C   UNL     1       4.379   9.369  10.261  1.00  0.00     0.000 C 
BRANCH   6   7
ATOM      7  C   UNL     1       3.697   8.020  10.539  1.00  0.00     0.000 C 
BRANCH   7   8
ATOM      8  C   UNL     1       2.550   8.133  11.560  1.00  0.00     0.000 C 
BRANCH   8   9
ATOM      9  C   UNL     1       3.013   8.013  13.029  1.00  0.00     0.000 C 
BRANCH   9  10
ATOM     10  C   UNL     1       3.482   9.363  13.601  1.00  0.00     0.000 C 
BRANCH  10  11
ATOM     11  C   UNL     1       3.705   9.317  15.121  1.00  0.00     0.000 C 
BRANCH  11  12
ATOM     12  C   UNL     1       3.186   8.013  15.753  1.00  0.00     0.000 C 
BRANCH  12  13
ATOM     13  C   UNL     1       3.299   8.006  17.289  1.00  0.00     0.006 C 
BRANCH  13  14
ATOM     14  C   UNL     1       2.926   6.671  17.951  1.00  0.00     0.053 C 
BRANCH  14  15
ATOM     15  C   UNL     1       3.916   5.591  17.638  1.00  0.00     0.041 C 
ATOM     16  O   UNL     1       3.543   4.540  17.049  1.00  0.00    -0.550 OA
ATOM     17  O   UNL     1       5.251   5.744  17.991  1.00  0.00    -0.550 OA
ENDBRANCH  14  15
ENDBRANCH  13  14
ENDBRANCH  12  13
ENDBRANCH  11  12
ENDBRANCH  10  11
ENDBRANCH   9  10
ENDBRANCH   8   9
ENDBRANCH   7   8
ENDBRANCH   6   7
ENDBRANCH   5   6
ENDBRANCH   4   5
ENDBRANCH   3   4
ENDBRANCH   2   3
ENDBRANCH   1   2
BRANCH   1  18
ATOM     18  C   UNL     1       6.685   7.435  12.426  1.00  0.00     0.000 C 
BRANCH  18  19
ATOM     19  C   UNL     1       5.823   6.279  12.972  1.00  0.00     0.000 C 
BRANCH  19  20
ATOM     20  C   UNL     1       5.870   6.086  14.500  1.00  0.00     0.000 C 
BRANCH  20  21
ATOM     21  C   UNL     1       7.286   6.216  15.085  1.00  0.00     0.000 C 
BRANCH  21  22
ATOM     22  C   UNL     1       8.217   5.064  14.666  1.00  0.00     0.000 C 
BRANCH  22  23
ATOM     23  C   UNL     1       9.721   5.340  14.861  1.00  0.00     0.000 C 
BRANCH  23  24
ATOM     24  C   UNL     1      10.456   4.199  15.590  1.00  0.00    -0.000 C 
BRANCH  24  25
ATOM     25  C   UNL     1      11.851   4.625  16.098  1.00  0.00    -0.000 C 
BRANCH  25  26
ATOM     26  C   UNL     1      12.617   3.511  16.838  1.00  0.00    -0.000 C 
BRANCH  26  27
ATOM     27  C   UNL     1      11.911   2.144  16.869  1.00  0.00    -0.000 C 
BRANCH  27  28
ATOM     28  C   UNL     1      12.781   1.008  16.312  1.00  0.00    -0.000 C 
BRANCH  28  29
ATOM     29  C   UNL     1      14.024   1.568  15.604  1.00  0.00    -0.000 C 
BRANCH  29  30
ATOM     30  C   UNL     1      15.189   0.567  15.577  1.00  0.00    -0.000 C 
BRANCH  30  31
ATOM     31  C   UNL     1      16.543   1.225  15.886  1.00  0.00    -0.003 C 
ATOM     32  C   UNL     1      17.655   0.185  15.972  1.00  0.00     0.004 C 
ENDBRANCH  30  31
ENDBRANCH  29  30
ENDBRANCH  28  29
ENDBRANCH  27  28
ENDBRANCH  26  27
ENDBRANCH  25  26
ENDBRANCH  24  25
ENDBRANCH  23  24
ENDBRANCH  22  23
ENDBRANCH  21  22
ENDBRANCH  20  21
ENDBRANCH  19  20
ENDBRANCH  18  19
ENDBRANCH   1  18
TORSDOF 28
ENDMDL
MODEL 9
REMARK VINA RESULT:    -2.969      4.530      7.520
REMARK INTER + INTRA:         -10.564
REMARK INTER:                  -7.718
REMARK INTRA:                  -2.846
REMARK UNBOUND:                -2.736
REMARK SMILES CCCCCCCCCCCCCCCCCCCCCCCCCCCCCC(=O)[O-]
REMARK SMILES IDX 16 1 17 2 18 3 19 4 20 5 21 6 22 7 23 8 24 9 25 10 26 11
REMARK SMILES IDX 27 12 28 13 29 14 30 15 31 16 32 17 15 18 14 19 13 20 12 21
REMARK SMILES IDX 11 22 10 23 9 24 8 25 7 26 6 27 5 28 4 29 3 30 2 31 1 32
REMARK H PARENT
REMARK Flexibility Score: inf
ROOT
ATOM      1  C   UNL     1       6.411   6.711  15.036  1.00  0.00     0.000 C 
ENDROOT
BRANCH   1   2
ATOM      2  C   UNL     1       5.321   7.582  14.389  1.00  0.00     0.000 C 
BRANCH   2   3
ATOM      3  C   UNL     1       4.121   7.900  15.309  1.00  0.00     0.000 C 
BRANCH   3   4
ATOM      4  C   UNL     1       2.983   8.717  14.659  1.00  0.00     0.000 C 
BRANCH   4   5
ATOM      5  C   UNL     1       3.169   9.076  13.169  1.00  0.00     0.000 C 
BRANCH   5   6
ATOM      6  C   UNL     1       2.227   8.348  12.194  1.00  0.00     0.000 C 
BRANCH   6   7
ATOM      7  C   UNL     1       2.940   7.261  11.375  1.00  0.00     0.000 C 
BRANCH   7   8
ATOM      8  C   UNL     1       3.344   7.745   9.970  1.00  0.00     0.000 C 
BRANCH   8   9
ATOM      9  C   UNL     1       4.832   7.505   9.635  1.00  0.00     0.000 C 
BRANCH   9  10
ATOM     10  C   UNL     1       5.758   7.874  10.808  1.00  0.00     0.000 C 
BRANCH  10  11
ATOM     11  C   UNL     1       6.965   8.719  10.367  1.00  0.00     0.000 C 
BRANCH  11  12
ATOM     12  C   UNL     1       8.228   8.418  11.192  1.00  0.00     0.000 C 
BRANCH  12  13
ATOM     13  C   UNL     1       8.205   7.018  11.832  1.00  0.00     0.006 C 
BRANCH  13  14
ATOM     14  C   UNL     1       9.324   6.079  11.356  1.00  0.00     0.053 C 
BRANCH  14  15
ATOM     15  C   UNL     1       9.145   5.669   9.926  1.00  0.00     0.041 C 
ATOM     16  O   UNL     1      10.143   5.581   9.162  1.00  0.00    -0.550 OA
ATOM     17  O   UNL     1       7.878   5.379   9.437  1.00  0.00    -0.550 OA
ENDBRANCH  14  15
ENDBRANCH  13  14
ENDBRANCH  12  13
ENDBRANCH  11  12
ENDBRANCH  10  11
ENDBRANCH   9  10
ENDBRANCH   8   9
ENDBRANCH   7   8
ENDBRANCH   6   7
ENDBRANCH   5   6
ENDBRANCH   4   5
ENDBRANCH   3   4
ENDBRANCH   2   3
ENDBRANCH   1   2
BRANCH   1  18
ATOM     18  C   UNL     1       6.394   5.256  14.537  1.00  0.00     0.000 C 
BRANCH  18  19
ATOM     19  C   UNL     1       7.790   4.602  14.496  1.00  0.00     0.000 C 
BRANCH  19  20
ATOM     20  C   UNL     1       8.896   5.359  15.257  1.00  0.00     0.000 C 
BRANCH  20  21
ATOM     21  C   UNL     1      10.302   4.786  15.012  1.00  0.00     0.000 C 
BRANCH  21  22
ATOM     22  C   UNL     1      11.178   4.780  16.278  1.00  0.00     0.000 C 
BRANCH  22  23
ATOM     23  C   UNL     1      12.374   3.808  16.236  1.00  0.00     0.000 C 
BRANCH  23  24
ATOM     24  C   UNL     1      12.027   2.399  16.756  1.00  0.00    -0.000 C 
BRANCH  24  25
ATOM     25  C   UNL     1      12.818   1.291  16.028  1.00  0.00    -0.000 C 
BRANCH  25  26
ATOM     26  C   UNL     1      14.285   1.660  15.728  1.00  0.00    -0.000 C 
BRANCH  26  27
ATOM     27  C   UNL     1      15.261   0.471  15.690  1.00  0.00    -0.000 C 
BRANCH  27  28
ATOM     28  C   UNL     1      16.732   0.908  15.618  1.00  0.00    -0.000 C 
BRANCH  28  29
ATOM     29  C   UNL     1      17.665  -0.240  16.031  1.00  0.00    -0.000 C 
BRANCH  29  30
ATOM     30  C   UNL     1      18.369   0.025  17.371  1.00  0.00    -0.000 C 
BRANCH  30  31
ATOM     31  C   UNL     1      19.861  -0.342  17.338  1.00  0.00    -0.003 C 
ATOM     32  C   UNL     1      20.483  -0.000  15.987  1.00  0.00     0.004 C 
ENDBRANCH  30  31
ENDBRANCH  29  30
ENDBRANCH  28  29
ENDBRANCH  27  28
ENDBRANCH  26  27
ENDBRANCH  25  26
ENDBRANCH  24  25
ENDBRANCH  23  24
ENDBRANCH  22  23
ENDBRANCH  21  22
ENDBRANCH  20  21
ENDBRANCH  19  20
ENDBRANCH  18  19
ENDBRANCH   1  18
TORSDOF 28
ENDMDL
