MODEL 1
REMARK VINA RESULT:    -4.524      0.000      0.000
REMARK INTER + INTRA:          -9.560
REMARK INTER:                  -8.226
REMARK INTRA:                  -1.335
REMARK UNBOUND:                -1.335
REMARK SMILES CCCCCCCCCCCCCCCC(=O)[O-]
REMARK SMILES IDX 9 1 10 2 11 3 12 4 13 5 14 6 15 7 16 8 17 9 18 10 8 11 7 12
REMARK SMILES IDX 6 13 5 14 4 15 3 16 2 17 1 18
REMARK H PARENT
REMARK Flexibility Score: inf
ROOT
ATOM      1  C   UNL     1      32.041  10.314  48.563  1.00  0.00     0.000 C 
ENDROOT
BRANCH   1   2
ATOM      2  C   UNL     1      31.919   8.805  48.301  1.00  0.00     0.000 C 
BRANCH   2   3
ATOM      3  C   UNL     1      30.568   8.271  48.790  1.00  0.00     0.000 C 
BRANCH   3   4
ATOM      4  C   UNL     1      30.457   6.757  48.556  1.00  0.00     0.000 C 
BRANCH   4   5
ATOM      5  C   UNL     1      31.288   6.273  47.354  1.00  0.00     0.000 C 
BRANCH   5   6
ATOM      6  C   UNL     1      32.347   5.201  47.682  1.00  0.00     0.006 C 
BRANCH   6   7
ATOM      7  C   UNL     1      33.710   5.760  48.115  1.00  0.00     0.053 C 
BRANCH   7   8
ATOM      8  C   UNL     1      34.830   4.821  47.786  1.00  0.00     0.041 C 
ATOM      9  O   UNL     1      34.908   4.302  46.641  1.00  0.00    -0.550 OA
ATOM     10  O   UNL     1      35.808   4.545  48.735  1.00  0.00    -0.550 OA
ENDBRANCH   7   8
ENDBRANCH   6   7
ENDBRANCH   5   6
ENDBRANCH   4   5
ENDBRANCH   3   4
ENDBRANCH   2   3
ENDBRANCH   1   2
BRANCH   1  11
ATOM     11  C   UNL     1      33.498  10.775  48.723  1.00  0.00     0.000 C 
BRANCH  11  12
ATOM     12  C   UNL     1      34.417  10.222  47.619  1.00  0.00    -0.000 C 
BRANCH  12  13
ATOM     13  C   UNL     1      35.447  11.256  47.137  1.00  0.00    -0.000 C 
BRANCH  13  14
ATOM     14  C   UNL     1      35.746  11.140  45.635  1.00  0.00    -0.000 C 
BRANCH  14  15
ATOM     15  C   UNL     1      34.568  10.501  44.889  1.00  0.00    -0.000 C 
BRANCH  15  16
ATOM     16  C   UNL     1      34.999   9.203  44.188  1.00  0.00    -0.000 C 
BRANCH  16  17
ATOM     17  C   UNL     1      33.821   8.253  43.927  1.00  0.00    -0.003 C 
ATOM     18  C   UNL     1      33.935   6.941  44.702  1.00  0.00     0.004 C 
ENDBRANCH  16  17
ENDBRANCH  15  16
ENDBRANCH  14  15
ENDBRANCH  13  14
ENDBRANCH  12  13
ENDBRANCH  11  12
ENDBRANCH   1  11
TORSDOF 14
ENDMDL
MODEL 2
REMARK VINA RESULT:    -4.489      1.221      4.463
REMARK INTER + INTRA:          -9.498
REMARK INTER:                  -8.364
REMARK INTRA:                  -1.134
REMARK UNBOUND:                -1.335
REMARK SMILES CCCCCCCCCCCCCCCC(=O)[O-]
REMARK SMILES IDX 9 1 10 2 11 3 12 4 13 5 14 6 15 7 16 8 17 9 18 10 8 11 7 12
REMARK SMILES IDX 6 13 5 14 4 15 3 16 2 17 1 18
REMARK H PARENT
REMARK Flexibility Score: inf
ROOT
ATOM      1  C   UNL     1      35.709  11.932  46.245  1.00  0.00     0.000 C 
ENDROOT
BRANCH   1   2
ATOM      2  C   UNL     1      35.314  10.703  45.411  1.00  0.00     0.000 C 
BRANCH   2   3
ATOM      3  C   UNL     1      34.176  11.041  44.441  1.00  0.00     0.000 C 
BRANCH   3   4
ATOM      4  C   UNL     1      33.807   9.824  43.581  1.00  0.00     0.000 C 
BRANCH   4   5
ATOM      5  C   UNL     1      34.589   8.556  43.967  1.00  0.00     0.000 C 
BRANCH   5   6
ATOM      6  C   UNL     1      34.012   7.773  45.164  1.00  0.00     0.006 C 
BRANCH   6   7
ATOM      7  C   UNL     1      33.898   6.257  44.941  1.00  0.00     0.053 C 
BRANCH   7   8
ATOM      8  C   UNL     1      34.447   5.479  46.097  1.00  0.00     0.041 C 
ATOM      9  O   UNL     1      34.164   5.812  47.279  1.00  0.00    -0.550 OA
ATOM     10  O   UNL     1      35.246   4.365  45.869  1.00  0.00    -0.550 OA
ENDBRANCH   7   8
ENDBRANCH   6   7
ENDBRANCH   5   6
ENDBRANCH   4   5
ENDBRANCH   3   4
ENDBRANCH   2   3
ENDBRANCH   1   2
BRANCH   1  11
ATOM     11  C   UNL     1      35.167  11.875  47.682  1.00  0.00     0.000 C 
BRANCH  11  12
ATOM     12  C   UNL     1      34.533  10.513  48.021  1.00  0.00    -0.000 C 
BRANCH  12  13
ATOM     13  C   UNL     1      33.191  10.653  48.756  1.00  0.00    -0.000 C 
BRANCH  13  14
ATOM     14  C   UNL     1      32.035   9.962  48.020  1.00  0.00    -0.000 C 
BRANCH  14  15
ATOM     15  C   UNL     1      32.110   8.439  48.187  1.00  0.00    -0.000 C 
BRANCH  15  16
ATOM     16  C   UNL     1      30.731   7.853  48.524  1.00  0.00    -0.000 C 
BRANCH  16  17
ATOM     17  C   UNL     1      30.488   6.491  47.855  1.00  0.00    -0.003 C 
ATOM     18  C   UNL     1      29.057   5.988  48.040  1.00  0.00     0.004 C 
ENDBRANCH  16  17
ENDBRANCH  15  16
ENDBRANCH  14  15
ENDBRANCH  13  14
ENDBRANCH  12  13
ENDBRANCH  11  12
ENDBRANCH   1  11
TORSDOF 14
ENDMDL
MODEL 3
REMARK VINA RESULT:    -4.367     17.319     18.742
REMARK INTER + INTRA:          -9.276
REMARK INTER:                  -7.581
REMARK INTRA:                  -1.696
REMARK UNBOUND:                -1.335
REMARK SMILES CCCCCCCCCCCCCCCC(=O)[O-]
REMARK SMILES IDX 9 1 10 2 11 3 12 4 13 5 14 6 15 7 16 8 17 9 18 10 8 11 7 12
REMARK SMILES IDX 6 13 5 14 4 15 3 16 2 17 1 18
REMARK H PARENT
REMARK Flexibility Score: inf
ROOT
ATOM      1  C   UNL     1      20.945   9.236  35.171  1.00  0.00     0.000 C 
ENDROOT
BRANCH   1   2
ATOM      2  C   UNL     1      19.638   9.286  35.976  1.00  0.00     0.000 C 
BRANCH   2   3
ATOM      3  C   UNL     1      19.576   8.139  36.991  1.00  0.00     0.000 C 
BRANCH   3   4
ATOM      4  C   UNL     1      19.596   6.776  36.284  1.00  0.00     0.000 C 
BRANCH   4   5
ATOM      5  C   UNL     1      18.213   6.353  35.755  1.00  0.00     0.000 C 
BRANCH   5   6
ATOM      6  C   UNL     1      18.189   5.904  34.280  1.00  0.00     0.006 C 
BRANCH   6   7
ATOM      7  C   UNL     1      18.663   6.969  33.280  1.00  0.00     0.053 C 
BRANCH   7   8
ATOM      8  C   UNL     1      19.868   6.518  32.511  1.00  0.00     0.041 C 
ATOM      9  O   UNL     1      19.961   6.761  31.279  1.00  0.00    -0.550 OA
ATOM     10  O   UNL     1      20.902   5.858  33.164  1.00  0.00    -0.550 OA
ENDBRANCH   7   8
ENDBRANCH   6   7
ENDBRANCH   5   6
ENDBRANCH   4   5
ENDBRANCH   3   4
ENDBRANCH   2   3
ENDBRANCH   1   2
BRANCH   1  11
ATOM     11  C   UNL     1      22.050  10.117  35.775  1.00  0.00     0.000 C 
BRANCH  11  12
ATOM     12  C   UNL     1      22.669  11.079  34.745  1.00  0.00    -0.000 C 
BRANCH  12  13
ATOM     13  C   UNL     1      21.788  11.255  33.499  1.00  0.00    -0.000 C 
BRANCH  13  14
ATOM     14  C   UNL     1      21.563  12.730  33.134  1.00  0.00    -0.000 C 
BRANCH  14  15
ATOM     15  C   UNL     1      20.253  13.251  33.737  1.00  0.00    -0.000 C 
BRANCH  15  16
ATOM     16  C   UNL     1      20.409  13.522  35.242  1.00  0.00    -0.000 C 
BRANCH  16  17
ATOM     17  C   UNL     1      19.259  12.931  36.071  1.00  0.00    -0.003 C 
ATOM     18  C   UNL     1      17.896  13.109  35.404  1.00  0.00     0.004 C 
ENDBRANCH  16  17
ENDBRANCH  15  16
ENDBRANCH  14  15
ENDBRANCH  13  14
ENDBRANCH  12  13
ENDBRANCH  11  12
ENDBRANCH   1  11
TORSDOF 14
ENDMDL
MODEL 4
REMARK VINA RESULT:    -4.325      1.661      3.205
REMARK INTER + INTRA:          -9.199
REMARK INTER:                  -7.932
REMARK INTRA:                  -1.267
REMARK UNBOUND:                -1.335
REMARK SMILES CCCCCCCCCCCCCCCC(=O)[O-]
REMARK SMILES IDX 9 1 10 2 11 3 12 4 13 5 14 6 15 7 16 8 17 9 18 10 8 11 7 12
REMARK SMILES IDX 6 13 5 14 4 15 3 16 2 17 1 18
REMARK H PARENT
REMARK Flexibility Score: inf
ROOT
ATOM      1  C   UNL     1      32.077   9.779  48.066  1.00  0.00     0.000 C 
ENDROOT
BRANCH   1   2
ATOM      2  C   UNL     1      31.721   8.627  49.019  1.00  0.00     0.000 C 
BRANCH   2   3
ATOM      3  C   UNL     1      30.295   8.125  48.764  1.00  0.00     0.000 C 
BRANCH   3   4
ATOM      4  C   UNL     1      30.290   6.627  48.431  1.00  0.00     0.000 C 
BRANCH   4   5
ATOM      5  C   UNL     1      31.286   6.256  47.317  1.00  0.00     0.000 C 
BRANCH   5   6
ATOM      6  C   UNL     1      32.373   5.240  47.725  1.00  0.00     0.006 C 
BRANCH   6   7
ATOM      7  C   UNL     1      33.809   5.780  47.657  1.00  0.00     0.053 C 
BRANCH   7   8
ATOM      8  C   UNL     1      34.466   5.461  46.350  1.00  0.00     0.041 C 
ATOM      9  O   UNL     1      35.364   4.579  46.289  1.00  0.00    -0.550 OA
ATOM     10  O   UNL     1      34.064   6.114  45.191  1.00  0.00    -0.550 OA
ENDBRANCH   7   8
ENDBRANCH   6   7
ENDBRANCH   5   6
ENDBRANCH   4   5
ENDBRANCH   3   4
ENDBRANCH   2   3
ENDBRANCH   1   2
BRANCH   1  11
ATOM     11  C   UNL     1      33.589   9.899  47.817  1.00  0.00     0.000 C 
BRANCH  11  12
ATOM     12  C   UNL     1      34.004   9.369  46.433  1.00  0.00    -0.000 C 
BRANCH  12  13
ATOM     13  C   UNL     1      34.862  10.375  45.649  1.00  0.00    -0.000 C 
BRANCH  13  14
ATOM     14  C   UNL     1      35.397  11.513  46.530  1.00  0.00    -0.000 C 
BRANCH  14  15
ATOM     15  C   UNL     1      36.836  11.876  46.143  1.00  0.00    -0.000 C 
BRANCH  15  16
ATOM     16  C   UNL     1      37.036  13.400  46.136  1.00  0.00    -0.000 C 
BRANCH  16  17
ATOM     17  C   UNL     1      35.728  14.166  45.888  1.00  0.00    -0.003 C 
ATOM     18  C   UNL     1      35.521  15.318  46.870  1.00  0.00     0.004 C 
ENDBRANCH  16  17
ENDBRANCH  15  16
ENDBRANCH  14  15
ENDBRANCH  13  14
ENDBRANCH  12  13
ENDBRANCH  11  12
ENDBRANCH   1  11
TORSDOF 14
ENDMDL
MODEL 5
REMARK VINA RESULT:    -4.313     17.026     18.700
REMARK INTER + INTRA:          -9.178
REMARK INTER:                  -6.843
REMARK INTRA:                  -2.336
REMARK UNBOUND:                -1.335
REMARK SMILES CCCCCCCCCCCCCCCC(=O)[O-]
REMARK SMILES IDX 9 1 10 2 11 3 12 4 13 5 14 6 15 7 16 8 17 9 18 10 8 11 7 12
REMARK SMILES IDX 6 13 5 14 4 15 3 16 2 17 1 18
REMARK H PARENT
REMARK Flexibility Score: inf
ROOT
ATOM      1  C   UNL     1      21.734  12.094  32.227  1.00  0.00     0.000 C 
ENDROOT
BRANCH   1   2
ATOM      2  C   UNL     1      21.020  10.897  31.583  1.00  0.00     0.000 C 
BRANCH   2   3
ATOM      3  C   UNL     1      19.503  10.985  31.791  1.00  0.00     0.000 C 
BRANCH   3   4
ATOM      4  C   UNL     1      18.940   9.653  32.307  1.00  0.00     0.000 C 
BRANCH   4   5
ATOM      5  C   UNL     1      20.010   8.552  32.421  1.00  0.00     0.000 C 
BRANCH   5   6
ATOM      6  C   UNL     1      19.546   7.262  33.128  1.00  0.00     0.006 C 
BRANCH   6   7
ATOM      7  C   UNL     1      19.014   7.470  34.553  1.00  0.00     0.053 C 
BRANCH   7   8
ATOM      8  C   UNL     1      19.935   6.893  35.584  1.00  0.00     0.041 C 
ATOM      9  O   UNL     1      21.159   6.743  35.328  1.00  0.00    -0.550 OA
ATOM     10  O   UNL     1      19.447   6.552  36.840  1.00  0.00    -0.550 OA
ENDBRANCH   7   8
ENDBRANCH   6   7
ENDBRANCH   5   6
ENDBRANCH   4   5
ENDBRANCH   3   4
ENDBRANCH   2   3
ENDBRANCH   1   2
BRANCH   1  11
ATOM     11  C   UNL     1      20.784  13.267  32.520  1.00  0.00     0.000 C 
BRANCH  11  12
ATOM     12  C   UNL     1      20.888  13.763  33.973  1.00  0.00    -0.000 C 
BRANCH  12  13
ATOM     13  C   UNL     1      19.853  13.102  34.897  1.00  0.00    -0.000 C 
BRANCH  13  14
ATOM     14  C   UNL     1      20.496  12.182  35.946  1.00  0.00    -0.000 C 
BRANCH  14  15
ATOM     15  C   UNL     1      20.631  10.750  35.411  1.00  0.00    -0.000 C 
BRANCH  15  16
ATOM     16  C   UNL     1      22.050  10.208  35.642  1.00  0.00    -0.000 C 
BRANCH  16  17
ATOM     17  C   UNL     1      23.134  11.271  35.407  1.00  0.00    -0.003 C 
ATOM     18  C   UNL     1      24.544  10.747  35.674  1.00  0.00     0.004 C 
ENDBRANCH  16  17
ENDBRANCH  15  16
ENDBRANCH  14  15
ENDBRANCH  13  14
ENDBRANCH  12  13
ENDBRANCH  11  12
ENDBRANCH   1  11
TORSDOF 14
ENDMDL
MODEL 6
REMARK VINA RESULT:    -4.276     18.015     20.002
REMARK INTER + INTRA:          -9.109
REMARK INTER:                  -7.826
REMARK INTRA:                  -1.283
REMARK UNBOUND:                -1.335
REMARK SMILES CCCCCCCCCCCCCCCC(=O)[O-]
REMARK SMILES IDX 9 1 10 2 11 3 12 4 13 5 14 6 15 7 16 8 17 9 18 10 8 11 7 12
REMARK SMILES IDX 6 13 5 14 4 15 3 16 2 17 1 18
REMARK H PARENT
REMARK Flexibility Score: inf
ROOT
ATOM      1  C   UNL     1      21.264  12.637  35.648  1.00  0.00     0.000 C 
ENDROOT
BRANCH   1   2
ATOM      2  C   UNL     1      20.903  13.582  34.492  1.00  0.00     0.000 C 
BRANCH   2   3
ATOM      3  C   UNL     1      19.914  12.917  33.528  1.00  0.00     0.000 C 
BRANCH   3   4
ATOM      4  C   UNL     1      20.265  13.239  32.069  1.00  0.00     0.000 C 
BRANCH   4   5
ATOM      5  C   UNL     1      21.545  14.083  31.931  1.00  0.00     0.000 C 
BRANCH   5   6
ATOM      6  C   UNL     1      21.435  15.282  30.967  1.00  0.00     0.006 C 
BRANCH   6   7
ATOM      7  C   UNL     1      22.774  15.953  30.627  1.00  0.00     0.053 C 
BRANCH   7   8
ATOM      8  C   UNL     1      22.785  17.403  31.003  1.00  0.00     0.041 C 
ATOM      9  O   UNL     1      23.757  18.136  30.678  1.00  0.00    -0.550 OA
ATOM     10  O   UNL     1      21.706  17.953  31.684  1.00  0.00    -0.550 OA
ENDBRANCH   7   8
ENDBRANCH   6   7
ENDBRANCH   5   6
ENDBRANCH   4   5
ENDBRANCH   3   4
ENDBRANCH   2   3
ENDBRANCH   1   2
BRANCH   1  11
ATOM     11  C   UNL     1      22.400  11.666  35.290  1.00  0.00     0.000 C 
BRANCH  11  12
ATOM     12  C   UNL     1      21.944  10.196  35.293  1.00  0.00    -0.000 C 
BRANCH  12  13
ATOM     13  C   UNL     1      20.508  10.025  35.812  1.00  0.00    -0.000 C 
BRANCH  13  14
ATOM     14  C   UNL     1      19.579   9.365  34.782  1.00  0.00    -0.000 C 
BRANCH  14  15
ATOM     15  C   UNL     1      20.303   8.238  34.034  1.00  0.00    -0.000 C 
BRANCH  15  16
ATOM     16  C   UNL     1      20.335   6.952  34.874  1.00  0.00    -0.000 C 
BRANCH  16  17
ATOM     17  C   UNL     1      19.031   6.725  35.655  1.00  0.00    -0.003 C 
ATOM     18  C   UNL     1      19.268   6.112  37.035  1.00  0.00     0.004 C 
ENDBRANCH  16  17
ENDBRANCH  15  16
ENDBRANCH  14  15
ENDBRANCH  13  14
ENDBRANCH  12  13
ENDBRANCH  11  12
ENDBRANCH   1  11
TORSDOF 14
ENDMDL
MODEL 7
REMARK VINA RESULT:    -4.192     17.818     19.829
REMARK INTER + INTRA:          -8.957
REMARK INTER:                  -7.353
REMARK INTRA:                  -1.604
REMARK UNBOUND:                -1.335
REMARK SMILES CCCCCCCCCCCCCCCC(=O)[O-]
REMARK SMILES IDX 9 1 10 2 11 3 12 4 13 5 14 6 15 7 16 8 17 9 18 10 8 11 7 12
REMARK SMILES IDX 6 13 5 14 4 15 3 16 2 17 1 18
REMARK H PARENT
REMARK Flexibility Score: inf
ROOT
ATOM      1  C   UNL     1      21.362  10.578  35.681  1.00  0.00     0.000 C 
ENDROOT
BRANCH   1   2
ATOM      2  C   UNL     1      21.994  11.972  35.554  1.00  0.00     0.000 C 
BRANCH   2   3
ATOM      3  C   UNL     1      20.921  13.040  35.311  1.00  0.00     0.000 C 
BRANCH   3   4
ATOM      4  C   UNL     1      21.150  13.756  33.972  1.00  0.00     0.000 C 
BRANCH   4   5
ATOM      5  C   UNL     1      20.949  12.834  32.756  1.00  0.00     0.000 C 
BRANCH   5   6
ATOM      6  C   UNL     1      21.528  13.368  31.429  1.00  0.00     0.006 C 
BRANCH   6   7
ATOM      7  C   UNL     1      20.990  14.743  31.005  1.00  0.00     0.053 C 
BRANCH   7   8
ATOM      8  C   UNL     1      22.072  15.778  30.961  1.00  0.00     0.041 C 
ATOM      9  O   UNL     1      21.884  16.915  31.470  1.00  0.00    -0.550 OA
ATOM     10  O   UNL     1      23.301  15.476  30.387  1.00  0.00    -0.550 OA
ENDBRANCH   7   8
ENDBRANCH   6   7
ENDBRANCH   5   6
ENDBRANCH   4   5
ENDBRANCH   3   4
ENDBRANCH   2   3
ENDBRANCH   1   2
BRANCH   1  11
ATOM     11  C   UNL     1      19.828  10.609  35.588  1.00  0.00     0.000 C 
BRANCH  11  12
ATOM     12  C   UNL     1      19.297   9.875  34.344  1.00  0.00    -0.000 C 
BRANCH  12  13
ATOM     13  C   UNL     1      20.410   9.163  33.559  1.00  0.00    -0.000 C 
BRANCH  13  14
ATOM     14  C   UNL     1      20.033   7.727  33.165  1.00  0.00    -0.000 C 
BRANCH  14  15
ATOM     15  C   UNL     1      20.330   6.749  34.308  1.00  0.00    -0.000 C 
BRANCH  15  16
ATOM     16  C   UNL     1      19.075   6.501  35.160  1.00  0.00    -0.000 C 
BRANCH  16  17
ATOM     17  C   UNL     1      19.400   6.308  36.649  1.00  0.00    -0.003 C 
ATOM     18  C   UNL     1      19.282   7.601  37.453  1.00  0.00     0.004 C 
ENDBRANCH  16  17
ENDBRANCH  15  16
ENDBRANCH  14  15
ENDBRANCH  13  14
ENDBRANCH  12  13
ENDBRANCH  11  12
ENDBRANCH   1  11
TORSDOF 14
ENDMDL
MODEL 8
REMARK VINA RESULT:    -4.163     17.714     19.427
REMARK INTER + INTRA:          -8.904
REMARK INTER:                  -6.808
REMARK INTRA:                  -2.096
REMARK UNBOUND:                -1.335
REMARK SMILES CCCCCCCCCCCCCCCC(=O)[O-]
REMARK SMILES IDX 9 1 10 2 11 3 12 4 13 5 14 6 15 7 16 8 17 9 18 10 8 11 7 12
REMARK SMILES IDX 6 13 5 14 4 15 3 16 2 17 1 18
REMARK H PARENT
REMARK Flexibility Score: inf
ROOT
ATOM      1  C   UNL     1      21.834  11.351  34.762  1.00  0.00     0.000 C 
ENDROOT
BRANCH   1   2
ATOM      2  C   UNL     1      21.732  12.628  35.610  1.00  0.00     0.000 C 
BRANCH   2   3
ATOM      3  C   UNL     1      20.419  13.368  35.330  1.00  0.00     0.000 C 
BRANCH   3   4
ATOM      4  C   UNL     1      19.223  12.613  35.927  1.00  0.00     0.000 C 
BRANCH   4   5
ATOM      5  C   UNL     1      18.039  12.492  34.950  1.00  0.00     0.000 C 
BRANCH   5   6
ATOM      6  C   UNL     1      18.027  11.207  34.096  1.00  0.00     0.006 C 
BRANCH   6   7
ATOM      7  C   UNL     1      18.771  11.323  32.757  1.00  0.00     0.053 C 
BRANCH   7   8
ATOM      8  C   UNL     1      19.049   9.981  32.154  1.00  0.00     0.041 C 
ATOM      9  O   UNL     1      18.099   9.205  31.867  1.00  0.00    -0.550 OA
ATOM     10  O   UNL     1      20.356   9.600  31.878  1.00  0.00    -0.550 OA
ENDBRANCH   7   8
ENDBRANCH   6   7
ENDBRANCH   5   6
ENDBRANCH   4   5
ENDBRANCH   3   4
ENDBRANCH   2   3
ENDBRANCH   1   2
BRANCH   1  11
ATOM     11  C   UNL     1      21.907  10.075  35.615  1.00  0.00     0.000 C 
BRANCH  11  12
ATOM     12  C   UNL     1      20.732   9.117  35.347  1.00  0.00    -0.000 C 
BRANCH  12  13
ATOM     13  C   UNL     1      19.777   9.004  36.546  1.00  0.00    -0.000 C 
BRANCH  13  14
ATOM     14  C   UNL     1      19.335   7.559  36.818  1.00  0.00    -0.000 C 
BRANCH  14  15
ATOM     15  C   UNL     1      19.768   6.628  35.678  1.00  0.00    -0.000 C 
BRANCH  15  16
ATOM     16  C   UNL     1      18.570   6.245  34.796  1.00  0.00    -0.000 C 
BRANCH  16  17
ATOM     17  C   UNL     1      18.935   6.169  33.305  1.00  0.00    -0.003 C 
ATOM     18  C   UNL     1      20.442   6.220  33.062  1.00  0.00     0.004 C 
ENDBRANCH  16  17
ENDBRANCH  15  16
ENDBRANCH  14  15
ENDBRANCH  13  14
ENDBRANCH  12  13
ENDBRANCH  11  12
ENDBRANCH   1  11
TORSDOF 14
ENDMDL
MODEL 9
REMARK VINA RESULT:    -4.149     17.402     19.049
REMARK INTER + INTRA:          -8.879
REMARK INTER:                  -6.599
REMARK INTRA:                  -2.280
REMARK UNBOUND:                -1.335
REMARK SMILES CCCCCCCCCCCCCCCC(=O)[O-]
REMARK SMILES IDX 9 1 10 2 11 3 12 4 13 5 14 6 15 7 16 8 17 9 18 10 8 11 7 12
REMARK SMILES IDX 6 13 5 14 4 15 3 16 2 17 1 18
REMARK H PARENT
REMARK Flexibility Score: inf
ROOT
ATOM      1  C   UNL     1      20.366  10.976  31.541  1.00  0.00     0.000 C 
ENDROOT
BRANCH   1   2
ATOM      2  C   UNL     1      18.952  10.377  31.499  1.00  0.00     0.000 C 
BRANCH   2   3
ATOM      3  C   UNL     1      18.821   9.211  32.486  1.00  0.00     0.000 C 
BRANCH   3   4
ATOM      4  C   UNL     1      20.166   8.494  32.672  1.00  0.00     0.000 C 
BRANCH   4   5
ATOM      5  C   UNL     1      20.022   6.964  32.766  1.00  0.00     0.000 C 
BRANCH   5   6
ATOM      6  C   UNL     1      19.474   6.441  34.110  1.00  0.00     0.006 C 
BRANCH   6   7
ATOM      7  C   UNL     1      20.165   7.026  35.351  1.00  0.00     0.053 C 
BRANCH   7   8
ATOM      8  C   UNL     1      19.335   6.854  36.587  1.00  0.00     0.041 C 
ATOM      9  O   UNL     1      19.368   7.721  37.499  1.00  0.00    -0.550 OA
ATOM     10  O   UNL     1      18.500   5.750  36.715  1.00  0.00    -0.550 OA
ENDBRANCH   7   8
ENDBRANCH   6   7
ENDBRANCH   5   6
ENDBRANCH   4   5
ENDBRANCH   3   4
ENDBRANCH   2   3
ENDBRANCH   1   2
BRANCH   1  11
ATOM     11  C   UNL     1      20.380  12.437  32.019  1.00  0.00     0.000 C 
BRANCH  11  12
ATOM     12  C   UNL     1      21.581  12.750  32.928  1.00  0.00    -0.000 C 
BRANCH  12  13
ATOM     13  C   UNL     1      22.179  11.489  33.572  1.00  0.00    -0.000 C 
BRANCH  13  14
ATOM     14  C   UNL     1      22.212  11.564  35.105  1.00  0.00    -0.000 C 
BRANCH  14  15
ATOM     15  C   UNL     1      21.308  10.492  35.727  1.00  0.00    -0.000 C 
BRANCH  15  16
ATOM     16  C   UNL     1      19.825  10.841  35.531  1.00  0.00    -0.000 C 
BRANCH  16  17
ATOM     17  C   UNL     1      19.405  12.093  36.316  1.00  0.00    -0.003 C 
ATOM     18  C   UNL     1      18.916  13.223  35.412  1.00  0.00     0.004 C 
ENDBRANCH  16  17
ENDBRANCH  15  16
ENDBRANCH  14  15
ENDBRANCH  13  14
ENDBRANCH  12  13
ENDBRANCH  11  12
ENDBRANCH   1  11
TORSDOF 14
ENDMDL
