MODEL 1
REMARK VINA RESULT:    -4.425      0.000      0.000
REMARK INTER + INTRA:          -7.592
REMARK INTER:                  -7.012
REMARK INTRA:                  -0.580
REMARK UNBOUND:                -0.580
REMARK SMILES CCCCCCCCCCCC(=O)[O-]
REMARK SMILES IDX 7 1 8 2 9 3 10 4 11 5 12 6 13 7 14 8 6 9 5 10 4 11 3 12 2 13
REMARK SMILES IDX 1 14
REMARK H PARENT
REMARK Flexibility Score: inf
ROOT
ATOM      1  C   UNL     1      -4.483  -3.425  -3.234  1.00  0.00     0.000 C 
ENDROOT
BRANCH   1   2
ATOM      2  C   UNL     1      -5.262  -3.511  -4.555  1.00  0.00     0.000 C 
BRANCH   2   3
ATOM      3  C   UNL     1      -4.312  -3.446  -5.757  1.00  0.00     0.000 C 
BRANCH   3   4
ATOM      4  C   UNL     1      -3.939  -1.996  -6.088  1.00  0.00     0.006 C 
BRANCH   4   5
ATOM      5  C   UNL     1      -5.190  -1.157  -6.366  1.00  0.00     0.053 C 
BRANCH   5   6
ATOM      6  C   UNL     1      -4.996   0.247  -5.888  1.00  0.00     0.041 C 
ATOM      7  O   UNL     1      -4.150   0.499  -4.990  1.00  0.00    -0.550 OA
ATOM      8  O   UNL     1      -5.713   1.285  -6.468  1.00  0.00    -0.550 OA
ENDBRANCH   5   6
ENDBRANCH   4   5
ENDBRANCH   3   4
ENDBRANCH   2   3
ENDBRANCH   1   2
BRANCH   1   9
ATOM      9  C   UNL     1      -5.331  -3.814  -2.009  1.00  0.00     0.000 C 
BRANCH   9  10
ATOM     10  C   UNL     1      -5.042  -3.016  -0.720  1.00  0.00    -0.000 C 
BRANCH  10  11
ATOM     11  C   UNL     1      -6.253  -2.826   0.216  1.00  0.00    -0.000 C 
BRANCH  11  12
ATOM     12  C   UNL     1      -7.611  -3.153  -0.447  1.00  0.00    -0.000 C 
BRANCH  12  13
ATOM     13  C   UNL     1      -8.545  -3.983   0.449  1.00  0.00    -0.003 C 
ATOM     14  C   UNL     1      -8.273  -5.483   0.362  1.00  0.00     0.004 C 
ENDBRANCH  12  13
ENDBRANCH  11  12
ENDBRANCH  10  11
ENDBRANCH   9  10
ENDBRANCH   1   9
TORSDOF 10
ENDMDL
MODEL 2
REMARK VINA RESULT:    -4.401      1.215      1.996
REMARK INTER + INTRA:          -7.555
REMARK INTER:                  -6.947
REMARK INTRA:                  -0.607
REMARK UNBOUND:                -0.580
REMARK SMILES CCCCCCCCCCCC(=O)[O-]
REMARK SMILES IDX 7 1 8 2 9 3 10 4 11 5 12 6 13 7 14 8 6 9 5 10 4 11 3 12 2 13
REMARK SMILES IDX 1 14
REMARK H PARENT
REMARK Flexibility Score: inf
ROOT
ATOM      1  C   UNL     1      -4.806  -4.201  -1.224  1.00  0.00     0.000 C 
ENDROOT
BRANCH   1   2
ATOM      2  C   UNL     1      -5.337  -4.365  -2.657  1.00  0.00     0.000 C 
BRANCH   2   3
ATOM      3  C   UNL     1      -4.704  -3.333  -3.598  1.00  0.00     0.000 C 
BRANCH   3   4
ATOM      4  C   UNL     1      -5.258  -3.472  -5.020  1.00  0.00     0.006 C 
BRANCH   4   5
ATOM      5  C   UNL     1      -4.242  -2.983  -6.057  1.00  0.00     0.053 C 
BRANCH   5   6
ATOM      6  C   UNL     1      -4.436  -1.526  -6.334  1.00  0.00     0.041 C 
ATOM      7  O   UNL     1      -3.449  -0.802  -6.631  1.00  0.00    -0.550 OA
ATOM      8  O   UNL     1      -5.710  -0.977  -6.314  1.00  0.00    -0.550 OA
ENDBRANCH   5   6
ENDBRANCH   4   5
ENDBRANCH   3   4
ENDBRANCH   2   3
ENDBRANCH   1   2
BRANCH   1   9
ATOM      9  C   UNL     1      -5.220  -2.867  -0.578  1.00  0.00     0.000 C 
BRANCH   9  10
ATOM     10  C   UNL     1      -6.350  -2.958   0.469  1.00  0.00    -0.000 C 
BRANCH  10  11
ATOM     11  C   UNL     1      -7.776  -3.053  -0.114  1.00  0.00    -0.000 C 
BRANCH  11  12
ATOM     12  C   UNL     1      -8.412  -4.455   0.022  1.00  0.00    -0.000 C 
BRANCH  12  13
ATOM     13  C   UNL     1      -8.477  -4.960   1.473  1.00  0.00    -0.003 C 
ATOM     14  C   UNL     1      -9.900  -4.988   2.028  1.00  0.00     0.004 C 
ENDBRANCH  12  13
ENDBRANCH  11  12
ENDBRANCH  10  11
ENDBRANCH   9  10
ENDBRANCH   1   9
TORSDOF 10
ENDMDL
MODEL 3
REMARK VINA RESULT:    -4.308      1.033      1.477
REMARK INTER + INTRA:          -7.406
REMARK INTER:                  -6.737
REMARK INTRA:                  -0.670
REMARK UNBOUND:                -0.580
REMARK SMILES CCCCCCCCCCCC(=O)[O-]
REMARK SMILES IDX 7 1 8 2 9 3 10 4 11 5 12 6 13 7 14 8 6 9 5 10 4 11 3 12 2 13
REMARK SMILES IDX 1 14
REMARK H PARENT
REMARK Flexibility Score: inf
ROOT
ATOM      1  C   UNL     1      -4.332  -4.171  -3.956  1.00  0.00     0.000 C 
ENDROOT
BRANCH   1   2
ATOM      2  C   UNL     1      -5.129  -3.437  -5.046  1.00  0.00     0.000 C 
BRANCH   2   3
ATOM      3  C   UNL     1      -4.198  -2.910  -6.144  1.00  0.00     0.000 C 
BRANCH   3   4
ATOM      4  C   UNL     1      -4.643  -1.523  -6.624  1.00  0.00     0.006 C 
BRANCH   4   5
ATOM      5  C   UNL     1      -4.292  -0.445  -5.594  1.00  0.00     0.053 C 
BRANCH   5   6
ATOM      6  C   UNL     1      -4.830   0.884  -6.022  1.00  0.00     0.041 C 
ATOM      7  O   UNL     1      -4.077   1.893  -6.045  1.00  0.00    -0.550 OA
ATOM      8  O   UNL     1      -6.148   0.999  -6.442  1.00  0.00    -0.550 OA
ENDBRANCH   5   6
ENDBRANCH   4   5
ENDBRANCH   3   4
ENDBRANCH   2   3
ENDBRANCH   1   2
BRANCH   1   9
ATOM      9  C   UNL     1      -4.770  -3.789  -2.531  1.00  0.00     0.000 C 
BRANCH   9  10
ATOM     10  C   UNL     1      -3.981  -2.633  -1.881  1.00  0.00    -0.000 C 
BRANCH  10  11
ATOM     11  C   UNL     1      -4.444  -2.242  -0.462  1.00  0.00    -0.000 C 
BRANCH  11  12
ATOM     12  C   UNL     1      -5.407  -3.264   0.184  1.00  0.00    -0.000 C 
BRANCH  12  13
ATOM     13  C   UNL     1      -6.814  -2.701   0.442  1.00  0.00    -0.003 C 
ATOM     14  C   UNL     1      -7.900  -3.434  -0.343  1.00  0.00     0.004 C 
ENDBRANCH  12  13
ENDBRANCH  11  12
ENDBRANCH  10  11
ENDBRANCH   9  10
ENDBRANCH   1   9
TORSDOF 10
ENDMDL
MODEL 4
REMARK VINA RESULT:    -4.109      1.348      1.995
REMARK INTER + INTRA:          -7.091
REMARK INTER:                  -6.284
REMARK INTRA:                  -0.807
REMARK UNBOUND:                -0.580
REMARK SMILES CCCCCCCCCCCC(=O)[O-]
REMARK SMILES IDX 7 1 8 2 9 3 10 4 11 5 12 6 13 7 14 8 6 9 5 10 4 11 3 12 2 13
REMARK SMILES IDX 1 14
REMARK H PARENT
REMARK Flexibility Score: inf
ROOT
ATOM      1  C   UNL     1      -2.949  -2.400  -2.668  1.00  0.00     0.000 C 
ENDROOT
BRANCH   1   2
ATOM      2  C   UNL     1      -3.005  -3.568  -3.664  1.00  0.00     0.000 C 
BRANCH   2   3
ATOM      3  C   UNL     1      -4.432  -4.113  -3.791  1.00  0.00     0.000 C 
BRANCH   3   4
ATOM      4  C   UNL     1      -5.237  -3.316  -4.824  1.00  0.00     0.006 C 
BRANCH   4   5
ATOM      5  C   UNL     1      -4.392  -3.014  -6.066  1.00  0.00     0.053 C 
BRANCH   5   6
ATOM      6  C   UNL     1      -4.460  -1.559  -6.405  1.00  0.00     0.041 C 
ATOM      7  O   UNL     1      -5.576  -0.986  -6.514  1.00  0.00    -0.550 OA
ATOM      8  O   UNL     1      -3.292  -0.823  -6.551  1.00  0.00    -0.550 OA
ENDBRANCH   5   6
ENDBRANCH   4   5
ENDBRANCH   3   4
ENDBRANCH   2   3
ENDBRANCH   1   2
BRANCH   1   9
ATOM      9  C   UNL     1      -3.153  -2.845  -1.208  1.00  0.00     0.000 C 
BRANCH   9  10
ATOM     10  C   UNL     1      -4.385  -2.246  -0.497  1.00  0.00    -0.000 C 
BRANCH  10  11
ATOM     11  C   UNL     1      -5.378  -3.279   0.072  1.00  0.00    -0.000 C 
BRANCH  11  12
ATOM     12  C   UNL     1      -6.647  -3.465  -0.790  1.00  0.00    -0.000 C 
BRANCH  12  13
ATOM     13  C   UNL     1      -7.953  -3.216  -0.018  1.00  0.00    -0.003 C 
ATOM     14  C   UNL     1      -8.470  -4.466   0.693  1.00  0.00     0.004 C 
ENDBRANCH  12  13
ENDBRANCH  11  12
ENDBRANCH  10  11
ENDBRANCH   9  10
ENDBRANCH   1   9
TORSDOF 10
ENDMDL
MODEL 5
REMARK VINA RESULT:    -4.088      3.699      6.905
REMARK INTER + INTRA:          -7.059
REMARK INTER:                  -6.369
REMARK INTRA:                  -0.689
REMARK UNBOUND:                -0.580
REMARK SMILES CCCCCCCCCCCC(=O)[O-]
REMARK SMILES IDX 7 1 8 2 9 3 10 4 11 5 12 6 13 7 14 8 6 9 5 10 4 11 3 12 2 13
REMARK SMILES IDX 1 14
REMARK H PARENT
REMARK Flexibility Score: inf
ROOT
ATOM      1  C   UNL     1      -3.636  -3.538  -1.354  1.00  0.00     0.000 C 
ENDROOT
BRANCH   1   2
ATOM      2  C   UNL     1      -4.719  -2.640  -0.738  1.00  0.00     0.000 C 
BRANCH   2   3
ATOM      3  C   UNL     1      -5.605  -3.433   0.230  1.00  0.00     0.000 C 
BRANCH   3   4
ATOM      4  C   UNL     1      -6.986  -2.783   0.373  1.00  0.00     0.006 C 
BRANCH   4   5
ATOM      5  C   UNL     1      -8.088  -3.711  -0.146  1.00  0.00     0.053 C 
BRANCH   5   6
ATOM      6  C   UNL     1      -8.096  -4.996   0.620  1.00  0.00     0.041 C 
ATOM      7  O   UNL     1      -7.897  -6.088   0.026  1.00  0.00    -0.550 OA
ATOM      8  O   UNL     1      -8.273  -4.984   1.997  1.00  0.00    -0.550 OA
ENDBRANCH   5   6
ENDBRANCH   4   5
ENDBRANCH   3   4
ENDBRANCH   2   3
ENDBRANCH   1   2
BRANCH   1   9
ATOM      9  C   UNL     1      -3.750  -3.654  -2.885  1.00  0.00     0.000 C 
BRANCH   9  10
ATOM     10  C   UNL     1      -5.169  -3.924  -3.427  1.00  0.00    -0.000 C 
BRANCH  10  11
ATOM     11  C   UNL     1      -5.421  -3.439  -4.870  1.00  0.00    -0.000 C 
BRANCH  11  12
ATOM     12  C   UNL     1      -4.150  -3.409  -5.748  1.00  0.00    -0.000 C 
BRANCH  12  13
ATOM     13  C   UNL     1      -3.925  -2.061  -6.453  1.00  0.00    -0.003 C 
ATOM     14  C   UNL     1      -5.138  -1.136  -6.365  1.00  0.00     0.004 C 
ENDBRANCH  12  13
ENDBRANCH  11  12
ENDBRANCH  10  11
ENDBRANCH   9  10
ENDBRANCH   1   9
TORSDOF 10
ENDMDL
MODEL 6
REMARK VINA RESULT:    -4.083      7.877     11.985
REMARK INTER + INTRA:          -7.051
REMARK INTER:                  -5.756
REMARK INTRA:                  -1.295
REMARK UNBOUND:                -0.580
REMARK SMILES CCCCCCCCCCCC(=O)[O-]
REMARK SMILES IDX 7 1 8 2 9 3 10 4 11 5 12 6 13 7 14 8 6 9 5 10 4 11 3 12 2 13
REMARK SMILES IDX 1 14
REMARK H PARENT
REMARK Flexibility Score: inf
ROOT
ATOM      1  C   UNL     1      -2.496   2.843 -12.553  1.00  0.00     0.000 C 
ENDROOT
BRANCH   1   2
ATOM      2  C   UNL     1      -1.583   2.864 -11.317  1.00  0.00     0.000 C 
BRANCH   2   3
ATOM      3  C   UNL     1      -2.293   3.512 -10.123  1.00  0.00     0.000 C 
BRANCH   3   4
ATOM      4  C   UNL     1      -1.671   3.055  -8.798  1.00  0.00     0.006 C 
BRANCH   4   5
ATOM      5  C   UNL     1      -0.925   1.728  -8.969  1.00  0.00     0.053 C 
BRANCH   5   6
ATOM      6  C   UNL     1      -1.280   0.781  -7.868  1.00  0.00     0.041 C 
ATOM      7  O   UNL     1      -0.587  -0.253  -7.674  1.00  0.00    -0.550 OA
ATOM      8  O   UNL     1      -2.345   1.062  -7.024  1.00  0.00    -0.550 OA
ENDBRANCH   5   6
ENDBRANCH   4   5
ENDBRANCH   3   4
ENDBRANCH   2   3
ENDBRANCH   1   2
BRANCH   1   9
ATOM      9  C   UNL     1      -3.788   3.657 -12.361  1.00  0.00     0.000 C 
BRANCH   9  10
ATOM     10  C   UNL     1      -4.155   4.605 -13.522  1.00  0.00    -0.000 C 
BRANCH  10  11
ATOM     11  C   UNL     1      -3.401   5.951 -13.531  1.00  0.00    -0.000 C 
BRANCH  11  12
ATOM     12  C   UNL     1      -3.266   6.599 -12.134  1.00  0.00    -0.000 C 
BRANCH  12  13
ATOM     13  C   UNL     1      -1.808   6.856 -11.718  1.00  0.00    -0.003 C 
ATOM     14  C   UNL     1      -0.798   6.255 -12.693  1.00  0.00     0.004 C 
ENDBRANCH  12  13
ENDBRANCH  11  12
ENDBRANCH  10  11
ENDBRANCH   9  10
ENDBRANCH   1   9
TORSDOF 10
ENDMDL
MODEL 7
REMARK VINA RESULT:    -4.065      5.086      9.985
REMARK INTER + INTRA:          -7.022
REMARK INTER:                  -6.512
REMARK INTRA:                  -0.510
REMARK UNBOUND:                -0.580
REMARK SMILES CCCCCCCCCCCC(=O)[O-]
REMARK SMILES IDX 7 1 8 2 9 3 10 4 11 5 12 6 13 7 14 8 6 9 5 10 4 11 3 12 2 13
REMARK SMILES IDX 1 14
REMARK H PARENT
REMARK Flexibility Score: inf
ROOT
ATOM      1  C   UNL     1      -2.465   3.335  -8.345  1.00  0.00     0.000 C 
ENDROOT
BRANCH   1   2
ATOM      2  C   UNL     1      -2.834   2.870  -6.928  1.00  0.00     0.000 C 
BRANCH   2   3
ATOM      3  C   UNL     1      -4.349   2.685  -6.789  1.00  0.00     0.000 C 
BRANCH   3   4
ATOM      4  C   UNL     1      -4.692   1.874  -5.533  1.00  0.00     0.006 C 
BRANCH   4   5
ATOM      5  C   UNL     1      -3.936   0.543  -5.514  1.00  0.00     0.053 C 
BRANCH   5   6
ATOM      6  C   UNL     1      -4.741  -0.528  -6.179  1.00  0.00     0.041 C 
ATOM      7  O   UNL     1      -5.973  -0.361  -6.380  1.00  0.00    -0.550 OA
ATOM      8  O   UNL     1      -4.124  -1.689  -6.623  1.00  0.00    -0.550 OA
ENDBRANCH   5   6
ENDBRANCH   4   5
ENDBRANCH   3   4
ENDBRANCH   2   3
ENDBRANCH   1   2
BRANCH   1   9
ATOM      9  C   UNL     1      -1.106   2.790  -8.822  1.00  0.00     0.000 C 
BRANCH   9  10
ATOM     10  C   UNL     1      -1.071   2.272 -10.275  1.00  0.00    -0.000 C 
BRANCH  10  11
ATOM     11  C   UNL     1      -1.422   3.320 -11.351  1.00  0.00    -0.000 C 
BRANCH  11  12
ATOM     12  C   UNL     1      -2.413   2.807 -12.421  1.00  0.00    -0.000 C 
BRANCH  12  13
ATOM     13  C   UNL     1      -3.810   3.439 -12.315  1.00  0.00    -0.003 C 
ATOM     14  C   UNL     1      -4.150   4.331 -13.508  1.00  0.00     0.004 C 
ENDBRANCH  12  13
ENDBRANCH  11  12
ENDBRANCH  10  11
ENDBRANCH   9  10
ENDBRANCH   1   9
TORSDOF 10
ENDMDL
MODEL 8
REMARK VINA RESULT:    -4.033      6.484     11.443
REMARK INTER + INTRA:          -6.971
REMARK INTER:                  -6.309
REMARK INTRA:                  -0.662
REMARK UNBOUND:                -0.580
REMARK SMILES CCCCCCCCCCCC(=O)[O-]
REMARK SMILES IDX 7 1 8 2 9 3 10 4 11 5 12 6 13 7 14 8 6 9 5 10 4 11 3 12 2 13
REMARK SMILES IDX 1 14
REMARK H PARENT
REMARK Flexibility Score: inf
ROOT
ATOM      1  C   UNL     1      -1.656   3.061 -10.783  1.00  0.00     0.000 C 
ENDROOT
BRANCH   1   2
ATOM      2  C   UNL     1      -2.577   3.790  -9.793  1.00  0.00     0.000 C 
BRANCH   2   3
ATOM      3  C   UNL     1      -2.436   3.208  -8.382  1.00  0.00     0.000 C 
BRANCH   3   4
ATOM      4  C   UNL     1      -3.719   3.415  -7.569  1.00  0.00     0.006 C 
BRANCH   4   5
ATOM      5  C   UNL     1      -3.485   3.116  -6.085  1.00  0.00     0.053 C 
BRANCH   5   6
ATOM      6  C   UNL     1      -4.245   1.896  -5.670  1.00  0.00     0.041 C 
ATOM      7  O   UNL     1      -5.288   1.559  -6.289  1.00  0.00    -0.550 OA
ATOM      8  O   UNL     1      -3.775   1.104  -4.631  1.00  0.00    -0.550 OA
ENDBRANCH   5   6
ENDBRANCH   4   5
ENDBRANCH   3   4
ENDBRANCH   2   3
ENDBRANCH   1   2
BRANCH   1   9
ATOM      9  C   UNL     1      -2.304   2.848 -12.163  1.00  0.00     0.000 C 
BRANCH   9  10
ATOM     10  C   UNL     1      -3.731   3.415 -12.321  1.00  0.00    -0.000 C 
BRANCH  10  11
ATOM     11  C   UNL     1      -3.978   4.208 -13.621  1.00  0.00    -0.000 C 
BRANCH  11  12
ATOM     12  C   UNL     1      -3.265   5.579 -13.660  1.00  0.00    -0.000 C 
BRANCH  12  13
ATOM     13  C   UNL     1      -3.345   6.349 -12.331  1.00  0.00    -0.003 C 
ATOM     14  C   UNL     1      -3.273   7.863 -12.518  1.00  0.00     0.004 C 
ENDBRANCH  12  13
ENDBRANCH  11  12
ENDBRANCH  10  11
ENDBRANCH   9  10
ENDBRANCH   1   9
TORSDOF 10
ENDMDL
MODEL 9
REMARK VINA RESULT:    -3.974     12.886     14.710
REMARK INTER + INTRA:          -6.877
REMARK INTER:                  -5.535
REMARK INTRA:                  -1.342
REMARK UNBOUND:                -0.580
REMARK SMILES CCCCCCCCCCCC(=O)[O-]
REMARK SMILES IDX 7 1 8 2 9 3 10 4 11 5 12 6 13 7 14 8 6 9 5 10 4 11 3 12 2 13
REMARK SMILES IDX 1 14
REMARK H PARENT
REMARK Flexibility Score: inf
ROOT
ATOM      1  C   UNL     1     -16.848  -1.511  -9.999  1.00  0.00     0.000 C 
ENDROOT
BRANCH   1   2
ATOM      2  C   UNL     1     -17.342  -0.332  -9.147  1.00  0.00     0.000 C 
BRANCH   2   3
ATOM      3  C   UNL     1     -16.258   0.744  -9.018  1.00  0.00     0.000 C 
BRANCH   3   4
ATOM      4  C   UNL     1     -16.731   1.900  -8.129  1.00  0.00     0.006 C 
BRANCH   4   5
ATOM      5  C   UNL     1     -18.155   2.329  -8.496  1.00  0.00     0.053 C 
BRANCH   5   6
ATOM      6  C   UNL     1     -18.978   2.525  -7.262  1.00  0.00     0.041 C 
ATOM      7  O   UNL     1     -19.629   3.591  -7.099  1.00  0.00    -0.550 OA
ATOM      8  O   UNL     1     -19.066   1.513  -6.316  1.00  0.00    -0.550 OA
ENDBRANCH   5   6
ENDBRANCH   4   5
ENDBRANCH   3   4
ENDBRANCH   2   3
ENDBRANCH   1   2
BRANCH   1   9
ATOM      9  C   UNL     1     -15.331  -1.468 -10.263  1.00  0.00     0.000 C 
BRANCH   9  10
ATOM     10  C   UNL     1     -14.919  -1.323 -11.743  1.00  0.00    -0.000 C 
BRANCH  10  11
ATOM     11  C   UNL     1     -16.090  -1.269 -12.746  1.00  0.00    -0.000 C 
BRANCH  11  12
ATOM     12  C   UNL     1     -16.190   0.068 -13.517  1.00  0.00    -0.000 C 
BRANCH  12  13
ATOM     13  C   UNL     1     -16.283   1.298 -12.599  1.00  0.00    -0.003 C 
ATOM     14  C   UNL     1     -17.724   1.700 -12.292  1.00  0.00     0.004 C 
ENDBRANCH  12  13
ENDBRANCH  11  12
ENDBRANCH  10  11
ENDBRANCH   9  10
ENDBRANCH   1   9
TORSDOF 10
ENDMDL
