MODEL 1
REMARK VINA RESULT:    -4.798      0.000      0.000
REMARK INTER + INTRA:          -9.575
REMARK INTER:                  -8.165
REMARK INTRA:                  -1.410
REMARK UNBOUND:                -1.410
REMARK SMILES CCCCCCCCCCCCCC(=O)[O-]
REMARK SMILES IDX 8 1 9 2 10 3 11 4 12 5 13 6 14 7 15 8 16 9 7 10 6 11 5 12
REMARK SMILES IDX 4 13 3 14 2 15 1 16
REMARK H PARENT
REMARK Flexibility Score: inf
ROOT
ATOM      1  C   UNL     1       9.518  18.740  30.714  1.00  0.00     0.000 C 
ENDROOT
BRANCH   1   2
ATOM      2  C   UNL     1       9.596  18.189  32.145  1.00  0.00     0.000 C 
BRANCH   2   3
ATOM      3  C   UNL     1       8.357  18.535  32.991  1.00  0.00     0.000 C 
BRANCH   3   4
ATOM      4  C   UNL     1       8.426  18.084  34.462  1.00  0.00     0.000 C 
BRANCH   4   5
ATOM      5  C   UNL     1       8.304  19.251  35.453  1.00  0.00     0.006 C 
BRANCH   5   6
ATOM      6  C   UNL     1       7.996  18.741  36.864  1.00  0.00     0.053 C 
BRANCH   6   7
ATOM      7  C   UNL     1       8.340  19.782  37.883  1.00  0.00     0.041 C 
ATOM      8  O   UNL     1       8.706  20.930  37.518  1.00  0.00    -0.550 OA
ATOM      9  O   UNL     1       8.210  19.499  39.237  1.00  0.00    -0.550 OA
ENDBRANCH   6   7
ENDBRANCH   5   6
ENDBRANCH   4   5
ENDBRANCH   3   4
ENDBRANCH   2   3
ENDBRANCH   1   2
BRANCH   1  10
ATOM     10  C   UNL     1       8.201  19.495  30.488  1.00  0.00     0.000 C 
BRANCH  10  11
ATOM     11  C   UNL     1       8.242  20.287  29.173  1.00  0.00    -0.000 C 
BRANCH  11  12
ATOM     12  C   UNL     1       7.946  21.785  29.367  1.00  0.00    -0.000 C 
BRANCH  12  13
ATOM     13  C   UNL     1       7.875  22.252  30.836  1.00  0.00    -0.000 C 
BRANCH  13  14
ATOM     14  C   UNL     1       9.195  22.791  31.413  1.00  0.00    -0.000 C 
BRANCH  14  15
ATOM     15  C   UNL     1       9.606  22.091  32.717  1.00  0.00    -0.003 C 
ATOM     16  C   UNL     1      11.049  21.602  32.648  1.00  0.00     0.004 C 
ENDBRANCH  14  15
ENDBRANCH  13  14
ENDBRANCH  12  13
ENDBRANCH  11  12
ENDBRANCH  10  11
ENDBRANCH   1  10
TORSDOF 12
ENDMDL
MODEL 2
REMARK VINA RESULT:    -4.795      2.496      5.160
REMARK INTER + INTRA:          -9.570
REMARK INTER:                  -8.232
REMARK INTRA:                  -1.337
REMARK UNBOUND:                -1.410
REMARK SMILES CCCCCCCCCCCCCC(=O)[O-]
REMARK SMILES IDX 8 1 9 2 10 3 11 4 12 5 13 6 14 7 15 8 16 9 7 10 6 11 5 12
REMARK SMILES IDX 4 13 3 14 2 15 1 16
REMARK H PARENT
REMARK Flexibility Score: inf
ROOT
ATOM      1  C   UNL     1       8.522  19.468  30.515  1.00  0.00     0.000 C 
ENDROOT
BRANCH   1   2
ATOM      2  C   UNL     1       8.198  20.551  29.475  1.00  0.00     0.000 C 
BRANCH   2   3
ATOM      3  C   UNL     1       8.120  21.963  30.082  1.00  0.00     0.000 C 
BRANCH   3   4
ATOM      4  C   UNL     1       7.908  22.006  31.607  1.00  0.00     0.000 C 
BRANCH   4   5
ATOM      5  C   UNL     1       8.788  23.053  32.306  1.00  0.00     0.006 C 
BRANCH   5   6
ATOM      6  C   UNL     1      10.091  23.278  31.535  1.00  0.00     0.053 C 
BRANCH   6   7
ATOM      7  C   UNL     1      11.261  23.263  32.468  1.00  0.00     0.041 C 
ATOM      8  O   UNL     1      12.382  23.693  32.086  1.00  0.00    -0.550 OA
ATOM      9  O   UNL     1      11.103  22.820  33.774  1.00  0.00    -0.550 OA
ENDBRANCH   6   7
ENDBRANCH   5   6
ENDBRANCH   4   5
ENDBRANCH   3   4
ENDBRANCH   2   3
ENDBRANCH   1   2
BRANCH   1  10
ATOM     10  C   UNL     1       9.343  18.334  29.888  1.00  0.00     0.000 C 
BRANCH  10  11
ATOM     11  C   UNL     1       9.994  17.464  30.974  1.00  0.00    -0.000 C 
BRANCH  11  12
ATOM     12  C   UNL     1      10.124  18.192  32.324  1.00  0.00    -0.000 C 
BRANCH  12  13
ATOM     13  C   UNL     1       9.861  17.317  33.567  1.00  0.00    -0.000 C 
BRANCH  13  14
ATOM     14  C   UNL     1       8.708  17.792  34.468  1.00  0.00    -0.000 C 
BRANCH  14  15
ATOM     15  C   UNL     1       8.273  19.235  34.168  1.00  0.00    -0.003 C 
ATOM     16  C   UNL     1       9.014  20.228  35.059  1.00  0.00     0.004 C 
ENDBRANCH  14  15
ENDBRANCH  13  14
ENDBRANCH  12  13
ENDBRANCH  11  12
ENDBRANCH  10  11
ENDBRANCH   1  10
TORSDOF 12
ENDMDL
MODEL 3
REMARK VINA RESULT:    -4.772      2.469      2.625
REMARK INTER + INTRA:          -9.530
REMARK INTER:                  -8.023
REMARK INTRA:                  -1.507
REMARK UNBOUND:                -1.410
REMARK SMILES CCCCCCCCCCCCCC(=O)[O-]
REMARK SMILES IDX 8 1 9 2 10 3 11 4 12 5 13 6 14 7 15 8 16 9 7 10 6 11 5 12
REMARK SMILES IDX 4 13 3 14 2 15 1 16
REMARK H PARENT
REMARK Flexibility Score: inf
ROOT
ATOM      1  C   UNL     1       9.505  18.451  30.340  1.00  0.00     0.000 C 
ENDROOT
BRANCH   1   2
ATOM      2  C   UNL     1       9.857  17.682  31.621  1.00  0.00     0.000 C 
BRANCH   2   3
ATOM      3  C   UNL     1       9.073  18.173  32.851  1.00  0.00     0.000 C 
BRANCH   3   4
ATOM      4  C   UNL     1       9.586  17.646  34.204  1.00  0.00     0.000 C 
BRANCH   4   5
ATOM      5  C   UNL     1      10.152  18.754  35.105  1.00  0.00     0.006 C 
BRANCH   5   6
ATOM      6  C   UNL     1      11.677  18.662  35.195  1.00  0.00     0.053 C 
BRANCH   6   7
ATOM      7  C   UNL     1      12.086  17.399  35.886  1.00  0.00     0.041 C 
ATOM      8  O   UNL     1      12.865  16.589  35.317  1.00  0.00    -0.550 OA
ATOM      9  O   UNL     1      11.647  17.140  37.177  1.00  0.00    -0.550 OA
ENDBRANCH   6   7
ENDBRANCH   5   6
ENDBRANCH   4   5
ENDBRANCH   3   4
ENDBRANCH   2   3
ENDBRANCH   1   2
BRANCH   1  10
ATOM     10  C   UNL     1       8.447  19.526  30.618  1.00  0.00     0.000 C 
BRANCH  10  11
ATOM     11  C   UNL     1       8.123  20.320  29.344  1.00  0.00    -0.000 C 
BRANCH  11  12
ATOM     12  C   UNL     1       8.024  21.836  29.594  1.00  0.00    -0.000 C 
BRANCH  12  13
ATOM     13  C   UNL     1       8.118  22.263  31.073  1.00  0.00    -0.000 C 
BRANCH  13  14
ATOM     14  C   UNL     1       9.457  22.899  31.485  1.00  0.00    -0.000 C 
BRANCH  14  15
ATOM     15  C   UNL     1      10.023  22.308  32.784  1.00  0.00    -0.003 C 
ATOM     16  C   UNL     1      11.138  21.308  32.493  1.00  0.00     0.004 C 
ENDBRANCH  14  15
ENDBRANCH  13  14
ENDBRANCH  12  13
ENDBRANCH  11  12
ENDBRANCH  10  11
ENDBRANCH   1  10
TORSDOF 12
ENDMDL
MODEL 4
REMARK VINA RESULT:    -4.681      1.580      1.870
REMARK INTER + INTRA:          -9.375
REMARK INTER:                  -7.571
REMARK INTRA:                  -1.804
REMARK UNBOUND:                -1.410
REMARK SMILES CCCCCCCCCCCCCC(=O)[O-]
REMARK SMILES IDX 8 1 9 2 10 3 11 4 12 5 13 6 14 7 15 8 16 9 7 10 6 11 5 12
REMARK SMILES IDX 4 13 3 14 2 15 1 16
REMARK H PARENT
REMARK Flexibility Score: inf
ROOT
ATOM      1  C   UNL     1       9.010  18.467  30.550  1.00  0.00     0.000 C 
ENDROOT
BRANCH   1   2
ATOM      2  C   UNL     1      10.006  18.778  31.677  1.00  0.00     0.000 C 
BRANCH   2   3
ATOM      3  C   UNL     1       9.629  18.113  33.013  1.00  0.00     0.000 C 
BRANCH   3   4
ATOM      4  C   UNL     1       8.244  18.499  33.565  1.00  0.00     0.000 C 
BRANCH   4   5
ATOM      5  C   UNL     1       8.219  18.611  35.097  1.00  0.00     0.006 C 
BRANCH   5   6
ATOM      6  C   UNL     1       9.629  18.826  35.654  1.00  0.00     0.053 C 
BRANCH   6   7
ATOM      7  C   UNL     1       9.912  17.850  36.752  1.00  0.00     0.041 C 
ATOM      8  O   UNL     1      10.051  16.625  36.491  1.00  0.00    -0.550 OA
ATOM      9  O   UNL     1      10.072  18.297  38.057  1.00  0.00    -0.550 OA
ENDBRANCH   6   7
ENDBRANCH   5   6
ENDBRANCH   4   5
ENDBRANCH   3   4
ENDBRANCH   2   3
ENDBRANCH   1   2
BRANCH   1  10
ATOM     10  C   UNL     1       8.624  19.742  29.791  1.00  0.00     0.000 C 
BRANCH  10  11
ATOM     11  C   UNL     1       7.907  20.736  30.716  1.00  0.00    -0.000 C 
BRANCH  11  12
ATOM     12  C   UNL     1       8.346  22.193  30.483  1.00  0.00    -0.000 C 
BRANCH  12  13
ATOM     13  C   UNL     1       8.892  22.920  31.729  1.00  0.00    -0.000 C 
BRANCH  13  14
ATOM     14  C   UNL     1       9.023  22.046  32.989  1.00  0.00    -0.000 C 
BRANCH  14  15
ATOM     15  C   UNL     1      10.380  22.210  33.689  1.00  0.00    -0.003 C 
ATOM     16  C   UNL     1      11.530  21.856  32.750  1.00  0.00     0.004 C 
ENDBRANCH  14  15
ENDBRANCH  13  14
ENDBRANCH  12  13
ENDBRANCH  11  12
ENDBRANCH  10  11
ENDBRANCH   1  10
TORSDOF 12
ENDMDL
MODEL 5
REMARK VINA RESULT:    -4.675      2.542      4.136
REMARK INTER + INTRA:          -9.366
REMARK INTER:                  -8.275
REMARK INTRA:                  -1.091
REMARK UNBOUND:                -1.410
REMARK SMILES CCCCCCCCCCCCCC(=O)[O-]
REMARK SMILES IDX 8 1 9 2 10 3 11 4 12 5 13 6 14 7 15 8 16 9 7 10 6 11 5 12
REMARK SMILES IDX 4 13 3 14 2 15 1 16
REMARK H PARENT
REMARK Flexibility Score: inf
ROOT
ATOM      1  C   UNL     1       7.932  21.848  29.681  1.00  0.00     0.000 C 
ENDROOT
BRANCH   1   2
ATOM      2  C   UNL     1       8.077  20.377  29.266  1.00  0.00     0.000 C 
BRANCH   2   3
ATOM      3  C   UNL     1       8.422  19.450  30.446  1.00  0.00     0.000 C 
BRANCH   3   4
ATOM      4  C   UNL     1       9.509  18.401  30.153  1.00  0.00     0.000 C 
BRANCH   4   5
ATOM      5  C   UNL     1       9.916  17.595  31.396  1.00  0.00     0.006 C 
BRANCH   5   6
ATOM      6  C   UNL     1       9.340  18.222  32.668  1.00  0.00     0.053 C 
BRANCH   6   7
ATOM      7  C   UNL     1       9.942  17.589  33.883  1.00  0.00     0.041 C 
ATOM      8  O   UNL     1      11.171  17.721  34.124  1.00  0.00    -0.550 OA
ATOM      9  O   UNL     1       9.137  16.894  34.776  1.00  0.00    -0.550 OA
ENDBRANCH   6   7
ENDBRANCH   5   6
ENDBRANCH   4   5
ENDBRANCH   3   4
ENDBRANCH   2   3
ENDBRANCH   1   2
BRANCH   1  10
ATOM     10  C   UNL     1       8.082  22.007  31.200  1.00  0.00     0.000 C 
BRANCH  10  11
ATOM     11  C   UNL     1       9.429  22.653  31.554  1.00  0.00    -0.000 C 
BRANCH  11  12
ATOM     12  C   UNL     1      10.230  21.837  32.585  1.00  0.00    -0.000 C 
BRANCH  12  13
ATOM     13  C   UNL     1      11.727  22.199  32.686  1.00  0.00    -0.000 C 
BRANCH  13  14
ATOM     14  C   UNL     1      12.020  23.673  33.014  1.00  0.00    -0.000 C 
BRANCH  14  15
ATOM     15  C   UNL     1      12.826  24.380  31.913  1.00  0.00    -0.003 C 
ATOM     16  C   UNL     1      11.925  25.259  31.052  1.00  0.00     0.004 C 
ENDBRANCH  14  15
ENDBRANCH  13  14
ENDBRANCH  12  13
ENDBRANCH  11  12
ENDBRANCH  10  11
ENDBRANCH   1  10
TORSDOF 12
ENDMDL
MODEL 6
REMARK VINA RESULT:    -4.650      1.543      3.148
REMARK INTER + INTRA:          -9.323
REMARK INTER:                  -7.556
REMARK INTRA:                  -1.766
REMARK UNBOUND:                -1.410
REMARK SMILES CCCCCCCCCCCCCC(=O)[O-]
REMARK SMILES IDX 8 1 9 2 10 3 11 4 12 5 13 6 14 7 15 8 16 9 7 10 6 11 5 12
REMARK SMILES IDX 4 13 3 14 2 15 1 16
REMARK H PARENT
REMARK Flexibility Score: inf
ROOT
ATOM      1  C   UNL     1      11.483  19.166  34.885  1.00  0.00     0.000 C 
ENDROOT
BRANCH   1   2
ATOM      2  C   UNL     1      10.893  18.104  33.946  1.00  0.00     0.000 C 
BRANCH   2   3
ATOM      3  C   UNL     1       9.601  17.470  34.493  1.00  0.00     0.000 C 
BRANCH   3   4
ATOM      4  C   UNL     1       8.430  18.449  34.695  1.00  0.00     0.000 C 
BRANCH   4   5
ATOM      5  C   UNL     1       7.875  18.432  36.127  1.00  0.00     0.006 C 
BRANCH   5   6
ATOM      6  C   UNL     1       8.479  19.565  36.962  1.00  0.00     0.053 C 
BRANCH   6   7
ATOM      7  C   UNL     1       9.090  19.022  38.216  1.00  0.00     0.041 C 
ATOM      8  O   UNL     1      10.056  18.217  38.154  1.00  0.00    -0.550 OA
ATOM      9  O   UNL     1       8.624  19.444  39.455  1.00  0.00    -0.550 OA
ENDBRANCH   6   7
ENDBRANCH   5   6
ENDBRANCH   4   5
ENDBRANCH   3   4
ENDBRANCH   2   3
ENDBRANCH   1   2
BRANCH   1  10
ATOM     10  C   UNL     1      11.490  20.547  34.216  1.00  0.00     0.000 C 
BRANCH  10  11
ATOM     11  C   UNL     1      10.999  20.455  32.764  1.00  0.00    -0.000 C 
BRANCH  11  12
ATOM     12  C   UNL     1       9.889  21.473  32.443  1.00  0.00    -0.000 C 
BRANCH  12  13
ATOM     13  C   UNL     1       8.862  21.011  31.389  1.00  0.00    -0.000 C 
BRANCH  13  14
ATOM     14  C   UNL     1       8.573  19.500  31.378  1.00  0.00    -0.000 C 
BRANCH  14  15
ATOM     15  C   UNL     1       9.079  18.805  30.106  1.00  0.00    -0.003 C 
ATOM     16  C   UNL     1       9.938  17.591  30.447  1.00  0.00     0.004 C 
ENDBRANCH  14  15
ENDBRANCH  13  14
ENDBRANCH  12  13
ENDBRANCH  11  12
ENDBRANCH  10  11
ENDBRANCH   1  10
TORSDOF 12
ENDMDL
MODEL 7
REMARK VINA RESULT:    -4.598      1.832      3.478
REMARK INTER + INTRA:          -9.234
REMARK INTER:                  -7.463
REMARK INTRA:                  -1.771
REMARK UNBOUND:                -1.410
REMARK SMILES CCCCCCCCCCCCCC(=O)[O-]
REMARK SMILES IDX 8 1 9 2 10 3 11 4 12 5 13 6 14 7 15 8 16 9 7 10 6 11 5 12
REMARK SMILES IDX 4 13 3 14 2 15 1 16
REMARK H PARENT
REMARK Flexibility Score: inf
ROOT
ATOM      1  C   UNL     1      10.523  23.118  32.827  1.00  0.00     0.000 C 
ENDROOT
BRANCH   1   2
ATOM      2  C   UNL     1      11.233  21.759  32.741  1.00  0.00     0.000 C 
BRANCH   2   3
ATOM      3  C   UNL     1      11.072  20.915  34.018  1.00  0.00     0.000 C 
BRANCH   3   4
ATOM      4  C   UNL     1       9.766  21.156  34.797  1.00  0.00     0.000 C 
BRANCH   4   5
ATOM      5  C   UNL     1       9.069  19.853  35.217  1.00  0.00     0.006 C 
BRANCH   5   6
ATOM      6  C   UNL     1       9.990  18.648  35.012  1.00  0.00     0.053 C 
BRANCH   6   7
ATOM      7  C   UNL     1      10.319  18.011  36.326  1.00  0.00     0.041 C 
ATOM      8  O   UNL     1      10.844  18.691  37.247  1.00  0.00    -0.550 OA
ATOM      9  O   UNL     1      10.000  16.678  36.552  1.00  0.00    -0.550 OA
ENDBRANCH   6   7
ENDBRANCH   5   6
ENDBRANCH   4   5
ENDBRANCH   3   4
ENDBRANCH   2   3
ENDBRANCH   1   2
BRANCH   1  10
ATOM     10  C   UNL     1       9.625  23.347  31.604  1.00  0.00     0.000 C 
BRANCH  10  11
ATOM     11  C   UNL     1       8.444  22.366  31.600  1.00  0.00    -0.000 C 
BRANCH  11  12
ATOM     12  C   UNL     1       8.166  21.771  30.207  1.00  0.00    -0.000 C 
BRANCH  12  13
ATOM     13  C   UNL     1       8.307  20.238  30.110  1.00  0.00    -0.000 C 
BRANCH  13  14
ATOM     14  C   UNL     1       8.619  19.526  31.438  1.00  0.00    -0.000 C 
BRANCH  14  15
ATOM     15  C   UNL     1       9.862  18.629  31.356  1.00  0.00    -0.003 C 
ATOM     16  C   UNL     1       9.805  17.720  30.132  1.00  0.00     0.004 C 
ENDBRANCH  14  15
ENDBRANCH  13  14
ENDBRANCH  12  13
ENDBRANCH  11  12
ENDBRANCH  10  11
ENDBRANCH   1  10
TORSDOF 12
ENDMDL
MODEL 8
REMARK VINA RESULT:    -4.404      2.312      5.453
REMARK INTER + INTRA:          -8.904
REMARK INTER:                  -7.592
REMARK INTRA:                  -1.313
REMARK UNBOUND:                -1.410
REMARK SMILES CCCCCCCCCCCCCC(=O)[O-]
REMARK SMILES IDX 8 1 9 2 10 3 11 4 12 5 13 6 14 7 15 8 16 9 7 10 6 11 5 12
REMARK SMILES IDX 4 13 3 14 2 15 1 16
REMARK H PARENT
REMARK Flexibility Score: inf
ROOT
ATOM      1  C   UNL     1       9.784  17.951  31.895  1.00  0.00     0.000 C 
ENDROOT
BRANCH   1   2
ATOM      2  C   UNL     1       9.439  18.458  30.487  1.00  0.00     0.000 C 
BRANCH   2   3
ATOM      3  C   UNL     1       8.242  19.425  30.473  1.00  0.00     0.000 C 
BRANCH   3   4
ATOM      4  C   UNL     1       8.263  20.471  29.343  1.00  0.00     0.000 C 
BRANCH   4   5
ATOM      5  C   UNL     1       8.018  21.902  29.845  1.00  0.00     0.006 C 
BRANCH   5   6
ATOM      6  C   UNL     1       7.875  21.931  31.369  1.00  0.00     0.053 C 
BRANCH   6   7
ATOM      7  C   UNL     1       8.882  22.860  31.972  1.00  0.00     0.041 C 
ATOM      8  O   UNL     1       9.740  23.424  31.242  1.00  0.00    -0.550 OA
ATOM      9  O   UNL     1       8.843  23.141  33.331  1.00  0.00    -0.550 OA
ENDBRANCH   6   7
ENDBRANCH   5   6
ENDBRANCH   4   5
ENDBRANCH   3   4
ENDBRANCH   2   3
ENDBRANCH   1   2
BRANCH   1  10
ATOM     10  C   UNL     1      10.352  19.082  32.762  1.00  0.00     0.000 C 
BRANCH  10  11
ATOM     11  C   UNL     1       9.353  19.490  33.855  1.00  0.00    -0.000 C 
BRANCH  11  12
ATOM     12  C   UNL     1       8.192  18.489  34.007  1.00  0.00    -0.000 C 
BRANCH  12  13
ATOM     13  C   UNL     1       8.077  17.827  35.396  1.00  0.00    -0.000 C 
BRANCH  13  14
ATOM     14  C   UNL     1       9.004  18.410  36.476  1.00  0.00    -0.000 C 
BRANCH  14  15
ATOM     15  C   UNL     1       8.255  19.269  37.505  1.00  0.00    -0.003 C 
ATOM     16  C   UNL     1       8.585  20.748  37.331  1.00  0.00     0.004 C 
ENDBRANCH  14  15
ENDBRANCH  13  14
ENDBRANCH  12  13
ENDBRANCH  11  12
ENDBRANCH  10  11
ENDBRANCH   1  10
TORSDOF 12
ENDMDL
MODEL 9
REMARK VINA RESULT:    -3.845      2.218      3.795
REMARK INTER + INTRA:          -7.953
REMARK INTER:                  -6.440
REMARK INTRA:                  -1.513
REMARK UNBOUND:                -1.410
REMARK SMILES CCCCCCCCCCCCCC(=O)[O-]
REMARK SMILES IDX 8 1 9 2 10 3 11 4 12 5 13 6 14 7 15 8 16 9 7 10 6 11 5 12
REMARK SMILES IDX 4 13 3 14 2 15 1 16
REMARK H PARENT
REMARK Flexibility Score: inf
ROOT
ATOM      1  C   UNL     1       8.130  21.860  29.728  1.00  0.00     0.000 C 
ENDROOT
BRANCH   1   2
ATOM      2  C   UNL     1       8.220  20.375  29.348  1.00  0.00     0.000 C 
BRANCH   2   3
ATOM      3  C   UNL     1       8.382  19.451  30.568  1.00  0.00     0.000 C 
BRANCH   3   4
ATOM      4  C   UNL     1       9.593  18.502  30.510  1.00  0.00     0.000 C 
BRANCH   4   5
ATOM      5  C   UNL     1       9.766  17.670  31.790  1.00  0.00     0.006 C 
BRANCH   5   6
ATOM      6  C   UNL     1       8.793  18.130  32.878  1.00  0.00     0.053 C 
BRANCH   6   7
ATOM      7  C   UNL     1       9.275  17.699  34.228  1.00  0.00     0.041 C 
ATOM      8  O   UNL     1      10.416  18.045  34.633  1.00  0.00    -0.550 OA
ATOM      9  O   UNL     1       8.445  16.958  35.059  1.00  0.00    -0.550 OA
ENDBRANCH   6   7
ENDBRANCH   5   6
ENDBRANCH   4   5
ENDBRANCH   3   4
ENDBRANCH   2   3
ENDBRANCH   1   2
BRANCH   1  10
ATOM     10  C   UNL     1       7.875  22.027  31.232  1.00  0.00     0.000 C 
BRANCH  10  11
ATOM     11  C   UNL     1       8.764  23.133  31.819  1.00  0.00    -0.000 C 
BRANCH  11  12
ATOM     12  C   UNL     1      10.210  22.667  32.071  1.00  0.00    -0.000 C 
BRANCH  12  13
ATOM     13  C   UNL     1      10.347  21.401  32.943  1.00  0.00    -0.000 C 
BRANCH  13  14
ATOM     14  C   UNL     1       9.973  21.585  34.424  1.00  0.00    -0.000 C 
BRANCH  14  15
ATOM     15  C   UNL     1      10.392  22.955  34.978  1.00  0.00    -0.003 C 
ATOM     16  C   UNL     1       9.747  23.219  36.335  1.00  0.00     0.004 C 
ENDBRANCH  14  15
ENDBRANCH  13  14
ENDBRANCH  12  13
ENDBRANCH  11  12
ENDBRANCH  10  11
ENDBRANCH   1  10
TORSDOF 12
ENDMDL
