MODEL 1
REMARK VINA RESULT:    -5.012      0.000      0.000
REMARK INTER + INTRA:         -17.186
REMARK INTER:                 -13.216
REMARK INTRA:                  -3.971
REMARK UNBOUND:                -3.971
REMARK SMILES CCCCCCCCCCCCCCCCCCCCCCCCCCCCCC(=O)[O-]
REMARK SMILES IDX 16 1 17 2 18 3 19 4 20 5 21 6 22 7 23 8 24 9 25 10 26 11
REMARK SMILES IDX 27 12 28 13 29 14 30 15 31 16 32 17 15 18 14 19 13 20 12 21
REMARK SMILES IDX 11 22 10 23 9 24 8 25 7 26 6 27 5 28 4 29 3 30 2 31 1 32
REMARK H PARENT
REMARK Flexibility Score: inf
ROOT
ATOM      1  C   UNL     1      12.050   6.595  10.583  1.00  0.00     0.000 C 
ENDROOT
BRANCH   1   2
ATOM      2  C   UNL     1      11.282   7.332  11.692  1.00  0.00     0.000 C 
BRANCH   2   3
ATOM      3  C   UNL     1      11.374   8.859  11.561  1.00  0.00     0.000 C 
BRANCH   3   4
ATOM      4  C   UNL     1      12.032   9.259  10.235  1.00  0.00     0.000 C 
BRANCH   4   5
ATOM      5  C   UNL     1      12.405  10.751  10.233  1.00  0.00     0.000 C 
BRANCH   5   6
ATOM      6  C   UNL     1      12.442  11.357  11.646  1.00  0.00     0.000 C 
BRANCH   6   7
ATOM      7  C   UNL     1      12.211  12.878  11.641  1.00  0.00     0.000 C 
BRANCH   7   8
ATOM      8  C   UNL     1      11.032  13.309  12.531  1.00  0.00     0.000 C 
BRANCH   8   9
ATOM      9  C   UNL     1       9.694  12.599  12.245  1.00  0.00     0.000 C 
BRANCH   9  10
ATOM     10  C   UNL     1       9.363  11.509  13.276  1.00  0.00     0.000 C 
BRANCH  10  11
ATOM     11  C   UNL     1      10.202  11.626  14.563  1.00  0.00     0.000 C 
BRANCH  11  12
ATOM     12  C   UNL     1       9.521  11.107  15.846  1.00  0.00     0.000 C 
BRANCH  12  13
ATOM     13  C   UNL     1       9.634  12.034  17.070  1.00  0.00     0.006 C 
BRANCH  13  14
ATOM     14  C   UNL     1      10.323  13.368  16.747  1.00  0.00     0.053 C 
BRANCH  14  15
ATOM     15  C   UNL     1      10.795  14.046  17.997  1.00  0.00     0.041 C 
ATOM     16  O   UNL     1       9.961  14.444  18.853  1.00  0.00    -0.550 OA
ATOM     17  O   UNL     1      12.156  14.178  18.251  1.00  0.00    -0.550 OA
ENDBRANCH  14  15
ENDBRANCH  13  14
ENDBRANCH  12  13
ENDBRANCH  11  12
ENDBRANCH  10  11
ENDBRANCH   9  10
ENDBRANCH   8   9
ENDBRANCH   7   8
ENDBRANCH   6   7
ENDBRANCH   5   6
ENDBRANCH   4   5
ENDBRANCH   3   4
ENDBRANCH   2   3
ENDBRANCH   1   2
BRANCH   1  18
ATOM     18  C   UNL     1      11.248   5.425   9.986  1.00  0.00     0.000 C 
BRANCH  18  19
ATOM     19  C   UNL     1       9.988   5.092  10.801  1.00  0.00     0.000 C 
BRANCH  19  20
ATOM     20  C   UNL     1       8.985   4.225  10.020  1.00  0.00     0.000 C 
BRANCH  20  21
ATOM     21  C   UNL     1       9.604   3.582   8.765  1.00  0.00     0.000 C 
BRANCH  21  22
ATOM     22  C   UNL     1      10.032   2.108   8.923  1.00  0.00     0.000 C 
BRANCH  22  23
ATOM     23  C   UNL     1      11.529   1.890   9.209  1.00  0.00     0.000 C 
BRANCH  23  24
ATOM     24  C   UNL     1      11.795   0.653  10.079  1.00  0.00    -0.000 C 
BRANCH  24  25
ATOM     25  C   UNL     1      12.548   1.034  11.361  1.00  0.00    -0.000 C 
BRANCH  25  26
ATOM     26  C   UNL     1      13.127   2.458  11.307  1.00  0.00    -0.000 C 
BRANCH  26  27
ATOM     27  C   UNL     1      12.725   3.309  12.520  1.00  0.00    -0.000 C 
BRANCH  27  28
ATOM     28  C   UNL     1      11.953   2.466  13.547  1.00  0.00    -0.000 C 
BRANCH  28  29
ATOM     29  C   UNL     1      10.517   2.968  13.765  1.00  0.00    -0.000 C 
BRANCH  29  30
ATOM     30  C   UNL     1      10.423   4.018  14.885  1.00  0.00    -0.000 C 
BRANCH  30  31
ATOM     31  C   UNL     1       9.821   5.345  14.396  1.00  0.00    -0.003 C 
ATOM     32  C   UNL     1      10.298   6.545  15.212  1.00  0.00     0.004 C 
ENDBRANCH  30  31
ENDBRANCH  29  30
ENDBRANCH  28  29
ENDBRANCH  27  28
ENDBRANCH  26  27
ENDBRANCH  25  26
ENDBRANCH  24  25
ENDBRANCH  23  24
ENDBRANCH  22  23
ENDBRANCH  21  22
ENDBRANCH  20  21
ENDBRANCH  19  20
ENDBRANCH  18  19
ENDBRANCH   1  18
TORSDOF 28
ENDMDL
MODEL 2
REMARK VINA RESULT:    -4.966      5.056      8.576
REMARK INTER + INTRA:         -17.065
REMARK INTER:                 -11.056
REMARK INTRA:                  -6.009
REMARK UNBOUND:                -3.971
REMARK SMILES CCCCCCCCCCCCCCCCCCCCCCCCCCCCCC(=O)[O-]
REMARK SMILES IDX 16 1 17 2 18 3 19 4 20 5 21 6 22 7 23 8 24 9 25 10 26 11
REMARK SMILES IDX 27 12 28 13 29 14 30 15 31 16 32 17 15 18 14 19 13 20 12 21
REMARK SMILES IDX 11 22 10 23 9 24 8 25 7 26 6 27 5 28 4 29 3 30 2 31 1 32
REMARK H PARENT
REMARK Flexibility Score: inf
ROOT
ATOM      1  C   UNL     1      12.035   1.729  15.800  1.00  0.00     0.000 C 
ENDROOT
BRANCH   1   2
ATOM      2  C   UNL     1      13.419   1.967  15.175  1.00  0.00     0.000 C 
BRANCH   2   3
ATOM      3  C   UNL     1      13.475   1.571  13.692  1.00  0.00     0.000 C 
BRANCH   3   4
ATOM      4  C   UNL     1      12.900   2.682  12.804  1.00  0.00     0.000 C 
BRANCH   4   5
ATOM      5  C   UNL     1      12.522   2.136  11.417  1.00  0.00     0.000 C 
BRANCH   5   6
ATOM      6  C   UNL     1      12.775   0.626  11.281  1.00  0.00     0.000 C 
BRANCH   6   7
ATOM      7  C   UNL     1      11.852  -0.036  10.244  1.00  0.00     0.000 C 
BRANCH   7   8
ATOM      8  C   UNL     1      11.253   0.972   9.245  1.00  0.00     0.000 C 
BRANCH   8   9
ATOM      9  C   UNL     1       9.886   0.582   8.652  1.00  0.00     0.000 C 
BRANCH   9  10
ATOM     10  C   UNL     1       8.967   1.793   8.422  1.00  0.00     0.000 C 
BRANCH  10  11
ATOM     11  C   UNL     1       8.703   2.598   9.708  1.00  0.00     0.000 C 
BRANCH  11  12
ATOM     12  C   UNL     1       8.864   4.127   9.576  1.00  0.00     0.000 C 
BRANCH  12  13
ATOM     13  C   UNL     1      10.317   4.625   9.458  1.00  0.00     0.006 C 
BRANCH  13  14
ATOM     14  C   UNL     1      10.767   5.446  10.676  1.00  0.00     0.053 C 
BRANCH  14  15
ATOM     15  C   UNL     1      12.075   6.127  10.411  1.00  0.00     0.041 C 
ATOM     16  O   UNL     1      12.112   7.372  10.223  1.00  0.00    -0.550 OA
ATOM     17  O   UNL     1      13.261   5.401  10.439  1.00  0.00    -0.550 OA
ENDBRANCH  14  15
ENDBRANCH  13  14
ENDBRANCH  12  13
ENDBRANCH  11  12
ENDBRANCH  10  11
ENDBRANCH   9  10
ENDBRANCH   8   9
ENDBRANCH   7   8
ENDBRANCH   6   7
ENDBRANCH   5   6
ENDBRANCH   4   5
ENDBRANCH   3   4
ENDBRANCH   2   3
ENDBRANCH   1   2
BRANCH   1  18
ATOM     18  C   UNL     1      11.609   0.251  15.746  1.00  0.00     0.000 C 
BRANCH  18  19
ATOM     19  C   UNL     1      10.175   0.065  15.225  1.00  0.00     0.000 C 
BRANCH  19  20
ATOM     20  C   UNL     1      10.128  -0.330  13.738  1.00  0.00     0.000 C 
BRANCH  20  21
ATOM     21  C   UNL     1       9.389   0.705  12.871  1.00  0.00     0.000 C 
BRANCH  21  22
ATOM     22  C   UNL     1       8.880   1.951  13.623  1.00  0.00     0.000 C 
BRANCH  22  23
ATOM     23  C   UNL     1       9.608   3.263  13.281  1.00  0.00     0.000 C 
BRANCH  23  24
ATOM     24  C   UNL     1       8.968   4.492  13.945  1.00  0.00    -0.000 C 
BRANCH  24  25
ATOM     25  C   UNL     1       9.932   5.138  14.949  1.00  0.00    -0.000 C 
BRANCH  25  26
ATOM     26  C   UNL     1       9.829   4.518  16.353  1.00  0.00    -0.000 C 
BRANCH  26  27
ATOM     27  C   UNL     1       8.466   3.858  16.611  1.00  0.00    -0.000 C 
BRANCH  27  28
ATOM     28  C   UNL     1       8.625   2.594  17.469  1.00  0.00    -0.000 C 
BRANCH  28  29
ATOM     29  C   UNL     1       9.720   2.737  18.537  1.00  0.00    -0.000 C 
BRANCH  29  30
ATOM     30  C   UNL     1      10.273   1.379  19.002  1.00  0.00    -0.000 C 
BRANCH  30  31
ATOM     31  C   UNL     1      10.314   1.255  20.533  1.00  0.00    -0.003 C 
ATOM     32  C   UNL     1      11.461   2.049  21.158  1.00  0.00     0.004 C 
ENDBRANCH  30  31
ENDBRANCH  29  30
ENDBRANCH  28  29
ENDBRANCH  27  28
ENDBRANCH  26  27
ENDBRANCH  25  26
ENDBRANCH  24  25
ENDBRANCH  23  24
ENDBRANCH  22  23
ENDBRANCH  21  22
ENDBRANCH  20  21
ENDBRANCH  19  20
ENDBRANCH  18  19
ENDBRANCH   1  18
TORSDOF 28
ENDMDL
MODEL 3
REMARK VINA RESULT:    -4.961      4.687      8.080
REMARK INTER + INTRA:         -17.053
REMARK INTER:                 -10.999
REMARK INTRA:                  -6.053
REMARK UNBOUND:                -3.971
REMARK SMILES CCCCCCCCCCCCCCCCCCCCCCCCCCCCCC(=O)[O-]
REMARK SMILES IDX 16 1 17 2 18 3 19 4 20 5 21 6 22 7 23 8 24 9 25 10 26 11
REMARK SMILES IDX 27 12 28 13 29 14 30 15 31 16 32 17 15 18 14 19 13 20 12 21
REMARK SMILES IDX 11 22 10 23 9 24 8 25 7 26 6 27 5 28 4 29 3 30 2 31 1 32
REMARK H PARENT
REMARK Flexibility Score: inf
ROOT
ATOM      1  C   UNL     1      13.342   2.132  14.979  1.00  0.00     0.000 C 
ENDROOT
BRANCH   1   2
ATOM      2  C   UNL     1      12.393   1.317  15.872  1.00  0.00     0.000 C 
BRANCH   2   3
ATOM      3  C   UNL     1      11.662   0.208  15.100  1.00  0.00     0.000 C 
BRANCH   3   4
ATOM      4  C   UNL     1      10.267  -0.042  15.685  1.00  0.00     0.000 C 
BRANCH   4   5
ATOM      5  C   UNL     1       9.182   0.620  14.820  1.00  0.00     0.000 C 
BRANCH   5   6
ATOM      6  C   UNL     1       9.525   0.608  13.321  1.00  0.00     0.000 C 
BRANCH   6   7
ATOM      7  C   UNL     1       9.586   2.022  12.720  1.00  0.00     0.000 C 
BRANCH   7   8
ATOM      8  C   UNL     1       9.157   3.117  13.714  1.00  0.00     0.000 C 
BRANCH   8   9
ATOM      9  C   UNL     1      10.266   4.100  14.134  1.00  0.00     0.000 C 
BRANCH   9  10
ATOM     10  C   UNL     1      10.196   4.481  15.622  1.00  0.00     0.000 C 
BRANCH  10  11
ATOM     11  C   UNL     1       8.982   3.864  16.341  1.00  0.00     0.000 C 
BRANCH  11  12
ATOM     12  C   UNL     1       9.134   3.692  17.867  1.00  0.00     0.000 C 
BRANCH  12  13
ATOM     13  C   UNL     1      10.324   2.822  18.313  1.00  0.00     0.006 C 
BRANCH  13  14
ATOM     14  C   UNL     1       9.888   1.548  19.052  1.00  0.00     0.053 C 
BRANCH  14  15
ATOM     15  C   UNL     1      10.570   1.437  20.381  1.00  0.00     0.041 C 
ATOM     16  O   UNL     1      10.351   0.441  21.122  1.00  0.00    -0.550 OA
ATOM     17  O   UNL     1      11.498   2.394  20.775  1.00  0.00    -0.550 OA
ENDBRANCH  14  15
ENDBRANCH  13  14
ENDBRANCH  12  13
ENDBRANCH  11  12
ENDBRANCH  10  11
ENDBRANCH   9  10
ENDBRANCH   8   9
ENDBRANCH   7   8
ENDBRANCH   6   7
ENDBRANCH   5   6
ENDBRANCH   4   5
ENDBRANCH   3   4
ENDBRANCH   2   3
ENDBRANCH   1   2
BRANCH   1  18
ATOM     18  C   UNL     1      13.444   1.564  13.552  1.00  0.00     0.000 C 
BRANCH  18  19
ATOM     19  C   UNL     1      13.263   2.641  12.470  1.00  0.00     0.000 C 
BRANCH  19  20
ATOM     20  C   UNL     1      12.740   2.069  11.141  1.00  0.00     0.000 C 
BRANCH  20  21
ATOM     21  C   UNL     1      12.526   0.545  11.192  1.00  0.00     0.000 C 
BRANCH  21  22
ATOM     22  C   UNL     1      11.606  -0.028  10.094  1.00  0.00     0.000 C 
BRANCH  22  23
ATOM     23  C   UNL     1      11.110   0.997   9.059  1.00  0.00     0.000 C 
BRANCH  23  24
ATOM     24  C   UNL     1       9.757   0.613   8.441  1.00  0.00    -0.000 C 
BRANCH  24  25
ATOM     25  C   UNL     1       8.910   1.861   8.154  1.00  0.00    -0.000 C 
BRANCH  25  26
ATOM     26  C   UNL     1       8.425   2.556   9.437  1.00  0.00    -0.000 C 
BRANCH  26  27
ATOM     27  C   UNL     1       8.540   4.086   9.362  1.00  0.00    -0.000 C 
BRANCH  27  28
ATOM     28  C   UNL     1      10.009   4.519   9.245  1.00  0.00    -0.000 C 
BRANCH  28  29
ATOM     29  C   UNL     1      10.597   4.987  10.585  1.00  0.00    -0.000 C 
BRANCH  29  30
ATOM     30  C   UNL     1      11.984   5.633  10.428  1.00  0.00    -0.000 C 
BRANCH  30  31
ATOM     31  C   UNL     1      11.936   7.163  10.549  1.00  0.00    -0.003 C 
ATOM     32  C   UNL     1      11.234   7.632  11.822  1.00  0.00     0.004 C 
ENDBRANCH  30  31
ENDBRANCH  29  30
ENDBRANCH  28  29
ENDBRANCH  27  28
ENDBRANCH  26  27
ENDBRANCH  25  26
ENDBRANCH  24  25
ENDBRANCH  23  24
ENDBRANCH  22  23
ENDBRANCH  21  22
ENDBRANCH  20  21
ENDBRANCH  19  20
ENDBRANCH  18  19
ENDBRANCH   1  18
TORSDOF 28
ENDMDL
MODEL 4
REMARK VINA RESULT:    -4.955      2.557      5.029
REMARK INTER + INTRA:         -17.037
REMARK INTER:                 -11.938
REMARK INTRA:                  -5.099
REMARK UNBOUND:                -3.971
REMARK SMILES CCCCCCCCCCCCCCCCCCCCCCCCCCCCCC(=O)[O-]
REMARK SMILES IDX 16 1 17 2 18 3 19 4 20 5 21 6 22 7 23 8 24 9 25 10 26 11
REMARK SMILES IDX 27 12 28 13 29 14 30 15 31 16 32 17 15 18 14 19 13 20 12 21
REMARK SMILES IDX 11 22 10 23 9 24 8 25 7 26 6 27 5 28 4 29 3 30 2 31 1 32
REMARK H PARENT
REMARK Flexibility Score: inf
ROOT
ATOM      1  C   UNL     1      11.352   7.248  11.260  1.00  0.00     0.000 C 
ENDROOT
BRANCH   1   2
ATOM      2  C   UNL     1      11.384   6.568  12.639  1.00  0.00     0.000 C 
BRANCH   2   3
ATOM      3  C   UNL     1      10.135   6.874  13.479  1.00  0.00     0.000 C 
BRANCH   3   4
ATOM      4  C   UNL     1      10.358   6.503  14.951  1.00  0.00     0.000 C 
BRANCH   4   5
ATOM      5  C   UNL     1       9.451   7.335  15.871  1.00  0.00     0.000 C 
BRANCH   5   6
ATOM      6  C   UNL     1       9.740   8.843  15.787  1.00  0.00     0.000 C 
BRANCH   6   7
ATOM      7  C   UNL     1       8.546   9.699  16.245  1.00  0.00     0.000 C 
BRANCH   7   8
ATOM      8  C   UNL     1       8.692  11.184  15.866  1.00  0.00     0.000 C 
BRANCH   8   9
ATOM      9  C   UNL     1      10.092  11.609  15.384  1.00  0.00     0.000 C 
BRANCH   9  10
ATOM     10  C   UNL     1      10.059  12.376  14.053  1.00  0.00     0.000 C 
BRANCH  10  11
ATOM     11  C   UNL     1       9.563  11.515  12.876  1.00  0.00     0.000 C 
BRANCH  11  12
ATOM     12  C   UNL     1      10.533  10.410  12.410  1.00  0.00     0.000 C 
BRANCH  12  13
ATOM     13  C   UNL     1      11.918  10.902  11.952  1.00  0.00     0.006 C 
BRANCH  13  14
ATOM     14  C   UNL     1      12.114  10.805  10.432  1.00  0.00     0.053 C 
BRANCH  14  15
ATOM     15  C   UNL     1      12.270  12.165   9.823  1.00  0.00     0.041 C 
ATOM     16  O   UNL     1      12.028  13.195  10.507  1.00  0.00    -0.550 OA
ATOM     17  O   UNL     1      12.748  12.300   8.524  1.00  0.00    -0.550 OA
ENDBRANCH  14  15
ENDBRANCH  13  14
ENDBRANCH  12  13
ENDBRANCH  11  12
ENDBRANCH  10  11
ENDBRANCH   9  10
ENDBRANCH   8   9
ENDBRANCH   7   8
ENDBRANCH   6   7
ENDBRANCH   5   6
ENDBRANCH   4   5
ENDBRANCH   3   4
ENDBRANCH   2   3
ENDBRANCH   1   2
BRANCH   1  18
ATOM     18  C   UNL     1      12.235   6.529  10.225  1.00  0.00     0.000 C 
BRANCH  18  19
ATOM     19  C   UNL     1      12.619   5.106  10.660  1.00  0.00     0.000 C 
BRANCH  19  20
ATOM     20  C   UNL     1      11.864   4.018   9.876  1.00  0.00     0.000 C 
BRANCH  20  21
ATOM     21  C   UNL     1      10.452   4.463   9.451  1.00  0.00     0.000 C 
BRANCH  21  22
ATOM     22  C   UNL     1       9.311   4.017  10.388  1.00  0.00     0.000 C 
BRANCH  22  23
ATOM     23  C   UNL     1       9.684   2.909  11.389  1.00  0.00     0.000 C 
BRANCH  23  24
ATOM     24  C   UNL     1       9.515   3.345  12.852  1.00  0.00    -0.000 C 
BRANCH  24  25
ATOM     25  C   UNL     1      10.512   2.615  13.762  1.00  0.00    -0.000 C 
BRANCH  25  26
ATOM     26  C   UNL     1      11.961   3.085  13.551  1.00  0.00    -0.000 C 
BRANCH  26  27
ATOM     27  C   UNL     1      12.853   1.999  12.931  1.00  0.00    -0.000 C 
BRANCH  27  28
ATOM     28  C   UNL     1      12.482   0.611  13.475  1.00  0.00    -0.000 C 
BRANCH  28  29
ATOM     29  C   UNL     1      12.036  -0.358  12.369  1.00  0.00    -0.000 C 
BRANCH  29  30
ATOM     30  C   UNL     1      12.212   0.234  10.960  1.00  0.00    -0.000 C 
BRANCH  30  31
ATOM     31  C   UNL     1      11.050  -0.127  10.022  1.00  0.00    -0.003 C 
ATOM     32  C   UNL     1      11.127   0.600   8.680  1.00  0.00     0.004 C 
ENDBRANCH  30  31
ENDBRANCH  29  30
ENDBRANCH  28  29
ENDBRANCH  27  28
ENDBRANCH  26  27
ENDBRANCH  25  26
ENDBRANCH  24  25
ENDBRANCH  23  24
ENDBRANCH  22  23
ENDBRANCH  21  22
ENDBRANCH  20  21
ENDBRANCH  19  20
ENDBRANCH  18  19
ENDBRANCH   1  18
TORSDOF 28
ENDMDL
MODEL 5
REMARK VINA RESULT:    -4.946      3.958      9.221
REMARK INTER + INTRA:         -17.013
REMARK INTER:                 -13.179
REMARK INTRA:                  -3.834
REMARK UNBOUND:                -3.971
REMARK SMILES CCCCCCCCCCCCCCCCCCCCCCCCCCCCCC(=O)[O-]
REMARK SMILES IDX 16 1 17 2 18 3 19 4 20 5 21 6 22 7 23 8 24 9 25 10 26 11
REMARK SMILES IDX 27 12 28 13 29 14 30 15 31 16 32 17 15 18 14 19 13 20 12 21
REMARK SMILES IDX 11 22 10 23 9 24 8 25 7 26 6 27 5 28 4 29 3 30 2 31 1 32
REMARK H PARENT
REMARK Flexibility Score: inf
ROOT
ATOM      1  C   UNL     1      10.535   4.780  13.501  1.00  0.00     0.000 C 
ENDROOT
BRANCH   1   2
ATOM      2  C   UNL     1       9.346   3.942  13.004  1.00  0.00     0.000 C 
BRANCH   2   3
ATOM      3  C   UNL     1       9.487   3.531  11.530  1.00  0.00     0.000 C 
BRANCH   3   4
ATOM      4  C   UNL     1       9.597   4.763  10.624  1.00  0.00     0.000 C 
BRANCH   4   5
ATOM      5  C   UNL     1      10.286   4.409   9.296  1.00  0.00     0.000 C 
BRANCH   5   6
ATOM      6  C   UNL     1      11.702   3.842   9.491  1.00  0.00     0.000 C 
BRANCH   6   7
ATOM      7  C   UNL     1      12.562   4.714  10.422  1.00  0.00     0.000 C 
BRANCH   7   8
ATOM      8  C   UNL     1      13.352   3.890  11.455  1.00  0.00     0.000 C 
BRANCH   8   9
ATOM      9  C   UNL     1      13.247   2.360  11.300  1.00  0.00     0.000 C 
BRANCH   9  10
ATOM     10  C   UNL     1      13.054   1.636  12.642  1.00  0.00     0.000 C 
BRANCH  10  11
ATOM     11  C   UNL     1      13.332   2.541  13.857  1.00  0.00     0.000 C 
BRANCH  11  12
ATOM     12  C   UNL     1      13.180   1.863  15.235  1.00  0.00     0.000 C 
BRANCH  12  13
ATOM     13  C   UNL     1      12.990   0.336  15.198  1.00  0.00     0.006 C 
BRANCH  13  14
ATOM     14  C   UNL     1      11.527  -0.089  15.390  1.00  0.00     0.053 C 
BRANCH  14  15
ATOM     15  C   UNL     1      11.202  -0.258  16.843  1.00  0.00     0.041 C 
ATOM     16  O   UNL     1      11.373  -1.375  17.402  1.00  0.00    -0.550 OA
ATOM     17  O   UNL     1      10.777   0.829  17.597  1.00  0.00    -0.550 OA
ENDBRANCH  14  15
ENDBRANCH  13  14
ENDBRANCH  12  13
ENDBRANCH  11  12
ENDBRANCH  10  11
ENDBRANCH   9  10
ENDBRANCH   8   9
ENDBRANCH   7   8
ENDBRANCH   6   7
ENDBRANCH   5   6
ENDBRANCH   4   5
ENDBRANCH   3   4
ENDBRANCH   2   3
ENDBRANCH   1   2
BRANCH   1  18
ATOM     18  C   UNL     1      10.097   5.949  14.403  1.00  0.00     0.000 C 
BRANCH  18  19
ATOM     19  C   UNL     1      10.198   7.312  13.699  1.00  0.00     0.000 C 
BRANCH  19  20
ATOM     20  C   UNL     1      11.178   7.299  12.513  1.00  0.00     0.000 C 
BRANCH  20  21
ATOM     21  C   UNL     1      11.279   8.665  11.810  1.00  0.00     0.000 C 
BRANCH  21  22
ATOM     22  C   UNL     1      12.022   8.657  10.458  1.00  0.00     0.000 C 
BRANCH  22  23
ATOM     23  C   UNL     1      12.410  10.045   9.918  1.00  0.00     0.000 C 
BRANCH  23  24
ATOM     24  C   UNL     1      12.434  11.124  11.010  1.00  0.00    -0.000 C 
BRANCH  24  25
ATOM     25  C   UNL     1      12.145  12.511  10.419  1.00  0.00    -0.000 C 
BRANCH  25  26
ATOM     26  C   UNL     1      11.301  13.391  11.356  1.00  0.00    -0.000 C 
BRANCH  26  27
ATOM     27  C   UNL     1      11.539  13.075  12.840  1.00  0.00    -0.000 C 
BRANCH  27  28
ATOM     28  C   UNL     1      10.206  12.920  13.587  1.00  0.00    -0.000 C 
BRANCH  28  29
ATOM     29  C   UNL     1       9.715  11.464  13.624  1.00  0.00    -0.000 C 
BRANCH  29  30
ATOM     30  C   UNL     1       8.785  11.185  14.818  1.00  0.00    -0.000 C 
BRANCH  30  31
ATOM     31  C   UNL     1       9.426  10.249  15.854  1.00  0.00    -0.003 C 
ATOM     32  C   UNL     1       9.390  10.825  17.269  1.00  0.00     0.004 C 
ENDBRANCH  30  31
ENDBRANCH  29  30
ENDBRANCH  28  29
ENDBRANCH  27  28
ENDBRANCH  26  27
ENDBRANCH  25  26
ENDBRANCH  24  25
ENDBRANCH  23  24
ENDBRANCH  22  23
ENDBRANCH  21  22
ENDBRANCH  20  21
ENDBRANCH  19  20
ENDBRANCH  18  19
ENDBRANCH   1  18
TORSDOF 28
ENDMDL
MODEL 6
REMARK VINA RESULT:    -4.941      3.849      9.801
REMARK INTER + INTRA:         -17.001
REMARK INTER:                 -13.037
REMARK INTRA:                  -3.964
REMARK UNBOUND:                -3.971
REMARK SMILES CCCCCCCCCCCCCCCCCCCCCCCCCCCCCC(=O)[O-]
REMARK SMILES IDX 16 1 17 2 18 3 19 4 20 5 21 6 22 7 23 8 24 9 25 10 26 11
REMARK SMILES IDX 27 12 28 13 29 14 30 15 31 16 32 17 15 18 14 19 13 20 12 21
REMARK SMILES IDX 11 22 10 23 9 24 8 25 7 26 6 27 5 28 4 29 3 30 2 31 1 32
REMARK H PARENT
REMARK Flexibility Score: inf
ROOT
ATOM      1  C   UNL     1      10.497   6.214  12.312  1.00  0.00     0.000 C 
ENDROOT
BRANCH   1   2
ATOM      2  C   UNL     1      10.355   7.002  13.624  1.00  0.00     0.000 C 
BRANCH   2   3
ATOM      3  C   UNL     1      10.237   6.089  14.854  1.00  0.00     0.000 C 
BRANCH   3   4
ATOM      4  C   UNL     1      10.545   4.632  14.489  1.00  0.00     0.000 C 
BRANCH   4   5
ATOM      5  C   UNL     1      10.157   3.683  15.634  1.00  0.00     0.000 C 
BRANCH   5   6
ATOM      6  C   UNL     1      10.594   2.231  15.380  1.00  0.00     0.000 C 
BRANCH   6   7
ATOM      7  C   UNL     1      11.752   1.796  16.294  1.00  0.00     0.000 C 
BRANCH   7   8
ATOM      8  C   UNL     1      12.929   1.176  15.518  1.00  0.00     0.000 C 
BRANCH   8   9
ATOM      9  C   UNL     1      13.634   2.118  14.523  1.00  0.00     0.000 C 
BRANCH   9  10
ATOM     10  C   UNL     1      13.257   1.833  13.061  1.00  0.00     0.000 C 
BRANCH  10  11
ATOM     11  C   UNL     1      13.199   3.107  12.198  1.00  0.00     0.000 C 
BRANCH  11  12
ATOM     12  C   UNL     1      12.106   3.120  11.109  1.00  0.00     0.000 C 
BRANCH  12  13
ATOM     13  C   UNL     1      10.861   2.267  11.419  1.00  0.00     0.006 C 
BRANCH  13  14
ATOM     14  C   UNL     1       9.549   2.960  11.023  1.00  0.00     0.053 C 
BRANCH  14  15
ATOM     15  C   UNL     1       9.542   3.303   9.564  1.00  0.00     0.041 C 
ATOM     16  O   UNL     1       9.647   2.392   8.700  1.00  0.00    -0.550 OA
ATOM     17  O   UNL     1       9.352   4.618   9.155  1.00  0.00    -0.550 OA
ENDBRANCH  14  15
ENDBRANCH  13  14
ENDBRANCH  12  13
ENDBRANCH  11  12
ENDBRANCH  10  11
ENDBRANCH   9  10
ENDBRANCH   8   9
ENDBRANCH   7   8
ENDBRANCH   6   7
ENDBRANCH   5   6
ENDBRANCH   4   5
ENDBRANCH   3   4
ENDBRANCH   2   3
ENDBRANCH   1   2
BRANCH   1  18
ATOM     18  C   UNL     1      11.480   6.874  11.330  1.00  0.00     0.000 C 
BRANCH  18  19
ATOM     19  C   UNL     1      11.578   8.396  11.521  1.00  0.00     0.000 C 
BRANCH  19  20
ATOM     20  C   UNL     1      12.000   9.132  10.237  1.00  0.00     0.000 C 
BRANCH  20  21
ATOM     21  C   UNL     1      12.331  10.616  10.483  1.00  0.00     0.000 C 
BRANCH  21  22
ATOM     22  C   UNL     1      12.134  11.103  11.933  1.00  0.00     0.000 C 
BRANCH  22  23
ATOM     23  C   UNL     1      11.423  12.460  12.074  1.00  0.00     0.000 C 
BRANCH  23  24
ATOM     24  C   UNL     1      10.361  12.465  13.184  1.00  0.00    -0.000 C 
BRANCH  24  25
ATOM     25  C   UNL     1       9.980  11.033  13.585  1.00  0.00    -0.000 C 
BRANCH  25  26
ATOM     26  C   UNL     1       8.937  10.993  14.715  1.00  0.00    -0.000 C 
BRANCH  26  27
ATOM     27  C   UNL     1       9.326  10.030  15.847  1.00  0.00    -0.000 C 
BRANCH  27  28
ATOM     28  C   UNL     1      10.042  10.781  16.981  1.00  0.00    -0.000 C 
BRANCH  28  29
ATOM     29  C   UNL     1       9.651  12.265  17.046  1.00  0.00    -0.000 C 
BRANCH  29  30
ATOM     30  C   UNL     1      10.868  13.189  17.218  1.00  0.00    -0.000 C 
BRANCH  30  31
ATOM     31  C   UNL     1      10.751  14.476  16.386  1.00  0.00    -0.003 C 
ATOM     32  C   UNL     1      11.729  15.560  16.836  1.00  0.00     0.004 C 
ENDBRANCH  30  31
ENDBRANCH  29  30
ENDBRANCH  28  29
ENDBRANCH  27  28
ENDBRANCH  26  27
ENDBRANCH  25  26
ENDBRANCH  24  25
ENDBRANCH  23  24
ENDBRANCH  22  23
ENDBRANCH  21  22
ENDBRANCH  20  21
ENDBRANCH  19  20
ENDBRANCH  18  19
ENDBRANCH   1  18
TORSDOF 28
ENDMDL
MODEL 7
REMARK VINA RESULT:    -4.918      4.568      8.809
REMARK INTER + INTRA:         -16.939
REMARK INTER:                 -10.951
REMARK INTRA:                  -5.988
REMARK UNBOUND:                -3.971
REMARK SMILES CCCCCCCCCCCCCCCCCCCCCCCCCCCCCC(=O)[O-]
REMARK SMILES IDX 16 1 17 2 18 3 19 4 20 5 21 6 22 7 23 8 24 9 25 10 26 11
REMARK SMILES IDX 27 12 28 13 29 14 30 15 31 16 32 17 15 18 14 19 13 20 12 21
REMARK SMILES IDX 11 22 10 23 9 24 8 25 7 26 6 27 5 28 4 29 3 30 2 31 1 32
REMARK H PARENT
REMARK Flexibility Score: inf
ROOT
ATOM      1  C   UNL     1       8.865   3.110  11.048  1.00  0.00     0.000 C 
ENDROOT
BRANCH   1   2
ATOM      2  C   UNL     1       8.333   2.355   9.819  1.00  0.00     0.000 C 
BRANCH   2   3
ATOM      3  C   UNL     1       9.337   2.339   8.656  1.00  0.00     0.000 C 
BRANCH   3   4
ATOM      4  C   UNL     1      10.768   2.129   9.166  1.00  0.00     0.000 C 
BRANCH   4   5
ATOM      5  C   UNL     1      11.257   0.704   8.861  1.00  0.00     0.000 C 
BRANCH   5   6
ATOM      6  C   UNL     1      11.579  -0.101  10.131  1.00  0.00     0.000 C 
BRANCH   6   7
ATOM      7  C   UNL     1      10.701  -1.356  10.272  1.00  0.00     0.000 C 
BRANCH   7   8
ATOM      8  C   UNL     1      10.159  -1.552  11.700  1.00  0.00     0.000 C 
BRANCH   8   9
ATOM      9  C   UNL     1      10.400  -0.376  12.666  1.00  0.00     0.000 C 
BRANCH   9  10
ATOM     10  C   UNL     1      10.045  -0.716  14.122  1.00  0.00     0.000 C 
BRANCH  10  11
ATOM     11  C   UNL     1      11.281  -0.790  15.038  1.00  0.00     0.000 C 
BRANCH  11  12
ATOM     12  C   UNL     1      11.089  -0.210  16.455  1.00  0.00     0.000 C 
BRANCH  12  13
ATOM     13  C   UNL     1      10.032   0.903  16.571  1.00  0.00     0.006 C 
BRANCH  13  14
ATOM     14  C   UNL     1      10.619   2.236  17.059  1.00  0.00     0.053 C 
BRANCH  14  15
ATOM     15  C   UNL     1      10.253   2.494  18.489  1.00  0.00     0.041 C 
ATOM     16  O   UNL     1      11.151   2.533  19.372  1.00  0.00    -0.550 OA
ATOM     17  O   UNL     1       8.934   2.757  18.838  1.00  0.00    -0.550 OA
ENDBRANCH  14  15
ENDBRANCH  13  14
ENDBRANCH  12  13
ENDBRANCH  11  12
ENDBRANCH  10  11
ENDBRANCH   9  10
ENDBRANCH   8   9
ENDBRANCH   7   8
ENDBRANCH   6   7
ENDBRANCH   5   6
ENDBRANCH   4   5
ENDBRANCH   3   4
ENDBRANCH   2   3
ENDBRANCH   1   2
BRANCH   1  18
ATOM     18  C   UNL     1       8.439   2.452  12.374  1.00  0.00     0.000 C 
BRANCH  18  19
ATOM     19  C   UNL     1       9.211   3.002  13.584  1.00  0.00     0.000 C 
BRANCH  19  20
ATOM     20  C   UNL     1       8.317   3.802  14.547  1.00  0.00     0.000 C 
BRANCH  20  21
ATOM     21  C   UNL     1       8.940   5.149  14.957  1.00  0.00     0.000 C 
BRANCH  21  22
ATOM     22  C   UNL     1      10.254   5.513  14.237  1.00  0.00     0.000 C 
BRANCH  22  23
ATOM     23  C   UNL     1      10.425   7.006  13.906  1.00  0.00     0.000 C 
BRANCH  23  24
ATOM     24  C   UNL     1      11.048   7.243  12.522  1.00  0.00    -0.000 C 
BRANCH  24  25
ATOM     25  C   UNL     1      10.649   6.130  11.542  1.00  0.00    -0.000 C 
BRANCH  25  26
ATOM     26  C   UNL     1      11.653   5.969  10.388  1.00  0.00    -0.000 C 
BRANCH  26  27
ATOM     27  C   UNL     1      12.854   5.089  10.765  1.00  0.00    -0.000 C 
BRANCH  27  28
ATOM     28  C   UNL     1      12.412   3.909  11.645  1.00  0.00    -0.000 C 
BRANCH  28  29
ATOM     29  C   UNL     1      13.504   2.837  11.788  1.00  0.00    -0.000 C 
BRANCH  29  30
ATOM     30  C   UNL     1      13.145   1.765  12.832  1.00  0.00    -0.000 C 
BRANCH  30  31
ATOM     31  C   UNL     1      12.821   2.369  14.207  1.00  0.00    -0.003 C 
ATOM     32  C   UNL     1      13.917   2.106  15.239  1.00  0.00     0.004 C 
ENDBRANCH  30  31
ENDBRANCH  29  30
ENDBRANCH  28  29
ENDBRANCH  27  28
ENDBRANCH  26  27
ENDBRANCH  25  26
ENDBRANCH  24  25
ENDBRANCH  23  24
ENDBRANCH  22  23
ENDBRANCH  21  22
ENDBRANCH  20  21
ENDBRANCH  19  20
ENDBRANCH  18  19
ENDBRANCH   1  18
TORSDOF 28
ENDMDL
MODEL 8
REMARK VINA RESULT:    -4.914      5.262      7.598
REMARK INTER + INTRA:         -16.928
REMARK INTER:                 -10.750
REMARK INTRA:                  -6.178
REMARK UNBOUND:                -3.971
REMARK SMILES CCCCCCCCCCCCCCCCCCCCCCCCCCCCCC(=O)[O-]
REMARK SMILES IDX 16 1 17 2 18 3 19 4 20 5 21 6 22 7 23 8 24 9 25 10 26 11
REMARK SMILES IDX 27 12 28 13 29 14 30 15 31 16 32 17 15 18 14 19 13 20 12 21
REMARK SMILES IDX 11 22 10 23 9 24 8 25 7 26 6 27 5 28 4 29 3 30 2 31 1 32
REMARK H PARENT
REMARK Flexibility Score: inf
ROOT
ATOM      1  C   UNL     1       9.347   4.373   8.788  1.00  0.00     0.000 C 
ENDROOT
BRANCH   1   2
ATOM      2  C   UNL     1      10.283   4.790   9.934  1.00  0.00     0.000 C 
BRANCH   2   3
ATOM      3  C   UNL     1      11.679   4.160   9.817  1.00  0.00     0.000 C 
BRANCH   3   4
ATOM      4  C   UNL     1      12.699   4.920  10.673  1.00  0.00     0.000 C 
BRANCH   4   5
ATOM      5  C   UNL     1      13.468   3.959  11.595  1.00  0.00     0.000 C 
BRANCH   5   6
ATOM      6  C   UNL     1      13.091   2.486  11.367  1.00  0.00     0.000 C 
BRANCH   6   7
ATOM      7  C   UNL     1      13.209   1.643  12.648  1.00  0.00     0.000 C 
BRANCH   7   8
ATOM      8  C   UNL     1      13.497   2.492  13.901  1.00  0.00     0.000 C 
BRANCH   8   9
ATOM      9  C   UNL     1      13.567   1.710  15.227  1.00  0.00     0.000 C 
BRANCH   9  10
ATOM     10  C   UNL     1      12.755   0.406  15.195  1.00  0.00     0.000 C 
BRANCH  10  11
ATOM     11  C   UNL     1      11.621   0.379  16.237  1.00  0.00     0.000 C 
BRANCH  11  12
ATOM     12  C   UNL     1      10.890   1.721  16.454  1.00  0.00     0.000 C 
BRANCH  12  13
ATOM     13  C   UNL     1       9.761   1.691  17.500  1.00  0.00     0.006 C 
BRANCH  13  14
ATOM     14  C   UNL     1      10.125   2.435  18.793  1.00  0.00     0.053 C 
BRANCH  14  15
ATOM     15  C   UNL     1      10.472   1.473  19.888  1.00  0.00     0.041 C 
ATOM     16  O   UNL     1      10.403   0.231  19.682  1.00  0.00    -0.550 OA
ATOM     17  O   UNL     1      10.938   1.941  21.112  1.00  0.00    -0.550 OA
ENDBRANCH  14  15
ENDBRANCH  13  14
ENDBRANCH  12  13
ENDBRANCH  11  12
ENDBRANCH  10  11
ENDBRANCH   9  10
ENDBRANCH   8   9
ENDBRANCH   7   8
ENDBRANCH   6   7
ENDBRANCH   5   6
ENDBRANCH   4   5
ENDBRANCH   3   4
ENDBRANCH   2   3
ENDBRANCH   1   2
BRANCH   1  18
ATOM     18  C   UNL     1       8.019   3.783   9.295  1.00  0.00     0.000 C 
BRANCH  18  19
ATOM     19  C   UNL     1       7.971   2.250   9.188  1.00  0.00     0.000 C 
BRANCH  19  20
ATOM     20  C   UNL     1       8.797   1.709   8.008  1.00  0.00     0.000 C 
BRANCH  20  21
ATOM     21  C   UNL     1       9.512   0.386   8.340  1.00  0.00     0.000 C 
BRANCH  21  22
ATOM     22  C   UNL     1      10.768   0.519   9.225  1.00  0.00     0.000 C 
BRANCH  22  23
ATOM     23  C   UNL     1      11.254  -0.790   9.870  1.00  0.00     0.000 C 
BRANCH  23  24
ATOM     24  C   UNL     1      11.000  -0.839  11.384  1.00  0.00    -0.000 C 
BRANCH  24  25
ATOM     25  C   UNL     1       9.533  -1.178  11.684  1.00  0.00    -0.000 C 
BRANCH  25  26
ATOM     26  C   UNL     1       8.745   0.028  12.221  1.00  0.00    -0.000 C 
BRANCH  26  27
ATOM     27  C   UNL     1       9.610   0.974  13.067  1.00  0.00    -0.000 C 
BRANCH  27  28
ATOM     28  C   UNL     1       9.629   2.386  12.461  1.00  0.00    -0.000 C 
BRANCH  28  29
ATOM     29  C   UNL     1       8.609   3.326  13.122  1.00  0.00    -0.000 C 
BRANCH  29  30
ATOM     30  C   UNL     1       9.218   4.137  14.279  1.00  0.00    -0.000 C 
BRANCH  30  31
ATOM     31  C   UNL     1      10.541   4.814  13.890  1.00  0.00    -0.003 C 
ATOM     32  C   UNL     1      10.340   6.214  13.312  1.00  0.00     0.004 C 
ENDBRANCH  30  31
ENDBRANCH  29  30
ENDBRANCH  28  29
ENDBRANCH  27  28
ENDBRANCH  26  27
ENDBRANCH  25  26
ENDBRANCH  24  25
ENDBRANCH  23  24
ENDBRANCH  22  23
ENDBRANCH  21  22
ENDBRANCH  20  21
ENDBRANCH  19  20
ENDBRANCH  18  19
ENDBRANCH   1  18
TORSDOF 28
ENDMDL
MODEL 9
REMARK VINA RESULT:    -4.848      4.687      9.006
REMARK INTER + INTRA:         -16.754
REMARK INTER:                 -10.688
REMARK INTRA:                  -6.066
REMARK UNBOUND:                -3.971
REMARK SMILES CCCCCCCCCCCCCCCCCCCCCCCCCCCCCC(=O)[O-]
REMARK SMILES IDX 16 1 17 2 18 3 19 4 20 5 21 6 22 7 23 8 24 9 25 10 26 11
REMARK SMILES IDX 27 12 28 13 29 14 30 15 31 16 32 17 15 18 14 19 13 20 12 21
REMARK SMILES IDX 11 22 10 23 9 24 8 25 7 26 6 27 5 28 4 29 3 30 2 31 1 32
REMARK H PARENT
REMARK Flexibility Score: inf
ROOT
ATOM      1  C   UNL     1      10.660   2.886  14.011  1.00  0.00     0.000 C 
ENDROOT
BRANCH   1   2
ATOM      2  C   UNL     1      11.788   3.189  13.012  1.00  0.00     0.000 C 
BRANCH   2   3
ATOM      3  C   UNL     1      13.120   2.535  13.407  1.00  0.00     0.000 C 
BRANCH   3   4
ATOM      4  C   UNL     1      13.140   2.187  14.901  1.00  0.00     0.000 C 
BRANCH   4   5
ATOM      5  C   UNL     1      13.272   0.669  15.110  1.00  0.00     0.000 C 
BRANCH   5   6
ATOM      6  C   UNL     1      13.149  -0.126  13.800  1.00  0.00     0.000 C 
BRANCH   6   7
ATOM      7  C   UNL     1      11.948  -1.087  13.803  1.00  0.00     0.000 C 
BRANCH   7   8
ATOM      8  C   UNL     1      10.854  -0.676  14.805  1.00  0.00     0.000 C 
BRANCH   8   9
ATOM      9  C   UNL     1      10.720  -1.580  16.046  1.00  0.00     0.000 C 
BRANCH   9  10
ATOM     10  C   UNL     1      10.188  -0.830  17.277  1.00  0.00     0.000 C 
BRANCH  10  11
ATOM     11  C   UNL     1       9.796   0.627  16.969  1.00  0.00     0.000 C 
BRANCH  11  12
ATOM     12  C   UNL     1      10.733   1.703  17.556  1.00  0.00     0.000 C 
BRANCH  12  13
ATOM     13  C   UNL     1      10.045   2.767  18.430  1.00  0.00     0.006 C 
BRANCH  13  14
ATOM     14  C   UNL     1       9.454   2.187  19.723  1.00  0.00     0.053 C 
BRANCH  14  15
ATOM     15  C   UNL     1      10.520   1.557  20.566  1.00  0.00     0.041 C 
ATOM     16  O   UNL     1      10.474   0.325  20.826  1.00  0.00    -0.550 OA
ATOM     17  O   UNL     1      11.601   2.312  21.009  1.00  0.00    -0.550 OA
ENDBRANCH  14  15
ENDBRANCH  13  14
ENDBRANCH  12  13
ENDBRANCH  11  12
ENDBRANCH  10  11
ENDBRANCH   9  10
ENDBRANCH   8   9
ENDBRANCH   7   8
ENDBRANCH   6   7
ENDBRANCH   5   6
ENDBRANCH   4   5
ENDBRANCH   3   4
ENDBRANCH   2   3
ENDBRANCH   1   2
BRANCH   1  18
ATOM     18  C   UNL     1       9.692   4.071  14.186  1.00  0.00     0.000 C 
BRANCH  18  19
ATOM     19  C   UNL     1      10.128   5.035  15.301  1.00  0.00     0.000 C 
BRANCH  19  20
ATOM     20  C   UNL     1      10.458   6.443  14.776  1.00  0.00     0.000 C 
BRANCH  20  21
ATOM     21  C   UNL     1      10.117   6.617  13.284  1.00  0.00     0.000 C 
BRANCH  21  22
ATOM     22  C   UNL     1      11.242   7.221  12.418  1.00  0.00     0.000 C 
BRANCH  22  23
ATOM     23  C   UNL     1      11.576   6.432  11.140  1.00  0.00     0.000 C 
BRANCH  23  24
ATOM     24  C   UNL     1      10.455   5.467  10.724  1.00  0.00    -0.000 C 
BRANCH  24  25
ATOM     25  C   UNL     1      10.935   4.510   9.624  1.00  0.00    -0.000 C 
BRANCH  25  26
ATOM     26  C   UNL     1       9.817   3.580   9.120  1.00  0.00    -0.000 C 
BRANCH  26  27
ATOM     27  C   UNL     1       8.521   3.716   9.932  1.00  0.00    -0.000 C 
BRANCH  27  28
ATOM     28  C   UNL     1       8.391   2.572  10.949  1.00  0.00    -0.000 C 
BRANCH  28  29
ATOM     29  C   UNL     1       8.784   1.209  10.358  1.00  0.00    -0.000 C 
BRANCH  29  30
ATOM     30  C   UNL     1       9.907   0.523  11.154  1.00  0.00    -0.000 C 
BRANCH  30  31
ATOM     31  C   UNL     1      11.008  -0.045  10.245  1.00  0.00    -0.003 C 
ATOM     32  C   UNL     1      12.268   0.819  10.235  1.00  0.00     0.004 C 
ENDBRANCH  30  31
ENDBRANCH  29  30
ENDBRANCH  28  29
ENDBRANCH  27  28
ENDBRANCH  26  27
ENDBRANCH  25  26
ENDBRANCH  24  25
ENDBRANCH  23  24
ENDBRANCH  22  23
ENDBRANCH  21  22
ENDBRANCH  20  21
ENDBRANCH  19  20
ENDBRANCH  18  19
ENDBRANCH   1  18
TORSDOF 28
ENDMDL
