MODEL 1
REMARK VINA RESULT:    -1.976      0.000      0.000
REMARK INTER + INTRA:          -6.019
REMARK INTER:                  -4.517
REMARK INTRA:                  -1.501
REMARK UNBOUND:                -1.501
REMARK SMILES CCCCCCCCCCCCCCCCCCCCCCCC(=O)[O-]
REMARK SMILES IDX 13 1 14 2 15 3 16 4 17 5 18 6 19 7 20 8 21 9 22 10 23 11
REMARK SMILES IDX 24 12 25 13 26 14 12 15 11 16 10 17 9 18 8 19 7 20 6 21 5 22
REMARK SMILES IDX 4 23 3 24 2 25 1 26
REMARK H PARENT
REMARK Flexibility Score: inf
ROOT
ATOM      1  C   UNL     1      16.888  15.362  11.110  1.00  0.00     0.000 C 
ENDROOT
BRANCH   1   2
ATOM      2  C   UNL     1      16.660  16.530  12.083  1.00  0.00     0.000 C 
BRANCH   2   3
ATOM      3  C   UNL     1      15.262  17.153  11.932  1.00  0.00     0.000 C 
BRANCH   3   4
ATOM      4  C   UNL     1      15.003  18.277  12.947  1.00  0.00     0.000 C 
BRANCH   4   5
ATOM      5  C   UNL     1      14.032  19.345  12.411  1.00  0.00     0.000 C 
BRANCH   5   6
ATOM      6  C   UNL     1      14.644  20.755  12.414  1.00  0.00     0.000 C 
BRANCH   6   7
ATOM      7  C   UNL     1      16.142  20.754  12.062  1.00  0.00     0.000 C 
BRANCH   7   8
ATOM      8  C   UNL     1      16.457  21.660  10.852  1.00  0.00     0.000 C 
BRANCH   8   9
ATOM      9  C   UNL     1      16.986  20.897   9.623  1.00  0.00     0.000 C 
BRANCH   9  10
ATOM     10  C   UNL     1      16.212  19.613   9.279  1.00  0.00     0.006 C 
BRANCH  10  11
ATOM     11  C   UNL     1      17.125  18.485   8.776  1.00  0.00     0.053 C 
BRANCH  11  12
ATOM     12  C   UNL     1      16.316  17.348   8.233  1.00  0.00     0.041 C 
ATOM     13  O   UNL     1      15.068  17.317   8.412  1.00  0.00    -0.550 OA
ATOM     14  O   UNL     1      16.942  16.305   7.557  1.00  0.00    -0.550 OA
ENDBRANCH  11  12
ENDBRANCH  10  11
ENDBRANCH   9  10
ENDBRANCH   8   9
ENDBRANCH   7   8
ENDBRANCH   6   7
ENDBRANCH   5   6
ENDBRANCH   4   5
ENDBRANCH   3   4
ENDBRANCH   2   3
ENDBRANCH   1   2
BRANCH   1  15
ATOM     15  C   UNL     1      16.769  13.992  11.800  1.00  0.00     0.000 C 
BRANCH  15  16
ATOM     16  C   UNL     1      17.092  12.826  10.852  1.00  0.00     0.000 C 
BRANCH  16  17
ATOM     17  C   UNL     1      16.148  11.626  11.052  1.00  0.00     0.000 C 
BRANCH  17  18
ATOM     18  C   UNL     1      14.951  11.954  11.959  1.00  0.00    -0.000 C 
BRANCH  18  19
ATOM     19  C   UNL     1      13.812  12.734  11.273  1.00  0.00    -0.000 C 
BRANCH  19  20
ATOM     20  C   UNL     1      14.079  13.121   9.804  1.00  0.00    -0.000 C 
BRANCH  20  21
ATOM     21  C   UNL     1      13.623  12.080   8.762  1.00  0.00    -0.000 C 
BRANCH  21  22
ATOM     22  C   UNL     1      13.195  12.668   7.405  1.00  0.00    -0.000 C 
BRANCH  22  23
ATOM     23  C   UNL     1      14.391  13.031   6.509  1.00  0.00    -0.000 C 
BRANCH  23  24
ATOM     24  C   UNL     1      15.559  13.636   7.304  1.00  0.00    -0.000 C 
BRANCH  24  25
ATOM     25  C   UNL     1      16.868  12.855   7.110  1.00  0.00    -0.003 C 
ATOM     26  C   UNL     1      17.124  12.568   5.633  1.00  0.00     0.004 C 
ENDBRANCH  24  25
ENDBRANCH  23  24
ENDBRANCH  22  23
ENDBRANCH  21  22
ENDBRANCH  20  21
ENDBRANCH  19  20
ENDBRANCH  18  19
ENDBRANCH  17  18
ENDBRANCH  16  17
ENDBRANCH  15  16
ENDBRANCH   1  15
TORSDOF 22
ENDMDL
MODEL 2
REMARK VINA RESULT:    -1.574      3.826      6.776
REMARK INTER + INTRA:          -5.100
REMARK INTER:                  -2.827
REMARK INTRA:                  -2.274
REMARK UNBOUND:                -1.501
REMARK SMILES CCCCCCCCCCCCCCCCCCCCCCCC(=O)[O-]
REMARK SMILES IDX 13 1 14 2 15 3 16 4 17 5 18 6 19 7 20 8 21 9 22 10 23 11
REMARK SMILES IDX 24 12 25 13 26 14 12 15 11 16 10 17 9 18 8 19 7 20 6 21 5 22
REMARK SMILES IDX 4 23 3 24 2 25 1 26
REMARK H PARENT
REMARK Flexibility Score: inf
ROOT
ATOM      1  C   UNL     1      14.466  13.541   8.871  1.00  0.00     0.000 C 
ENDROOT
BRANCH   1   2
ATOM      2  C   UNL     1      15.047  13.127   7.509  1.00  0.00     0.000 C 
BRANCH   2   3
ATOM      3  C   UNL     1      16.521  13.535   7.354  1.00  0.00     0.000 C 
BRANCH   3   4
ATOM      4  C   UNL     1      16.865  14.815   8.131  1.00  0.00     0.000 C 
BRANCH   4   5
ATOM      5  C   UNL     1      16.845  16.071   7.240  1.00  0.00     0.000 C 
BRANCH   5   6
ATOM      6  C   UNL     1      15.435  16.418   6.739  1.00  0.00     0.000 C 
BRANCH   6   7
ATOM      7  C   UNL     1      15.386  16.660   5.221  1.00  0.00     0.000 C 
BRANCH   7   8
ATOM      8  C   UNL     1      13.938  16.771   4.694  1.00  0.00     0.000 C 
BRANCH   8   9
ATOM      9  C   UNL     1      13.827  16.714   3.160  1.00  0.00     0.000 C 
BRANCH   9  10
ATOM     10  C   UNL     1      14.727  17.711   2.410  1.00  0.00     0.006 C 
BRANCH  10  11
ATOM     11  C   UNL     1      14.253  17.977   0.974  1.00  0.00     0.053 C 
BRANCH  11  12
ATOM     12  C   UNL     1      14.772  19.291   0.477  1.00  0.00     0.041 C 
ATOM     13  O   UNL     1      13.970  20.178   0.077  1.00  0.00    -0.550 OA
ATOM     14  O   UNL     1      16.142  19.526   0.423  1.00  0.00    -0.550 OA
ENDBRANCH  11  12
ENDBRANCH  10  11
ENDBRANCH   9  10
ENDBRANCH   8   9
ENDBRANCH   7   8
ENDBRANCH   6   7
ENDBRANCH   5   6
ENDBRANCH   4   5
ENDBRANCH   3   4
ENDBRANCH   2   3
ENDBRANCH   1   2
BRANCH   1  15
ATOM     15  C   UNL     1      14.103  12.328   9.746  1.00  0.00     0.000 C 
BRANCH  15  16
ATOM     16  C   UNL     1      14.916  12.279  11.050  1.00  0.00     0.000 C 
BRANCH  16  17
ATOM     17  C   UNL     1      14.326  13.184  12.146  1.00  0.00     0.000 C 
BRANCH  17  18
ATOM     18  C   UNL     1      15.365  14.144  12.750  1.00  0.00    -0.000 C 
BRANCH  18  19
ATOM     19  C   UNL     1      16.223  14.903  11.717  1.00  0.00    -0.000 C 
BRANCH  19  20
ATOM     20  C   UNL     1      17.120  16.012  12.302  1.00  0.00    -0.000 C 
BRANCH  20  21
ATOM     21  C   UNL     1      17.006  17.381  11.601  1.00  0.00    -0.000 C 
BRANCH  21  22
ATOM     22  C   UNL     1      15.887  17.476  10.548  1.00  0.00    -0.000 C 
BRANCH  22  23
ATOM     23  C   UNL     1      15.913  18.803   9.771  1.00  0.00    -0.000 C 
BRANCH  23  24
ATOM     24  C   UNL     1      15.451  19.995  10.625  1.00  0.00    -0.000 C 
BRANCH  24  25
ATOM     25  C   UNL     1      14.261  19.643  11.530  1.00  0.00    -0.003 C 
ATOM     26  C   UNL     1      14.488  20.143  12.955  1.00  0.00     0.004 C 
ENDBRANCH  24  25
ENDBRANCH  23  24
ENDBRANCH  22  23
ENDBRANCH  21  22
ENDBRANCH  20  21
ENDBRANCH  19  20
ENDBRANCH  18  19
ENDBRANCH  17  18
ENDBRANCH  16  17
ENDBRANCH  15  16
ENDBRANCH   1  15
TORSDOF 22
ENDMDL
MODEL 3
REMARK VINA RESULT:    -0.768      5.723      7.775
REMARK INTER + INTRA:          -3.257
REMARK INTER:                  -2.033
REMARK INTRA:                  -1.224
REMARK UNBOUND:                -1.501
REMARK SMILES CCCCCCCCCCCCCCCCCCCCCCCC(=O)[O-]
REMARK SMILES IDX 13 1 14 2 15 3 16 4 17 5 18 6 19 7 20 8 21 9 22 10 23 11
REMARK SMILES IDX 24 12 25 13 26 14 12 15 11 16 10 17 9 18 8 19 7 20 6 21 5 22
REMARK SMILES IDX 4 23 3 24 2 25 1 26
REMARK H PARENT
REMARK Flexibility Score: inf
ROOT
ATOM      1  C   UNL     1      14.877  16.521   6.825  1.00  0.00     0.000 C 
ENDROOT
BRANCH   1   2
ATOM      2  C   UNL     1      15.091  16.518   5.302  1.00  0.00     0.000 C 
BRANCH   2   3
ATOM      3  C   UNL     1      13.774  16.681   4.526  1.00  0.00     0.000 C 
BRANCH   3   4
ATOM      4  C   UNL     1      13.999  16.970   3.034  1.00  0.00     0.000 C 
BRANCH   4   5
ATOM      5  C   UNL     1      15.321  17.712   2.769  1.00  0.00     0.000 C 
BRANCH   5   6
ATOM      6  C   UNL     1      15.362  18.372   1.382  1.00  0.00     0.000 C 
BRANCH   6   7
ATOM      7  C   UNL     1      16.788  18.741   0.940  1.00  0.00     0.000 C 
BRANCH   7   8
ATOM      8  C   UNL     1      16.812  19.988   0.029  1.00  0.00     0.000 C 
BRANCH   8   9
ATOM      9  C   UNL     1      15.562  20.878   0.158  1.00  0.00     0.000 C 
BRANCH   9  10
ATOM     10  C   UNL     1      14.555  20.745  -0.997  1.00  0.00     0.006 C 
BRANCH  10  11
ATOM     11  C   UNL     1      13.096  20.753  -0.517  1.00  0.00     0.053 C 
BRANCH  11  12
ATOM     12  C   UNL     1      12.485  19.391  -0.651  1.00  0.00     0.041 C 
ATOM     13  O   UNL     1      12.852  18.456   0.111  1.00  0.00    -0.550 OA
ATOM     14  O   UNL     1      11.535  19.145  -1.636  1.00  0.00    -0.550 OA
ENDBRANCH  11  12
ENDBRANCH  10  11
ENDBRANCH   9  10
ENDBRANCH   8   9
ENDBRANCH   7   8
ENDBRANCH   6   7
ENDBRANCH   5   6
ENDBRANCH   4   5
ENDBRANCH   3   4
ENDBRANCH   2   3
ENDBRANCH   1   2
BRANCH   1  15
ATOM     15  C   UNL     1      16.163  16.863   7.598  1.00  0.00     0.000 C 
BRANCH  15  16
ATOM     16  C   UNL     1      15.875  17.546   8.945  1.00  0.00     0.000 C 
BRANCH  16  17
ATOM     17  C   UNL     1      17.054  17.428   9.927  1.00  0.00     0.000 C 
BRANCH  17  18
ATOM     18  C   UNL     1      17.121  16.055  10.617  1.00  0.00    -0.000 C 
BRANCH  18  19
ATOM     19  C   UNL     1      16.483  16.003  12.019  1.00  0.00    -0.000 C 
BRANCH  19  20
ATOM     20  C   UNL     1      16.251  14.585  12.580  1.00  0.00    -0.000 C 
BRANCH  20  21
ATOM     21  C   UNL     1      14.807  14.291  13.033  1.00  0.00    -0.000 C 
BRANCH  21  22
ATOM     22  C   UNL     1      14.349  12.836  12.829  1.00  0.00    -0.000 C 
BRANCH  22  23
ATOM     23  C   UNL     1      13.530  12.644  11.541  1.00  0.00    -0.000 C 
BRANCH  23  24
ATOM     24  C   UNL     1      14.395  12.189  10.356  1.00  0.00    -0.000 C 
BRANCH  24  25
ATOM     25  C   UNL     1      14.671  13.324   9.359  1.00  0.00    -0.003 C 
ATOM     26  C   UNL     1      14.221  12.941   7.951  1.00  0.00     0.004 C 
ENDBRANCH  24  25
ENDBRANCH  23  24
ENDBRANCH  22  23
ENDBRANCH  21  22
ENDBRANCH  20  21
ENDBRANCH  19  20
ENDBRANCH  18  19
ENDBRANCH  17  18
ENDBRANCH  16  17
ENDBRANCH  15  16
ENDBRANCH   1  15
TORSDOF 22
ENDMDL
MODEL 4
REMARK VINA RESULT:    -0.720      4.554      7.524
REMARK INTER + INTRA:          -3.147
REMARK INTER:                  -2.585
REMARK INTRA:                  -0.562
REMARK UNBOUND:                -1.501
REMARK SMILES CCCCCCCCCCCCCCCCCCCCCCCC(=O)[O-]
REMARK SMILES IDX 13 1 14 2 15 3 16 4 17 5 18 6 19 7 20 8 21 9 22 10 23 11
REMARK SMILES IDX 24 12 25 13 26 14 12 15 11 16 10 17 9 18 8 19 7 20 6 21 5 22
REMARK SMILES IDX 4 23 3 24 2 25 1 26
REMARK H PARENT
REMARK Flexibility Score: inf
ROOT
ATOM      1  C   UNL     1      14.467  13.857   8.149  1.00  0.00     0.000 C 
ENDROOT
BRANCH   1   2
ATOM      2  C   UNL     1      15.736  13.675   7.300  1.00  0.00     0.000 C 
BRANCH   2   3
ATOM      3  C   UNL     1      16.470  15.003   7.053  1.00  0.00     0.000 C 
BRANCH   3   4
ATOM      4  C   UNL     1      15.517  16.208   7.019  1.00  0.00     0.000 C 
BRANCH   4   5
ATOM      5  C   UNL     1      15.252  16.711   5.588  1.00  0.00     0.000 C 
BRANCH   5   6
ATOM      6  C   UNL     1      13.936  16.172   5.005  1.00  0.00     0.000 C 
BRANCH   6   7
ATOM      7  C   UNL     1      13.568  16.827   3.663  1.00  0.00     0.000 C 
BRANCH   7   8
ATOM      8  C   UNL     1      14.813  17.321   2.894  1.00  0.00     0.000 C 
BRANCH   8   9
ATOM      9  C   UNL     1      14.486  18.018   1.561  1.00  0.00     0.000 C 
BRANCH   9  10
ATOM     10  C   UNL     1      15.681  18.719   0.891  1.00  0.00     0.006 C 
BRANCH  10  11
ATOM     11  C   UNL     1      15.268  19.970   0.101  1.00  0.00     0.053 C 
BRANCH  11  12
ATOM     12  C   UNL     1      13.813  19.923  -0.248  1.00  0.00     0.041 C 
ATOM     13  O   UNL     1      13.223  20.965  -0.644  1.00  0.00    -0.550 OA
ATOM     14  O   UNL     1      13.098  18.738  -0.106  1.00  0.00    -0.550 OA
ENDBRANCH  11  12
ENDBRANCH  10  11
ENDBRANCH   9  10
ENDBRANCH   8   9
ENDBRANCH   7   8
ENDBRANCH   6   7
ENDBRANCH   5   6
ENDBRANCH   4   5
ENDBRANCH   3   4
ENDBRANCH   2   3
ENDBRANCH   1   2
BRANCH   1  15
ATOM     15  C   UNL     1      14.502  13.024   9.443  1.00  0.00     0.000 C 
BRANCH  15  16
ATOM     16  C   UNL     1      15.935  12.743   9.923  1.00  0.00     0.000 C 
BRANCH  16  17
ATOM     17  C   UNL     1      16.078  12.864  11.450  1.00  0.00     0.000 C 
BRANCH  17  18
ATOM     18  C   UNL     1      16.644  14.225  11.891  1.00  0.00    -0.000 C 
BRANCH  18  19
ATOM     19  C   UNL     1      17.114  15.134  10.738  1.00  0.00    -0.000 C 
BRANCH  19  20
ATOM     20  C   UNL     1      16.676  16.608  10.848  1.00  0.00    -0.000 C 
BRANCH  20  21
ATOM     21  C   UNL     1      16.032  16.998  12.194  1.00  0.00    -0.000 C 
BRANCH  21  22
ATOM     22  C   UNL     1      16.584  18.290  12.824  1.00  0.00    -0.000 C 
BRANCH  22  23
ATOM     23  C   UNL     1      15.978  19.561  12.204  1.00  0.00    -0.000 C 
BRANCH  23  24
ATOM     24  C   UNL     1      14.456  19.643  12.399  1.00  0.00    -0.000 C 
BRANCH  24  25
ATOM     25  C   UNL     1      13.799  20.670  11.465  1.00  0.00    -0.003 C 
ATOM     26  C   UNL     1      13.141  21.795  12.261  1.00  0.00     0.004 C 
ENDBRANCH  24  25
ENDBRANCH  23  24
ENDBRANCH  22  23
ENDBRANCH  21  22
ENDBRANCH  20  21
ENDBRANCH  19  20
ENDBRANCH  18  19
ENDBRANCH  17  18
ENDBRANCH  16  17
ENDBRANCH  15  16
ENDBRANCH   1  15
TORSDOF 22
ENDMDL
MODEL 5
REMARK VINA RESULT:    -0.539      2.517      4.048
REMARK INTER + INTRA:          -2.732
REMARK INTER:                  -0.666
REMARK INTRA:                  -2.067
REMARK UNBOUND:                -1.501
REMARK SMILES CCCCCCCCCCCCCCCCCCCCCCCC(=O)[O-]
REMARK SMILES IDX 13 1 14 2 15 3 16 4 17 5 18 6 19 7 20 8 21 9 22 10 23 11
REMARK SMILES IDX 24 12 25 13 26 14 12 15 11 16 10 17 9 18 8 19 7 20 6 21 5 22
REMARK SMILES IDX 4 23 3 24 2 25 1 26
REMARK H PARENT
REMARK Flexibility Score: inf
ROOT
ATOM      1  C   UNL     1      16.399  12.948  12.732  1.00  0.00     0.000 C 
ENDROOT
BRANCH   1   2
ATOM      2  C   UNL     1      15.305  14.028  12.706  1.00  0.00     0.000 C 
BRANCH   2   3
ATOM      3  C   UNL     1      15.846  15.418  13.080  1.00  0.00     0.000 C 
BRANCH   3   4
ATOM      4  C   UNL     1      17.101  15.799  12.279  1.00  0.00     0.000 C 
BRANCH   4   5
ATOM      5  C   UNL     1      16.763  16.508  10.954  1.00  0.00     0.000 C 
BRANCH   5   6
ATOM      6  C   UNL     1      16.391  17.985  11.152  1.00  0.00     0.000 C 
BRANCH   6   7
ATOM      7  C   UNL     1      15.782  18.619   9.890  1.00  0.00     0.000 C 
BRANCH   7   8
ATOM      8  C   UNL     1      16.221  20.088   9.705  1.00  0.00     0.000 C 
BRANCH   8   9
ATOM      9  C   UNL     1      16.854  20.712  10.963  1.00  0.00     0.000 C 
BRANCH   9  10
ATOM     10  C   UNL     1      15.953  21.712  11.709  1.00  0.00     0.006 C 
BRANCH  10  11
ATOM     11  C   UNL     1      15.076  21.041  12.776  1.00  0.00     0.053 C 
BRANCH  11  12
ATOM     12  C   UNL     1      13.663  20.909  12.296  1.00  0.00     0.041 C 
ATOM     13  O   UNL     1      13.163  21.793  11.550  1.00  0.00    -0.550 OA
ATOM     14  O   UNL     1      12.887  19.826  12.699  1.00  0.00    -0.550 OA
ENDBRANCH  11  12
ENDBRANCH  10  11
ENDBRANCH   9  10
ENDBRANCH   8   9
ENDBRANCH   7   8
ENDBRANCH   6   7
ENDBRANCH   5   6
ENDBRANCH   4   5
ENDBRANCH   3   4
ENDBRANCH   2   3
ENDBRANCH   1   2
BRANCH   1  15
ATOM     15  C   UNL     1      16.036  11.725  11.872  1.00  0.00     0.000 C 
BRANCH  15  16
ATOM     16  C   UNL     1      15.837  12.086  10.391  1.00  0.00     0.000 C 
BRANCH  16  17
ATOM     17  C   UNL     1      16.944  13.013   9.857  1.00  0.00     0.000 C 
BRANCH  17  18
ATOM     18  C   UNL     1      17.124  12.910   8.333  1.00  0.00    -0.000 C 
BRANCH  18  19
ATOM     19  C   UNL     1      15.848  13.177   7.511  1.00  0.00    -0.000 C 
BRANCH  19  20
ATOM     20  C   UNL     1      14.742  13.953   8.254  1.00  0.00    -0.000 C 
BRANCH  20  21
ATOM     21  C   UNL     1      14.923  15.484   8.277  1.00  0.00    -0.000 C 
BRANCH  21  22
ATOM     22  C   UNL     1      15.729  16.058   7.098  1.00  0.00    -0.000 C 
BRANCH  22  23
ATOM     23  C   UNL     1      14.863  16.885   6.132  1.00  0.00    -0.000 C 
BRANCH  23  24
ATOM     24  C   UNL     1      14.196  16.019   5.051  1.00  0.00    -0.000 C 
BRANCH  24  25
ATOM     25  C   UNL     1      13.433  16.858   4.015  1.00  0.00    -0.003 C 
ATOM     26  C   UNL     1      14.235  16.996   2.723  1.00  0.00     0.004 C 
ENDBRANCH  24  25
ENDBRANCH  23  24
ENDBRANCH  22  23
ENDBRANCH  21  22
ENDBRANCH  20  21
ENDBRANCH  19  20
ENDBRANCH  18  19
ENDBRANCH  17  18
ENDBRANCH  16  17
ENDBRANCH  15  16
ENDBRANCH   1  15
TORSDOF 22
ENDMDL
MODEL 6
REMARK VINA RESULT:    -0.370      5.098      7.460
REMARK INTER + INTRA:          -2.347
REMARK INTER:                  -0.535
REMARK INTRA:                  -1.812
REMARK UNBOUND:                -1.501
REMARK SMILES CCCCCCCCCCCCCCCCCCCCCCCC(=O)[O-]
REMARK SMILES IDX 13 1 14 2 15 3 16 4 17 5 18 6 19 7 20 8 21 9 22 10 23 11
REMARK SMILES IDX 24 12 25 13 26 14 12 15 11 16 10 17 9 18 8 19 7 20 6 21 5 22
REMARK SMILES IDX 4 23 3 24 2 25 1 26
REMARK H PARENT
REMARK Flexibility Score: inf
ROOT
ATOM      1  C   UNL     1      16.408  17.000   9.082  1.00  0.00     0.000 C 
ENDROOT
BRANCH   1   2
ATOM      2  C   UNL     1      17.059  15.907   9.946  1.00  0.00     0.000 C 
BRANCH   2   3
ATOM      3  C   UNL     1      17.125  16.298  11.431  1.00  0.00     0.000 C 
BRANCH   3   4
ATOM      4  C   UNL     1      15.761  16.733  11.990  1.00  0.00     0.000 C 
BRANCH   4   5
ATOM      5  C   UNL     1      15.254  15.800  13.104  1.00  0.00     0.000 C 
BRANCH   5   6
ATOM      6  C   UNL     1      15.974  14.443  13.113  1.00  0.00     0.000 C 
BRANCH   6   7
ATOM      7  C   UNL     1      15.017  13.260  12.886  1.00  0.00     0.000 C 
BRANCH   7   8
ATOM      8  C   UNL     1      14.638  13.094  11.398  1.00  0.00     0.000 C 
BRANCH   8   9
ATOM      9  C   UNL     1      15.777  12.541  10.522  1.00  0.00     0.000 C 
BRANCH   9  10
ATOM     10  C   UNL     1      15.907  13.204   9.140  1.00  0.00     0.006 C 
BRANCH  10  11
ATOM     11  C   UNL     1      14.556  13.670   8.576  1.00  0.00     0.053 C 
BRANCH  11  12
ATOM     12  C   UNL     1      14.214  12.920   7.325  1.00  0.00     0.041 C 
ATOM     13  O   UNL     1      15.065  12.808   6.402  1.00  0.00    -0.550 OA
ATOM     14  O   UNL     1      12.945  12.373   7.163  1.00  0.00    -0.550 OA
ENDBRANCH  11  12
ENDBRANCH  10  11
ENDBRANCH   9  10
ENDBRANCH   8   9
ENDBRANCH   7   8
ENDBRANCH   6   7
ENDBRANCH   5   6
ENDBRANCH   4   5
ENDBRANCH   3   4
ENDBRANCH   2   3
ENDBRANCH   1   2
BRANCH   1  15
ATOM     15  C   UNL     1      16.565  16.729   7.575  1.00  0.00     0.000 C 
BRANCH  15  16
ATOM     16  C   UNL     1      15.224  16.418   6.891  1.00  0.00     0.000 C 
BRANCH  16  17
ATOM     17  C   UNL     1      15.328  16.443   5.355  1.00  0.00     0.000 C 
BRANCH  17  18
ATOM     18  C   UNL     1      14.024  16.892   4.676  1.00  0.00    -0.000 C 
BRANCH  18  19
ATOM     19  C   UNL     1      14.084  16.956   3.137  1.00  0.00    -0.000 C 
BRANCH  19  20
ATOM     20  C   UNL     1      15.374  17.572   2.559  1.00  0.00    -0.000 C 
BRANCH  20  21
ATOM     21  C   UNL     1      15.173  18.460   1.314  1.00  0.00    -0.000 C 
BRANCH  21  22
ATOM     22  C   UNL     1      13.719  18.553   0.815  1.00  0.00    -0.000 C 
BRANCH  22  23
ATOM     23  C   UNL     1      13.605  19.224  -0.564  1.00  0.00    -0.000 C 
BRANCH  23  24
ATOM     24  C   UNL     1      13.513  20.755  -0.468  1.00  0.00    -0.000 C 
BRANCH  24  25
ATOM     25  C   UNL     1      14.417  21.464  -1.487  1.00  0.00    -0.003 C 
ATOM     26  C   UNL     1      15.862  21.519  -0.995  1.00  0.00     0.004 C 
ENDBRANCH  24  25
ENDBRANCH  23  24
ENDBRANCH  22  23
ENDBRANCH  21  22
ENDBRANCH  20  21
ENDBRANCH  19  20
ENDBRANCH  18  19
ENDBRANCH  17  18
ENDBRANCH  16  17
ENDBRANCH  15  16
ENDBRANCH   1  15
TORSDOF 22
ENDMDL
MODEL 7
REMARK VINA RESULT:    -0.175      5.680      8.513
REMARK INTER + INTRA:          -1.902
REMARK INTER:                  -0.770
REMARK INTRA:                  -1.131
REMARK UNBOUND:                -1.501
REMARK SMILES CCCCCCCCCCCCCCCCCCCCCCCC(=O)[O-]
REMARK SMILES IDX 13 1 14 2 15 3 16 4 17 5 18 6 19 7 20 8 21 9 22 10 23 11
REMARK SMILES IDX 24 12 25 13 26 14 12 15 11 16 10 17 9 18 8 19 7 20 6 21 5 22
REMARK SMILES IDX 4 23 3 24 2 25 1 26
REMARK H PARENT
REMARK Flexibility Score: inf
ROOT
ATOM      1  C   UNL     1      15.283  15.843   6.918  1.00  0.00     0.000 C 
ENDROOT
BRANCH   1   2
ATOM      2  C   UNL     1      15.396  16.175   5.421  1.00  0.00     0.000 C 
BRANCH   2   3
ATOM      3  C   UNL     1      14.049  16.596   4.812  1.00  0.00     0.000 C 
BRANCH   3   4
ATOM      4  C   UNL     1      14.161  16.962   3.324  1.00  0.00     0.000 C 
BRANCH   4   5
ATOM      5  C   UNL     1      15.406  17.815   3.018  1.00  0.00     0.000 C 
BRANCH   5   6
ATOM      6  C   UNL     1      15.435  18.320   1.567  1.00  0.00     0.000 C 
BRANCH   6   7
ATOM      7  C   UNL     1      16.849  18.703   1.099  1.00  0.00     0.000 C 
BRANCH   7   8
ATOM      8  C   UNL     1      16.824  19.736  -0.049  1.00  0.00     0.000 C 
BRANCH   8   9
ATOM      9  C   UNL     1      15.685  20.767   0.065  1.00  0.00     0.000 C 
BRANCH   9  10
ATOM     10  C   UNL     1      14.576  20.621  -0.990  1.00  0.00     0.006 C 
BRANCH  10  11
ATOM     11  C   UNL     1      13.170  20.577  -0.372  1.00  0.00     0.053 C 
BRANCH  11  12
ATOM     12  C   UNL     1      12.510  19.261  -0.645  1.00  0.00     0.041 C 
ATOM     13  O   UNL     1      12.852  18.235   0.004  1.00  0.00    -0.550 OA
ATOM     14  O   UNL     1      11.540  19.157  -1.637  1.00  0.00    -0.550 OA
ENDBRANCH  11  12
ENDBRANCH  10  11
ENDBRANCH   9  10
ENDBRANCH   8   9
ENDBRANCH   7   8
ENDBRANCH   6   7
ENDBRANCH   5   6
ENDBRANCH   4   5
ENDBRANCH   3   4
ENDBRANCH   2   3
ENDBRANCH   1   2
BRANCH   1  15
ATOM     15  C   UNL     1      15.425  14.336   7.197  1.00  0.00     0.000 C 
BRANCH  15  16
ATOM     16  C   UNL     1      15.241  13.994   8.684  1.00  0.00     0.000 C 
BRANCH  16  17
ATOM     17  C   UNL     1      16.567  13.620   9.370  1.00  0.00     0.000 C 
BRANCH  17  18
ATOM     18  C   UNL     1      17.048  14.691  10.363  1.00  0.00    -0.000 C 
BRANCH  18  19
ATOM     19  C   UNL     1      16.151  15.942  10.451  1.00  0.00    -0.000 C 
BRANCH  19  20
ATOM     20  C   UNL     1      16.905  17.287  10.465  1.00  0.00    -0.000 C 
BRANCH  20  21
ATOM     21  C   UNL     1      17.120  17.899  11.864  1.00  0.00    -0.000 C 
BRANCH  21  22
ATOM     22  C   UNL     1      15.827  18.195  12.646  1.00  0.00    -0.000 C 
BRANCH  22  23
ATOM     23  C   UNL     1      15.280  19.608  12.378  1.00  0.00    -0.000 C 
BRANCH  23  24
ATOM     24  C   UNL     1      13.776  19.606  12.062  1.00  0.00    -0.000 C 
BRANCH  24  25
ATOM     25  C   UNL     1      13.088  20.917  12.472  1.00  0.00    -0.003 C 
ATOM     26  C   UNL     1      13.701  22.111  11.746  1.00  0.00     0.004 C 
ENDBRANCH  24  25
ENDBRANCH  23  24
ENDBRANCH  22  23
ENDBRANCH  21  22
ENDBRANCH  20  21
ENDBRANCH  19  20
ENDBRANCH  18  19
ENDBRANCH  17  18
ENDBRANCH  16  17
ENDBRANCH  15  16
ENDBRANCH   1  15
TORSDOF 22
ENDMDL
