MODEL 1
REMARK VINA RESULT:    -7.079      0.000      0.000
REMARK INTER + INTRA:          -8.836
REMARK INTER:                  -8.528
REMARK INTRA:                  -0.308
REMARK UNBOUND:                -0.308
REMARK SMILES O=c1c(O)c(-c2ccc(O)cc2O)oc2cc(O)cc(O)c12
REMARK SMILES IDX 5 1 3 2 2 3 1 4 22 5 20 6 19 7 17 8 16 9 15 10 14 11 6 12
REMARK SMILES IDX 8 13 7 14 9 15 11 16 12 17 10 18 13 20 4 22 21 24 18 26
REMARK H PARENT 10 19 13 21 4 23 21 25 18 27
REMARK Flexibility Score: inf
ROOT
ATOM      1  C   UNL     1     109.350 103.174 116.237  1.00  0.00     0.184 A 
ATOM      2  C   UNL     1     109.218 104.381 115.526  1.00  0.00     0.208 A 
ATOM      3  C   UNL     1     109.133 105.584 116.244  1.00  0.00     0.238 A 
ATOM      4  O   UNL     1     109.003 106.671 115.618  1.00  0.00    -0.285 OA
ATOM      5  C   UNL     1     109.201 105.560 117.652  1.00  0.00     0.111 A 
ATOM      6  C   UNL     1     109.125 106.728 118.450  1.00  0.00     0.134 A 
ATOM      7  C   UNL     1     109.209 106.622 119.846  1.00  0.00     0.093 A 
ATOM      8  C   UNL     1     109.367 105.377 120.460  1.00  0.00     0.123 A 
ATOM      9  C   UNL     1     109.440 104.221 119.677  1.00  0.00     0.094 A 
ATOM     10  C   UNL     1     109.357 104.304 118.283  1.00  0.00     0.146 A 
ATOM     11  O   UNL     1     109.426 103.190 117.563  1.00  0.00    -0.451 OA
ENDROOT
BRANCH   1  12
ATOM     12  C   UNL     1     109.433 101.872 115.544  1.00  0.00     0.063 A 
ATOM     13  C   UNL     1     108.398  99.741 114.997  1.00  0.00     0.047 A 
ATOM     14  C   UNL     1     108.354 100.978 115.644  1.00  0.00     0.020 A 
ATOM     15  C   UNL     1     109.511  99.386 114.232  1.00  0.00     0.119 A 
ATOM     16  C   UNL     1     110.583 100.279 114.107  1.00  0.00     0.093 A 
ATOM     17  C   UNL     1     110.545 101.526 114.748  1.00  0.00     0.130 A 
BRANCH  15  18
ATOM     18  O   UNL     1     109.542  98.146 113.596  1.00  0.00    -0.508 OA
ATOM     19  H   UNL     1     108.830  97.446 113.765  1.00  0.00     0.293 HD
ENDBRANCH  15  18
BRANCH  17  20
ATOM     20  O   UNL     1     111.596 102.427 114.577  1.00  0.00    -0.507 OA
ATOM     21  H   UNL     1     111.457 103.428 114.659  1.00  0.00     0.293 HD
ENDBRANCH  17  20
ENDBRANCH   1  12
BRANCH   2  22
ATOM     22  O   UNL     1     109.200 104.374 114.129  1.00  0.00    -0.502 OA
ATOM     23  H   UNL     1     108.367 104.144 113.600  1.00  0.00     0.293 HD
ENDBRANCH   2  22
BRANCH   6  24
ATOM     24  O   UNL     1     108.969 107.987 117.869  1.00  0.00    -0.507 OA
ATOM     25  H   UNL     1     109.765 108.559 117.616  1.00  0.00     0.293 HD
ENDBRANCH   6  24
BRANCH   8  26
ATOM     26  O   UNL     1     109.448 105.300 121.848  1.00  0.00    -0.508 OA
ATOM     27  H   UNL     1     109.696 106.106 122.410  1.00  0.00     0.293 HD
ENDBRANCH   8  26
TORSDOF 6
ENDMDL
MODEL 2
REMARK VINA RESULT:    -7.060     11.242     12.657
REMARK INTER + INTRA:          -8.813
REMARK INTER:                  -8.483
REMARK INTRA:                  -0.330
REMARK UNBOUND:                -0.308
REMARK SMILES O=c1c(O)c(-c2ccc(O)cc2O)oc2cc(O)cc(O)c12
REMARK SMILES IDX 5 1 3 2 2 3 1 4 22 5 20 6 19 7 17 8 16 9 15 10 14 11 6 12
REMARK SMILES IDX 8 13 7 14 9 15 11 16 12 17 10 18 13 20 4 22 21 24 18 26
REMARK H PARENT 10 19 13 21 4 23 21 25 18 27
REMARK Flexibility Score: inf
ROOT
ATOM      1  C   UNL     1      98.106 104.319 116.170  1.00  0.00     0.184 A 
ATOM      2  C   UNL     1      98.216 103.120 115.443  1.00  0.00     0.208 A 
ATOM      3  C   UNL     1      98.284 101.907 116.143  1.00  0.00     0.238 A 
ATOM      4  O   UNL     1      98.394 100.826 115.502  1.00  0.00    -0.285 OA
ATOM      5  C   UNL     1      98.219 101.912 117.552  1.00  0.00     0.111 A 
ATOM      6  C   UNL     1      98.278 100.732 118.334  1.00  0.00     0.134 A 
ATOM      7  C   UNL     1      98.198 100.820 119.731  1.00  0.00     0.093 A 
ATOM      8  C   UNL     1      98.062 102.059 120.362  1.00  0.00     0.123 A 
ATOM      9  C   UNL     1      98.006 103.227 119.595  1.00  0.00     0.094 A 
ATOM     10  C   UNL     1      98.084 103.162 118.201  1.00  0.00     0.146 A 
ATOM     11  O   UNL     1      98.032 104.286 117.497  1.00  0.00    -0.451 OA
ENDROOT
BRANCH   1  12
ATOM     12  C   UNL     1      98.042 105.633 115.496  1.00  0.00     0.063 A 
ATOM     13  C   UNL     1      99.135 107.728 114.923  1.00  0.00     0.047 A 
ATOM     14  C   UNL     1      99.159 106.482 115.555  1.00  0.00     0.020 A 
ATOM     15  C   UNL     1      98.002 108.136 114.215  1.00  0.00     0.119 A 
ATOM     16  C   UNL     1      96.891 107.287 114.131  1.00  0.00     0.093 A 
ATOM     17  C   UNL     1      96.909 106.031 114.756  1.00  0.00     0.130 A 
BRANCH  15  18
ATOM     18  O   UNL     1      97.991 109.383 113.595  1.00  0.00    -0.508 OA
ATOM     19  H   UNL     1      97.197 110.008 113.675  1.00  0.00     0.293 HD
ENDBRANCH  15  18
BRANCH  17  20
ATOM     20  O   UNL     1      95.816 105.174 114.626  1.00  0.00    -0.507 OA
ATOM     21  H   UNL     1      95.605 104.712 113.749  1.00  0.00     0.293 HD
ENDBRANCH  17  20
ENDBRANCH   1  12
BRANCH   2  22
ATOM     22  O   UNL     1      98.232 103.147 114.046  1.00  0.00    -0.502 OA
ATOM     23  H   UNL     1      99.086 103.271 113.516  1.00  0.00     0.293 HD
ENDBRANCH   2  22
BRANCH   6  24
ATOM     24  O   UNL     1      98.412  99.479 117.735  1.00  0.00    -0.507 OA
ATOM     25  H   UNL     1      97.801  99.178 116.986  1.00  0.00     0.293 HD
ENDBRANCH   6  24
BRANCH   8  26
ATOM     26  O   UNL     1      97.985 102.118 121.752  1.00  0.00    -0.508 OA
ATOM     27  H   UNL     1      98.102 102.991 122.252  1.00  0.00     0.293 HD
ENDBRANCH   8  26
TORSDOF 6
ENDMDL
MODEL 3
REMARK VINA RESULT:    -6.825      9.313     11.825
REMARK INTER + INTRA:          -8.530
REMARK INTER:                  -8.232
REMARK INTRA:                  -0.299
REMARK UNBOUND:                -0.308
REMARK SMILES O=c1c(O)c(-c2ccc(O)cc2O)oc2cc(O)cc(O)c12
REMARK SMILES IDX 5 1 3 2 2 3 1 4 22 5 20 6 19 7 17 8 16 9 15 10 14 11 6 12
REMARK SMILES IDX 8 13 7 14 9 15 11 16 12 17 10 18 13 20 4 22 21 24 18 26
REMARK H PARENT 10 19 13 21 4 23 21 25 18 27
REMARK Flexibility Score: inf
ROOT
ATOM      1  C   UNL     1     100.919 104.856 111.560  1.00  0.00     0.184 A 
ATOM      2  C   UNL     1     101.081 103.557 112.074  1.00  0.00     0.208 A 
ATOM      3  C   UNL     1     101.978 102.684 111.441  1.00  0.00     0.238 A 
ATOM      4  O   UNL     1     102.123 101.513 111.886  1.00  0.00    -0.285 OA
ATOM      5  C   UNL     1     102.710 103.131 110.322  1.00  0.00     0.111 A 
ATOM      6  C   UNL     1     103.637 102.315 109.627  1.00  0.00     0.134 A 
ATOM      7  C   UNL     1     104.334 102.837 108.527  1.00  0.00     0.093 A 
ATOM      8  C   UNL     1     104.124 104.152 108.108  1.00  0.00     0.123 A 
ATOM      9  C   UNL     1     103.208 104.961 108.788  1.00  0.00     0.094 A 
ATOM     10  C   UNL     1     102.503 104.461 109.887  1.00  0.00     0.146 A 
ATOM     11  O   UNL     1     101.637 105.249 110.513  1.00  0.00    -0.451 OA
ENDROOT
BRANCH   1  12
ATOM     12  C   UNL     1      99.982 105.821 112.172  1.00  0.00     0.063 A 
ATOM     13  C   UNL     1      97.718 106.354 112.881  1.00  0.00     0.047 A 
ATOM     14  C   UNL     1      98.630 105.467 112.302  1.00  0.00     0.020 A 
ATOM     15  C   UNL     1      98.147 107.598 113.348  1.00  0.00     0.119 A 
ATOM     16  C   UNL     1      99.498 107.952 113.243  1.00  0.00     0.093 A 
ATOM     17  C   UNL     1     100.422 107.066 112.670  1.00  0.00     0.130 A 
BRANCH  15  18
ATOM     18  O   UNL     1      97.226 108.474 113.918  1.00  0.00    -0.508 OA
ATOM     19  H   UNL     1      96.703 109.134 113.355  1.00  0.00     0.293 HD
ENDBRANCH  15  18
BRANCH  17  20
ATOM     20  O   UNL     1     101.772 107.409 112.615  1.00  0.00    -0.507 OA
ATOM     21  H   UNL     1     102.281 107.698 113.443  1.00  0.00     0.293 HD
ENDBRANCH  17  20
ENDBRANCH   1  12
BRANCH   2  22
ATOM     22  O   UNL     1     100.374 103.161 113.212  1.00  0.00    -0.502 OA
ATOM     23  H   UNL     1     100.290 102.189 113.487  1.00  0.00     0.293 HD
ENDBRANCH   2  22
BRANCH   6  24
ATOM     24  O   UNL     1     103.871 100.997 110.021  1.00  0.00    -0.507 OA
ATOM     25  H   UNL     1     104.439 100.368 109.467  1.00  0.00     0.293 HD
ENDBRANCH   6  24
BRANCH   8  26
ATOM     26  O   UNL     1     104.828 104.645 107.012  1.00  0.00    -0.508 OA
ATOM     27  H   UNL     1     104.558 105.506 106.552  1.00  0.00     0.293 HD
ENDBRANCH   8  26
TORSDOF 6
ENDMDL
MODEL 4
REMARK VINA RESULT:    -6.799      1.887      6.667
REMARK INTER + INTRA:          -8.499
REMARK INTER:                  -8.093
REMARK INTRA:                  -0.405
REMARK UNBOUND:                -0.308
REMARK SMILES O=c1c(O)c(-c2ccc(O)cc2O)oc2cc(O)cc(O)c12
REMARK SMILES IDX 5 1 3 2 2 3 1 4 22 5 20 6 19 7 17 8 16 9 15 10 14 11 6 12
REMARK SMILES IDX 8 13 7 14 9 15 11 16 12 17 10 18 13 20 4 22 21 24 18 26
REMARK H PARENT 10 19 13 21 4 23 21 25 18 27
REMARK Flexibility Score: inf
ROOT
ATOM      1  C   UNL     1     109.548 104.526 118.424  1.00  0.00     0.184 A 
ATOM      2  C   UNL     1     110.784 105.045 118.001  1.00  0.00     0.208 A 
ATOM      3  C   UNL     1     111.480 104.389 116.974  1.00  0.00     0.238 A 
ATOM      4  O   UNL     1     112.595 104.838 116.594  1.00  0.00    -0.285 OA
ATOM      5  C   UNL     1     110.918 103.241 116.378  1.00  0.00     0.111 A 
ATOM      6  C   UNL     1     111.553 102.521 115.335  1.00  0.00     0.134 A 
ATOM      7  C   UNL     1     110.924 101.393 114.787  1.00  0.00     0.093 A 
ATOM      8  C   UNL     1     109.679 100.970 115.258  1.00  0.00     0.123 A 
ATOM      9  C   UNL     1     109.049 101.675 116.288  1.00  0.00     0.094 A 
ATOM     10  C   UNL     1     109.658 102.802 116.849  1.00  0.00     0.146 A 
ATOM     11  O   UNL     1     109.041 103.451 117.829  1.00  0.00    -0.451 OA
ENDROOT
BRANCH   1  12
ATOM     12  C   UNL     1     108.770 105.161 119.508  1.00  0.00     0.063 A 
ATOM     13  C   UNL     1     107.105 106.799 120.184  1.00  0.00     0.047 A 
ATOM     14  C   UNL     1     107.861 106.181 119.184  1.00  0.00     0.020 A 
ATOM     15  C   UNL     1     107.237 106.399 121.515  1.00  0.00     0.119 A 
ATOM     16  C   UNL     1     108.125 105.366 121.846  1.00  0.00     0.093 A 
ATOM     17  C   UNL     1     108.883 104.736 120.848  1.00  0.00     0.130 A 
BRANCH  15  18
ATOM     18  O   UNL     1     106.481 107.027 122.502  1.00  0.00    -0.508 OA
ATOM     19  H   UNL     1     106.137 107.973 122.384  1.00  0.00     0.293 HD
ENDBRANCH  15  18
BRANCH  17  20
ATOM     20  O   UNL     1     109.727 103.677 121.182  1.00  0.00    -0.507 OA
ATOM     21  H   UNL     1     110.704 103.826 121.406  1.00  0.00     0.293 HD
ENDBRANCH  17  20
ENDBRANCH   1  12
BRANCH   2  22
ATOM     22  O   UNL     1     111.291 106.210 118.582  1.00  0.00    -0.502 OA
ATOM     23  H   UNL     1     111.806 106.201 119.455  1.00  0.00     0.293 HD
ENDBRANCH   2  22
BRANCH   6  24
ATOM     24  O   UNL     1     112.796 102.918 114.841  1.00  0.00    -0.507 OA
ATOM     25  H   UNL     1     113.108 102.658 113.914  1.00  0.00     0.293 HD
ENDBRANCH   6  24
BRANCH   8  26
ATOM     26  O   UNL     1     109.078  99.846 114.696  1.00  0.00    -0.508 OA
ATOM     27  H   UNL     1     108.290  99.390 115.139  1.00  0.00     0.293 HD
ENDBRANCH   8  26
TORSDOF 6
ENDMDL
MODEL 5
REMARK VINA RESULT:    -6.759     10.624     11.871
REMARK INTER + INTRA:          -8.451
REMARK INTER:                  -8.153
REMARK INTRA:                  -0.298
REMARK UNBOUND:                -0.308
REMARK SMILES O=c1c(O)c(-c2ccc(O)cc2O)oc2cc(O)cc(O)c12
REMARK SMILES IDX 5 1 3 2 2 3 1 4 22 5 20 6 19 7 17 8 16 9 15 10 14 11 6 12
REMARK SMILES IDX 8 13 7 14 9 15 11 16 12 17 10 18 13 20 4 22 21 24 18 26
REMARK H PARENT 10 19 13 21 4 23 21 25 18 27
REMARK Flexibility Score: inf
ROOT
ATOM      1  C   UNL     1      98.591 103.794 116.190  1.00  0.00     0.184 A 
ATOM      2  C   UNL     1      97.256 103.398 116.390  1.00  0.00     0.208 A 
ATOM      3  C   UNL     1      96.973 102.436 117.371  1.00  0.00     0.238 A 
ATOM      4  O   UNL     1      95.782 102.065 117.551  1.00  0.00    -0.285 OA
ATOM      5  C   UNL     1      98.025 101.904 118.146  1.00  0.00     0.111 A 
ATOM      6  C   UNL     1      97.825 100.933 119.158  1.00  0.00     0.134 A 
ATOM      7  C   UNL     1      98.923 100.459 119.892  1.00  0.00     0.093 A 
ATOM      8  C   UNL     1     100.211 100.935 119.638  1.00  0.00     0.123 A 
ATOM      9  C   UNL     1     100.414 101.892 118.639  1.00  0.00     0.094 A 
ATOM     10  C   UNL     1      99.334 102.377 117.894  1.00  0.00     0.146 A 
ATOM     11  O   UNL     1      99.555 103.283 116.949  1.00  0.00    -0.451 OA
ENDROOT
BRANCH   1  12
ATOM     12  C   UNL     1      98.959 104.793 115.165  1.00  0.00     0.063 A 
ATOM     13  C   UNL     1      99.874 106.982 114.634  1.00  0.00     0.047 A 
ATOM     14  C   UNL     1      99.510 106.017 115.577  1.00  0.00     0.020 A 
ATOM     15  C   UNL     1      99.705 106.732 113.270  1.00  0.00     0.119 A 
ATOM     16  C   UNL     1      99.177 105.504 112.848  1.00  0.00     0.093 A 
ATOM     17  C   UNL     1      98.815 104.528 113.787  1.00  0.00     0.130 A 
BRANCH  15  18
ATOM     18  O   UNL     1     100.069 107.705 112.342  1.00  0.00    -0.508 OA
ATOM     19  H   UNL     1      99.382 108.323 111.926  1.00  0.00     0.293 HD
ENDBRANCH  15  18
BRANCH  17  20
ATOM     20  O   UNL     1      98.336 103.292 113.354  1.00  0.00    -0.507 OA
ATOM     21  H   UNL     1      98.330 103.038 112.373  1.00  0.00     0.293 HD
ENDBRANCH  17  20
ENDBRANCH   1  12
BRANCH   2  22
ATOM     22  O   UNL     1      96.233 103.978 115.636  1.00  0.00    -0.502 OA
ATOM     23  H   UNL     1      96.318 104.901 115.225  1.00  0.00     0.293 HD
ENDBRANCH   2  22
BRANCH   6  24
ATOM     24  O   UNL     1      96.551 100.438 119.438  1.00  0.00    -0.507 OA
ATOM     25  H   UNL     1      96.401  99.711 120.126  1.00  0.00     0.293 HD
ENDBRANCH   6  24
BRANCH   8  26
ATOM     26  O   UNL     1     101.283 100.447 120.382  1.00  0.00    -0.508 OA
ATOM     27  H   UNL     1     101.147 100.023 121.291  1.00  0.00     0.293 HD
ENDBRANCH   8  26
TORSDOF 6
ENDMDL
MODEL 6
REMARK VINA RESULT:    -6.758     11.629     12.844
REMARK INTER + INTRA:          -8.449
REMARK INTER:                  -8.047
REMARK INTRA:                  -0.402
REMARK UNBOUND:                -0.308
REMARK SMILES O=c1c(O)c(-c2ccc(O)cc2O)oc2cc(O)cc(O)c12
REMARK SMILES IDX 5 1 3 2 2 3 1 4 22 5 20 6 19 7 17 8 16 9 15 10 14 11 6 12
REMARK SMILES IDX 8 13 7 14 9 15 11 16 12 17 10 18 13 20 4 22 21 24 18 26
REMARK H PARENT 10 19 13 21 4 23 21 25 18 27
REMARK Flexibility Score: inf
ROOT
ATOM      1  C   UNL     1      97.835 103.103 118.378  1.00  0.00     0.184 A 
ATOM      2  C   UNL     1      96.621 102.589 117.888  1.00  0.00     0.208 A 
ATOM      3  C   UNL     1      95.993 103.240 116.816  1.00  0.00     0.238 A 
ATOM      4  O   UNL     1      94.898 102.794 116.375  1.00  0.00    -0.285 OA
ATOM      5  C   UNL     1      96.597 104.378 116.242  1.00  0.00     0.111 A 
ATOM      6  C   UNL     1      96.031 105.091 115.157  1.00  0.00     0.134 A 
ATOM      7  C   UNL     1      96.699 106.209 114.636  1.00  0.00     0.093 A 
ATOM      8  C   UNL     1      97.918 106.628 115.175  1.00  0.00     0.123 A 
ATOM      9  C   UNL     1      98.480 105.929 116.248  1.00  0.00     0.094 A 
ATOM     10  C   UNL     1      97.831 104.812 116.783  1.00  0.00     0.146 A 
ATOM     11  O   UNL     1      98.384 104.168 117.803  1.00  0.00    -0.451 OA
ENDROOT
BRANCH   1  12
ATOM     12  C   UNL     1      98.543 102.473 119.512  1.00  0.00     0.063 A 
ATOM     13  C   UNL     1      99.820 100.594 120.376  1.00  0.00     0.047 A 
ATOM     14  C   UNL     1      99.138 101.215 119.327  1.00  0.00     0.020 A 
ATOM     15  C   UNL     1      99.927 101.225 121.617  1.00  0.00     0.119 A 
ATOM     16  C   UNL     1      99.356 102.491 121.806  1.00  0.00     0.093 A 
ATOM     17  C   UNL     1      98.675 103.125 120.756  1.00  0.00     0.130 A 
BRANCH  15  18
ATOM     18  O   UNL     1     100.606 100.592 122.656  1.00  0.00    -0.508 OA
ATOM     19  H   UNL     1     100.191 100.487 123.574  1.00  0.00     0.293 HD
ENDBRANCH  15  18
BRANCH  17  20
ATOM     20  O   UNL     1      98.153 104.405 120.940  1.00  0.00    -0.507 OA
ATOM     21  H   UNL     1      98.526 105.036 121.640  1.00  0.00     0.293 HD
ENDBRANCH  17  20
ENDBRANCH   1  12
BRANCH   2  22
ATOM     22  O   UNL     1      96.072 101.433 118.449  1.00  0.00    -0.502 OA
ATOM     23  H   UNL     1      96.029 101.285 119.450  1.00  0.00     0.293 HD
ENDBRANCH   2  22
BRANCH   6  24
ATOM     24  O   UNL     1      94.816 104.698 114.594  1.00  0.00    -0.507 OA
ATOM     25  H   UNL     1      94.321 105.283 113.933  1.00  0.00     0.293 HD
ENDBRANCH   6  24
BRANCH   8  26
ATOM     26  O   UNL     1      98.560 107.741 114.639  1.00  0.00    -0.508 OA
ATOM     27  H   UNL     1      98.914 108.484 115.230  1.00  0.00     0.293 HD
ENDBRANCH   8  26
TORSDOF 6
ENDMDL
MODEL 7
REMARK VINA RESULT:    -6.752      5.867      8.230
REMARK INTER + INTRA:          -8.442
REMARK INTER:                  -8.167
REMARK INTRA:                  -0.275
REMARK UNBOUND:                -0.308
REMARK SMILES O=c1c(O)c(-c2ccc(O)cc2O)oc2cc(O)cc(O)c12
REMARK SMILES IDX 5 1 3 2 2 3 1 4 22 5 20 6 19 7 17 8 16 9 15 10 14 11 6 12
REMARK SMILES IDX 8 13 7 14 9 15 11 16 12 17 10 18 13 20 4 22 21 24 18 26
REMARK H PARENT 10 19 13 21 4 23 21 25 18 27
REMARK Flexibility Score: inf
ROOT
ATOM      1  C   UNL     1     106.421 102.507 111.525  1.00  0.00     0.184 A 
ATOM      2  C   UNL     1     106.219 103.816 111.998  1.00  0.00     0.208 A 
ATOM      3  C   UNL     1     105.290 104.638 111.343  1.00  0.00     0.238 A 
ATOM      4  O   UNL     1     105.109 105.817 111.751  1.00  0.00    -0.285 OA
ATOM      5  C   UNL     1     104.568 104.131 110.243  1.00  0.00     0.111 A 
ATOM      6  C   UNL     1     103.611 104.893 109.528  1.00  0.00     0.134 A 
ATOM      7  C   UNL     1     102.927 104.313 108.450  1.00  0.00     0.093 A 
ATOM      8  C   UNL     1     103.178 102.992 108.071  1.00  0.00     0.123 A 
ATOM      9  C   UNL     1     104.123 102.236 108.772  1.00  0.00     0.094 A 
ATOM     10  C   UNL     1     104.817 102.795 109.850  1.00  0.00     0.146 A 
ATOM     11  O   UNL     1     105.712 102.057 110.496  1.00  0.00    -0.451 OA
ENDROOT
BRANCH   1  12
ATOM     12  C   UNL     1     107.393 101.593 112.162  1.00  0.00     0.063 A 
ATOM     13  C   UNL     1     109.669 101.173 112.905  1.00  0.00     0.047 A 
ATOM     14  C   UNL     1     108.726 102.010 112.302  1.00  0.00     0.020 A 
ATOM     15  C   UNL     1     109.291  99.918 113.385  1.00  0.00     0.119 A 
ATOM     16  C   UNL     1     107.958  99.501 113.270  1.00  0.00     0.093 A 
ATOM     17  C   UNL     1     107.003 100.338 112.673  1.00  0.00     0.130 A 
BRANCH  15  18
ATOM     18  O   UNL     1     110.244  99.092 113.979  1.00  0.00    -0.508 OA
ATOM     19  H   UNL     1     110.471  98.183 113.594  1.00  0.00     0.293 HD
ENDBRANCH  15  18
BRANCH  17  20
ATOM     20  O   UNL     1     105.670  99.933 112.607  1.00  0.00    -0.507 OA
ATOM     21  H   UNL     1     105.314  99.181 113.186  1.00  0.00     0.293 HD
ENDBRANCH  17  20
ENDBRANCH   1  12
BRANCH   2  22
ATOM     22  O   UNL     1     106.918 104.272 113.118  1.00  0.00    -0.502 OA
ATOM     23  H   UNL     1     106.630 104.051 114.064  1.00  0.00     0.293 HD
ENDBRANCH   2  22
BRANCH   6  24
ATOM     24  O   UNL     1     103.336 106.215 109.881  1.00  0.00    -0.507 OA
ATOM     25  H   UNL     1     103.937 106.978 109.598  1.00  0.00     0.293 HD
ENDBRANCH   6  24
BRANCH   8  26
ATOM     26  O   UNL     1     102.484 102.442 106.996  1.00  0.00    -0.508 OA
ATOM     27  H   UNL     1     101.509 102.181 107.073  1.00  0.00     0.293 HD
ENDBRANCH   8  26
TORSDOF 6
ENDMDL
MODEL 8
REMARK VINA RESULT:    -6.676      1.960      2.426
REMARK INTER + INTRA:          -8.351
REMARK INTER:                  -7.924
REMARK INTRA:                  -0.427
REMARK UNBOUND:                -0.308
REMARK SMILES O=c1c(O)c(-c2ccc(O)cc2O)oc2cc(O)cc(O)c12
REMARK SMILES IDX 5 1 3 2 2 3 1 4 22 5 20 6 19 7 17 8 16 9 15 10 14 11 6 12
REMARK SMILES IDX 8 13 7 14 9 15 11 16 12 17 10 18 13 20 4 22 21 24 18 26
REMARK H PARENT 10 19 13 21 4 23 21 25 18 27
REMARK Flexibility Score: inf
ROOT
ATOM      1  C   UNL     1     108.858 103.502 115.987  1.00  0.00     0.184 A 
ATOM      2  C   UNL     1     110.199 103.890 116.157  1.00  0.00     0.208 A 
ATOM      3  C   UNL     1     110.505 104.875 117.108  1.00  0.00     0.238 A 
ATOM      4  O   UNL     1     111.703 105.239 117.261  1.00  0.00    -0.285 OA
ATOM      5  C   UNL     1     109.470 105.437 117.884  1.00  0.00     0.111 A 
ATOM      6  C   UNL     1     109.693 106.433 118.866  1.00  0.00     0.134 A 
ATOM      7  C   UNL     1     108.611 106.936 119.603  1.00  0.00     0.093 A 
ATOM      8  C   UNL     1     107.315 106.467 119.380  1.00  0.00     0.123 A 
ATOM      9  C   UNL     1     107.089 105.485 118.410  1.00  0.00     0.094 A 
ATOM     10  C   UNL     1     108.153 104.970 117.663  1.00  0.00     0.146 A 
ATOM     11  O   UNL     1     107.910 104.041 116.746  1.00  0.00    -0.451 OA
ENDROOT
BRANCH   1  12
ATOM     12  C   UNL     1     108.466 102.479 114.995  1.00  0.00     0.063 A 
ATOM     13  C   UNL     1     108.319 100.132 114.380  1.00  0.00     0.047 A 
ATOM     14  C   UNL     1     108.683 101.125 115.293  1.00  0.00     0.020 A 
ATOM     15  C   UNL     1     107.723 100.478 113.165  1.00  0.00     0.119 A 
ATOM     16  C   UNL     1     107.482 101.825 112.867  1.00  0.00     0.093 A 
ATOM     17  C   UNL     1     107.838 102.828 113.781  1.00  0.00     0.130 A 
BRANCH  15  18
ATOM     18  O   UNL     1     107.370  99.477 112.262  1.00  0.00    -0.508 OA
ATOM     19  H   UNL     1     107.142  99.690 111.298  1.00  0.00     0.293 HD
ENDBRANCH  15  18
BRANCH  17  20
ATOM     20  O   UNL     1     107.549 104.162 113.495  1.00  0.00    -0.507 OA
ATOM     21  H   UNL     1     106.625 104.550 113.645  1.00  0.00     0.293 HD
ENDBRANCH  17  20
ENDBRANCH   1  12
BRANCH   2  22
ATOM     22  O   UNL     1     111.206 103.281 115.404  1.00  0.00    -0.502 OA
ATOM     23  H   UNL     1     111.016 102.529 114.751  1.00  0.00     0.293 HD
ENDBRANCH   2  22
BRANCH   6  24
ATOM     24  O   UNL     1     110.976 106.923 119.114  1.00  0.00    -0.507 OA
ATOM     25  H   UNL     1     111.641 107.078 118.367  1.00  0.00     0.293 HD
ENDBRANCH   6  24
BRANCH   8  26
ATOM     26  O   UNL     1     106.259 106.984 120.126  1.00  0.00    -0.508 OA
ATOM     27  H   UNL     1     105.632 107.681 119.744  1.00  0.00     0.293 HD
ENDBRANCH   8  26
TORSDOF 6
ENDMDL
MODEL 9
REMARK VINA RESULT:    -6.630      8.735      9.821
REMARK INTER + INTRA:          -8.295
REMARK INTER:                  -7.895
REMARK INTRA:                  -0.401
REMARK UNBOUND:                -0.308
REMARK SMILES O=c1c(O)c(-c2ccc(O)cc2O)oc2cc(O)cc(O)c12
REMARK SMILES IDX 5 1 3 2 2 3 1 4 22 5 20 6 19 7 17 8 16 9 15 10 14 11 6 12
REMARK SMILES IDX 8 13 7 14 9 15 11 16 12 17 10 18 13 20 4 22 21 24 18 26
REMARK H PARENT 10 19 13 21 4 23 21 25 18 27
REMARK Flexibility Score: inf
ROOT
ATOM      1  C   UNL     1     102.115 105.465 111.876  1.00  0.00     0.184 A 
ATOM      2  C   UNL     1     102.353 104.713 113.041  1.00  0.00     0.208 A 
ATOM      3  C   UNL     1     101.641 105.026 114.208  1.00  0.00     0.238 A 
ATOM      4  O   UNL     1     101.854 104.365 115.261  1.00  0.00    -0.285 OA
ATOM      5  C   UNL     1     100.691 106.068 114.185  1.00  0.00     0.111 A 
ATOM      6  C   UNL     1      99.929 106.446 115.317  1.00  0.00     0.134 A 
ATOM      7  C   UNL     1      98.996 107.489 115.210  1.00  0.00     0.093 A 
ATOM      8  C   UNL     1      98.811 108.160 114.000  1.00  0.00     0.123 A 
ATOM      9  C   UNL     1      99.563 107.793 112.879  1.00  0.00     0.094 A 
ATOM     10  C   UNL     1     100.498 106.757 112.964  1.00  0.00     0.146 A 
ATOM     11  O   UNL     1     101.201 106.431 111.886  1.00  0.00    -0.451 OA
ENDROOT
BRANCH   1  12
ATOM     12  C   UNL     1     102.839 105.196 110.617  1.00  0.00     0.063 A 
ATOM     13  C   UNL     1     102.868 104.155 108.420  1.00  0.00     0.047 A 
ATOM     14  C   UNL     1     102.214 104.424 109.625  1.00  0.00     0.020 A 
ATOM     15  C   UNL     1     104.147 104.664 108.185  1.00  0.00     0.119 A 
ATOM     16  C   UNL     1     104.771 105.454 109.159  1.00  0.00     0.093 A 
ATOM     17  C   UNL     1     104.119 105.735 110.369  1.00  0.00     0.130 A 
BRANCH  15  18
ATOM     18  O   UNL     1     104.789 104.384 106.981  1.00  0.00    -0.508 OA
ATOM     19  H   UNL     1     105.717 104.737 106.780  1.00  0.00     0.293 HD
ENDBRANCH  15  18
BRANCH  17  20
ATOM     20  O   UNL     1     104.729 106.563 111.311  1.00  0.00    -0.507 OA
ATOM     21  H   UNL     1     104.196 107.228 111.859  1.00  0.00     0.293 HD
ENDBRANCH  17  20
ENDBRANCH   1  12
BRANCH   2  22
ATOM     22  O   UNL     1     103.268 103.657 113.018  1.00  0.00    -0.502 OA
ATOM     23  H   UNL     1     103.361 103.038 112.221  1.00  0.00     0.293 HD
ENDBRANCH   2  22
BRANCH   6  24
ATOM     24  O   UNL     1     100.088 105.794 116.541  1.00  0.00    -0.507 OA
ATOM     25  H   UNL     1      99.306 105.370 117.024  1.00  0.00     0.293 HD
ENDBRANCH   6  24
BRANCH   8  26
ATOM     26  O   UNL     1      97.879 109.192 113.922  1.00  0.00    -0.508 OA
ATOM     27  H   UNL     1      97.067 109.129 113.320  1.00  0.00     0.293 HD
ENDBRANCH   8  26
TORSDOF 6
ENDMDL
