MODEL 1
REMARK VINA RESULT:    -3.655      0.000      0.000
REMARK INTER + INTRA:         -15.121
REMARK INTER:                  -9.637
REMARK INTRA:                  -5.484
REMARK UNBOUND:                -5.484
REMARK SMILES CCCCCCCCCCCCCCCCCCCCCCCCCCCCCC(=O)[O-]
REMARK SMILES IDX 16 1 17 2 18 3 19 4 20 5 21 6 22 7 23 8 24 9 25 10 26 11
REMARK SMILES IDX 27 12 28 13 29 14 30 15 31 16 32 17 15 18 14 19 13 20 12 21
REMARK SMILES IDX 11 22 10 23 9 24 8 25 7 26 6 27 5 28 4 29 3 30 2 31 1 32
REMARK H PARENT
REMARK Flexibility Score: inf
ROOT
ATOM      1  C   UNL     1     115.605  52.041  53.496  1.00  0.00     0.000 C 
ENDROOT
BRANCH   1   2
ATOM      2  C   UNL     1     116.618  51.974  54.650  1.00  0.00     0.000 C 
BRANCH   2   3
ATOM      3  C   UNL     1     117.584  53.172  54.669  1.00  0.00     0.000 C 
BRANCH   3   4
ATOM      4  C   UNL     1     119.026  52.795  54.299  1.00  0.00     0.000 C 
BRANCH   4   5
ATOM      5  C   UNL     1     119.734  53.973  53.607  1.00  0.00     0.000 C 
BRANCH   5   6
ATOM      6  C   UNL     1     118.784  54.817  52.743  1.00  0.00     0.000 C 
BRANCH   6   7
ATOM      7  C   UNL     1     119.316  55.023  51.314  1.00  0.00     0.000 C 
BRANCH   7   8
ATOM      8  C   UNL     1     118.934  56.397  50.739  1.00  0.00     0.000 C 
BRANCH   8   9
ATOM      9  C   UNL     1     117.488  56.440  50.214  1.00  0.00     0.000 C 
BRANCH   9  10
ATOM     10  C   UNL     1     117.402  56.150  48.700  1.00  0.00     0.000 C 
BRANCH  10  11
ATOM     11  C   UNL     1     115.983  55.801  48.211  1.00  0.00     0.000 C 
BRANCH  11  12
ATOM     12  C   UNL     1     114.883  56.777  48.664  1.00  0.00     0.000 C 
BRANCH  12  13
ATOM     13  C   UNL     1     113.775  56.090  49.476  1.00  0.00     0.006 C 
BRANCH  13  14
ATOM     14  C   UNL     1     112.863  55.257  48.569  1.00  0.00     0.053 C 
BRANCH  14  15
ATOM     15  C   UNL     1     111.466  55.793  48.586  1.00  0.00     0.041 C 
ATOM     16  O   UNL     1     111.046  56.436  49.584  1.00  0.00    -0.550 OA
ATOM     17  O   UNL     1     110.640  55.619  47.480  1.00  0.00    -0.550 OA
ENDBRANCH  14  15
ENDBRANCH  13  14
ENDBRANCH  12  13
ENDBRANCH  11  12
ENDBRANCH  10  11
ENDBRANCH   9  10
ENDBRANCH   8   9
ENDBRANCH   7   8
ENDBRANCH   6   7
ENDBRANCH   5   6
ENDBRANCH   4   5
ENDBRANCH   3   4
ENDBRANCH   2   3
ENDBRANCH   1   2
BRANCH   1  18
ATOM     18  C   UNL     1     115.212  53.486  53.128  1.00  0.00     0.000 C 
BRANCH  18  19
ATOM     19  C   UNL     1     115.454  53.875  51.657  1.00  0.00     0.000 C 
BRANCH  19  20
ATOM     20  C   UNL     1     115.624  52.655  50.733  1.00  0.00     0.000 C 
BRANCH  20  21
ATOM     21  C   UNL     1     116.955  52.693  49.954  1.00  0.00     0.000 C 
BRANCH  21  22
ATOM     22  C   UNL     1     117.698  51.347  49.931  1.00  0.00     0.000 C 
BRANCH  22  23
ATOM     23  C   UNL     1     118.135  50.887  51.329  1.00  0.00     0.000 C 
BRANCH  23  24
ATOM     24  C   UNL     1     117.597  49.490  51.688  1.00  0.00    -0.000 C 
BRANCH  24  25
ATOM     25  C   UNL     1     116.795  48.794  50.569  1.00  0.00    -0.000 C 
BRANCH  25  26
ATOM     26  C   UNL     1     115.350  48.426  50.972  1.00  0.00    -0.000 C 
BRANCH  26  27
ATOM     27  C   UNL     1     114.300  49.218  50.171  1.00  0.00    -0.000 C 
BRANCH  27  28
ATOM     28  C   UNL     1     114.814  49.659  48.788  1.00  0.00    -0.000 C 
BRANCH  28  29
ATOM     29  C   UNL     1     113.982  50.777  48.134  1.00  0.00    -0.000 C 
BRANCH  29  30
ATOM     30  C   UNL     1     114.007  50.706  46.596  1.00  0.00    -0.000 C 
BRANCH  30  31
ATOM     31  C   UNL     1     113.989  49.260  46.077  1.00  0.00    -0.003 C 
ATOM     32  C   UNL     1     114.936  49.047  44.894  1.00  0.00     0.004 C 
ENDBRANCH  30  31
ENDBRANCH  29  30
ENDBRANCH  28  29
ENDBRANCH  27  28
ENDBRANCH  26  27
ENDBRANCH  25  26
ENDBRANCH  24  25
ENDBRANCH  23  24
ENDBRANCH  22  23
ENDBRANCH  21  22
ENDBRANCH  20  21
ENDBRANCH  19  20
ENDBRANCH  18  19
ENDBRANCH   1  18
TORSDOF 28
ENDMDL
MODEL 2
REMARK VINA RESULT:    -3.580      6.228      9.151
REMARK INTER + INTRA:         -14.924
REMARK INTER:                 -11.116
REMARK INTRA:                  -3.808
REMARK UNBOUND:                -5.484
REMARK SMILES CCCCCCCCCCCCCCCCCCCCCCCCCCCCCC(=O)[O-]
REMARK SMILES IDX 16 1 17 2 18 3 19 4 20 5 21 6 22 7 23 8 24 9 25 10 26 11
REMARK SMILES IDX 27 12 28 13 29 14 30 15 31 16 32 17 15 18 14 19 13 20 12 21
REMARK SMILES IDX 11 22 10 23 9 24 8 25 7 26 6 27 5 28 4 29 3 30 2 31 1 32
REMARK H PARENT
REMARK Flexibility Score: inf
ROOT
ATOM      1  C   UNL     1     123.896  56.065  52.658  1.00  0.00     0.000 C 
ENDROOT
BRANCH   1   2
ATOM      2  C   UNL     1     124.042  57.280  51.728  1.00  0.00     0.000 C 
BRANCH   2   3
ATOM      3  C   UNL     1     122.741  57.619  50.979  1.00  0.00     0.000 C 
BRANCH   3   4
ATOM      4  C   UNL     1     121.816  56.407  50.789  1.00  0.00     0.000 C 
BRANCH   4   5
ATOM      5  C   UNL     1     122.183  55.641  49.506  1.00  0.00     0.000 C 
BRANCH   5   6
ATOM      6  C   UNL     1     122.932  56.511  48.484  1.00  0.00     0.000 C 
BRANCH   6   7
ATOM      7  C   UNL     1     123.773  55.673  47.504  1.00  0.00     0.000 C 
BRANCH   7   8
ATOM      8  C   UNL     1     125.244  55.566  47.937  1.00  0.00     0.000 C 
BRANCH   8   9
ATOM      9  C   UNL     1     125.585  54.196  48.550  1.00  0.00     0.000 C 
BRANCH   9  10
ATOM     10  C   UNL     1     125.168  53.023  47.637  1.00  0.00     0.000 C 
BRANCH  10  11
ATOM     11  C   UNL     1     126.128  52.777  46.458  1.00  0.00     0.000 C 
BRANCH  11  12
ATOM     12  C   UNL     1     125.576  53.178  45.079  1.00  0.00     0.000 C 
BRANCH  12  13
ATOM     13  C   UNL     1     126.611  53.914  44.215  1.00  0.00     0.006 C 
BRANCH  13  14
ATOM     14  C   UNL     1     125.929  54.726  43.108  1.00  0.00     0.053 C 
BRANCH  14  15
ATOM     15  C   UNL     1     124.820  55.559  43.669  1.00  0.00     0.041 C 
ATOM     16  O   UNL     1     125.080  56.615  44.305  1.00  0.00    -0.550 OA
ATOM     17  O   UNL     1     123.496  55.192  43.453  1.00  0.00    -0.550 OA
ENDBRANCH  14  15
ENDBRANCH  13  14
ENDBRANCH  12  13
ENDBRANCH  11  12
ENDBRANCH  10  11
ENDBRANCH   9  10
ENDBRANCH   8   9
ENDBRANCH   7   8
ENDBRANCH   6   7
ENDBRANCH   5   6
ENDBRANCH   4   5
ENDBRANCH   3   4
ENDBRANCH   2   3
ENDBRANCH   1   2
BRANCH   1  18
ATOM     18  C   UNL     1     124.923  54.955  52.358  1.00  0.00     0.000 C 
BRANCH  18  19
ATOM     19  C   UNL     1     124.413  53.517  52.574  1.00  0.00     0.000 C 
BRANCH  19  20
ATOM     20  C   UNL     1     122.916  53.458  52.928  1.00  0.00     0.000 C 
BRANCH  20  21
ATOM     21  C   UNL     1     122.664  52.772  54.287  1.00  0.00     0.000 C 
BRANCH  21  22
ATOM     22  C   UNL     1     122.528  53.755  55.462  1.00  0.00     0.000 C 
BRANCH  22  23
ATOM     23  C   UNL     1     121.116  53.767  56.065  1.00  0.00     0.000 C 
BRANCH  23  24
ATOM     24  C   UNL     1     120.035  53.360  55.048  1.00  0.00    -0.000 C 
BRANCH  24  25
ATOM     25  C   UNL     1     119.523  54.504  54.149  1.00  0.00    -0.000 C 
BRANCH  25  26
ATOM     26  C   UNL     1     119.063  54.041  52.749  1.00  0.00    -0.000 C 
BRANCH  26  27
ATOM     27  C   UNL     1     118.468  55.192  51.918  1.00  0.00    -0.000 C 
BRANCH  27  28
ATOM     28  C   UNL     1     117.113  54.827  51.282  1.00  0.00    -0.000 C 
BRANCH  28  29
ATOM     29  C   UNL     1     116.682  53.367  51.513  1.00  0.00    -0.000 C 
BRANCH  29  30
ATOM     30  C   UNL     1     115.495  53.251  52.487  1.00  0.00    -0.000 C 
BRANCH  30  31
ATOM     31  C   UNL     1     115.597  52.012  53.390  1.00  0.00    -0.003 C 
ATOM     32  C   UNL     1     116.453  52.258  54.633  1.00  0.00     0.004 C 
ENDBRANCH  30  31
ENDBRANCH  29  30
ENDBRANCH  28  29
ENDBRANCH  27  28
ENDBRANCH  26  27
ENDBRANCH  25  26
ENDBRANCH  24  25
ENDBRANCH  23  24
ENDBRANCH  22  23
ENDBRANCH  21  22
ENDBRANCH  20  21
ENDBRANCH  19  20
ENDBRANCH  18  19
ENDBRANCH   1  18
TORSDOF 28
ENDMDL
MODEL 3
REMARK VINA RESULT:    -3.530      1.101      5.742
REMARK INTER + INTRA:         -14.793
REMARK INTER:                  -9.028
REMARK INTRA:                  -5.764
REMARK UNBOUND:                -5.484
REMARK SMILES CCCCCCCCCCCCCCCCCCCCCCCCCCCCCC(=O)[O-]
REMARK SMILES IDX 16 1 17 2 18 3 19 4 20 5 21 6 22 7 23 8 24 9 25 10 26 11
REMARK SMILES IDX 27 12 28 13 29 14 30 15 31 16 32 17 15 18 14 19 13 20 12 21
REMARK SMILES IDX 11 22 10 23 9 24 8 25 7 26 6 27 5 28 4 29 3 30 2 31 1 32
REMARK H PARENT
REMARK Flexibility Score: inf
ROOT
ATOM      1  C   UNL     1     118.030  49.757  51.659  1.00  0.00     0.000 C 
ENDROOT
BRANCH   1   2
ATOM      2  C   UNL     1     117.807  48.237  51.616  1.00  0.00     0.000 C 
BRANCH   2   3
ATOM      3  C   UNL     1     116.615  47.833  50.730  1.00  0.00     0.000 C 
BRANCH   3   4
ATOM      4  C   UNL     1     115.264  48.335  51.264  1.00  0.00     0.000 C 
BRANCH   4   5
ATOM      5  C   UNL     1     114.485  49.071  50.161  1.00  0.00     0.000 C 
BRANCH   5   6
ATOM      6  C   UNL     1     114.803  48.546  48.752  1.00  0.00     0.000 C 
BRANCH   6   7
ATOM      7  C   UNL     1     115.248  49.666  47.794  1.00  0.00     0.000 C 
BRANCH   7   8
ATOM      8  C   UNL     1     114.078  50.238  46.977  1.00  0.00     0.000 C 
BRANCH   8   9
ATOM      9  C   UNL     1     113.710  51.674  47.391  1.00  0.00     0.000 C 
BRANCH   9  10
ATOM     10  C   UNL     1     114.622  52.729  46.730  1.00  0.00     0.000 C 
BRANCH  10  11
ATOM     11  C   UNL     1     113.872  53.987  46.248  1.00  0.00     0.000 C 
BRANCH  11  12
ATOM     12  C   UNL     1     114.318  55.300  46.912  1.00  0.00     0.000 C 
BRANCH  12  13
ATOM     13  C   UNL     1     114.217  55.257  48.444  1.00  0.00     0.006 C 
BRANCH  13  14
ATOM     14  C   UNL     1     113.421  56.453  48.978  1.00  0.00     0.053 C 
BRANCH  14  15
ATOM     15  C   UNL     1     112.022  56.439  48.447  1.00  0.00     0.041 C 
ATOM     16  O   UNL     1     111.310  55.407  48.563  1.00  0.00    -0.550 OA
ATOM     17  O   UNL     1     111.490  57.582  47.859  1.00  0.00    -0.550 OA
ENDBRANCH  14  15
ENDBRANCH  13  14
ENDBRANCH  12  13
ENDBRANCH  11  12
ENDBRANCH  10  11
ENDBRANCH   9  10
ENDBRANCH   8   9
ENDBRANCH   7   8
ENDBRANCH   6   7
ENDBRANCH   5   6
ENDBRANCH   4   5
ENDBRANCH   3   4
ENDBRANCH   2   3
ENDBRANCH   1   2
BRANCH   1  18
ATOM     18  C   UNL     1     118.040  50.401  50.259  1.00  0.00     0.000 C 
BRANCH  18  19
ATOM     19  C   UNL     1     118.055  51.942  50.248  1.00  0.00     0.000 C 
BRANCH  19  20
ATOM     20  C   UNL     1     116.774  52.551  49.650  1.00  0.00     0.000 C 
BRANCH  20  21
ATOM     21  C   UNL     1     115.576  52.456  50.618  1.00  0.00     0.000 C 
BRANCH  21  22
ATOM     22  C   UNL     1     115.360  53.722  51.463  1.00  0.00     0.000 C 
BRANCH  22  23
ATOM     23  C   UNL     1     115.234  53.420  52.963  1.00  0.00     0.000 C 
BRANCH  23  24
ATOM     24  C   UNL     1     115.610  51.967  53.307  1.00  0.00    -0.000 C 
BRANCH  24  25
ATOM     25  C   UNL     1     116.711  51.815  54.377  1.00  0.00    -0.000 C 
BRANCH  25  26
ATOM     26  C   UNL     1     117.482  53.121  54.669  1.00  0.00    -0.000 C 
BRANCH  26  27
ATOM     27  C   UNL     1     118.989  52.989  54.378  1.00  0.00    -0.000 C 
BRANCH  27  28
ATOM     28  C   UNL     1     119.390  53.605  53.025  1.00  0.00    -0.000 C 
BRANCH  28  29
ATOM     29  C   UNL     1     118.584  54.860  52.642  1.00  0.00    -0.000 C 
BRANCH  29  30
ATOM     30  C   UNL     1     118.978  55.412  51.259  1.00  0.00    -0.000 C 
BRANCH  30  31
ATOM     31  C   UNL     1     117.817  56.146  50.571  1.00  0.00    -0.003 C 
ATOM     32  C   UNL     1     118.280  57.006  49.393  1.00  0.00     0.004 C 
ENDBRANCH  30  31
ENDBRANCH  29  30
ENDBRANCH  28  29
ENDBRANCH  27  28
ENDBRANCH  26  27
ENDBRANCH  25  26
ENDBRANCH  24  25
ENDBRANCH  23  24
ENDBRANCH  22  23
ENDBRANCH  21  22
ENDBRANCH  20  21
ENDBRANCH  19  20
ENDBRANCH  18  19
ENDBRANCH   1  18
TORSDOF 28
ENDMDL
MODEL 4
REMARK VINA RESULT:    -3.524      3.000      6.920
REMARK INTER + INTRA:         -14.775
REMARK INTER:                  -8.894
REMARK INTRA:                  -5.881
REMARK UNBOUND:                -5.484
REMARK SMILES CCCCCCCCCCCCCCCCCCCCCCCCCCCCCC(=O)[O-]
REMARK SMILES IDX 16 1 17 2 18 3 19 4 20 5 21 6 22 7 23 8 24 9 25 10 26 11
REMARK SMILES IDX 27 12 28 13 29 14 30 15 31 16 32 17 15 18 14 19 13 20 12 21
REMARK SMILES IDX 11 22 10 23 9 24 8 25 7 26 6 27 5 28 4 29 3 30 2 31 1 32
REMARK H PARENT
REMARK Flexibility Score: inf
ROOT
ATOM      1  C   UNL     1     123.918  53.289  52.658  1.00  0.00     0.000 C 
ENDROOT
BRANCH   1   2
ATOM      2  C   UNL     1     123.515  54.326  53.719  1.00  0.00     0.000 C 
BRANCH   2   3
ATOM      3  C   UNL     1     122.478  53.785  54.719  1.00  0.00     0.000 C 
BRANCH   3   4
ATOM      4  C   UNL     1     122.041  52.342  54.421  1.00  0.00     0.000 C 
BRANCH   4   5
ATOM      5  C   UNL     1     120.557  52.143  54.770  1.00  0.00     0.000 C 
BRANCH   5   6
ATOM      6  C   UNL     1     119.854  53.451  55.166  1.00  0.00     0.000 C 
BRANCH   6   7
ATOM      7  C   UNL     1     118.558  53.687  54.369  1.00  0.00     0.000 C 
BRANCH   7   8
ATOM      8  C   UNL     1     117.336  53.030  55.030  1.00  0.00     0.000 C 
BRANCH   8   9
ATOM      9  C   UNL     1     116.520  52.170  54.047  1.00  0.00     0.000 C 
BRANCH   9  10
ATOM     10  C   UNL     1     115.345  52.948  53.419  1.00  0.00     0.000 C 
BRANCH  10  11
ATOM     11  C   UNL     1     115.347  52.945  51.878  1.00  0.00     0.000 C 
BRANCH  11  12
ATOM     12  C   UNL     1     115.738  54.283  51.228  1.00  0.00     0.000 C 
BRANCH  12  13
ATOM     13  C   UNL     1     115.830  54.197  49.698  1.00  0.00     0.006 C 
BRANCH  13  14
ATOM     14  C   UNL     1     116.360  55.506  49.102  1.00  0.00     0.053 C 
BRANCH  14  15
ATOM     15  C   UNL     1     115.358  56.606  49.262  1.00  0.00     0.041 C 
ATOM     16  O   UNL     1     115.742  57.797  49.408  1.00  0.00    -0.550 OA
ATOM     17  O   UNL     1     113.998  56.321  49.209  1.00  0.00    -0.550 OA
ENDBRANCH  14  15
ENDBRANCH  13  14
ENDBRANCH  12  13
ENDBRANCH  11  12
ENDBRANCH  10  11
ENDBRANCH   9  10
ENDBRANCH   8   9
ENDBRANCH   7   8
ENDBRANCH   6   7
ENDBRANCH   5   6
ENDBRANCH   4   5
ENDBRANCH   3   4
ENDBRANCH   2   3
ENDBRANCH   1   2
BRANCH   1  18
ATOM     18  C   UNL     1     124.797  53.887  51.541  1.00  0.00     0.000 C 
BRANCH  18  19
ATOM     19  C   UNL     1     124.024  54.461  50.338  1.00  0.00     0.000 C 
BRANCH  19  20
ATOM     20  C   UNL     1     124.508  55.863  49.926  1.00  0.00     0.000 C 
BRANCH  20  21
ATOM     21  C   UNL     1     124.620  56.819  51.132  1.00  0.00     0.000 C 
BRANCH  21  22
ATOM     22  C   UNL     1     123.261  57.249  51.710  1.00  0.00     0.000 C 
BRANCH  22  23
ATOM     23  C   UNL     1     122.796  58.613  51.180  1.00  0.00     0.000 C 
BRANCH  23  24
ATOM     24  C   UNL     1     121.508  58.514  50.343  1.00  0.00    -0.000 C 
BRANCH  24  25
ATOM     25  C   UNL     1     120.974  57.082  50.137  1.00  0.00    -0.000 C 
BRANCH  25  26
ATOM     26  C   UNL     1     119.495  56.903  50.544  1.00  0.00    -0.000 C 
BRANCH  26  27
ATOM     27  C   UNL     1     119.280  55.672  51.444  1.00  0.00    -0.000 C 
BRANCH  27  28
ATOM     28  C   UNL     1     120.578  54.880  51.688  1.00  0.00    -0.000 C 
BRANCH  28  29
ATOM     29  C   UNL     1     120.551  53.443  51.134  1.00  0.00    -0.000 C 
BRANCH  29  30
ATOM     30  C   UNL     1     119.139  53.004  50.707  1.00  0.00    -0.000 C 
BRANCH  30  31
ATOM     31  C   UNL     1     118.787  51.595  51.209  1.00  0.00    -0.003 C 
ATOM     32  C   UNL     1     120.027  50.747  51.503  1.00  0.00     0.004 C 
ENDBRANCH  30  31
ENDBRANCH  29  30
ENDBRANCH  28  29
ENDBRANCH  27  28
ENDBRANCH  26  27
ENDBRANCH  25  26
ENDBRANCH  24  25
ENDBRANCH  23  24
ENDBRANCH  22  23
ENDBRANCH  21  22
ENDBRANCH  20  21
ENDBRANCH  19  20
ENDBRANCH  18  19
ENDBRANCH   1  18
TORSDOF 28
ENDMDL
MODEL 5
REMARK VINA RESULT:    -3.523      4.403      7.993
REMARK INTER + INTRA:         -14.774
REMARK INTER:                  -8.877
REMARK INTRA:                  -5.897
REMARK UNBOUND:                -5.484
REMARK SMILES CCCCCCCCCCCCCCCCCCCCCCCCCCCCCC(=O)[O-]
REMARK SMILES IDX 16 1 17 2 18 3 19 4 20 5 21 6 22 7 23 8 24 9 25 10 26 11
REMARK SMILES IDX 27 12 28 13 29 14 30 15 31 16 32 17 15 18 14 19 13 20 12 21
REMARK SMILES IDX 11 22 10 23 9 24 8 25 7 26 6 27 5 28 4 29 3 30 2 31 1 32
REMARK H PARENT
REMARK Flexibility Score: inf
ROOT
ATOM      1  C   UNL     1     121.930  56.500  49.910  1.00  0.00     0.000 C 
ENDROOT
BRANCH   1   2
ATOM      2  C   UNL     1     120.891  55.435  50.297  1.00  0.00     0.000 C 
BRANCH   2   3
ATOM      3  C   UNL     1     119.509  56.035  50.609  1.00  0.00     0.000 C 
BRANCH   3   4
ATOM      4  C   UNL     1     118.986  55.662  52.005  1.00  0.00     0.000 C 
BRANCH   4   5
ATOM      5  C   UNL     1     119.470  54.259  52.408  1.00  0.00     0.000 C 
BRANCH   5   6
ATOM      6  C   UNL     1     119.365  54.001  53.919  1.00  0.00     0.000 C 
BRANCH   6   7
ATOM      7  C   UNL     1     119.580  52.520  54.279  1.00  0.00     0.000 C 
BRANCH   7   8
ATOM      8  C   UNL     1     118.331  51.664  54.008  1.00  0.00     0.000 C 
BRANCH   8   9
ATOM      9  C   UNL     1     117.050  52.282  54.596  1.00  0.00     0.000 C 
BRANCH   9  10
ATOM     10  C   UNL     1     115.816  52.046  53.698  1.00  0.00     0.000 C 
BRANCH  10  11
ATOM     11  C   UNL     1     115.169  53.343  53.175  1.00  0.00     0.000 C 
BRANCH  11  12
ATOM     12  C   UNL     1     115.787  53.898  51.880  1.00  0.00     0.000 C 
BRANCH  12  13
ATOM     13  C   UNL     1     115.644  52.937  50.692  1.00  0.00     0.006 C 
BRANCH  13  14
ATOM     14  C   UNL     1     116.996  52.693  50.013  1.00  0.00     0.053 C 
BRANCH  14  15
ATOM     15  C   UNL     1     117.582  51.388  50.451  1.00  0.00     0.041 C 
ATOM     16  O   UNL     1     116.832  50.406  50.696  1.00  0.00    -0.550 OA
ATOM     17  O   UNL     1     118.962  51.242  50.549  1.00  0.00    -0.550 OA
ENDBRANCH  14  15
ENDBRANCH  13  14
ENDBRANCH  12  13
ENDBRANCH  11  12
ENDBRANCH  10  11
ENDBRANCH   9  10
ENDBRANCH   8   9
ENDBRANCH   7   8
ENDBRANCH   6   7
ENDBRANCH   5   6
ENDBRANCH   4   5
ENDBRANCH   3   4
ENDBRANCH   2   3
ENDBRANCH   1   2
BRANCH   1  18
ATOM     18  C   UNL     1     121.932  57.710  50.865  1.00  0.00     0.000 C 
BRANCH  18  19
ATOM     19  C   UNL     1     123.322  58.304  51.164  1.00  0.00     0.000 C 
BRANCH  19  20
ATOM     20  C   UNL     1     124.029  57.612  52.344  1.00  0.00     0.000 C 
BRANCH  20  21
ATOM     21  C   UNL     1     125.023  56.529  51.875  1.00  0.00     0.000 C 
BRANCH  21  22
ATOM     22  C   UNL     1     124.725  55.130  52.438  1.00  0.00     0.000 C 
BRANCH  22  23
ATOM     23  C   UNL     1     123.362  55.052  53.142  1.00  0.00     0.000 C 
BRANCH  23  24
ATOM     24  C   UNL     1     123.127  53.693  53.825  1.00  0.00    -0.000 C 
BRANCH  24  25
ATOM     25  C   UNL     1     123.687  52.474  53.063  1.00  0.00    -0.000 C 
BRANCH  25  26
ATOM     26  C   UNL     1     122.607  51.633  52.350  1.00  0.00    -0.000 C 
BRANCH  26  27
ATOM     27  C   UNL     1     122.346  52.113  50.910  1.00  0.00    -0.000 C 
BRANCH  27  28
ATOM     28  C   UNL     1     123.611  52.074  50.032  1.00  0.00    -0.000 C 
BRANCH  28  29
ATOM     29  C   UNL     1     123.974  53.426  49.391  1.00  0.00    -0.000 C 
BRANCH  29  30
ATOM     30  C   UNL     1     125.492  53.592  49.190  1.00  0.00    -0.000 C 
BRANCH  30  31
ATOM     31  C   UNL     1     126.309  52.815  50.234  1.00  0.00    -0.003 C 
ATOM     32  C   UNL     1     127.677  52.377  49.705  1.00  0.00     0.004 C 
ENDBRANCH  30  31
ENDBRANCH  29  30
ENDBRANCH  28  29
ENDBRANCH  27  28
ENDBRANCH  26  27
ENDBRANCH  25  26
ENDBRANCH  24  25
ENDBRANCH  23  24
ENDBRANCH  22  23
ENDBRANCH  21  22
ENDBRANCH  20  21
ENDBRANCH  19  20
ENDBRANCH  18  19
ENDBRANCH   1  18
TORSDOF 28
ENDMDL
MODEL 6
REMARK VINA RESULT:    -3.505      5.907      8.242
REMARK INTER + INTRA:         -14.725
REMARK INTER:                  -9.512
REMARK INTRA:                  -5.214
REMARK UNBOUND:                -5.484
REMARK SMILES CCCCCCCCCCCCCCCCCCCCCCCCCCCCCC(=O)[O-]
REMARK SMILES IDX 16 1 17 2 18 3 19 4 20 5 21 6 22 7 23 8 24 9 25 10 26 11
REMARK SMILES IDX 27 12 28 13 29 14 30 15 31 16 32 17 15 18 14 19 13 20 12 21
REMARK SMILES IDX 11 22 10 23 9 24 8 25 7 26 6 27 5 28 4 29 3 30 2 31 1 32
REMARK H PARENT
REMARK Flexibility Score: inf
ROOT
ATOM      1  C   UNL     1     122.918  56.253  50.673  1.00  0.00     0.000 C 
ENDROOT
BRANCH   1   2
ATOM      2  C   UNL     1     123.600  56.588  52.009  1.00  0.00     0.000 C 
BRANCH   2   3
ATOM      3  C   UNL     1     124.140  55.342  52.733  1.00  0.00     0.000 C 
BRANCH   3   4
ATOM      4  C   UNL     1     123.118  54.702  53.685  1.00  0.00     0.000 C 
BRANCH   4   5
ATOM      5  C   UNL     1     123.172  53.168  53.586  1.00  0.00     0.000 C 
BRANCH   5   6
ATOM      6  C   UNL     1     124.107  52.673  52.470  1.00  0.00     0.000 C 
BRANCH   6   7
ATOM      7  C   UNL     1     123.335  52.081  51.277  1.00  0.00     0.000 C 
BRANCH   7   8
ATOM      8  C   UNL     1     123.809  52.653  49.931  1.00  0.00     0.000 C 
BRANCH   8   9
ATOM      9  C   UNL     1     125.253  53.184  49.987  1.00  0.00     0.000 C 
BRANCH   9  10
ATOM     10  C   UNL     1     125.738  53.716  48.621  1.00  0.00     0.000 C 
BRANCH  10  11
ATOM     11  C   UNL     1     125.324  55.172  48.337  1.00  0.00     0.000 C 
BRANCH  11  12
ATOM     12  C   UNL     1     124.964  55.468  46.870  1.00  0.00     0.000 C 
BRANCH  12  13
ATOM     13  C   UNL     1     125.385  54.342  45.915  1.00  0.00     0.006 C 
BRANCH  13  14
ATOM     14  C   UNL     1     124.579  54.392  44.613  1.00  0.00     0.053 C 
BRANCH  14  15
ATOM     15  C   UNL     1     125.442  54.048  43.441  1.00  0.00     0.041 C 
ATOM     16  O   UNL     1     126.166  54.930  42.906  1.00  0.00    -0.550 OA
ATOM     17  O   UNL     1     125.480  52.743  42.963  1.00  0.00    -0.550 OA
ENDBRANCH  14  15
ENDBRANCH  13  14
ENDBRANCH  12  13
ENDBRANCH  11  12
ENDBRANCH  10  11
ENDBRANCH   9  10
ENDBRANCH   8   9
ENDBRANCH   7   8
ENDBRANCH   6   7
ENDBRANCH   5   6
ENDBRANCH   4   5
ENDBRANCH   3   4
ENDBRANCH   2   3
ENDBRANCH   1   2
BRANCH   1  18
ATOM     18  C   UNL     1     121.538  56.924  50.521  1.00  0.00     0.000 C 
BRANCH  18  19
ATOM     19  C   UNL     1     120.340  56.059  50.957  1.00  0.00     0.000 C 
BRANCH  19  20
ATOM     20  C   UNL     1     120.611  54.548  50.827  1.00  0.00     0.000 C 
BRANCH  20  21
ATOM     21  C   UNL     1     119.942  53.736  51.956  1.00  0.00     0.000 C 
BRANCH  21  22
ATOM     22  C   UNL     1     119.337  54.607  53.070  1.00  0.00     0.000 C 
BRANCH  22  23
ATOM     23  C   UNL     1     119.100  53.825  54.371  1.00  0.00     0.000 C 
BRANCH  23  24
ATOM     24  C   UNL     1     119.117  52.301  54.156  1.00  0.00    -0.000 C 
BRANCH  24  25
ATOM     25  C   UNL     1     117.733  51.662  53.915  1.00  0.00    -0.000 C 
BRANCH  25  26
ATOM     26  C   UNL     1     116.568  52.427  54.581  1.00  0.00    -0.000 C 
BRANCH  26  27
ATOM     27  C   UNL     1     115.610  53.048  53.547  1.00  0.00    -0.000 C 
BRANCH  27  28
ATOM     28  C   UNL     1     116.126  52.915  52.102  1.00  0.00    -0.000 C 
BRANCH  28  29
ATOM     29  C   UNL     1     115.575  53.980  51.137  1.00  0.00    -0.000 C 
BRANCH  29  30
ATOM     30  C   UNL     1     116.680  54.893  50.575  1.00  0.00    -0.000 C 
BRANCH  30  31
ATOM     31  C   UNL     1     116.862  54.728  49.059  1.00  0.00    -0.003 C 
ATOM     32  C   UNL     1     117.772  53.552  48.698  1.00  0.00     0.004 C 
ENDBRANCH  30  31
ENDBRANCH  29  30
ENDBRANCH  28  29
ENDBRANCH  27  28
ENDBRANCH  26  27
ENDBRANCH  25  26
ENDBRANCH  24  25
ENDBRANCH  23  24
ENDBRANCH  22  23
ENDBRANCH  21  22
ENDBRANCH  20  21
ENDBRANCH  19  20
ENDBRANCH  18  19
ENDBRANCH   1  18
TORSDOF 28
ENDMDL
MODEL 7
REMARK VINA RESULT:    -3.492      2.917      7.241
REMARK INTER + INTRA:         -14.691
REMARK INTER:                  -8.869
REMARK INTRA:                  -5.822
REMARK UNBOUND:                -5.484
REMARK SMILES CCCCCCCCCCCCCCCCCCCCCCCCCCCCCC(=O)[O-]
REMARK SMILES IDX 16 1 17 2 18 3 19 4 20 5 21 6 22 7 23 8 24 9 25 10 26 11
REMARK SMILES IDX 27 12 28 13 29 14 30 15 31 16 32 17 15 18 14 19 13 20 12 21
REMARK SMILES IDX 11 22 10 23 9 24 8 25 7 26 6 27 5 28 4 29 3 30 2 31 1 32
REMARK H PARENT
REMARK Flexibility Score: inf
ROOT
ATOM      1  C   UNL     1     115.255  52.761  53.284  1.00  0.00     0.000 C 
ENDROOT
BRANCH   1   2
ATOM      2  C   UNL     1     116.195  52.113  54.314  1.00  0.00     0.000 C 
BRANCH   2   3
ATOM      3  C   UNL     1     117.660  52.553  54.147  1.00  0.00     0.000 C 
BRANCH   3   4
ATOM      4  C   UNL     1     118.149  53.476  55.273  1.00  0.00     0.000 C 
BRANCH   4   5
ATOM      5  C   UNL     1     119.408  54.245  54.835  1.00  0.00     0.000 C 
BRANCH   5   6
ATOM      6  C   UNL     1     120.114  53.600  53.631  1.00  0.00     0.000 C 
BRANCH   6   7
ATOM      7  C   UNL     1     120.009  54.460  52.359  1.00  0.00     0.000 C 
BRANCH   7   8
ATOM      8  C   UNL     1     120.425  53.690  51.095  1.00  0.00     0.000 C 
BRANCH   8   9
ATOM      9  C   UNL     1     119.366  52.667  50.648  1.00  0.00     0.000 C 
BRANCH   9  10
ATOM     10  C   UNL     1     119.822  51.209  50.875  1.00  0.00     0.000 C 
BRANCH  10  11
ATOM     11  C   UNL     1     118.740  50.307  51.498  1.00  0.00     0.000 C 
BRANCH  11  12
ATOM     12  C   UNL     1     117.329  50.489  50.913  1.00  0.00     0.000 C 
BRANCH  12  13
ATOM     13  C   UNL     1     116.319  49.474  51.467  1.00  0.00     0.006 C 
BRANCH  13  14
ATOM     14  C   UNL     1     114.888  49.837  51.054  1.00  0.00     0.053 C 
BRANCH  14  15
ATOM     15  C   UNL     1     114.754  49.852  49.564  1.00  0.00     0.041 C 
ATOM     16  O   UNL     1     114.469  50.922  48.963  1.00  0.00    -0.550 OA
ATOM     17  O   UNL     1     114.985  48.691  48.833  1.00  0.00    -0.550 OA
ENDBRANCH  14  15
ENDBRANCH  13  14
ENDBRANCH  12  13
ENDBRANCH  11  12
ENDBRANCH  10  11
ENDBRANCH   9  10
ENDBRANCH   8   9
ENDBRANCH   7   8
ENDBRANCH   6   7
ENDBRANCH   5   6
ENDBRANCH   4   5
ENDBRANCH   3   4
ENDBRANCH   2   3
ENDBRANCH   1   2
BRANCH   1  18
ATOM     18  C   UNL     1     116.007  53.607  52.237  1.00  0.00     0.000 C 
BRANCH  18  19
ATOM     19  C   UNL     1     115.293  53.750  50.879  1.00  0.00     0.000 C 
BRANCH  19  20
ATOM     20  C   UNL     1     116.036  54.686  49.907  1.00  0.00     0.000 C 
BRANCH  20  21
ATOM     21  C   UNL     1     117.100  55.545  50.621  1.00  0.00     0.000 C 
BRANCH  21  22
ATOM     22  C   UNL     1     117.711  56.640  49.731  1.00  0.00     0.000 C 
BRANCH  22  23
ATOM     23  C   UNL     1     118.661  56.075  48.665  1.00  0.00     0.000 C 
BRANCH  23  24
ATOM     24  C   UNL     1     120.080  56.664  48.766  1.00  0.00    -0.000 C 
BRANCH  24  25
ATOM     25  C   UNL     1     120.415  57.327  50.118  1.00  0.00    -0.000 C 
BRANCH  25  26
ATOM     26  C   UNL     1     121.742  58.118  50.113  1.00  0.00    -0.000 C 
BRANCH  26  27
ATOM     27  C   UNL     1     122.793  57.504  51.056  1.00  0.00    -0.000 C 
BRANCH  27  28
ATOM     28  C   UNL     1     123.677  56.454  50.356  1.00  0.00    -0.000 C 
BRANCH  28  29
ATOM     29  C   UNL     1     124.004  55.227  51.226  1.00  0.00    -0.000 C 
BRANCH  29  30
ATOM     30  C   UNL     1     123.910  55.533  52.733  1.00  0.00    -0.000 C 
BRANCH  30  31
ATOM     31  C   UNL     1     123.561  54.287  53.562  1.00  0.00    -0.003 C 
ATOM     32  C   UNL     1     123.780  52.985  52.790  1.00  0.00     0.004 C 
ENDBRANCH  30  31
ENDBRANCH  29  30
ENDBRANCH  28  29
ENDBRANCH  27  28
ENDBRANCH  26  27
ENDBRANCH  25  26
ENDBRANCH  24  25
ENDBRANCH  23  24
ENDBRANCH  22  23
ENDBRANCH  21  22
ENDBRANCH  20  21
ENDBRANCH  19  20
ENDBRANCH  18  19
ENDBRANCH   1  18
TORSDOF 28
ENDMDL
MODEL 8
REMARK VINA RESULT:    -3.449      4.025      6.956
REMARK INTER + INTRA:         -14.577
REMARK INTER:                  -7.801
REMARK INTRA:                  -6.777
REMARK UNBOUND:                -5.484
REMARK SMILES CCCCCCCCCCCCCCCCCCCCCCCCCCCCCC(=O)[O-]
REMARK SMILES IDX 16 1 17 2 18 3 19 4 20 5 21 6 22 7 23 8 24 9 25 10 26 11
REMARK SMILES IDX 27 12 28 13 29 14 30 15 31 16 32 17 15 18 14 19 13 20 12 21
REMARK SMILES IDX 11 22 10 23 9 24 8 25 7 26 6 27 5 28 4 29 3 30 2 31 1 32
REMARK H PARENT
REMARK Flexibility Score: inf
ROOT
ATOM      1  C   UNL     1     119.408  54.137  53.382  1.00  0.00     0.000 C 
ENDROOT
BRANCH   1   2
ATOM      2  C   UNL     1     118.631  55.198  52.586  1.00  0.00     0.000 C 
BRANCH   2   3
ATOM      3  C   UNL     1     119.198  55.420  51.173  1.00  0.00     0.000 C 
BRANCH   3   4
ATOM      4  C   UNL     1     120.382  54.498  50.842  1.00  0.00     0.000 C 
BRANCH   4   5
ATOM      5  C   UNL     1     120.379  54.127  49.350  1.00  0.00     0.000 C 
BRANCH   5   6
ATOM      6  C   UNL     1     120.968  52.733  49.079  1.00  0.00     0.000 C 
BRANCH   6   7
ATOM      7  C   UNL     1     121.592  52.104  50.338  1.00  0.00     0.000 C 
BRANCH   7   8
ATOM      8  C   UNL     1     120.934  50.766  50.712  1.00  0.00     0.000 C 
BRANCH   8   9
ATOM      9  C   UNL     1     120.326  50.779  52.127  1.00  0.00     0.000 C 
BRANCH   9  10
ATOM     10  C   UNL     1     120.920  49.680  53.033  1.00  0.00     0.000 C 
BRANCH  10  11
ATOM     11  C   UNL     1     121.964  50.198  54.040  1.00  0.00     0.000 C 
BRANCH  11  12
ATOM     12  C   UNL     1     121.482  51.351  54.938  1.00  0.00     0.000 C 
BRANCH  12  13
ATOM     13  C   UNL     1     122.436  52.554  54.927  1.00  0.00     0.006 C 
BRANCH  13  14
ATOM     14  C   UNL     1     123.313  52.551  53.670  1.00  0.00     0.053 C 
BRANCH  14  15
ATOM     15  C   UNL     1     123.441  53.932  53.109  1.00  0.00     0.041 C 
ATOM     16  O   UNL     1     123.045  54.926  53.775  1.00  0.00    -0.550 OA
ATOM     17  O   UNL     1     124.035  54.127  51.867  1.00  0.00    -0.550 OA
ENDBRANCH  14  15
ENDBRANCH  13  14
ENDBRANCH  12  13
ENDBRANCH  11  12
ENDBRANCH  10  11
ENDBRANCH   9  10
ENDBRANCH   8   9
ENDBRANCH   7   8
ENDBRANCH   6   7
ENDBRANCH   5   6
ENDBRANCH   4   5
ENDBRANCH   3   4
ENDBRANCH   2   3
ENDBRANCH   1   2
BRANCH   1  18
ATOM     18  C   UNL     1     118.609  53.580  54.577  1.00  0.00     0.000 C 
BRANCH  18  19
ATOM     19  C   UNL     1     117.867  52.256  54.308  1.00  0.00     0.000 C 
BRANCH  19  20
ATOM     20  C   UNL     1     116.344  52.372  54.499  1.00  0.00     0.000 C 
BRANCH  20  21
ATOM     21  C   UNL     1     115.573  52.166  53.178  1.00  0.00     0.000 C 
BRANCH  21  22
ATOM     22  C   UNL     1     115.501  53.427  52.300  1.00  0.00     0.000 C 
BRANCH  22  23
ATOM     23  C   UNL     1     115.856  53.148  50.832  1.00  0.00     0.000 C 
BRANCH  23  24
ATOM     24  C   UNL     1     117.146  52.321  50.682  1.00  0.00    -0.000 C 
BRANCH  24  25
ATOM     25  C   UNL     1     117.408  51.775  49.263  1.00  0.00    -0.000 C 
BRANCH  25  26
ATOM     26  C   UNL     1     116.122  51.506  48.451  1.00  0.00    -0.000 C 
BRANCH  26  27
ATOM     27  C   UNL     1     115.667  50.038  48.547  1.00  0.00    -0.000 C 
BRANCH  27  28
ATOM     28  C   UNL     1     114.444  49.854  49.465  1.00  0.00    -0.000 C 
BRANCH  28  29
ATOM     29  C   UNL     1     114.795  49.426  50.902  1.00  0.00    -0.000 C 
BRANCH  29  30
ATOM     30  C   UNL     1     115.839  48.296  50.940  1.00  0.00    -0.000 C 
BRANCH  30  31
ATOM     31  C   UNL     1     117.164  48.745  51.575  1.00  0.00    -0.003 C 
ATOM     32  C   UNL     1     118.220  47.637  51.581  1.00  0.00     0.004 C 
ENDBRANCH  30  31
ENDBRANCH  29  30
ENDBRANCH  28  29
ENDBRANCH  27  28
ENDBRANCH  26  27
ENDBRANCH  25  26
ENDBRANCH  24  25
ENDBRANCH  23  24
ENDBRANCH  22  23
ENDBRANCH  21  22
ENDBRANCH  20  21
ENDBRANCH  19  20
ENDBRANCH  18  19
ENDBRANCH   1  18
TORSDOF 28
ENDMDL
MODEL 9
REMARK VINA RESULT:    -3.443      6.395      9.550
REMARK INTER + INTRA:         -14.563
REMARK INTER:                 -10.199
REMARK INTRA:                  -4.363
REMARK UNBOUND:                -5.484
REMARK SMILES CCCCCCCCCCCCCCCCCCCCCCCCCCCCCC(=O)[O-]
REMARK SMILES IDX 16 1 17 2 18 3 19 4 20 5 21 6 22 7 23 8 24 9 25 10 26 11
REMARK SMILES IDX 27 12 28 13 29 14 30 15 31 16 32 17 15 18 14 19 13 20 12 21
REMARK SMILES IDX 11 22 10 23 9 24 8 25 7 26 6 27 5 28 4 29 3 30 2 31 1 32
REMARK H PARENT
REMARK Flexibility Score: inf
ROOT
ATOM      1  C   UNL     1     124.943  55.754  48.766  1.00  0.00     0.000 C 
ENDROOT
BRANCH   1   2
ATOM      2  C   UNL     1     124.158  56.245  49.993  1.00  0.00     0.000 C 
BRANCH   2   3
ATOM      3  C   UNL     1     122.732  55.672  50.059  1.00  0.00     0.000 C 
BRANCH   3   4
ATOM      4  C   UNL     1     122.362  55.122  51.446  1.00  0.00     0.000 C 
BRANCH   4   5
ATOM      5  C   UNL     1     123.508  55.354  52.444  1.00  0.00     0.000 C 
BRANCH   5   6
ATOM      6  C   UNL     1     123.866  54.094  53.248  1.00  0.00     0.000 C 
BRANCH   6   7
ATOM      7  C   UNL     1     122.799  52.992  53.119  1.00  0.00     0.000 C 
BRANCH   7   8
ATOM      8  C   UNL     1     122.338  52.460  54.486  1.00  0.00     0.000 C 
BRANCH   8   9
ATOM      9  C   UNL     1     121.678  53.547  55.354  1.00  0.00     0.000 C 
BRANCH   9  10
ATOM     10  C   UNL     1     120.240  53.874  54.896  1.00  0.00     0.000 C 
BRANCH  10  11
ATOM     11  C   UNL     1     119.400  52.631  54.545  1.00  0.00     0.000 C 
BRANCH  11  12
ATOM     12  C   UNL     1     118.133  52.917  53.721  1.00  0.00     0.000 C 
BRANCH  12  13
ATOM     13  C   UNL     1     116.852  52.418  54.405  1.00  0.00     0.006 C 
BRANCH  13  14
ATOM     14  C   UNL     1     115.604  52.998  53.731  1.00  0.00     0.053 C 
BRANCH  14  15
ATOM     15  C   UNL     1     115.399  52.389  52.380  1.00  0.00     0.041 C 
ATOM     16  O   UNL     1     115.299  51.139  52.257  1.00  0.00    -0.550 OA
ATOM     17  O   UNL     1     115.275  53.204  51.260  1.00  0.00    -0.550 OA
ENDBRANCH  14  15
ENDBRANCH  13  14
ENDBRANCH  12  13
ENDBRANCH  11  12
ENDBRANCH  10  11
ENDBRANCH   9  10
ENDBRANCH   8   9
ENDBRANCH   7   8
ENDBRANCH   6   7
ENDBRANCH   5   6
ENDBRANCH   4   5
ENDBRANCH   3   4
ENDBRANCH   2   3
ENDBRANCH   1   2
BRANCH   1  18
ATOM     18  C   UNL     1     124.028  55.367  47.586  1.00  0.00     0.000 C 
BRANCH  18  19
ATOM     19  C   UNL     1     124.290  56.136  46.277  1.00  0.00     0.000 C 
BRANCH  19  20
ATOM     20  C   UNL     1     123.251  55.829  45.182  1.00  0.00     0.000 C 
BRANCH  20  21
ATOM     21  C   UNL     1     123.828  56.009  43.763  1.00  0.00     0.000 C 
BRANCH  21  22
ATOM     22  C   UNL     1     125.361  56.127  43.728  1.00  0.00     0.000 C 
BRANCH  22  23
ATOM     23  C   UNL     1     126.028  54.967  42.974  1.00  0.00     0.000 C 
BRANCH  23  24
ATOM     24  C   UNL     1     126.495  53.841  43.915  1.00  0.00    -0.000 C 
BRANCH  24  25
ATOM     25  C   UNL     1     125.462  52.719  44.150  1.00  0.00    -0.000 C 
BRANCH  25  26
ATOM     26  C   UNL     1     125.200  52.415  45.641  1.00  0.00    -0.000 C 
BRANCH  26  27
ATOM     27  C   UNL     1     126.418  52.737  46.527  1.00  0.00    -0.000 C 
BRANCH  27  28
ATOM     28  C   UNL     1     127.084  51.473  47.104  1.00  0.00    -0.000 C 
BRANCH  28  29
ATOM     29  C   UNL     1     127.405  51.562  48.607  1.00  0.00    -0.000 C 
BRANCH  29  30
ATOM     30  C   UNL     1     126.596  52.663  49.317  1.00  0.00    -0.000 C 
BRANCH  30  31
ATOM     31  C   UNL     1     125.518  52.089  50.250  1.00  0.00    -0.003 C 
ATOM     32  C   UNL     1     124.106  52.230  49.677  1.00  0.00     0.004 C 
ENDBRANCH  30  31
ENDBRANCH  29  30
ENDBRANCH  28  29
ENDBRANCH  27  28
ENDBRANCH  26  27
ENDBRANCH  25  26
ENDBRANCH  24  25
ENDBRANCH  23  24
ENDBRANCH  22  23
ENDBRANCH  21  22
ENDBRANCH  20  21
ENDBRANCH  19  20
ENDBRANCH  18  19
ENDBRANCH   1  18
TORSDOF 28
ENDMDL
