MODEL 1
REMARK VINA RESULT:    -3.723      0.000      0.000
REMARK INTER + INTRA:          -6.487
REMARK INTER:                  -5.900
REMARK INTRA:                  -0.587
REMARK UNBOUND:                -0.587
REMARK SMILES CCCCCCCCCCCC(=O)[O-]
REMARK SMILES IDX 7 1 8 2 9 3 10 4 11 5 12 6 13 7 14 8 6 9 5 10 4 11 3 12 2 13
REMARK SMILES IDX 1 14
REMARK H PARENT
REMARK Flexibility Score: inf
ROOT
ATOM      1  C   UNL     1     -20.081  21.016  46.172  1.00  0.00     0.000 C 
ENDROOT
BRANCH   1   2
ATOM      2  C   UNL     1     -19.150  21.740  45.185  1.00  0.00     0.000 C 
BRANCH   2   3
ATOM      3  C   UNL     1     -18.027  20.833  44.652  1.00  0.00     0.000 C 
BRANCH   3   4
ATOM      4  C   UNL     1     -17.192  21.511  43.555  1.00  0.00     0.006 C 
BRANCH   4   5
ATOM      5  C   UNL     1     -18.052  22.280  42.544  1.00  0.00     0.053 C 
BRANCH   5   6
ATOM      6  C   UNL     1     -17.598  23.702  42.447  1.00  0.00     0.041 C 
ATOM      7  O   UNL     1     -16.392  23.998  42.652  1.00  0.00    -0.550 OA
ATOM      8  O   UNL     1     -18.497  24.695  42.079  1.00  0.00    -0.550 OA
ENDBRANCH   5   6
ENDBRANCH   4   5
ENDBRANCH   3   4
ENDBRANCH   2   3
ENDBRANCH   1   2
BRANCH   1   9
ATOM      9  C   UNL     1     -21.326  21.822  46.594  1.00  0.00     0.000 C 
BRANCH   9  10
ATOM     10  C   UNL     1     -21.543  23.109  45.765  1.00  0.00    -0.000 C 
BRANCH  10  11
ATOM     11  C   UNL     1     -22.938  23.734  45.965  1.00  0.00    -0.000 C 
BRANCH  11  12
ATOM     12  C   UNL     1     -23.950  23.348  44.872  1.00  0.00    -0.000 C 
BRANCH  12  13
ATOM     13  C   UNL     1     -25.271  22.821  45.452  1.00  0.00    -0.003 C 
ATOM     14  C   UNL     1     -25.182  21.328  45.756  1.00  0.00     0.004 C 
ENDBRANCH  12  13
ENDBRANCH  11  12
ENDBRANCH  10  11
ENDBRANCH   9  10
ENDBRANCH   1   9
TORSDOF 10
ENDMDL
MODEL 2
REMARK VINA RESULT:    -3.710      1.349      2.086
REMARK INTER + INTRA:          -6.467
REMARK INTER:                  -5.590
REMARK INTRA:                  -0.877
REMARK UNBOUND:                -0.587
REMARK SMILES CCCCCCCCCCCC(=O)[O-]
REMARK SMILES IDX 7 1 8 2 9 3 10 4 11 5 12 6 13 7 14 8 6 9 5 10 4 11 3 12 2 13
REMARK SMILES IDX 1 14
REMARK H PARENT
REMARK Flexibility Score: inf
ROOT
ATOM      1  C   UNL     1     -19.234  20.384  45.552  1.00  0.00     0.000 C 
ENDROOT
BRANCH   1   2
ATOM      2  C   UNL     1     -17.950  20.137  44.741  1.00  0.00     0.000 C 
BRANCH   2   3
ATOM      3  C   UNL     1     -17.052  21.384  44.655  1.00  0.00     0.000 C 
BRANCH   3   4
ATOM      4  C   UNL     1     -16.830  21.852  43.208  1.00  0.00     0.006 C 
BRANCH   4   5
ATOM      5  C   UNL     1     -18.073  22.515  42.602  1.00  0.00     0.053 C 
BRANCH   5   6
ATOM      6  C   UNL     1     -17.839  23.979  42.403  1.00  0.00     0.041 C 
ATOM      7  O   UNL     1     -18.781  24.727  42.032  1.00  0.00    -0.550 OA
ATOM      8  O   UNL     1     -16.593  24.527  42.676  1.00  0.00    -0.550 OA
ENDBRANCH   5   6
ENDBRANCH   4   5
ENDBRANCH   3   4
ENDBRANCH   2   3
ENDBRANCH   1   2
BRANCH   1   9
ATOM      9  C   UNL     1     -19.353  21.796  46.158  1.00  0.00     0.000 C 
BRANCH   9  10
ATOM     10  C   UNL     1     -20.733  22.454  45.932  1.00  0.00    -0.000 C 
BRANCH  10  11
ATOM     11  C   UNL     1     -20.670  23.711  45.041  1.00  0.00    -0.000 C 
BRANCH  11  12
ATOM     12  C   UNL     1     -21.691  24.796  45.429  1.00  0.00    -0.000 C 
BRANCH  12  13
ATOM     13  C   UNL     1     -22.714  25.068  44.316  1.00  0.00    -0.003 C 
ATOM     14  C   UNL     1     -23.891  24.100  44.402  1.00  0.00     0.004 C 
ENDBRANCH  12  13
ENDBRANCH  11  12
ENDBRANCH  10  11
ENDBRANCH   9  10
ENDBRANCH   1   9
TORSDOF 10
ENDMDL
MODEL 3
REMARK VINA RESULT:    -3.649      1.476      2.533
REMARK INTER + INTRA:          -6.370
REMARK INTER:                  -5.637
REMARK INTRA:                  -0.733
REMARK UNBOUND:                -0.587
REMARK SMILES CCCCCCCCCCCC(=O)[O-]
REMARK SMILES IDX 7 1 8 2 9 3 10 4 11 5 12 6 13 7 14 8 6 9 5 10 4 11 3 12 2 13
REMARK SMILES IDX 1 14
REMARK H PARENT
REMARK Flexibility Score: inf
ROOT
ATOM      1  C   UNL     1     -17.642  20.445  44.442  1.00  0.00     0.000 C 
ENDROOT
BRANCH   1   2
ATOM      2  C   UNL     1     -17.637  21.420  43.252  1.00  0.00     0.000 C 
BRANCH   2   3
ATOM      3  C   UNL     1     -16.462  22.412  43.300  1.00  0.00     0.000 C 
BRANCH   3   4
ATOM      4  C   UNL     1     -16.892  23.853  42.986  1.00  0.00     0.006 C 
BRANCH   4   5
ATOM      5  C   UNL     1     -18.226  23.922  42.231  1.00  0.00     0.053 C 
BRANCH   5   6
ATOM      6  C   UNL     1     -18.976  25.160  42.607  1.00  0.00     0.041 C 
ATOM      7  O   UNL     1     -19.396  25.313  43.784  1.00  0.00    -0.550 OA
ATOM      8  O   UNL     1     -19.167  26.168  41.672  1.00  0.00    -0.550 OA
ENDBRANCH   5   6
ENDBRANCH   4   5
ENDBRANCH   3   4
ENDBRANCH   2   3
ENDBRANCH   1   2
BRANCH   1   9
ATOM      9  C   UNL     1     -18.782  20.668  45.455  1.00  0.00     0.000 C 
BRANCH   9  10
ATOM     10  C   UNL     1     -19.471  22.046  45.321  1.00  0.00    -0.000 C 
BRANCH  10  11
ATOM     11  C   UNL     1     -20.794  22.144  46.106  1.00  0.00    -0.000 C 
BRANCH  11  12
ATOM     12  C   UNL     1     -21.677  23.332  45.683  1.00  0.00    -0.000 C 
BRANCH  12  13
ATOM     13  C   UNL     1     -23.173  23.059  45.894  1.00  0.00    -0.003 C 
ATOM     14  C   UNL     1     -24.004  23.630  44.748  1.00  0.00     0.004 C 
ENDBRANCH  12  13
ENDBRANCH  11  12
ENDBRANCH  10  11
ENDBRANCH   9  10
ENDBRANCH   1   9
TORSDOF 10
ENDMDL
MODEL 4
REMARK VINA RESULT:    -3.638      2.572      5.336
REMARK INTER + INTRA:          -6.352
REMARK INTER:                  -5.214
REMARK INTRA:                  -1.138
REMARK UNBOUND:                -0.587
REMARK SMILES CCCCCCCCCCCC(=O)[O-]
REMARK SMILES IDX 7 1 8 2 9 3 10 4 11 5 12 6 13 7 14 8 6 9 5 10 4 11 3 12 2 13
REMARK SMILES IDX 1 14
REMARK H PARENT
REMARK Flexibility Score: inf
ROOT
ATOM      1  C   UNL     1     -19.027  21.466  45.904  1.00  0.00     0.000 C 
ENDROOT
BRANCH   1   2
ATOM      2  C   UNL     1     -20.384  21.120  46.542  1.00  0.00     0.000 C 
BRANCH   2   3
ATOM      3  C   UNL     1     -21.426  22.238  46.367  1.00  0.00     0.000 C 
BRANCH   3   4
ATOM      4  C   UNL     1     -20.964  23.327  45.387  1.00  0.00     0.006 C 
BRANCH   4   5
ATOM      5  C   UNL     1     -21.660  24.673  45.625  1.00  0.00     0.053 C 
BRANCH   5   6
ATOM      6  C   UNL     1     -22.318  25.151  44.369  1.00  0.00     0.041 C 
ATOM      7  O   UNL     1     -21.762  26.028  43.657  1.00  0.00    -0.550 OA
ATOM      8  O   UNL     1     -23.520  24.591  43.958  1.00  0.00    -0.550 OA
ENDBRANCH   5   6
ENDBRANCH   4   5
ENDBRANCH   3   4
ENDBRANCH   2   3
ENDBRANCH   1   2
BRANCH   1   9
ATOM      9  C   UNL     1     -18.335  20.293  45.181  1.00  0.00     0.000 C 
BRANCH   9  10
ATOM     10  C   UNL     1     -17.579  20.713  43.900  1.00  0.00    -0.000 C 
BRANCH  10  11
ATOM     11  C   UNL     1     -17.452  22.242  43.742  1.00  0.00    -0.000 C 
BRANCH  11  12
ATOM     12  C   UNL     1     -18.134  22.790  42.475  1.00  0.00    -0.000 C 
BRANCH  12  13
ATOM     13  C   UNL     1     -18.525  24.269  42.610  1.00  0.00    -0.003 C 
ATOM     14  C   UNL     1     -18.074  24.837  43.953  1.00  0.00     0.004 C 
ENDBRANCH  12  13
ENDBRANCH  11  12
ENDBRANCH  10  11
ENDBRANCH   9  10
ENDBRANCH   1   9
TORSDOF 10
ENDMDL
MODEL 5
REMARK VINA RESULT:    -3.632      2.924      4.640
REMARK INTER + INTRA:          -6.342
REMARK INTER:                  -4.993
REMARK INTRA:                  -1.349
REMARK UNBOUND:                -0.587
REMARK SMILES CCCCCCCCCCCC(=O)[O-]
REMARK SMILES IDX 7 1 8 2 9 3 10 4 11 5 12 6 13 7 14 8 6 9 5 10 4 11 3 12 2 13
REMARK SMILES IDX 1 14
REMARK H PARENT
REMARK Flexibility Score: inf
ROOT
ATOM      1  C   UNL     1     -17.629  21.508  42.889  1.00  0.00     0.000 C 
ENDROOT
BRANCH   1   2
ATOM      2  C   UNL     1     -18.026  22.945  42.510  1.00  0.00     0.000 C 
BRANCH   2   3
ATOM      3  C   UNL     1     -17.304  24.005  43.359  1.00  0.00     0.000 C 
BRANCH   3   4
ATOM      4  C   UNL     1     -18.038  25.355  43.367  1.00  0.00     0.006 C 
BRANCH   4   5
ATOM      5  C   UNL     1     -19.176  25.417  42.340  1.00  0.00     0.053 C 
BRANCH   5   6
ATOM      6  C   UNL     1     -20.246  26.355  42.802  1.00  0.00     0.041 C 
ATOM      7  O   UNL     1     -21.193  25.934  43.517  1.00  0.00    -0.550 OA
ATOM      8  O   UNL     1     -20.170  27.705  42.486  1.00  0.00    -0.550 OA
ENDBRANCH   5   6
ENDBRANCH   4   5
ENDBRANCH   3   4
ENDBRANCH   2   3
ENDBRANCH   1   2
BRANCH   1   9
ATOM      9  C   UNL     1     -16.545  21.404  43.979  1.00  0.00     0.000 C 
BRANCH   9  10
ATOM     10  C   UNL     1     -17.039  20.739  45.284  1.00  0.00    -0.000 C 
BRANCH  10  11
ATOM     11  C   UNL     1     -18.393  20.020  45.126  1.00  0.00    -0.000 C 
BRANCH  11  12
ATOM     12  C   UNL     1     -19.531  20.658  45.943  1.00  0.00    -0.000 C 
BRANCH  12  13
ATOM     13  C   UNL     1     -19.311  22.159  46.188  1.00  0.00    -0.003 C 
ATOM     14  C   UNL     1     -20.346  22.996  45.441  1.00  0.00     0.004 C 
ENDBRANCH  12  13
ENDBRANCH  11  12
ENDBRANCH  10  11
ENDBRANCH   9  10
ENDBRANCH   1   9
TORSDOF 10
ENDMDL
MODEL 6
REMARK VINA RESULT:    -3.594      2.537      5.946
REMARK INTER + INTRA:          -6.282
REMARK INTER:                  -5.462
REMARK INTRA:                  -0.819
REMARK UNBOUND:                -0.587
REMARK SMILES CCCCCCCCCCCC(=O)[O-]
REMARK SMILES IDX 7 1 8 2 9 3 10 4 11 5 12 6 13 7 14 8 6 9 5 10 4 11 3 12 2 13
REMARK SMILES IDX 1 14
REMARK H PARENT
REMARK Flexibility Score: inf
ROOT
ATOM      1  C   UNL     1     -19.401  22.070  46.143  1.00  0.00     0.000 C 
ENDROOT
BRANCH   1   2
ATOM      2  C   UNL     1     -20.786  22.662  45.830  1.00  0.00     0.000 C 
BRANCH   2   3
ATOM      3  C   UNL     1     -21.916  21.986  46.626  1.00  0.00     0.000 C 
BRANCH   3   4
ATOM      4  C   UNL     1     -23.195  22.837  46.673  1.00  0.00     0.006 C 
BRANCH   4   5
ATOM      5  C   UNL     1     -23.892  22.934  45.310  1.00  0.00     0.053 C 
BRANCH   5   6
ATOM      6  C   UNL     1     -24.003  24.363  44.881  1.00  0.00     0.041 C 
ATOM      7  O   UNL     1     -23.355  24.778  43.884  1.00  0.00    -0.550 OA
ATOM      8  O   UNL     1     -24.860  25.225  45.551  1.00  0.00    -0.550 OA
ENDBRANCH   5   6
ENDBRANCH   4   5
ENDBRANCH   3   4
ENDBRANCH   2   3
ENDBRANCH   1   2
BRANCH   1   9
ATOM      9  C   UNL     1     -19.154  20.663  45.564  1.00  0.00     0.000 C 
BRANCH   9  10
ATOM     10  C   UNL     1     -18.011  20.612  44.524  1.00  0.00    -0.000 C 
BRANCH  10  11
ATOM     11  C   UNL     1     -17.557  22.007  44.050  1.00  0.00    -0.000 C 
BRANCH  11  12
ATOM     12  C   UNL     1     -17.925  22.312  42.587  1.00  0.00    -0.000 C 
BRANCH  12  13
ATOM     13  C   UNL     1     -18.055  23.817  42.313  1.00  0.00    -0.003 C 
ATOM     14  C   UNL     1     -18.489  24.569  43.569  1.00  0.00     0.004 C 
ENDBRANCH  12  13
ENDBRANCH  11  12
ENDBRANCH  10  11
ENDBRANCH   9  10
ENDBRANCH   1   9
TORSDOF 10
ENDMDL
MODEL 7
REMARK VINA RESULT:    -3.564      2.340      4.216
REMARK INTER + INTRA:          -6.235
REMARK INTER:                  -5.346
REMARK INTRA:                  -0.889
REMARK UNBOUND:                -0.587
REMARK SMILES CCCCCCCCCCCC(=O)[O-]
REMARK SMILES IDX 7 1 8 2 9 3 10 4 11 5 12 6 13 7 14 8 6 9 5 10 4 11 3 12 2 13
REMARK SMILES IDX 1 14
REMARK H PARENT
REMARK Flexibility Score: inf
ROOT
ATOM      1  C   UNL     1     -20.445  22.992  46.216  1.00  0.00     0.000 C 
ENDROOT
BRANCH   1   2
ATOM      2  C   UNL     1     -19.540  22.123  45.326  1.00  0.00     0.000 C 
BRANCH   2   3
ATOM      3  C   UNL     1     -19.455  20.664  45.808  1.00  0.00     0.000 C 
BRANCH   3   4
ATOM      4  C   UNL     1     -18.246  19.919  45.222  1.00  0.00     0.006 C 
BRANCH   4   5
ATOM      5  C   UNL     1     -17.573  20.688  44.078  1.00  0.00     0.053 C 
BRANCH   5   6
ATOM      6  C   UNL     1     -16.124  20.909  44.378  1.00  0.00     0.041 C 
ATOM      7  O   UNL     1     -15.458  21.741  43.709  1.00  0.00    -0.550 OA
ATOM      8  O   UNL     1     -15.522  20.232  45.430  1.00  0.00    -0.550 OA
ENDBRANCH   5   6
ENDBRANCH   4   5
ENDBRANCH   3   4
ENDBRANCH   2   3
ENDBRANCH   1   2
BRANCH   1   9
ATOM      9  C   UNL     1     -21.612  23.677  45.477  1.00  0.00     0.000 C 
BRANCH   9  10
ATOM     10  C   UNL     1     -21.391  25.187  45.232  1.00  0.00    -0.000 C 
BRANCH  10  11
ATOM     11  C   UNL     1     -21.073  25.525  43.762  1.00  0.00    -0.000 C 
BRANCH  11  12
ATOM     12  C   UNL     1     -19.577  25.772  43.495  1.00  0.00    -0.000 C 
BRANCH  12  13
ATOM     13  C   UNL     1     -19.108  25.161  42.166  1.00  0.00    -0.003 C 
ATOM     14  C   UNL     1     -18.212  23.949  42.403  1.00  0.00     0.004 C 
ENDBRANCH  12  13
ENDBRANCH  11  12
ENDBRANCH  10  11
ENDBRANCH   9  10
ENDBRANCH   1   9
TORSDOF 10
ENDMDL
MODEL 8
REMARK VINA RESULT:    -3.544      2.218      5.259
REMARK INTER + INTRA:          -6.202
REMARK INTER:                  -5.237
REMARK INTRA:                  -0.965
REMARK UNBOUND:                -0.587
REMARK SMILES CCCCCCCCCCCC(=O)[O-]
REMARK SMILES IDX 7 1 8 2 9 3 10 4 11 5 12 6 13 7 14 8 6 9 5 10 4 11 3 12 2 13
REMARK SMILES IDX 1 14
REMARK H PARENT
REMARK Flexibility Score: inf
ROOT
ATOM      1  C   UNL     1     -19.636  21.968  45.771  1.00  0.00     0.000 C 
ENDROOT
BRANCH   1   2
ATOM      2  C   UNL     1     -21.061  22.087  46.339  1.00  0.00     0.000 C 
BRANCH   2   3
ATOM      3  C   UNL     1     -21.795  23.346  45.845  1.00  0.00     0.000 C 
BRANCH   3   4
ATOM      4  C   UNL     1     -20.866  24.317  45.100  1.00  0.00     0.006 C 
BRANCH   4   5
ATOM      5  C   UNL     1     -21.614  25.196  44.090  1.00  0.00     0.053 C 
BRANCH   5   6
ATOM      6  C   UNL     1     -20.752  26.337  43.651  1.00  0.00     0.041 C 
ATOM      7  O   UNL     1     -19.691  26.606  44.275  1.00  0.00    -0.550 OA
ATOM      8  O   UNL     1     -21.091  27.071  42.523  1.00  0.00    -0.550 OA
ENDBRANCH   5   6
ENDBRANCH   4   5
ENDBRANCH   3   4
ENDBRANCH   2   3
ENDBRANCH   1   2
BRANCH   1   9
ATOM      9  C   UNL     1     -19.085  20.530  45.707  1.00  0.00     0.000 C 
BRANCH   9  10
ATOM     10  C   UNL     1     -17.997  20.330  44.627  1.00  0.00    -0.000 C 
BRANCH  10  11
ATOM     11  C   UNL     1     -16.923  21.437  44.632  1.00  0.00    -0.000 C 
BRANCH  11  12
ATOM     12  C   UNL     1     -16.654  22.043  43.243  1.00  0.00    -0.000 C 
BRANCH  12  13
ATOM     13  C   UNL     1     -17.945  22.455  42.520  1.00  0.00    -0.003 C 
ATOM     14  C   UNL     1     -18.091  23.974  42.478  1.00  0.00     0.004 C 
ENDBRANCH  12  13
ENDBRANCH  11  12
ENDBRANCH  10  11
ENDBRANCH   9  10
ENDBRANCH   1   9
TORSDOF 10
ENDMDL
MODEL 9
REMARK VINA RESULT:    -3.542      3.932      6.790
REMARK INTER + INTRA:          -6.201
REMARK INTER:                  -5.043
REMARK INTRA:                  -1.158
REMARK UNBOUND:                -0.587
REMARK SMILES CCCCCCCCCCCC(=O)[O-]
REMARK SMILES IDX 7 1 8 2 9 3 10 4 11 5 12 6 13 7 14 8 6 9 5 10 4 11 3 12 2 13
REMARK SMILES IDX 1 14
REMARK H PARENT
REMARK Flexibility Score: inf
ROOT
ATOM      1  C   UNL     1     -17.168  21.188  44.562  1.00  0.00     0.000 C 
ENDROOT
BRANCH   1   2
ATOM      2  C   UNL     1     -18.270  22.074  43.956  1.00  0.00     0.000 C 
BRANCH   2   3
ATOM      3  C   UNL     1     -18.002  22.434  42.484  1.00  0.00     0.000 C 
BRANCH   3   4
ATOM      4  C   UNL     1     -18.063  23.947  42.226  1.00  0.00     0.006 C 
BRANCH   4   5
ATOM      5  C   UNL     1     -18.741  24.716  43.368  1.00  0.00     0.053 C 
BRANCH   5   6
ATOM      6  C   UNL     1     -19.651  25.769  42.820  1.00  0.00     0.041 C 
ATOM      7  O   UNL     1     -19.395  26.316  41.715  1.00  0.00    -0.550 OA
ATOM      8  O   UNL     1     -20.809  26.112  43.505  1.00  0.00    -0.550 OA
ENDBRANCH   5   6
ENDBRANCH   4   5
ENDBRANCH   3   4
ENDBRANCH   2   3
ENDBRANCH   1   2
BRANCH   1   9
ATOM      9  C   UNL     1     -15.801  21.882  44.727  1.00  0.00     0.000 C 
BRANCH   9  10
ATOM     10  C   UNL     1     -14.720  21.362  43.753  1.00  0.00    -0.000 C 
BRANCH  10  11
ATOM     11  C   UNL     1     -13.940  22.492  43.050  1.00  0.00    -0.000 C 
BRANCH  11  12
ATOM     12  C   UNL     1     -14.537  23.892  43.284  1.00  0.00    -0.000 C 
BRANCH  12  13
ATOM     13  C   UNL     1     -14.270  24.849  42.113  1.00  0.00    -0.003 C 
ATOM     14  C   UNL     1     -13.384  24.193  41.057  1.00  0.00     0.004 C 
ENDBRANCH  12  13
ENDBRANCH  11  12
ENDBRANCH  10  11
ENDBRANCH   9  10
ENDBRANCH   1   9
TORSDOF 10
ENDMDL
