MODEL 1
REMARK VINA RESULT:    -1.105      0.000      0.000
REMARK INTER + INTRA:          -1.544
REMARK INTER:                  -1.331
REMARK INTRA:                  -0.214
REMARK UNBOUND:                -0.214
REMARK SMILES O=c1c(O)c(-c2ccc(O)c(O)c2)oc2cc(O)cc(O)c12
REMARK SMILES IDX 5 1 3 2 2 3 1 4 22 5 20 6 19 7 17 8 16 9 15 10 14 11 6 12
REMARK SMILES IDX 7 13 8 14 9 15 13 16 11 17 10 18 12 20 4 22 21 24 18 26
REMARK H PARENT 10 19 12 21 4 23 21 25 18 27
REMARK Flexibility Score: inf
ROOT
ATOM      1  C   UNL     1      15.776  -1.689  26.848  1.00  0.00     0.180 A 
ATOM      2  C   UNL     1      15.857  -1.097  28.123  1.00  0.00     0.208 A 
ATOM      3  C   UNL     1      15.594   0.275  28.251  1.00  0.00     0.238 A 
ATOM      4  O   UNL     1      15.652   0.815  29.389  1.00  0.00    -0.285 OA
ATOM      5  C   UNL     1      15.276   1.035  27.105  1.00  0.00     0.111 A 
ATOM      6  C   UNL     1      15.003   2.423  27.148  1.00  0.00     0.134 A 
ATOM      7  C   UNL     1      14.704   3.110  25.961  1.00  0.00     0.093 A 
ATOM      8  C   UNL     1      14.675   2.435  24.736  1.00  0.00     0.123 A 
ATOM      9  C   UNL     1      14.944   1.066  24.689  1.00  0.00     0.094 A 
ATOM     10  C   UNL     1      15.242   0.363  25.860  1.00  0.00     0.146 A 
ATOM     11  O   UNL     1      15.488  -0.940  25.787  1.00  0.00    -0.452 OA
ENDROOT
BRANCH   1  12
ATOM     12  C   UNL     1      16.020  -3.135  26.634  1.00  0.00     0.025 A 
ATOM     13  C   UNL     1      17.326  -3.638  26.743  1.00  0.00     0.016 A 
ATOM     14  C   UNL     1      17.582  -4.994  26.525  1.00  0.00     0.051 A 
ATOM     15  C   UNL     1      16.544  -5.863  26.180  1.00  0.00     0.157 A 
ATOM     16  C   UNL     1      14.980  -4.007  26.267  1.00  0.00     0.062 A 
ATOM     17  C   UNL     1      15.235  -5.368  26.046  1.00  0.00     0.158 A 
BRANCH  15  18
ATOM     18  O   UNL     1      16.830  -7.212  25.971  1.00  0.00    -0.504 OA
ATOM     19  H   UNL     1      17.749  -7.601  26.145  1.00  0.00     0.293 HD
ENDBRANCH  15  18
BRANCH  17  20
ATOM     20  O   UNL     1      14.197  -6.227  25.689  1.00  0.00    -0.504 OA
ATOM     21  H   UNL     1      14.339  -7.227  25.609  1.00  0.00     0.293 HD
ENDBRANCH  17  20
ENDBRANCH   1  12
BRANCH   2  22
ATOM     22  O   UNL     1      16.222  -1.861  29.235  1.00  0.00    -0.502 OA
ATOM     23  H   UNL     1      16.295  -1.466  30.164  1.00  0.00     0.293 HD
ENDBRANCH   2  22
BRANCH   6  24
ATOM     24  O   UNL     1      15.025   3.123  28.354  1.00  0.00    -0.507 OA
ATOM     25  H   UNL     1      15.895   3.373  28.810  1.00  0.00     0.293 HD
ENDBRANCH   6  24
BRANCH   8  26
ATOM     26  O   UNL     1      14.379   3.117  23.558  1.00  0.00    -0.508 OA
ATOM     27  H   UNL     1      14.995   3.832  23.190  1.00  0.00     0.293 HD
ENDBRANCH   8  26
TORSDOF 6
ENDMDL
MODEL 2
REMARK VINA RESULT:    -0.912     10.148     12.049
REMARK INTER + INTRA:          -1.312
REMARK INTER:                  -1.254
REMARK INTRA:                  -0.058
REMARK UNBOUND:                -0.214
REMARK SMILES O=c1c(O)c(-c2ccc(O)c(O)c2)oc2cc(O)cc(O)c12
REMARK SMILES IDX 5 1 3 2 2 3 1 4 22 5 20 6 19 7 17 8 16 9 15 10 14 11 6 12
REMARK SMILES IDX 7 13 8 14 9 15 13 16 11 17 10 18 12 20 4 22 21 24 18 26
REMARK H PARENT 10 19 12 21 4 23 21 25 18 27
REMARK Flexibility Score: inf
ROOT
ATOM      1  C   UNL     1      13.634 -12.707  28.750  1.00  0.00     0.180 A 
ATOM      2  C   UNL     1      12.401 -12.307  28.201  1.00  0.00     0.208 A 
ATOM      3  C   UNL     1      11.744 -11.194  28.747  1.00  0.00     0.238 A 
ATOM      4  O   UNL     1      10.645 -10.819  28.256  1.00  0.00    -0.285 OA
ATOM      5  C   UNL     1      12.317 -10.514  29.842  1.00  0.00     0.111 A 
ATOM      6  C   UNL     1      11.717  -9.387  30.454  1.00  0.00     0.134 A 
ATOM      7  C   UNL     1      12.346  -8.772  31.547  1.00  0.00     0.093 A 
ATOM      8  C   UNL     1      13.561  -9.263  32.039  1.00  0.00     0.123 A 
ATOM      9  C   UNL     1      14.156 -10.374  31.439  1.00  0.00     0.094 A 
ATOM     10  C   UNL     1      13.546 -11.000  30.348  1.00  0.00     0.146 A 
ATOM     11  O   UNL     1      14.138 -12.052  29.792  1.00  0.00    -0.452 OA
ENDROOT
BRANCH   1  12
ATOM     12  C   UNL     1      14.397 -13.860  28.217  1.00  0.00     0.025 A 
ATOM     13  C   UNL     1      14.739 -13.891  26.856  1.00  0.00     0.016 A 
ATOM     14  C   UNL     1      15.440 -14.978  26.328  1.00  0.00     0.051 A 
ATOM     15  C   UNL     1      15.795 -16.056  27.145  1.00  0.00     0.157 A 
ATOM     16  C   UNL     1      14.737 -14.953  29.033  1.00  0.00     0.062 A 
ATOM     17  C   UNL     1      15.439 -16.046  28.505  1.00  0.00     0.158 A 
BRANCH  15  18
ATOM     18  O   UNL     1      16.497 -17.125  26.591  1.00  0.00    -0.504 OA
ATOM     19  H   UNL     1      16.444 -17.351  25.605  1.00  0.00     0.293 HD
ENDBRANCH  15  18
BRANCH  17  20
ATOM     20  O   UNL     1      15.778 -17.123  29.323  1.00  0.00    -0.504 OA
ATOM     21  H   UNL     1      15.666 -17.082  30.329  1.00  0.00     0.293 HD
ENDBRANCH  17  20
ENDBRANCH   1  12
BRANCH   2  22
ATOM     22  O   UNL     1      11.830 -13.027  27.147  1.00  0.00    -0.502 OA
ATOM     23  H   UNL     1      12.388 -13.453  26.417  1.00  0.00     0.293 HD
ENDBRANCH   2  22
BRANCH   6  24
ATOM     24  O   UNL     1      10.507  -8.876  29.987  1.00  0.00    -0.507 OA
ATOM     25  H   UNL     1      10.451  -7.977  29.520  1.00  0.00     0.293 HD
ENDBRANCH   6  24
BRANCH   8  26
ATOM     26  O   UNL     1      14.185  -8.653  33.124  1.00  0.00    -0.508 OA
ATOM     27  H   UNL     1      14.030  -8.971  34.073  1.00  0.00     0.293 HD
ENDBRANCH   8  26
TORSDOF 6
ENDMDL
MODEL 3
REMARK VINA RESULT:    -0.681      2.627      6.668
REMARK INTER + INTRA:          -1.034
REMARK INTER:                  -1.085
REMARK INTRA:                   0.052
REMARK UNBOUND:                -0.214
REMARK SMILES O=c1c(O)c(-c2ccc(O)c(O)c2)oc2cc(O)cc(O)c12
REMARK SMILES IDX 5 1 3 2 2 3 1 4 22 5 20 6 19 7 17 8 16 9 15 10 14 11 6 12
REMARK SMILES IDX 7 13 8 14 9 15 13 16 11 17 10 18 12 20 4 22 21 24 18 26
REMARK H PARENT 10 19 12 21 4 23 21 25 18 27
REMARK Flexibility Score: inf
ROOT
ATOM      1  C   UNL     1      16.275  -1.162  27.283  1.00  0.00     0.180 A 
ATOM      2  C   UNL     1      17.524  -1.771  27.058  1.00  0.00     0.208 A 
ATOM      3  C   UNL     1      18.043  -2.635  28.034  1.00  0.00     0.238 A 
ATOM      4  O   UNL     1      19.155  -3.196  27.838  1.00  0.00    -0.285 OA
ATOM      5  C   UNL     1      17.319  -2.859  29.224  1.00  0.00     0.111 A 
ATOM      6  C   UNL     1      17.775  -3.711  30.259  1.00  0.00     0.134 A 
ATOM      7  C   UNL     1      17.000  -3.874  31.417  1.00  0.00     0.093 A 
ATOM      8  C   UNL     1      15.781  -3.202  31.559  1.00  0.00     0.123 A 
ATOM      9  C   UNL     1      15.328  -2.361  30.541  1.00  0.00     0.094 A 
ATOM     10  C   UNL     1      16.084  -2.186  29.379  1.00  0.00     0.146 A 
ATOM     11  O   UNL     1      15.627  -1.384  28.423  1.00  0.00    -0.452 OA
ENDROOT
BRANCH   1  12
ATOM     12  C   UNL     1      15.652  -0.253  26.293  1.00  0.00     0.025 A 
ATOM     13  C   UNL     1      15.602  -0.632  24.943  1.00  0.00     0.016 A 
ATOM     14  C   UNL     1      15.038   0.219  23.990  1.00  0.00     0.051 A 
ATOM     15  C   UNL     1      14.530   1.465  24.366  1.00  0.00     0.157 A 
ATOM     16  C   UNL     1      15.159   1.010  26.668  1.00  0.00     0.062 A 
ATOM     17  C   UNL     1      14.593   1.867  25.712  1.00  0.00     0.158 A 
BRANCH  15  18
ATOM     18  O   UNL     1      13.970   2.292  23.393  1.00  0.00    -0.504 OA
ATOM     19  H   UNL     1      14.538   2.874  22.789  1.00  0.00     0.293 HD
ENDBRANCH  15  18
BRANCH  17  20
ATOM     20  O   UNL     1      14.101   3.114  26.092  1.00  0.00    -0.504 OA
ATOM     21  H   UNL     1      13.600   3.708  25.442  1.00  0.00     0.293 HD
ENDBRANCH  17  20
ENDBRANCH   1  12
BRANCH   2  22
ATOM     22  O   UNL     1      18.244  -1.494  25.893  1.00  0.00    -0.502 OA
ATOM     23  H   UNL     1      18.845  -2.179  25.451  1.00  0.00     0.293 HD
ENDBRANCH   2  22
BRANCH   6  24
ATOM     24  O   UNL     1      18.985  -4.394  30.146  1.00  0.00    -0.507 OA
ATOM     25  H   UNL     1      19.144  -5.084  29.420  1.00  0.00     0.293 HD
ENDBRANCH   6  24
BRANCH   8  26
ATOM     26  O   UNL     1      15.012  -3.362  32.710  1.00  0.00    -0.508 OA
ATOM     27  H   UNL     1      14.345  -2.660  33.004  1.00  0.00     0.293 HD
ENDBRANCH   8  26
TORSDOF 6
ENDMDL
MODEL 4
REMARK VINA RESULT:    -0.294      9.940     13.880
REMARK INTER + INTRA:          -0.568
REMARK INTER:                  -0.277
REMARK INTRA:                  -0.291
REMARK UNBOUND:                -0.214
REMARK SMILES O=c1c(O)c(-c2ccc(O)c(O)c2)oc2cc(O)cc(O)c12
REMARK SMILES IDX 5 1 3 2 2 3 1 4 22 5 20 6 19 7 17 8 16 9 15 10 14 11 6 12
REMARK SMILES IDX 7 13 8 14 9 15 13 16 11 17 10 18 12 20 4 22 21 24 18 26
REMARK H PARENT 10 19 12 21 4 23 21 25 18 27
REMARK Flexibility Score: inf
ROOT
ATOM      1  C   UNL     1      13.546 -12.823  29.628  1.00  0.00     0.180 A 
ATOM      2  C   UNL     1      13.899 -13.630  30.726  1.00  0.00     0.208 A 
ATOM      3  C   UNL     1      14.673 -14.780  30.501  1.00  0.00     0.238 A 
ATOM      4  O   UNL     1      15.006 -15.505  31.478  1.00  0.00    -0.285 OA
ATOM      5  C   UNL     1      15.061 -15.113  29.187  1.00  0.00     0.111 A 
ATOM      6  C   UNL     1      15.836 -16.256  28.875  1.00  0.00     0.134 A 
ATOM      7  C   UNL     1      16.173 -16.524  27.539  1.00  0.00     0.093 A 
ATOM      8  C   UNL     1      15.750 -15.673  26.513  1.00  0.00     0.123 A 
ATOM      9  C   UNL     1      14.985 -14.545  26.816  1.00  0.00     0.094 A 
ATOM     10  C   UNL     1      14.640 -14.259  28.140  1.00  0.00     0.146 A 
ATOM     11  O   UNL     1      13.917 -13.175  28.401  1.00  0.00    -0.452 OA
ENDROOT
BRANCH   1  12
ATOM     12  C   UNL     1      12.748 -11.584  29.787  1.00  0.00     0.025 A 
ATOM     13  C   UNL     1      13.372 -10.415  30.249  1.00  0.00     0.016 A 
ATOM     14  C   UNL     1      12.634  -9.242  30.425  1.00  0.00     0.051 A 
ATOM     15  C   UNL     1      11.262  -9.222  30.158  1.00  0.00     0.157 A 
ATOM     16  C   UNL     1      11.364 -11.569  29.539  1.00  0.00     0.062 A 
ATOM     17  C   UNL     1      10.621 -10.393  29.716  1.00  0.00     0.158 A 
BRANCH  15  18
ATOM     18  O   UNL     1      10.553  -8.037  30.341  1.00  0.00    -0.504 OA
ATOM     19  H   UNL     1      10.533  -7.552  31.230  1.00  0.00     0.293 HD
ENDBRANCH  15  18
BRANCH  17  20
ATOM     20  O   UNL     1       9.250 -10.384  29.462  1.00  0.00    -0.504 OA
ATOM     21  H   UNL     1       8.684 -11.217  29.575  1.00  0.00     0.293 HD
ENDBRANCH  17  20
ENDBRANCH   1  12
BRANCH   2  22
ATOM     22  O   UNL     1      13.461 -13.305  32.013  1.00  0.00    -0.502 OA
ATOM     23  H   UNL     1      13.216 -14.010  32.697  1.00  0.00     0.293 HD
ENDBRANCH   2  22
BRANCH   6  24
ATOM     24  O   UNL     1      16.272 -17.124  29.876  1.00  0.00    -0.507 OA
ATOM     25  H   UNL     1      15.739 -17.269  30.726  1.00  0.00     0.293 HD
ENDBRANCH   6  24
BRANCH   8  26
ATOM     26  O   UNL     1      16.084 -15.939  25.187  1.00  0.00    -0.508 OA
ATOM     27  H   UNL     1      16.009 -15.229  24.468  1.00  0.00     0.293 HD
ENDBRANCH   8  26
TORSDOF 6
ENDMDL
MODEL 5
REMARK VINA RESULT:     0.181     10.302     11.960
REMARK INTER + INTRA:           0.004
REMARK INTER:                   0.263
REMARK INTRA:                  -0.260
REMARK UNBOUND:                -0.214
REMARK SMILES O=c1c(O)c(-c2ccc(O)c(O)c2)oc2cc(O)cc(O)c12
REMARK SMILES IDX 5 1 3 2 2 3 1 4 22 5 20 6 19 7 17 8 16 9 15 10 14 11 6 12
REMARK SMILES IDX 7 13 8 14 9 15 13 16 11 17 10 18 12 20 4 22 21 24 18 26
REMARK H PARENT 10 19 12 21 4 23 21 25 18 27
REMARK Flexibility Score: inf
ROOT
ATOM      1  C   UNL     1      13.861 -12.701  28.806  1.00  0.00     0.180 A 
ATOM      2  C   UNL     1      14.527 -11.766  29.622  1.00  0.00     0.208 A 
ATOM      3  C   UNL     1      13.793 -10.708  30.179  1.00  0.00     0.238 A 
ATOM      4  O   UNL     1      14.376  -9.872  30.922  1.00  0.00    -0.285 OA
ATOM      5  C   UNL     1      12.417 -10.589  29.896  1.00  0.00     0.111 A 
ATOM      6  C   UNL     1      11.607  -9.549  30.414  1.00  0.00     0.134 A 
ATOM      7  C   UNL     1      10.246  -9.495  30.077  1.00  0.00     0.093 A 
ATOM      8  C   UNL     1       9.682 -10.458  29.233  1.00  0.00     0.123 A 
ATOM      9  C   UNL     1      10.476 -11.485  28.721  1.00  0.00     0.094 A 
ATOM     10  C   UNL     1      11.834 -11.558  29.045  1.00  0.00     0.146 A 
ATOM     11  O   UNL     1      12.566 -12.549  28.548  1.00  0.00    -0.452 OA
ENDROOT
BRANCH   1  12
ATOM     12  C   UNL     1      14.563 -13.855  28.197  1.00  0.00     0.025 A 
ATOM     13  C   UNL     1      14.765 -13.886  26.809  1.00  0.00     0.016 A 
ATOM     14  C   UNL     1      15.405 -14.975  26.212  1.00  0.00     0.051 A 
ATOM     15  C   UNL     1      15.838 -16.054  26.987  1.00  0.00     0.157 A 
ATOM     16  C   UNL     1      14.980 -14.951  28.974  1.00  0.00     0.062 A 
ATOM     17  C   UNL     1      15.621 -16.045  28.376  1.00  0.00     0.158 A 
BRANCH  15  18
ATOM     18  O   UNL     1      16.476 -17.125  26.364  1.00  0.00    -0.504 OA
ATOM     19  H   UNL     1      16.147 -18.078  26.460  1.00  0.00     0.293 HD
ENDBRANCH  15  18
BRANCH  17  20
ATOM     20  O   UNL     1      16.038 -17.124  29.154  1.00  0.00    -0.504 OA
ATOM     21  H   UNL     1      15.425 -17.907  29.348  1.00  0.00     0.293 HD
ENDBRANCH  17  20
ENDBRANCH   1  12
BRANCH   2  22
ATOM     22  O   UNL     1      15.902 -11.879  29.847  1.00  0.00    -0.502 OA
ATOM     23  H   UNL     1      16.465 -11.099  30.165  1.00  0.00     0.293 HD
ENDBRANCH   2  22
BRANCH   6  24
ATOM     24  O   UNL     1      12.141  -8.575  31.257  1.00  0.00    -0.507 OA
ATOM     25  H   UNL     1      12.948  -8.759  31.842  1.00  0.00     0.293 HD
ENDBRANCH   6  24
BRANCH   8  26
ATOM     26  O   UNL     1       8.331 -10.403  28.898  1.00  0.00    -0.508 OA
ATOM     27  H   UNL     1       8.006  -9.892  28.086  1.00  0.00     0.293 HD
ENDBRANCH   8  26
TORSDOF 6
ENDMDL
MODEL 6
REMARK VINA RESULT:     0.804      9.915     14.438
REMARK INTER + INTRA:           0.755
REMARK INTER:                   1.060
REMARK INTRA:                  -0.305
REMARK UNBOUND:                -0.214
REMARK SMILES O=c1c(O)c(-c2ccc(O)c(O)c2)oc2cc(O)cc(O)c12
REMARK SMILES IDX 5 1 3 2 2 3 1 4 22 5 20 6 19 7 17 8 16 9 15 10 14 11 6 12
REMARK SMILES IDX 7 13 8 14 9 15 13 16 11 17 10 18 12 20 4 22 21 24 18 26
REMARK H PARENT 10 19 12 21 4 23 21 25 18 27
REMARK Flexibility Score: inf
ROOT
ATOM      1  C   UNL     1      13.571 -12.926  29.555  1.00  0.00     0.180 A 
ATOM      2  C   UNL     1      13.909 -13.421  28.280  1.00  0.00     0.208 A 
ATOM      3  C   UNL     1      14.628 -14.622  28.188  1.00  0.00     0.238 A 
ATOM      4  O   UNL     1      14.926 -15.081  27.052  1.00  0.00    -0.285 OA
ATOM      5  C   UNL     1      15.015 -15.295  29.365  1.00  0.00     0.111 A 
ATOM      6  C   UNL     1      15.746 -16.508  29.358  1.00  0.00     0.134 A 
ATOM      7  C   UNL     1      16.102 -17.112  30.574  1.00  0.00     0.093 A 
ATOM      8  C   UNL     1      15.742 -16.526  31.793  1.00  0.00     0.123 A 
ATOM      9  C   UNL     1      15.022 -15.331  31.804  1.00  0.00     0.094 A 
ATOM     10  C   UNL     1      14.656 -14.714  30.604  1.00  0.00     0.146 A 
ATOM     11  O   UNL     1      13.966 -13.580  30.644  1.00  0.00    -0.452 OA
ENDROOT
BRANCH   1  12
ATOM     12  C   UNL     1      12.797 -11.676  29.734  1.00  0.00     0.025 A 
ATOM     13  C   UNL     1      13.459 -10.506  30.138  1.00  0.00     0.016 A 
ATOM     14  C   UNL     1      12.745  -9.321  30.334  1.00  0.00     0.051 A 
ATOM     15  C   UNL     1      11.361  -9.290  30.145  1.00  0.00     0.157 A 
ATOM     16  C   UNL     1      11.401 -11.648  29.565  1.00  0.00     0.062 A 
ATOM     17  C   UNL     1      10.683 -10.460  29.762  1.00  0.00     0.158 A 
BRANCH  15  18
ATOM     18  O   UNL     1      10.676  -8.092  30.345  1.00  0.00    -0.504 OA
ATOM     19  H   UNL     1      10.965  -7.226  29.907  1.00  0.00     0.293 HD
ENDBRANCH  15  18
BRANCH  17  20
ATOM     20  O   UNL     1       9.300 -10.439  29.585  1.00  0.00    -0.504 OA
ATOM     21  H   UNL     1       8.858  -9.808  28.927  1.00  0.00     0.293 HD
ENDBRANCH  17  20
ENDBRANCH   1  12
BRANCH   2  22
ATOM     22  O   UNL     1      13.556 -12.709  27.130  1.00  0.00    -0.502 OA
ATOM     23  H   UNL     1      13.510 -11.698  27.111  1.00  0.00     0.293 HD
ENDBRANCH   2  22
BRANCH   6  24
ATOM     24  O   UNL     1      16.120 -17.115  28.160  1.00  0.00    -0.507 OA
ATOM     25  H   UNL     1      16.199 -18.122  28.073  1.00  0.00     0.293 HD
ENDBRANCH   6  24
BRANCH   8  26
ATOM     26  O   UNL     1      16.097 -17.125  33.000  1.00  0.00    -0.508 OA
ATOM     27  H   UNL     1      15.426 -17.649  33.549  1.00  0.00     0.293 HD
ENDBRANCH   8  26
TORSDOF 6
ENDMDL
MODEL 7
REMARK VINA RESULT:     0.918      2.818      6.413
REMARK INTER + INTRA:           0.892
REMARK INTER:                   1.189
REMARK INTRA:                  -0.296
REMARK UNBOUND:                -0.214
REMARK SMILES O=c1c(O)c(-c2ccc(O)c(O)c2)oc2cc(O)cc(O)c12
REMARK SMILES IDX 5 1 3 2 2 3 1 4 22 5 20 6 19 7 17 8 16 9 15 10 14 11 6 12
REMARK SMILES IDX 7 13 8 14 9 15 13 16 11 17 10 18 12 20 4 22 21 24 18 26
REMARK H PARENT 10 19 12 21 4 23 21 25 18 27
REMARK Flexibility Score: inf
ROOT
ATOM      1  C   UNL     1      16.393  -0.665  26.966  1.00  0.00     0.180 A 
ATOM      2  C   UNL     1      15.676  -1.238  28.033  1.00  0.00     0.208 A 
ATOM      3  C   UNL     1      16.334  -2.137  28.887  1.00  0.00     0.238 A 
ATOM      4  O   UNL     1      15.705  -2.648  29.854  1.00  0.00    -0.285 OA
ATOM      5  C   UNL     1      17.685  -2.464  28.649  1.00  0.00     0.111 A 
ATOM      6  C   UNL     1      18.418  -3.364  29.459  1.00  0.00     0.134 A 
ATOM      7  C   UNL     1      19.758  -3.644  29.149  1.00  0.00     0.093 A 
ATOM      8  C   UNL     1      20.375  -3.043  28.047  1.00  0.00     0.123 A 
ATOM      9  C   UNL     1      19.656  -2.155  27.245  1.00  0.00     0.094 A 
ATOM     10  C   UNL     1      18.321  -1.861  27.538  1.00  0.00     0.146 A 
ATOM     11  O   UNL     1      17.662  -1.007  26.762  1.00  0.00    -0.452 OA
ENDROOT
BRANCH   1  12
ATOM     12  C   UNL     1      15.774   0.306  26.033  1.00  0.00     0.025 A 
ATOM     13  C   UNL     1      15.627   1.645  26.428  1.00  0.00     0.016 A 
ATOM     14  C   UNL     1      15.028   2.572  25.572  1.00  0.00     0.051 A 
ATOM     15  C   UNL     1      14.553   2.175  24.319  1.00  0.00     0.157 A 
ATOM     16  C   UNL     1      15.278  -0.097  24.781  1.00  0.00     0.062 A 
ATOM     17  C   UNL     1      14.674   0.833  23.921  1.00  0.00     0.158 A 
BRANCH  15  18
ATOM     18  O   UNL     1      13.962   3.124  23.486  1.00  0.00    -0.504 OA
ATOM     19  H   UNL     1      13.713   2.918  22.526  1.00  0.00     0.293 HD
ENDBRANCH  15  18
BRANCH  17  20
ATOM     20  O   UNL     1      14.191   0.427  22.678  1.00  0.00    -0.504 OA
ATOM     21  H   UNL     1      13.242   0.629  22.386  1.00  0.00     0.293 HD
ENDBRANCH  17  20
ENDBRANCH   1  12
BRANCH   2  22
ATOM     22  O   UNL     1      14.324  -0.936  28.219  1.00  0.00    -0.502 OA
ATOM     23  H   UNL     1      13.828  -0.282  27.626  1.00  0.00     0.293 HD
ENDBRANCH   2  22
BRANCH   6  24
ATOM     24  O   UNL     1      17.830  -3.980  30.563  1.00  0.00    -0.507 OA
ATOM     25  H   UNL     1      17.748  -4.988  30.632  1.00  0.00     0.293 HD
ENDBRANCH   6  24
BRANCH   8  26
ATOM     26  O   UNL     1      21.705  -3.322  27.739  1.00  0.00    -0.508 OA
ATOM     27  H   UNL     1      22.105  -3.074  26.842  1.00  0.00     0.293 HD
ENDBRANCH   8  26
TORSDOF 6
ENDMDL
MODEL 8
REMARK VINA RESULT:     1.151      1.494      7.020
REMARK INTER + INTRA:           1.173
REMARK INTER:                   1.494
REMARK INTRA:                  -0.321
REMARK UNBOUND:                -0.214
REMARK SMILES O=c1c(O)c(-c2ccc(O)c(O)c2)oc2cc(O)cc(O)c12
REMARK SMILES IDX 5 1 3 2 2 3 1 4 22 5 20 6 19 7 17 8 16 9 15 10 14 11 6 12
REMARK SMILES IDX 7 13 8 14 9 15 13 16 11 17 10 18 12 20 4 22 21 24 18 26
REMARK H PARENT 10 19 12 21 4 23 21 25 18 27
REMARK Flexibility Score: inf
ROOT
ATOM      1  C   UNL     1      16.236  -2.283  26.841  1.00  0.00     0.180 A 
ATOM      2  C   UNL     1      17.564  -2.749  26.846  1.00  0.00     0.208 A 
ATOM      3  C   UNL     1      17.810  -4.103  26.570  1.00  0.00     0.238 A 
ATOM      4  O   UNL     1      18.997  -4.529  26.561  1.00  0.00    -0.285 OA
ATOM      5  C   UNL     1      16.727  -4.970  26.316  1.00  0.00     0.111 A 
ATOM      6  C   UNL     1      16.889  -6.348  26.034  1.00  0.00     0.134 A 
ATOM      7  C   UNL     1      15.759  -7.147  25.801  1.00  0.00     0.093 A 
ATOM      8  C   UNL     1      14.474  -6.595  25.845  1.00  0.00     0.123 A 
ATOM      9  C   UNL     1      14.310  -5.237  26.122  1.00  0.00     0.094 A 
ATOM     10  C   UNL     1      15.423  -4.423  26.356  1.00  0.00     0.146 A 
ATOM     11  O   UNL     1      15.238  -3.132  26.612  1.00  0.00    -0.452 OA
ENDROOT
BRANCH   1  12
ATOM     12  C   UNL     1      15.897  -0.865  27.104  1.00  0.00     0.025 A 
ATOM     13  C   UNL     1      15.707  -0.434  28.426  1.00  0.00     0.016 A 
ATOM     14  C   UNL     1      15.367   0.894  28.695  1.00  0.00     0.051 A 
ATOM     15  C   UNL     1      15.196   1.806  27.651  1.00  0.00     0.157 A 
ATOM     16  C   UNL     1      15.704   0.048  26.053  1.00  0.00     0.062 A 
ATOM     17  C   UNL     1      15.361   1.382  26.321  1.00  0.00     0.158 A 
BRANCH  15  18
ATOM     18  O   UNL     1      14.859   3.125  27.950  1.00  0.00    -0.504 OA
ATOM     19  H   UNL     1      15.240   3.609  28.753  1.00  0.00     0.293 HD
ENDBRANCH  15  18
BRANCH  17  20
ATOM     20  O   UNL     1      15.178   2.283  25.273  1.00  0.00    -0.504 OA
ATOM     21  H   UNL     1      14.382   2.218  24.650  1.00  0.00     0.293 HD
ENDBRANCH  17  20
ENDBRANCH   1  12
BRANCH   2  22
ATOM     22  O   UNL     1      18.616  -1.880  27.150  1.00  0.00    -0.502 OA
ATOM     23  H   UNL     1      18.837  -1.607  28.100  1.00  0.00     0.293 HD
ENDBRANCH   2  22
BRANCH   6  24
ATOM     24  O   UNL     1      18.156  -6.927  25.984  1.00  0.00    -0.507 OA
ATOM     25  H   UNL     1      18.735  -6.875  25.153  1.00  0.00     0.293 HD
ENDBRANCH   6  24
BRANCH   8  26
ATOM     26  O   UNL     1      13.353  -7.388  25.614  1.00  0.00    -0.508 OA
ATOM     27  H   UNL     1      12.654  -7.540  26.332  1.00  0.00     0.293 HD
ENDBRANCH   8  26
TORSDOF 6
ENDMDL
MODEL 9
REMARK VINA RESULT:     1.598      6.661     10.937
REMARK INTER + INTRA:           1.711
REMARK INTER:                   1.714
REMARK INTRA:                  -0.003
REMARK UNBOUND:                -0.214
REMARK SMILES O=c1c(O)c(-c2ccc(O)c(O)c2)oc2cc(O)cc(O)c12
REMARK SMILES IDX 5 1 3 2 2 3 1 4 22 5 20 6 19 7 17 8 16 9 15 10 14 11 6 12
REMARK SMILES IDX 7 13 8 14 9 15 13 16 11 17 10 18 12 20 4 22 21 24 18 26
REMARK H PARENT 10 19 12 21 4 23 21 25 18 27
REMARK Flexibility Score: inf
ROOT
ATOM      1  C   UNL     1      14.174  -9.615  27.011  1.00  0.00     0.180 A 
ATOM      2  C   UNL     1      13.102  -9.320  27.874  1.00  0.00     0.208 A 
ATOM      3  C   UNL     1      12.766 -10.243  28.877  1.00  0.00     0.238 A 
ATOM      4  O   UNL     1      11.815  -9.984  29.664  1.00  0.00    -0.285 OA
ATOM      5  C   UNL     1      13.489 -11.448  28.987  1.00  0.00     0.111 A 
ATOM      6  C   UNL     1      13.210 -12.432  29.966  1.00  0.00     0.134 A 
ATOM      7  C   UNL     1      13.971 -13.611  30.004  1.00  0.00     0.093 A 
ATOM      8  C   UNL     1      15.001 -13.823  29.081  1.00  0.00     0.123 A 
ATOM      9  C   UNL     1      15.280 -12.856  28.114  1.00  0.00     0.094 A 
ATOM     10  C   UNL     1      14.535 -11.674  28.061  1.00  0.00     0.146 A 
ATOM     11  O   UNL     1      14.825 -10.768  27.134  1.00  0.00    -0.452 OA
ENDROOT
BRANCH   1  12
ATOM     12  C   UNL     1      14.602  -8.684  25.941  1.00  0.00     0.025 A 
ATOM     13  C   UNL     1      14.855  -7.340  26.255  1.00  0.00     0.016 A 
ATOM     14  C   UNL     1      15.239  -6.440  25.257  1.00  0.00     0.051 A 
ATOM     15  C   UNL     1      15.361  -6.864  23.931  1.00  0.00     0.157 A 
ATOM     16  C   UNL     1      14.705  -9.105  24.603  1.00  0.00     0.062 A 
ATOM     17  C   UNL     1      15.089  -8.203  23.599  1.00  0.00     0.158 A 
BRANCH  15  18
ATOM     18  O   UNL     1      15.748  -5.945  22.957  1.00  0.00    -0.504 OA
ATOM     19  H   UNL     1      16.549  -5.337  23.079  1.00  0.00     0.293 HD
ENDBRANCH  15  18
BRANCH  17  20
ATOM     20  O   UNL     1      15.194  -8.630  22.276  1.00  0.00    -0.504 OA
ATOM     21  H   UNL     1      14.738  -9.475  21.953  1.00  0.00     0.293 HD
ENDBRANCH  17  20
ENDBRANCH   1  12
BRANCH   2  22
ATOM     22  O   UNL     1      12.369  -8.141  27.714  1.00  0.00    -0.502 OA
ATOM     23  H   UNL     1      11.649  -8.041  27.009  1.00  0.00     0.293 HD
ENDBRANCH   2  22
BRANCH   6  24
ATOM     24  O   UNL     1      12.190 -12.249  30.898  1.00  0.00    -0.507 OA
ATOM     25  H   UNL     1      11.844 -11.326  31.138  1.00  0.00     0.293 HD
ENDBRANCH   6  24
BRANCH   8  26
ATOM     26  O   UNL     1      15.756 -14.994  29.117  1.00  0.00    -0.508 OA
ATOM     27  H   UNL     1      15.643 -15.675  29.859  1.00  0.00     0.293 HD
ENDBRANCH   8  26
TORSDOF 6
ENDMDL
