MODEL 1
REMARK VINA RESULT:    -3.108      0.000      0.000
REMARK INTER + INTRA:         -14.119
REMARK INTER:                  -8.195
REMARK INTRA:                  -5.924
REMARK UNBOUND:                -5.924
REMARK SMILES CCCCCCCCCCCCCCCCCCCCCCCCCCCCCC(=O)[O-]
REMARK SMILES IDX 16 1 17 2 18 3 19 4 20 5 21 6 22 7 23 8 24 9 25 10 26 11
REMARK SMILES IDX 27 12 28 13 29 14 30 15 31 16 32 17 15 18 14 19 13 20 12 21
REMARK SMILES IDX 11 22 10 23 9 24 8 25 7 26 6 27 5 28 4 29 3 30 2 31 1 32
REMARK H PARENT
REMARK Flexibility Score: inf
ROOT
ATOM      1  C   UNL     1     167.581 162.079 148.335  1.00  0.00     0.000 C 
ENDROOT
BRANCH   1   2
ATOM      2  C   UNL     1     168.621 160.942 148.333  1.00  0.00     0.000 C 
BRANCH   2   3
ATOM      3  C   UNL     1     170.085 161.390 148.499  1.00  0.00     0.000 C 
BRANCH   3   4
ATOM      4  C   UNL     1     170.994 160.892 147.363  1.00  0.00     0.000 C 
BRANCH   4   5
ATOM      5  C   UNL     1     170.238 160.677 146.039  1.00  0.00     0.000 C 
BRANCH   5   6
ATOM      6  C   UNL     1     171.123 160.609 144.779  1.00  0.00     0.000 C 
BRANCH   6   7
ATOM      7  C   UNL     1     172.462 161.368 144.880  1.00  0.00     0.000 C 
BRANCH   7   8
ATOM      8  C   UNL     1     172.679 162.442 143.796  1.00  0.00     0.000 C 
BRANCH   8   9
ATOM      9  C   UNL     1     171.392 162.962 143.123  1.00  0.00     0.000 C 
BRANCH   9  10
ATOM     10  C   UNL     1     171.565 164.223 142.257  1.00  0.00     0.000 C 
BRANCH  10  11
ATOM     11  C   UNL     1     172.797 165.056 142.649  1.00  0.00     0.000 C 
BRANCH  11  12
ATOM     12  C   UNL     1     172.514 166.570 142.676  1.00  0.00     0.000 C 
BRANCH  12  13
ATOM     13  C   UNL     1     171.081 166.961 143.085  1.00  0.00     0.006 C 
BRANCH  13  14
ATOM     14  C   UNL     1     170.356 167.780 142.009  1.00  0.00     0.053 C 
BRANCH  14  15
ATOM     15  C   UNL     1     169.062 167.128 141.634  1.00  0.00     0.041 C 
ATOM     16  O   UNL     1     168.028 167.330 142.324  1.00  0.00    -0.550 OA
ATOM     17  O   UNL     1     168.989 166.325 140.501  1.00  0.00    -0.550 OA
ENDBRANCH  14  15
ENDBRANCH  13  14
ENDBRANCH  12  13
ENDBRANCH  11  12
ENDBRANCH  10  11
ENDBRANCH   9  10
ENDBRANCH   8   9
ENDBRANCH   7   8
ENDBRANCH   6   7
ENDBRANCH   5   6
ENDBRANCH   4   5
ENDBRANCH   3   4
ENDBRANCH   2   3
ENDBRANCH   1   2
BRANCH   1  18
ATOM     18  C   UNL     1     167.186 162.615 146.945  1.00  0.00     0.000 C 
BRANCH  18  19
ATOM     19  C   UNL     1     167.732 164.018 146.601  1.00  0.00     0.000 C 
BRANCH  19  20
ATOM     20  C   UNL     1     168.987 164.020 145.706  1.00  0.00     0.000 C 
BRANCH  20  21
ATOM     21  C   UNL     1     170.051 165.064 146.118  1.00  0.00     0.000 C 
BRANCH  21  22
ATOM     22  C   UNL     1     171.381 164.446 146.594  1.00  0.00     0.000 C 
BRANCH  22  23
ATOM     23  C   UNL     1     172.637 165.252 146.220  1.00  0.00     0.000 C 
BRANCH  23  24
ATOM     24  C   UNL     1     172.808 166.522 147.070  1.00  0.00    -0.000 C 
BRANCH  24  25
ATOM     25  C   UNL     1     172.697 167.782 146.199  1.00  0.00    -0.000 C 
BRANCH  25  26
ATOM     26  C   UNL     1     171.932 168.923 146.892  1.00  0.00    -0.000 C 
BRANCH  26  27
ATOM     27  C   UNL     1     170.722 168.475 147.739  1.00  0.00    -0.000 C 
BRANCH  27  28
ATOM     28  C   UNL     1     169.646 169.555 147.953  1.00  0.00    -0.000 C 
BRANCH  28  29
ATOM     29  C   UNL     1     168.532 169.504 146.895  1.00  0.00    -0.000 C 
BRANCH  29  30
ATOM     30  C   UNL     1     168.653 168.290 145.963  1.00  0.00    -0.000 C 
BRANCH  30  31
ATOM     31  C   UNL     1     167.308 167.583 145.736  1.00  0.00    -0.003 C 
ATOM     32  C   UNL     1     166.556 167.405 147.052  1.00  0.00     0.004 C 
ENDBRANCH  30  31
ENDBRANCH  29  30
ENDBRANCH  28  29
ENDBRANCH  27  28
ENDBRANCH  26  27
ENDBRANCH  25  26
ENDBRANCH  24  25
ENDBRANCH  23  24
ENDBRANCH  22  23
ENDBRANCH  21  22
ENDBRANCH  20  21
ENDBRANCH  19  20
ENDBRANCH  18  19
ENDBRANCH   1  18
TORSDOF 28
ENDMDL
MODEL 2
REMARK VINA RESULT:    -3.058      2.432      7.181
REMARK INTER + INTRA:         -13.987
REMARK INTER:                  -8.017
REMARK INTRA:                  -5.971
REMARK UNBOUND:                -5.924
REMARK SMILES CCCCCCCCCCCCCCCCCCCCCCCCCCCCCC(=O)[O-]
REMARK SMILES IDX 16 1 17 2 18 3 19 4 20 5 21 6 22 7 23 8 24 9 25 10 26 11
REMARK SMILES IDX 27 12 28 13 29 14 30 15 31 16 32 17 15 18 14 19 13 20 12 21
REMARK SMILES IDX 11 22 10 23 9 24 8 25 7 26 6 27 5 28 4 29 3 30 2 31 1 32
REMARK H PARENT
REMARK Flexibility Score: inf
ROOT
ATOM      1  C   UNL     1     169.664 167.726 143.504  1.00  0.00     0.000 C 
ENDROOT
BRANCH   1   2
ATOM      2  C   UNL     1     171.031 167.828 142.800  1.00  0.00     0.000 C 
BRANCH   2   3
ATOM      3  C   UNL     1     172.255 167.801 143.733  1.00  0.00     0.000 C 
BRANCH   3   4
ATOM      4  C   UNL     1     171.880 167.534 145.201  1.00  0.00     0.000 C 
BRANCH   4   5
ATOM      5  C   UNL     1     172.791 166.490 145.872  1.00  0.00     0.000 C 
BRANCH   5   6
ATOM      6  C   UNL     1     172.055 165.330 146.573  1.00  0.00     0.000 C 
BRANCH   6   7
ATOM      7  C   UNL     1     170.599 165.109 146.117  1.00  0.00     0.000 C 
BRANCH   7   8
ATOM      8  C   UNL     1     169.959 163.797 146.609  1.00  0.00     0.000 C 
BRANCH   8   9
ATOM      9  C   UNL     1     168.432 163.853 146.819  1.00  0.00     0.000 C 
BRANCH   9  10
ATOM     10  C   UNL     1     167.673 164.815 145.887  1.00  0.00     0.000 C 
BRANCH  10  11
ATOM     11  C   UNL     1     166.690 165.728 146.638  1.00  0.00     0.000 C 
BRANCH  11  12
ATOM     12  C   UNL     1     166.950 167.226 146.385  1.00  0.00     0.000 C 
BRANCH  12  13
ATOM     13  C   UNL     1     168.254 167.776 146.992  1.00  0.00     0.006 C 
BRANCH  13  14
ATOM     14  C   UNL     1     168.499 169.250 146.646  1.00  0.00     0.053 C 
BRANCH  14  15
ATOM     15  C   UNL     1     168.637 170.067 147.894  1.00  0.00     0.041 C 
ATOM     16  O   UNL     1     167.927 169.809 148.901  1.00  0.00    -0.550 OA
ATOM     17  O   UNL     1     169.577 171.089 147.957  1.00  0.00    -0.550 OA
ENDBRANCH  14  15
ENDBRANCH  13  14
ENDBRANCH  12  13
ENDBRANCH  11  12
ENDBRANCH  10  11
ENDBRANCH   9  10
ENDBRANCH   8   9
ENDBRANCH   7   8
ENDBRANCH   6   7
ENDBRANCH   5   6
ENDBRANCH   4   5
ENDBRANCH   3   4
ENDBRANCH   2   3
ENDBRANCH   1   2
BRANCH   1  18
ATOM     18  C   UNL     1     168.725 166.627 142.966  1.00  0.00     0.000 C 
BRANCH  18  19
ATOM     19  C   UNL     1     169.416 165.513 142.152  1.00  0.00     0.000 C 
BRANCH  19  20
ATOM     20  C   UNL     1     169.348 164.110 142.790  1.00  0.00     0.000 C 
BRANCH  20  21
ATOM     21  C   UNL     1     170.654 163.293 142.652  1.00  0.00     0.000 C 
BRANCH  21  22
ATOM     22  C   UNL     1     171.936 164.130 142.833  1.00  0.00     0.000 C 
BRANCH  22  23
ATOM     23  C   UNL     1     173.076 163.411 143.575  1.00  0.00     0.000 C 
BRANCH  23  24
ATOM     24  C   UNL     1     172.747 161.945 143.902  1.00  0.00    -0.000 C 
BRANCH  24  25
ATOM     25  C   UNL     1     172.761 161.706 145.418  1.00  0.00    -0.000 C 
BRANCH  25  26
ATOM     26  C   UNL     1     172.123 160.364 145.819  1.00  0.00    -0.000 C 
BRANCH  26  27
ATOM     27  C   UNL     1     170.626 160.438 146.182  1.00  0.00    -0.000 C 
BRANCH  27  28
ATOM     28  C   UNL     1     169.662 160.300 144.991  1.00  0.00    -0.000 C 
BRANCH  28  29
ATOM     29  C   UNL     1     169.705 158.904 144.347  1.00  0.00    -0.000 C 
BRANCH  29  30
ATOM     30  C   UNL     1     170.667 158.832 143.152  1.00  0.00    -0.000 C 
BRANCH  30  31
ATOM     31  C   UNL     1     171.250 157.426 142.948  1.00  0.00    -0.003 C 
ATOM     32  C   UNL     1     172.011 156.964 144.187  1.00  0.00     0.004 C 
ENDBRANCH  30  31
ENDBRANCH  29  30
ENDBRANCH  28  29
ENDBRANCH  27  28
ENDBRANCH  26  27
ENDBRANCH  25  26
ENDBRANCH  24  25
ENDBRANCH  23  24
ENDBRANCH  22  23
ENDBRANCH  21  22
ENDBRANCH  20  21
ENDBRANCH  19  20
ENDBRANCH  18  19
ENDBRANCH   1  18
TORSDOF 28
ENDMDL
MODEL 3
REMARK VINA RESULT:    -3.049      1.897      5.205
REMARK INTER + INTRA:         -13.965
REMARK INTER:                  -7.948
REMARK INTRA:                  -6.017
REMARK UNBOUND:                -5.924
REMARK SMILES CCCCCCCCCCCCCCCCCCCCCCCCCCCCCC(=O)[O-]
REMARK SMILES IDX 16 1 17 2 18 3 19 4 20 5 21 6 22 7 23 8 24 9 25 10 26 11
REMARK SMILES IDX 27 12 28 13 29 14 30 15 31 16 32 17 15 18 14 19 13 20 12 21
REMARK SMILES IDX 11 22 10 23 9 24 8 25 7 26 6 27 5 28 4 29 3 30 2 31 1 32
REMARK H PARENT
REMARK Flexibility Score: inf
ROOT
ATOM      1  C   UNL     1     172.345 163.494 144.121  1.00  0.00     0.000 C 
ENDROOT
BRANCH   1   2
ATOM      2  C   UNL     1     173.093 164.224 145.254  1.00  0.00     0.000 C 
BRANCH   2   3
ATOM      3  C   UNL     1     172.197 164.832 146.348  1.00  0.00     0.000 C 
BRANCH   3   4
ATOM      4  C   UNL     1     172.579 166.281 146.697  1.00  0.00     0.000 C 
BRANCH   4   5
ATOM      5  C   UNL     1     173.027 167.094 145.469  1.00  0.00     0.000 C 
BRANCH   5   6
ATOM      6  C   UNL     1     171.896 167.819 144.711  1.00  0.00     0.000 C 
BRANCH   6   7
ATOM      7  C   UNL     1     171.493 167.176 143.369  1.00  0.00     0.000 C 
BRANCH   7   8
ATOM      8  C   UNL     1     171.145 168.177 142.251  1.00  0.00     0.000 C 
BRANCH   8   9
ATOM      9  C   UNL     1     170.213 167.629 141.150  1.00  0.00     0.000 C 
BRANCH   9  10
ATOM     10  C   UNL     1     168.707 167.822 141.405  1.00  0.00     0.000 C 
BRANCH  10  11
ATOM     11  C   UNL     1     167.910 166.509 141.319  1.00  0.00     0.000 C 
BRANCH  11  12
ATOM     12  C   UNL     1     168.453 165.548 140.244  1.00  0.00     0.000 C 
BRANCH  12  13
ATOM     13  C   UNL     1     168.746 164.117 140.732  1.00  0.00     0.006 C 
BRANCH  13  14
ATOM     14  C   UNL     1     170.144 163.970 141.346  1.00  0.00     0.053 C 
BRANCH  14  15
ATOM     15  C   UNL     1     171.170 163.771 140.275  1.00  0.00     0.041 C 
ATOM     16  O   UNL     1     171.388 162.620 139.813  1.00  0.00    -0.550 OA
ATOM     17  O   UNL     1     171.860 164.862 139.759  1.00  0.00    -0.550 OA
ENDBRANCH  14  15
ENDBRANCH  13  14
ENDBRANCH  12  13
ENDBRANCH  11  12
ENDBRANCH  10  11
ENDBRANCH   9  10
ENDBRANCH   8   9
ENDBRANCH   7   8
ENDBRANCH   6   7
ENDBRANCH   5   6
ENDBRANCH   4   5
ENDBRANCH   3   4
ENDBRANCH   2   3
ENDBRANCH   1   2
BRANCH   1  18
ATOM     18  C   UNL     1     172.751 162.022 143.904  1.00  0.00     0.000 C 
BRANCH  18  19
ATOM     19  C   UNL     1     172.540 161.096 145.120  1.00  0.00     0.000 C 
BRANCH  19  20
ATOM     20  C   UNL     1     171.333 160.143 145.005  1.00  0.00     0.000 C 
BRANCH  20  21
ATOM     21  C   UNL     1     170.175 160.475 145.975  1.00  0.00     0.000 C 
BRANCH  21  22
ATOM     22  C   UNL     1     170.528 161.548 147.023  1.00  0.00     0.000 C 
BRANCH  22  23
ATOM     23  C   UNL     1     169.388 162.529 147.350  1.00  0.00     0.000 C 
BRANCH  23  24
ATOM     24  C   UNL     1     168.066 162.164 146.655  1.00  0.00    -0.000 C 
BRANCH  24  25
ATOM     25  C   UNL     1     167.569 163.325 145.781  1.00  0.00    -0.000 C 
BRANCH  25  26
ATOM     26  C   UNL     1     168.579 163.730 144.694  1.00  0.00    -0.000 C 
BRANCH  26  27
ATOM     27  C   UNL     1     168.988 165.218 144.707  1.00  0.00    -0.000 C 
BRANCH  27  28
ATOM     28  C   UNL     1     168.834 165.920 146.067  1.00  0.00    -0.000 C 
BRANCH  28  29
ATOM     29  C   UNL     1     167.652 166.904 146.100  1.00  0.00    -0.000 C 
BRANCH  29  30
ATOM     30  C   UNL     1     166.960 167.046 144.737  1.00  0.00    -0.000 C 
BRANCH  30  31
ATOM     31  C   UNL     1     165.470 166.678 144.790  1.00  0.00    -0.003 C 
ATOM     32  C   UNL     1     165.022 166.020 143.489  1.00  0.00     0.004 C 
ENDBRANCH  30  31
ENDBRANCH  29  30
ENDBRANCH  28  29
ENDBRANCH  27  28
ENDBRANCH  26  27
ENDBRANCH  25  26
ENDBRANCH  24  25
ENDBRANCH  23  24
ENDBRANCH  22  23
ENDBRANCH  21  22
ENDBRANCH  20  21
ENDBRANCH  19  20
ENDBRANCH  18  19
ENDBRANCH   1  18
TORSDOF 28
ENDMDL
MODEL 4
REMARK VINA RESULT:    -3.007      1.954      5.400
REMARK INTER + INTRA:         -13.854
REMARK INTER:                  -7.576
REMARK INTRA:                  -6.278
REMARK UNBOUND:                -5.924
REMARK SMILES CCCCCCCCCCCCCCCCCCCCCCCCCCCCCC(=O)[O-]
REMARK SMILES IDX 16 1 17 2 18 3 19 4 20 5 21 6 22 7 23 8 24 9 25 10 26 11
REMARK SMILES IDX 27 12 28 13 29 14 30 15 31 16 32 17 15 18 14 19 13 20 12 21
REMARK SMILES IDX 11 22 10 23 9 24 8 25 7 26 6 27 5 28 4 29 3 30 2 31 1 32
REMARK H PARENT
REMARK Flexibility Score: inf
ROOT
ATOM      1  C   UNL     1     168.169 161.764 144.218  1.00  0.00     0.000 C 
ENDROOT
BRANCH   1   2
ATOM      2  C   UNL     1     168.070 161.891 145.751  1.00  0.00     0.000 C 
BRANCH   2   3
ATOM      3  C   UNL     1     168.388 163.288 146.316  1.00  0.00     0.000 C 
BRANCH   3   4
ATOM      4  C   UNL     1     169.862 163.446 146.725  1.00  0.00     0.000 C 
BRANCH   4   5
ATOM      5  C   UNL     1     170.463 164.796 146.293  1.00  0.00     0.000 C 
BRANCH   5   6
ATOM      6  C   UNL     1     171.974 164.956 146.551  1.00  0.00     0.000 C 
BRANCH   6   7
ATOM      7  C   UNL     1     172.433 166.392 146.875  1.00  0.00     0.000 C 
BRANCH   7   8
ATOM      8  C   UNL     1     171.636 167.502 146.163  1.00  0.00     0.000 C 
BRANCH   8   9
ATOM      9  C   UNL     1     172.287 168.052 144.877  1.00  0.00     0.000 C 
BRANCH   9  10
ATOM     10  C   UNL     1     171.857 167.357 143.573  1.00  0.00     0.000 C 
BRANCH  10  11
ATOM     11  C   UNL     1     171.198 168.319 142.569  1.00  0.00     0.000 C 
BRANCH  11  12
ATOM     12  C   UNL     1     169.682 168.086 142.422  1.00  0.00     0.000 C 
BRANCH  12  13
ATOM     13  C   UNL     1     169.074 167.080 143.417  1.00  0.00     0.006 C 
BRANCH  13  14
ATOM     14  C   UNL     1     167.544 167.007 143.333  1.00  0.00     0.053 C 
BRANCH  14  15
ATOM     15  C   UNL     1     167.122 165.947 142.364  1.00  0.00     0.041 C 
ATOM     16  O   UNL     1     166.907 164.773 142.763  1.00  0.00    -0.550 OA
ATOM     17  O   UNL     1     166.929 166.265 141.024  1.00  0.00    -0.550 OA
ENDBRANCH  14  15
ENDBRANCH  13  14
ENDBRANCH  12  13
ENDBRANCH  11  12
ENDBRANCH  10  11
ENDBRANCH   9  10
ENDBRANCH   8   9
ENDBRANCH   7   8
ENDBRANCH   6   7
ENDBRANCH   5   6
ENDBRANCH   4   5
ENDBRANCH   3   4
ENDBRANCH   2   3
ENDBRANCH   1   2
BRANCH   1  18
ATOM     18  C   UNL     1     168.876 160.493 143.706  1.00  0.00     0.000 C 
BRANCH  18  19
ATOM     19  C   UNL     1     169.427 159.559 144.805  1.00  0.00     0.000 C 
BRANCH  19  20
ATOM     20  C   UNL     1     170.548 158.607 144.341  1.00  0.00     0.000 C 
BRANCH  20  21
ATOM     21  C   UNL     1     171.966 159.049 144.769  1.00  0.00     0.000 C 
BRANCH  21  22
ATOM     22  C   UNL     1     171.987 160.328 145.628  1.00  0.00     0.000 C 
BRANCH  22  23
ATOM     23  C   UNL     1     172.570 161.568 144.926  1.00  0.00     0.000 C 
BRANCH  23  24
ATOM     24  C   UNL     1     172.913 161.313 143.449  1.00  0.00    -0.000 C 
BRANCH  24  25
ATOM     25  C   UNL     1     172.077 162.216 142.529  1.00  0.00    -0.000 C 
BRANCH  25  26
ATOM     26  C   UNL     1     171.429 163.394 143.277  1.00  0.00    -0.000 C 
BRANCH  26  27
ATOM     27  C   UNL     1     170.329 164.137 142.491  1.00  0.00    -0.000 C 
BRANCH  27  28
ATOM     28  C   UNL     1     169.788 163.384 141.263  1.00  0.00    -0.000 C 
BRANCH  28  29
ATOM     29  C   UNL     1     169.812 164.236 139.983  1.00  0.00    -0.000 C 
BRANCH  29  30
ATOM     30  C   UNL     1     170.627 165.527 140.145  1.00  0.00    -0.000 C 
BRANCH  30  31
ATOM     31  C   UNL     1     172.002 165.446 139.464  1.00  0.00    -0.003 C 
ATOM     32  C   UNL     1     173.125 165.454 140.497  1.00  0.00     0.004 C 
ENDBRANCH  30  31
ENDBRANCH  29  30
ENDBRANCH  28  29
ENDBRANCH  27  28
ENDBRANCH  26  27
ENDBRANCH  25  26
ENDBRANCH  24  25
ENDBRANCH  23  24
ENDBRANCH  22  23
ENDBRANCH  21  22
ENDBRANCH  20  21
ENDBRANCH  19  20
ENDBRANCH  18  19
ENDBRANCH   1  18
TORSDOF 28
ENDMDL
MODEL 5
REMARK VINA RESULT:    -2.980      1.798      5.983
REMARK INTER + INTRA:         -13.783
REMARK INTER:                  -7.702
REMARK INTRA:                  -6.081
REMARK UNBOUND:                -5.924
REMARK SMILES CCCCCCCCCCCCCCCCCCCCCCCCCCCCCC(=O)[O-]
REMARK SMILES IDX 16 1 17 2 18 3 19 4 20 5 21 6 22 7 23 8 24 9 25 10 26 11
REMARK SMILES IDX 27 12 28 13 29 14 30 15 31 16 32 17 15 18 14 19 13 20 12 21
REMARK SMILES IDX 11 22 10 23 9 24 8 25 7 26 6 27 5 28 4 29 3 30 2 31 1 32
REMARK H PARENT
REMARK Flexibility Score: inf
ROOT
ATOM      1  C   UNL     1     168.536 167.647 145.463  1.00  0.00     0.000 C 
ENDROOT
BRANCH   1   2
ATOM      2  C   UNL     1     169.361 168.362 146.550  1.00  0.00     0.000 C 
BRANCH   2   3
ATOM      3  C   UNL     1     170.888 168.305 146.361  1.00  0.00     0.000 C 
BRANCH   3   4
ATOM      4  C   UNL     1     171.520 167.047 146.981  1.00  0.00     0.000 C 
BRANCH   4   5
ATOM      5  C   UNL     1     172.625 166.435 146.101  1.00  0.00     0.000 C 
BRANCH   5   6
ATOM      6  C   UNL     1     172.158 165.912 144.728  1.00  0.00     0.000 C 
BRANCH   6   7
ATOM      7  C   UNL     1     173.123 166.196 143.559  1.00  0.00     0.000 C 
BRANCH   7   8
ATOM      8  C   UNL     1     172.589 167.184 142.505  1.00  0.00     0.000 C 
BRANCH   8   9
ATOM      9  C   UNL     1     171.200 167.781 142.812  1.00  0.00     0.000 C 
BRANCH   9  10
ATOM     10  C   UNL     1     170.317 168.062 141.583  1.00  0.00     0.000 C 
BRANCH  10  11
ATOM     11  C   UNL     1     168.826 167.782 141.838  1.00  0.00     0.000 C 
BRANCH  11  12
ATOM     12  C   UNL     1     168.269 166.652 140.952  1.00  0.00     0.000 C 
BRANCH  12  13
ATOM     13  C   UNL     1     166.768 166.357 141.134  1.00  0.00     0.006 C 
BRANCH  13  14
ATOM     14  C   UNL     1     166.503 165.092 141.961  1.00  0.00     0.053 C 
BRANCH  14  15
ATOM     15  C   UNL     1     165.628 165.405 143.134  1.00  0.00     0.041 C 
ATOM     16  O   UNL     1     165.315 166.598 143.391  1.00  0.00    -0.550 OA
ATOM     17  O   UNL     1     165.127 164.377 143.924  1.00  0.00    -0.550 OA
ENDBRANCH  14  15
ENDBRANCH  13  14
ENDBRANCH  12  13
ENDBRANCH  11  12
ENDBRANCH  10  11
ENDBRANCH   9  10
ENDBRANCH   8   9
ENDBRANCH   7   8
ENDBRANCH   6   7
ENDBRANCH   5   6
ENDBRANCH   4   5
ENDBRANCH   3   4
ENDBRANCH   2   3
ENDBRANCH   1   2
BRANCH   1  18
ATOM     18  C   UNL     1     168.037 166.236 145.834  1.00  0.00     0.000 C 
BRANCH  18  19
ATOM     19  C   UNL     1     168.637 165.086 144.998  1.00  0.00     0.000 C 
BRANCH  19  20
ATOM     20  C   UNL     1     169.219 163.921 145.825  1.00  0.00     0.000 C 
BRANCH  20  21
ATOM     21  C   UNL     1     168.893 162.521 145.255  1.00  0.00     0.000 C 
BRANCH  21  22
ATOM     22  C   UNL     1     169.395 161.358 146.135  1.00  0.00     0.000 C 
BRANCH  22  23
ATOM     23  C   UNL     1     169.585 160.024 145.392  1.00  0.00     0.000 C 
BRANCH  23  24
ATOM     24  C   UNL     1     171.065 159.668 145.171  1.00  0.00    -0.000 C 
BRANCH  24  25
ATOM     25  C   UNL     1     171.979 160.606 145.974  1.00  0.00    -0.000 C 
BRANCH  25  26
ATOM     26  C   UNL     1     172.833 161.520 145.078  1.00  0.00    -0.000 C 
BRANCH  26  27
ATOM     27  C   UNL     1     172.534 161.416 143.568  1.00  0.00    -0.000 C 
BRANCH  27  28
ATOM     28  C   UNL     1     172.322 162.763 142.855  1.00  0.00    -0.000 C 
BRANCH  28  29
ATOM     29  C   UNL     1     170.857 163.004 142.457  1.00  0.00    -0.000 C 
BRANCH  29  30
ATOM     30  C   UNL     1     170.694 164.172 141.474  1.00  0.00    -0.000 C 
BRANCH  30  31
ATOM     31  C   UNL     1     171.638 164.063 140.266  1.00  0.00    -0.003 C 
ATOM     32  C   UNL     1     171.597 165.333 139.423  1.00  0.00     0.004 C 
ENDBRANCH  30  31
ENDBRANCH  29  30
ENDBRANCH  28  29
ENDBRANCH  27  28
ENDBRANCH  26  27
ENDBRANCH  25  26
ENDBRANCH  24  25
ENDBRANCH  23  24
ENDBRANCH  22  23
ENDBRANCH  21  22
ENDBRANCH  20  21
ENDBRANCH  19  20
ENDBRANCH  18  19
ENDBRANCH   1  18
TORSDOF 28
ENDMDL
MODEL 6
REMARK VINA RESULT:    -2.892      2.922      6.140
REMARK INTER + INTRA:         -13.551
REMARK INTER:                  -6.976
REMARK INTRA:                  -6.575
REMARK UNBOUND:                -5.924
REMARK SMILES CCCCCCCCCCCCCCCCCCCCCCCCCCCCCC(=O)[O-]
REMARK SMILES IDX 16 1 17 2 18 3 19 4 20 5 21 6 22 7 23 8 24 9 25 10 26 11
REMARK SMILES IDX 27 12 28 13 29 14 30 15 31 16 32 17 15 18 14 19 13 20 12 21
REMARK SMILES IDX 11 22 10 23 9 24 8 25 7 26 6 27 5 28 4 29 3 30 2 31 1 32
REMARK H PARENT
REMARK Flexibility Score: inf
ROOT
ATOM      1  C   UNL     1     171.909 163.317 142.651  1.00  0.00     0.000 C 
ENDROOT
BRANCH   1   2
ATOM      2  C   UNL     1     172.660 162.093 143.210  1.00  0.00     0.000 C 
BRANCH   2   3
ATOM      3  C   UNL     1     173.095 162.205 144.683  1.00  0.00     0.000 C 
BRANCH   3   4
ATOM      4  C   UNL     1     172.734 160.959 145.509  1.00  0.00     0.000 C 
BRANCH   4   5
ATOM      5  C   UNL     1     171.750 160.023 144.784  1.00  0.00     0.000 C 
BRANCH   5   6
ATOM      6  C   UNL     1     170.298 160.069 145.298  1.00  0.00     0.000 C 
BRANCH   6   7
ATOM      7  C   UNL     1     169.521 161.354 144.945  1.00  0.00     0.000 C 
BRANCH   7   8
ATOM      8  C   UNL     1     168.785 161.315 143.592  1.00  0.00     0.000 C 
BRANCH   8   9
ATOM      9  C   UNL     1     168.145 162.650 143.157  1.00  0.00     0.000 C 
BRANCH   9  10
ATOM     10  C   UNL     1     166.613 162.628 143.006  1.00  0.00     0.000 C 
BRANCH  10  11
ATOM     11  C   UNL     1     165.890 162.175 144.286  1.00  0.00     0.000 C 
BRANCH  11  12
ATOM     12  C   UNL     1     166.101 163.141 145.467  1.00  0.00     0.000 C 
BRANCH  12  13
ATOM     13  C   UNL     1     166.190 162.473 146.852  1.00  0.00     0.006 C 
BRANCH  13  14
ATOM     14  C   UNL     1     167.506 162.778 147.580  1.00  0.00     0.053 C 
BRANCH  14  15
ATOM     15  C   UNL     1     167.803 161.719 148.595  1.00  0.00     0.041 C 
ATOM     16  O   UNL     1     168.396 160.662 148.253  1.00  0.00    -0.550 OA
ATOM     17  O   UNL     1     167.457 161.914 149.927  1.00  0.00    -0.550 OA
ENDBRANCH  14  15
ENDBRANCH  13  14
ENDBRANCH  12  13
ENDBRANCH  11  12
ENDBRANCH  10  11
ENDBRANCH   9  10
ENDBRANCH   8   9
ENDBRANCH   7   8
ENDBRANCH   6   7
ENDBRANCH   5   6
ENDBRANCH   4   5
ENDBRANCH   3   4
ENDBRANCH   2   3
ENDBRANCH   1   2
BRANCH   1  18
ATOM     18  C   UNL     1     172.805 164.444 142.098  1.00  0.00     0.000 C 
BRANCH  18  19
ATOM     19  C   UNL     1     173.125 165.579 143.093  1.00  0.00     0.000 C 
BRANCH  19  20
ATOM     20  C   UNL     1     172.797 166.997 142.583  1.00  0.00     0.000 C 
BRANCH  20  21
ATOM     21  C   UNL     1     171.472 167.573 143.135  1.00  0.00     0.000 C 
BRANCH  21  22
ATOM     22  C   UNL     1     170.532 168.128 142.046  1.00  0.00     0.000 C 
BRANCH  22  23
ATOM     23  C   UNL     1     169.999 167.077 141.057  1.00  0.00     0.000 C 
BRANCH  23  24
ATOM     24  C   UNL     1     169.155 165.987 141.740  1.00  0.00    -0.000 C 
BRANCH  24  25
ATOM     25  C   UNL     1     167.656 166.231 141.511  1.00  0.00    -0.000 C 
BRANCH  25  26
ATOM     26  C   UNL     1     166.842 166.218 142.816  1.00  0.00    -0.000 C 
BRANCH  26  27
ATOM     27  C   UNL     1     167.464 167.018 143.980  1.00  0.00    -0.000 C 
BRANCH  27  28
ATOM     28  C   UNL     1     167.729 166.203 145.257  1.00  0.00    -0.000 C 
BRANCH  28  29
ATOM     29  C   UNL     1     169.201 166.250 145.701  1.00  0.00    -0.000 C 
BRANCH  29  30
ATOM     30  C   UNL     1     169.981 164.989 145.301  1.00  0.00    -0.000 C 
BRANCH  30  31
ATOM     31  C   UNL     1     170.855 164.450 146.442  1.00  0.00    -0.003 C 
ATOM     32  C   UNL     1     172.099 165.313 146.633  1.00  0.00     0.004 C 
ENDBRANCH  30  31
ENDBRANCH  29  30
ENDBRANCH  28  29
ENDBRANCH  27  28
ENDBRANCH  26  27
ENDBRANCH  25  26
ENDBRANCH  24  25
ENDBRANCH  23  24
ENDBRANCH  22  23
ENDBRANCH  21  22
ENDBRANCH  20  21
ENDBRANCH  19  20
ENDBRANCH  18  19
ENDBRANCH   1  18
TORSDOF 28
ENDMDL
MODEL 7
REMARK VINA RESULT:    -2.887      2.264      5.222
REMARK INTER + INTRA:         -13.538
REMARK INTER:                  -7.529
REMARK INTRA:                  -6.009
REMARK UNBOUND:                -5.924
REMARK SMILES CCCCCCCCCCCCCCCCCCCCCCCCCCCCCC(=O)[O-]
REMARK SMILES IDX 16 1 17 2 18 3 19 4 20 5 21 6 22 7 23 8 24 9 25 10 26 11
REMARK SMILES IDX 27 12 28 13 29 14 30 15 31 16 32 17 15 18 14 19 13 20 12 21
REMARK SMILES IDX 11 22 10 23 9 24 8 25 7 26 6 27 5 28 4 29 3 30 2 31 1 32
REMARK H PARENT
REMARK Flexibility Score: inf
ROOT
ATOM      1  C   UNL     1     170.212 162.149 146.656  1.00  0.00     0.000 C 
ENDROOT
BRANCH   1   2
ATOM      2  C   UNL     1     170.669 160.678 146.613  1.00  0.00     0.000 C 
BRANCH   2   3
ATOM      3  C   UNL     1     171.963 160.413 145.822  1.00  0.00     0.000 C 
BRANCH   3   4
ATOM      4  C   UNL     1     171.891 159.135 144.969  1.00  0.00     0.000 C 
BRANCH   4   5
ATOM      5  C   UNL     1     171.950 159.418 143.457  1.00  0.00     0.000 C 
BRANCH   5   6
ATOM      6  C   UNL     1     170.828 160.325 142.913  1.00  0.00     0.000 C 
BRANCH   6   7
ATOM      7  C   UNL     1     171.297 161.444 141.962  1.00  0.00     0.000 C 
BRANCH   7   8
ATOM      8  C   UNL     1     171.398 162.841 142.606  1.00  0.00     0.000 C 
BRANCH   8   9
ATOM      9  C   UNL     1     170.161 163.741 142.412  1.00  0.00     0.000 C 
BRANCH   9  10
ATOM     10  C   UNL     1     168.807 163.075 142.714  1.00  0.00     0.000 C 
BRANCH  10  11
ATOM     11  C   UNL     1     168.051 163.749 143.872  1.00  0.00     0.000 C 
BRANCH  11  12
ATOM     12  C   UNL     1     168.589 165.154 144.201  1.00  0.00     0.000 C 
BRANCH  12  13
ATOM     13  C   UNL     1     167.818 165.910 145.299  1.00  0.00     0.006 C 
BRANCH  13  14
ATOM     14  C   UNL     1     166.981 167.073 144.749  1.00  0.00     0.053 C 
BRANCH  14  15
ATOM     15  C   UNL     1     165.548 166.667 144.606  1.00  0.00     0.041 C 
ATOM     16  O   UNL     1     165.181 165.974 143.621  1.00  0.00    -0.550 OA
ATOM     17  O   UNL     1     164.622 167.022 145.581  1.00  0.00    -0.550 OA
ENDBRANCH  14  15
ENDBRANCH  13  14
ENDBRANCH  12  13
ENDBRANCH  11  12
ENDBRANCH  10  11
ENDBRANCH   9  10
ENDBRANCH   8   9
ENDBRANCH   7   8
ENDBRANCH   6   7
ENDBRANCH   5   6
ENDBRANCH   4   5
ENDBRANCH   3   4
ENDBRANCH   2   3
ENDBRANCH   1   2
BRANCH   1  18
ATOM     18  C   UNL     1     171.118 163.143 145.901  1.00  0.00     0.000 C 
BRANCH  18  19
ATOM     19  C   UNL     1     171.294 164.518 146.580  1.00  0.00     0.000 C 
BRANCH  19  20
ATOM     20  C   UNL     1     172.054 165.562 145.736  1.00  0.00     0.000 C 
BRANCH  20  21
ATOM     21  C   UNL     1     171.705 167.027 146.085  1.00  0.00     0.000 C 
BRANCH  21  22
ATOM     22  C   UNL     1     171.164 167.841 144.893  1.00  0.00     0.000 C 
BRANCH  22  23
ATOM     23  C   UNL     1     171.362 167.179 143.518  1.00  0.00     0.000 C 
BRANCH  23  24
ATOM     24  C   UNL     1     171.068 168.133 142.348  1.00  0.00    -0.000 C 
BRANCH  24  25
ATOM     25  C   UNL     1     169.561 168.194 142.057  1.00  0.00    -0.000 C 
BRANCH  25  26
ATOM     26  C   UNL     1     169.098 167.109 141.070  1.00  0.00    -0.000 C 
BRANCH  26  27
ATOM     27  C   UNL     1     167.592 166.776 141.127  1.00  0.00    -0.000 C 
BRANCH  27  28
ATOM     28  C   UNL     1     167.199 165.441 140.470  1.00  0.00    -0.000 C 
BRANCH  28  29
ATOM     29  C   UNL     1     168.107 165.068 139.286  1.00  0.00    -0.000 C 
BRANCH  29  30
ATOM     30  C   UNL     1     168.323 163.553 139.159  1.00  0.00    -0.000 C 
BRANCH  30  31
ATOM     31  C   UNL     1     169.549 163.202 138.303  1.00  0.00    -0.003 C 
ATOM     32  C   UNL     1     170.809 163.861 138.856  1.00  0.00     0.004 C 
ENDBRANCH  30  31
ENDBRANCH  29  30
ENDBRANCH  28  29
ENDBRANCH  27  28
ENDBRANCH  26  27
ENDBRANCH  25  26
ENDBRANCH  24  25
ENDBRANCH  23  24
ENDBRANCH  22  23
ENDBRANCH  21  22
ENDBRANCH  20  21
ENDBRANCH  19  20
ENDBRANCH  18  19
ENDBRANCH   1  18
TORSDOF 28
ENDMDL
MODEL 8
REMARK VINA RESULT:    -2.860      4.210      7.840
REMARK INTER + INTRA:         -13.467
REMARK INTER:                  -9.096
REMARK INTRA:                  -4.371
REMARK UNBOUND:                -5.924
REMARK SMILES CCCCCCCCCCCCCCCCCCCCCCCCCCCCCC(=O)[O-]
REMARK SMILES IDX 16 1 17 2 18 3 19 4 20 5 21 6 22 7 23 8 24 9 25 10 26 11
REMARK SMILES IDX 27 12 28 13 29 14 30 15 31 16 32 17 15 18 14 19 13 20 12 21
REMARK SMILES IDX 11 22 10 23 9 24 8 25 7 26 6 27 5 28 4 29 3 30 2 31 1 32
REMARK H PARENT
REMARK Flexibility Score: inf
ROOT
ATOM      1  C   UNL     1     169.190 169.250 150.464  1.00  0.00     0.000 C 
ENDROOT
BRANCH   1   2
ATOM      2  C   UNL     1     170.074 170.393 149.928  1.00  0.00     0.000 C 
BRANCH   2   3
ATOM      3  C   UNL     1     171.590 170.126 149.967  1.00  0.00     0.000 C 
BRANCH   3   4
ATOM      4  C   UNL     1     171.931 168.626 150.002  1.00  0.00     0.000 C 
BRANCH   4   5
ATOM      5  C   UNL     1     172.949 168.217 148.922  1.00  0.00     0.000 C 
BRANCH   5   6
ATOM      6  C   UNL     1     172.378 167.376 147.764  1.00  0.00     0.000 C 
BRANCH   6   7
ATOM      7  C   UNL     1     171.893 168.187 146.545  1.00  0.00     0.000 C 
BRANCH   7   8
ATOM      8  C   UNL     1     170.448 168.711 146.650  1.00  0.00     0.000 C 
BRANCH   8   9
ATOM      9  C   UNL     1     169.427 167.705 147.220  1.00  0.00     0.000 C 
BRANCH   9  10
ATOM     10  C   UNL     1     168.219 167.407 146.313  1.00  0.00     0.000 C 
BRANCH  10  11
ATOM     11  C   UNL     1     168.397 166.128 145.477  1.00  0.00     0.000 C 
BRANCH  11  12
ATOM     12  C   UNL     1     168.553 164.863 146.342  1.00  0.00     0.000 C 
BRANCH  12  13
ATOM     13  C   UNL     1     169.989 164.318 146.453  1.00  0.00     0.006 C 
BRANCH  13  14
ATOM     14  C   UNL     1     170.155 162.935 145.810  1.00  0.00     0.053 C 
BRANCH  14  15
ATOM     15  C   UNL     1     170.504 161.913 146.847  1.00  0.00     0.041 C 
ATOM     16  O   UNL     1     171.157 160.885 146.527  1.00  0.00    -0.550 OA
ATOM     17  O   UNL     1     170.139 162.112 148.173  1.00  0.00    -0.550 OA
ENDBRANCH  14  15
ENDBRANCH  13  14
ENDBRANCH  12  13
ENDBRANCH  11  12
ENDBRANCH  10  11
ENDBRANCH   9  10
ENDBRANCH   8   9
ENDBRANCH   7   8
ENDBRANCH   6   7
ENDBRANCH   5   6
ENDBRANCH   4   5
ENDBRANCH   3   4
ENDBRANCH   2   3
ENDBRANCH   1   2
BRANCH   1  18
ATOM     18  C   UNL     1     168.628 169.461 151.884  1.00  0.00     0.000 C 
BRANCH  18  19
ATOM     19  C   UNL     1     168.543 170.931 152.346  1.00  0.00     0.000 C 
BRANCH  19  20
ATOM     20  C   UNL     1     168.265 171.120 153.851  1.00  0.00     0.000 C 
BRANCH  20  21
ATOM     21  C   UNL     1     167.261 170.101 154.438  1.00  0.00     0.000 C 
BRANCH  21  22
ATOM     22  C   UNL     1     165.866 170.692 154.721  1.00  0.00     0.000 C 
BRANCH  22  23
ATOM     23  C   UNL     1     164.705 169.969 154.017  1.00  0.00     0.000 C 
BRANCH  23  24
ATOM     24  C   UNL     1     165.052 169.533 152.583  1.00  0.00    -0.000 C 
BRANCH  24  25
ATOM     25  C   UNL     1     164.888 170.702 151.601  1.00  0.00    -0.000 C 
BRANCH  25  26
ATOM     26  C   UNL     1     165.169 170.302 150.143  1.00  0.00    -0.000 C 
BRANCH  26  27
ATOM     27  C   UNL     1     165.544 168.820 149.934  1.00  0.00    -0.000 C 
BRANCH  27  28
ATOM     28  C   UNL     1     165.281 168.278 148.518  1.00  0.00    -0.000 C 
BRANCH  28  29
ATOM     29  C   UNL     1     164.613 166.893 148.524  1.00  0.00    -0.000 C 
BRANCH  29  30
ATOM     30  C   UNL     1     164.878 166.102 147.234  1.00  0.00    -0.000 C 
BRANCH  30  31
ATOM     31  C   UNL     1     164.603 166.928 145.969  1.00  0.00    -0.003 C 
ATOM     32  C   UNL     1     163.310 166.481 145.295  1.00  0.00     0.004 C 
ENDBRANCH  30  31
ENDBRANCH  29  30
ENDBRANCH  28  29
ENDBRANCH  27  28
ENDBRANCH  26  27
ENDBRANCH  25  26
ENDBRANCH  24  25
ENDBRANCH  23  24
ENDBRANCH  22  23
ENDBRANCH  21  22
ENDBRANCH  20  21
ENDBRANCH  19  20
ENDBRANCH  18  19
ENDBRANCH   1  18
TORSDOF 28
ENDMDL
MODEL 9
REMARK VINA RESULT:    -2.833      2.624      6.143
REMARK INTER + INTRA:         -13.395
REMARK INTER:                  -6.775
REMARK INTRA:                  -6.619
REMARK UNBOUND:                -5.924
REMARK SMILES CCCCCCCCCCCCCCCCCCCCCCCCCCCCCC(=O)[O-]
REMARK SMILES IDX 16 1 17 2 18 3 19 4 20 5 21 6 22 7 23 8 24 9 25 10 26 11
REMARK SMILES IDX 27 12 28 13 29 14 30 15 31 16 32 17 15 18 14 19 13 20 12 21
REMARK SMILES IDX 11 22 10 23 9 24 8 25 7 26 6 27 5 28 4 29 3 30 2 31 1 32
REMARK H PARENT
REMARK Flexibility Score: inf
ROOT
ATOM      1  C   UNL     1     171.910 165.301 144.082  1.00  0.00     0.000 C 
ENDROOT
BRANCH   1   2
ATOM      2  C   UNL     1     173.035 165.360 143.031  1.00  0.00     0.000 C 
BRANCH   2   3
ATOM      3  C   UNL     1     173.016 166.599 142.116  1.00  0.00     0.000 C 
BRANCH   3   4
ATOM      4  C   UNL     1     172.668 167.893 142.871  1.00  0.00     0.000 C 
BRANCH   4   5
ATOM      5  C   UNL     1     171.300 168.473 142.467  1.00  0.00     0.000 C 
BRANCH   5   6
ATOM      6  C   UNL     1     170.570 167.715 141.340  1.00  0.00     0.000 C 
BRANCH   6   7
ATOM      7  C   UNL     1     169.055 167.528 141.552  1.00  0.00     0.000 C 
BRANCH   7   8
ATOM      8  C   UNL     1     168.519 166.127 141.200  1.00  0.00     0.000 C 
BRANCH   8   9
ATOM      9  C   UNL     1     169.498 165.233 140.411  1.00  0.00     0.000 C 
BRANCH   9  10
ATOM     10  C   UNL     1     170.006 163.989 141.162  1.00  0.00     0.000 C 
BRANCH  10  11
ATOM     11  C   UNL     1     171.257 163.368 140.517  1.00  0.00     0.000 C 
BRANCH  11  12
ATOM     12  C   UNL     1     171.777 162.136 141.283  1.00  0.00     0.000 C 
BRANCH  12  13
ATOM     13  C   UNL     1     171.233 161.977 142.714  1.00  0.00     0.006 C 
BRANCH  13  14
ATOM     14  C   UNL     1     172.238 161.313 143.665  1.00  0.00     0.053 C 
BRANCH  14  15
ATOM     15  C   UNL     1     171.522 160.540 144.729  1.00  0.00     0.041 C 
ATOM     16  O   UNL     1     171.732 160.793 145.945  1.00  0.00    -0.550 OA
ATOM     17  O   UNL     1     170.596 159.564 144.378  1.00  0.00    -0.550 OA
ENDBRANCH  14  15
ENDBRANCH  13  14
ENDBRANCH  12  13
ENDBRANCH  11  12
ENDBRANCH  10  11
ENDBRANCH   9  10
ENDBRANCH   8   9
ENDBRANCH   7   8
ENDBRANCH   6   7
ENDBRANCH   5   6
ENDBRANCH   4   5
ENDBRANCH   3   4
ENDBRANCH   2   3
ENDBRANCH   1   2
BRANCH   1  18
ATOM     18  C   UNL     1     172.244 164.511 145.363  1.00  0.00     0.000 C 
BRANCH  18  19
ATOM     19  C   UNL     1     172.449 165.368 146.630  1.00  0.00     0.000 C 
BRANCH  19  20
ATOM     20  C   UNL     1     173.124 166.733 146.384  1.00  0.00     0.000 C 
BRANCH  20  21
ATOM     21  C   UNL     1     172.467 167.907 147.147  1.00  0.00     0.000 C 
BRANCH  21  22
ATOM     22  C   UNL     1     171.349 168.616 146.357  1.00  0.00     0.000 C 
BRANCH  22  23
ATOM     23  C   UNL     1     170.060 168.875 147.156  1.00  0.00     0.000 C 
BRANCH  23  24
ATOM     24  C   UNL     1     168.814 168.260 146.497  1.00  0.00    -0.000 C 
BRANCH  24  25
ATOM     25  C   UNL     1     169.203 167.402 145.285  1.00  0.00    -0.000 C 
BRANCH  25  26
ATOM     26  C   UNL     1     168.167 166.310 144.967  1.00  0.00    -0.000 C 
BRANCH  26  27
ATOM     27  C   UNL     1     167.706 165.476 146.181  1.00  0.00    -0.000 C 
BRANCH  27  28
ATOM     28  C   UNL     1     168.417 164.122 146.344  1.00  0.00    -0.000 C 
BRANCH  28  29
ATOM     29  C   UNL     1     168.861 163.514 145.003  1.00  0.00    -0.000 C 
BRANCH  29  30
ATOM     30  C   UNL     1     168.116 162.215 144.666  1.00  0.00    -0.000 C 
BRANCH  30  31
ATOM     31  C   UNL     1     167.481 162.244 143.267  1.00  0.00    -0.003 C 
ATOM     32  C   UNL     1     166.100 162.891 143.307  1.00  0.00     0.004 C 
ENDBRANCH  30  31
ENDBRANCH  29  30
ENDBRANCH  28  29
ENDBRANCH  27  28
ENDBRANCH  26  27
ENDBRANCH  25  26
ENDBRANCH  24  25
ENDBRANCH  23  24
ENDBRANCH  22  23
ENDBRANCH  21  22
ENDBRANCH  20  21
ENDBRANCH  19  20
ENDBRANCH  18  19
ENDBRANCH   1  18
TORSDOF 28
ENDMDL
