MODEL 1
REMARK VINA RESULT:    -6.301      0.000      0.000
REMARK INTER + INTRA:         -10.462
REMARK INTER:                  -9.064
REMARK INTRA:                  -1.398
REMARK UNBOUND:                -1.398
REMARK SMILES O=c1c(O[C@@H]2O[C@@H](CO)[C@@H](O)[C@H](O)[C@H]2O)c(-c2ccc(O)cc2)oc2cc(O)cc(O)c12
REMARK SMILES IDX 4 1 3 2 16 3 24 4 2 5 25 6 1 7 32 8 26 9 30 10 27 11 29 12
REMARK SMILES IDX 17 13 18 14 19 15 20 16 23 17 22 18 21 19 31 21 28 23 5 25
REMARK SMILES IDX 14 26 6 27 12 28 7 29 10 30 15 31 13 33 8 35 9 36 11 38
REMARK H PARENT 21 20 31 22 28 24 15 32 13 34 9 37 11 39
REMARK Flexibility Score: inf
ROOT
ATOM      1  O   UNL     1      15.412  -3.565 -12.540  1.00  0.00    -0.454 OA
ENDROOT
BRANCH   1   2
ATOM      2  C   UNL     1      16.106  -2.720 -11.660  1.00  0.00     0.214 A 
ATOM      3  C   UNL     1      16.243  -1.343 -11.923  1.00  0.00     0.180 A 
ATOM      4  O   UNL     1      16.870  -0.567 -11.047  1.00  0.00    -0.452 OA
ATOM      5  C   UNL     1      16.686  -3.252 -10.503  1.00  0.00     0.239 A 
ATOM      6  C   UNL     1      17.399  -1.019  -9.916  1.00  0.00     0.146 A 
ATOM      7  O   UNL     1      16.647  -4.497 -10.334  1.00  0.00    -0.285 OA
ATOM      8  C   UNL     1      17.314  -2.394  -9.569  1.00  0.00     0.111 A 
ATOM      9  C   UNL     1      18.057  -0.112  -9.082  1.00  0.00     0.094 A 
ATOM     10  C   UNL     1      17.877  -2.815  -8.324  1.00  0.00     0.134 A 
ATOM     11  C   UNL     1      18.641  -0.542  -7.893  1.00  0.00     0.123 A 
ATOM     12  C   UNL     1      18.550  -1.885  -7.522  1.00  0.00     0.093 A 
BRANCH   3  13
ATOM     13  C   UNL     1      15.707  -0.715 -13.150  1.00  0.00     0.021 A 
ATOM     14  C   UNL     1      16.573  -0.446 -14.223  1.00  0.00     0.016 A 
ATOM     15  C   UNL     1      16.091   0.167 -15.383  1.00  0.00     0.047 A 
ATOM     16  C   UNL     1      14.739   0.502 -15.492  1.00  0.00     0.115 A 
ATOM     17  C   UNL     1      14.344  -0.395 -13.274  1.00  0.00     0.016 A 
ATOM     18  C   UNL     1      13.865   0.219 -14.435  1.00  0.00     0.047 A 
BRANCH  16  19
ATOM     19  O   UNL     1      14.272   1.108 -16.656  1.00  0.00    -0.508 OA
ATOM     20  H   UNL     1      14.580   0.799 -17.572  1.00  0.00     0.293 HD
ENDBRANCH  16  19
ENDBRANCH   3  13
BRANCH  10  21
ATOM     21  O   UNL     1      17.785  -4.114  -7.817  1.00  0.00    -0.507 OA
ATOM     22  H   UNL     1      18.516  -4.611  -7.335  1.00  0.00     0.293 HD
ENDBRANCH  10  21
BRANCH  11  23
ATOM     23  O   UNL     1      19.305   0.377  -7.084  1.00  0.00    -0.508 OA
ATOM     24  H   UNL     1      20.165   0.824  -7.384  1.00  0.00     0.293 HD
ENDBRANCH  11  23
ENDBRANCH   1   2
BRANCH   1  25
ATOM     25  C   UNL     1      16.001  -4.168 -13.699  1.00  0.00     0.339 C 
ATOM     26  C   UNL     1      17.547  -3.994 -13.653  1.00  0.00     0.214 C 
ATOM     27  O   UNL     1      15.579  -5.522 -13.805  1.00  0.00    -0.332 OA
ATOM     28  C   UNL     1      18.279  -5.342 -13.497  1.00  0.00     0.180 C 
ATOM     29  C   UNL     1      16.245  -6.235 -14.833  1.00  0.00     0.179 C 
ATOM     30  C   UNL     1      17.761  -6.405 -14.504  1.00  0.00     0.177 C 
BRANCH  26  31
ATOM     31  O   UNL     1      17.971  -3.350 -14.828  1.00  0.00    -0.384 OA
ATOM     32  H   UNL     1      18.717  -2.745 -14.575  1.00  0.00     0.211 HD
ENDBRANCH  26  31
BRANCH  28  33
ATOM     33  O   UNL     1      18.185  -5.802 -12.170  1.00  0.00    -0.387 OA
ATOM     34  H   UNL     1      18.627  -6.687 -12.116  1.00  0.00     0.211 HD
ENDBRANCH  28  33
BRANCH  29  35
ATOM     35  C   UNL     1      15.903  -5.676 -16.237  1.00  0.00     0.191 C 
BRANCH  35  36
ATOM     36  O   UNL     1      16.247  -6.600 -17.237  1.00  0.00    -0.394 OA
ATOM     37  H   UNL     1      16.479  -7.453 -16.785  1.00  0.00     0.210 HD
ENDBRANCH  35  36
ENDBRANCH  29  35
BRANCH  30  38
ATOM     38  O   UNL     1      18.558  -6.459 -15.662  1.00  0.00    -0.387 OA
ATOM     39  H   UNL     1      19.458  -6.113 -15.435  1.00  0.00     0.211 HD
ENDBRANCH  30  38
ENDBRANCH   1  25
TORSDOF 11
ENDMDL
MODEL 2
REMARK VINA RESULT:    -6.260      3.727      6.063
REMARK INTER + INTRA:         -10.403
REMARK INTER:                  -9.033
REMARK INTRA:                  -1.369
REMARK UNBOUND:                -1.398
REMARK SMILES O=c1c(O[C@@H]2O[C@@H](CO)[C@@H](O)[C@H](O)[C@H]2O)c(-c2ccc(O)cc2)oc2cc(O)cc(O)c12
REMARK SMILES IDX 4 1 3 2 16 3 24 4 2 5 25 6 1 7 32 8 26 9 30 10 27 11 29 12
REMARK SMILES IDX 17 13 18 14 19 15 20 16 23 17 22 18 21 19 31 21 28 23 5 25
REMARK SMILES IDX 14 26 6 27 12 28 7 29 10 30 15 31 13 33 8 35 9 36 11 38
REMARK H PARENT 21 20 31 22 28 24 15 32 13 34 9 37 11 39
REMARK Flexibility Score: inf
ROOT
ATOM      1  O   UNL     1      15.712  -6.417 -12.771  1.00  0.00    -0.454 OA
ENDROOT
BRANCH   1   2
ATOM      2  C   UNL     1      14.498  -6.333 -12.074  1.00  0.00     0.214 A 
ATOM      3  C   UNL     1      14.217  -5.247 -11.222  1.00  0.00     0.180 A 
ATOM      4  O   UNL     1      13.041  -5.179 -10.610  1.00  0.00    -0.452 OA
ATOM      5  C   UNL     1      13.547  -7.350 -12.214  1.00  0.00     0.239 A 
ATOM      6  C   UNL     1      12.092  -6.098 -10.745  1.00  0.00     0.146 A 
ATOM      7  O   UNL     1      13.852  -8.362 -12.893  1.00  0.00    -0.285 OA
ATOM      8  C   UNL     1      12.286  -7.230 -11.581  1.00  0.00     0.111 A 
ATOM      9  C   UNL     1      10.902  -5.933 -10.033  1.00  0.00     0.094 A 
ATOM     10  C   UNL     1      11.216  -8.170 -11.710  1.00  0.00     0.134 A 
ATOM     11  C   UNL     1       9.883  -6.878 -10.131  1.00  0.00     0.123 A 
ATOM     12  C   UNL     1      10.045  -7.988 -10.964  1.00  0.00     0.093 A 
BRANCH   3  13
ATOM     13  C   UNL     1      15.192  -4.161 -10.976  1.00  0.00     0.021 A 
ATOM     14  C   UNL     1      16.141  -4.303  -9.951  1.00  0.00     0.016 A 
ATOM     15  C   UNL     1      17.056  -3.280  -9.690  1.00  0.00     0.047 A 
ATOM     16  C   UNL     1      17.046  -2.112 -10.458  1.00  0.00     0.115 A 
ATOM     17  C   UNL     1      15.200  -2.994 -11.760  1.00  0.00     0.016 A 
ATOM     18  C   UNL     1      16.116  -1.972 -11.496  1.00  0.00     0.047 A 
BRANCH  16  19
ATOM     19  O   UNL     1      17.968  -1.103 -10.189  1.00  0.00    -0.508 OA
ATOM     20  H   UNL     1      17.695  -0.252  -9.710  1.00  0.00     0.293 HD
ENDBRANCH  16  19
ENDBRANCH   3  13
BRANCH  10  21
ATOM     21  O   UNL     1      11.237  -9.275 -12.565  1.00  0.00    -0.507 OA
ATOM     22  H   UNL     1      10.593  -9.449 -13.318  1.00  0.00     0.293 HD
ENDBRANCH  10  21
BRANCH  11  23
ATOM     23  O   UNL     1       8.711  -6.701  -9.401  1.00  0.00    -0.508 OA
ATOM     24  H   UNL     1       8.722  -6.632  -8.389  1.00  0.00     0.293 HD
ENDBRANCH  11  23
ENDBRANCH   1   2
BRANCH   1  25
ATOM     25  C   UNL     1      15.869  -6.051 -14.149  1.00  0.00     0.339 C 
ATOM     26  C   UNL     1      16.967  -4.956 -14.279  1.00  0.00     0.214 C 
ATOM     27  O   UNL     1      16.122  -7.213 -14.930  1.00  0.00    -0.332 OA
ATOM     28  C   UNL     1      18.206  -5.463 -15.045  1.00  0.00     0.180 C 
ATOM     29  C   UNL     1      16.450  -6.918 -16.277  1.00  0.00     0.179 C 
ATOM     30  C   UNL     1      17.819  -6.175 -16.370  1.00  0.00     0.177 C 
BRANCH  26  31
ATOM     31  O   UNL     1      16.422  -3.838 -14.933  1.00  0.00    -0.384 OA
ATOM     32  H   UNL     1      16.010  -3.264 -14.234  1.00  0.00     0.211 HD
ENDBRANCH  26  31
BRANCH  28  33
ATOM     33  O   UNL     1      18.985  -6.296 -14.222  1.00  0.00    -0.387 OA
ATOM     34  H   UNL     1      19.740  -6.647 -14.760  1.00  0.00     0.211 HD
ENDBRANCH  28  33
BRANCH  29  35
ATOM     35  C   UNL     1      15.261  -6.271 -17.031  1.00  0.00     0.191 C 
BRANCH  35  36
ATOM     36  O   UNL     1      15.316  -6.575 -18.401  1.00  0.00    -0.394 OA
ATOM     37  H   UNL     1      15.789  -7.443 -18.493  1.00  0.00     0.210 HD
ENDBRANCH  35  36
ENDBRANCH  29  35
BRANCH  30  38
ATOM     38  O   UNL     1      17.880  -5.301 -17.470  1.00  0.00    -0.387 OA
ATOM     39  H   UNL     1      17.411  -5.727 -18.231  1.00  0.00     0.211 HD
ENDBRANCH  30  38
ENDBRANCH   1  25
TORSDOF 11
ENDMDL
MODEL 3
REMARK VINA RESULT:    -6.220      2.890      7.383
REMARK INTER + INTRA:         -10.345
REMARK INTER:                  -9.130
REMARK INTRA:                  -1.215
REMARK UNBOUND:                -1.398
REMARK SMILES O=c1c(O[C@@H]2O[C@@H](CO)[C@@H](O)[C@H](O)[C@H]2O)c(-c2ccc(O)cc2)oc2cc(O)cc(O)c12
REMARK SMILES IDX 4 1 3 2 16 3 24 4 2 5 25 6 1 7 32 8 26 9 30 10 27 11 29 12
REMARK SMILES IDX 17 13 18 14 19 15 20 16 23 17 22 18 21 19 31 21 28 23 5 25
REMARK SMILES IDX 14 26 6 27 12 28 7 29 10 30 15 31 13 33 8 35 9 36 11 38
REMARK H PARENT 21 20 31 22 28 24 15 32 13 34 9 37 11 39
REMARK Flexibility Score: inf
ROOT
ATOM      1  O   UNL     1      16.487  -3.237 -13.908  1.00  0.00    -0.454 OA
ENDROOT
BRANCH   1   2
ATOM      2  C   UNL     1      17.218  -3.113 -15.100  1.00  0.00     0.214 A 
ATOM      3  C   UNL     1      17.506  -4.234 -15.902  1.00  0.00     0.180 A 
ATOM      4  O   UNL     1      18.163  -4.073 -17.044  1.00  0.00    -0.452 OA
ATOM      5  C   UNL     1      17.683  -1.854 -15.499  1.00  0.00     0.239 A 
ATOM      6  C   UNL     1      18.587  -2.894 -17.484  1.00  0.00     0.146 A 
ATOM      7  O   UNL     1      17.510  -0.881 -14.722  1.00  0.00    -0.285 OA
ATOM      8  C   UNL     1      18.346  -1.707 -16.740  1.00  0.00     0.111 A 
ATOM      9  C   UNL     1      19.291  -2.848 -18.690  1.00  0.00     0.094 A 
ATOM     10  C   UNL     1      18.801  -0.464 -17.281  1.00  0.00     0.134 A 
ATOM     11  C   UNL     1      19.767  -1.637 -19.184  1.00  0.00     0.123 A 
ATOM     12  C   UNL     1      19.523  -0.456 -18.480  1.00  0.00     0.093 A 
BRANCH   3  13
ATOM     13  C   UNL     1      17.099  -5.605 -15.522  1.00  0.00     0.021 A 
ATOM     14  C   UNL     1      18.023  -6.448 -14.883  1.00  0.00     0.016 A 
ATOM     15  C   UNL     1      17.665  -7.753 -14.535  1.00  0.00     0.047 A 
ATOM     16  C   UNL     1      16.378  -8.226 -14.805  1.00  0.00     0.115 A 
ATOM     17  C   UNL     1      15.799  -6.078 -15.771  1.00  0.00     0.016 A 
ATOM     18  C   UNL     1      15.445  -7.384 -15.423  1.00  0.00     0.047 A 
BRANCH  16  19
ATOM     19  O   UNL     1      16.035  -9.527 -14.448  1.00  0.00    -0.508 OA
ATOM     20  H   UNL     1      16.012 -10.275 -15.132  1.00  0.00     0.293 HD
ENDBRANCH  16  19
ENDBRANCH   3  13
BRANCH  10  21
ATOM     21  O   UNL     1      18.552   0.784 -16.702  1.00  0.00    -0.507 OA
ATOM     22  H   UNL     1      19.020   1.644 -16.935  1.00  0.00     0.293 HD
ENDBRANCH  10  21
BRANCH  11  23
ATOM     23  O   UNL     1      20.480  -1.617 -20.381  1.00  0.00    -0.508 OA
ATOM     24  H   UNL     1      20.014  -1.711 -21.277  1.00  0.00     0.293 HD
ENDBRANCH  11  23
ENDBRANCH   1   2
BRANCH   1  25
ATOM     25  C   UNL     1      17.079  -3.529 -12.636  1.00  0.00     0.339 C 
ATOM     26  C   UNL     1      18.630  -3.500 -12.759  1.00  0.00     0.214 C 
ATOM     27  O   UNL     1      16.566  -2.641 -11.650  1.00  0.00    -0.332 OA
ATOM     28  C   UNL     1      19.257  -2.346 -11.950  1.00  0.00     0.180 C 
ATOM     29  C   UNL     1      17.221  -2.757 -10.398  1.00  0.00     0.179 C 
ATOM     30  C   UNL     1      18.705  -2.288 -10.499  1.00  0.00     0.177 C 
BRANCH  26  31
ATOM     31  O   UNL     1      19.148  -4.731 -12.320  1.00  0.00    -0.384 OA
ATOM     32  H   UNL     1      19.197  -5.326 -13.114  1.00  0.00     0.211 HD
ENDBRANCH  26  31
BRANCH  28  33
ATOM     33  O   UNL     1      19.074  -1.122 -12.618  1.00  0.00    -0.387 OA
ATOM     34  H   UNL     1      18.405  -1.256 -13.337  1.00  0.00     0.211 HD
ENDBRANCH  28  33
BRANCH  29  35
ATOM     35  C   UNL     1      16.978  -4.142  -9.748  1.00  0.00     0.191 C 
BRANCH  35  36
ATOM     36  O   UNL     1      17.417  -4.148  -8.413  1.00  0.00    -0.394 OA
ATOM     37  H   UNL     1      16.628  -4.342  -7.844  1.00  0.00     0.210 HD
ENDBRANCH  35  36
ENDBRANCH  29  35
BRANCH  30  38
ATOM     38  O   UNL     1      19.544  -2.965  -9.595  1.00  0.00    -0.387 OA
ATOM     39  H   UNL     1      20.439  -2.541  -9.625  1.00  0.00     0.211 HD
ENDBRANCH  30  38
ENDBRANCH   1  25
TORSDOF 11
ENDMDL
MODEL 4
REMARK VINA RESULT:    -5.890      2.350      6.521
REMARK INTER + INTRA:          -9.871
REMARK INTER:                  -8.408
REMARK INTRA:                  -1.462
REMARK UNBOUND:                -1.398
REMARK SMILES O=c1c(O[C@@H]2O[C@@H](CO)[C@@H](O)[C@H](O)[C@H]2O)c(-c2ccc(O)cc2)oc2cc(O)cc(O)c12
REMARK SMILES IDX 4 1 3 2 16 3 24 4 2 5 25 6 1 7 32 8 26 9 30 10 27 11 29 12
REMARK SMILES IDX 17 13 18 14 19 15 20 16 23 17 22 18 21 19 31 21 28 23 5 25
REMARK SMILES IDX 14 26 6 27 12 28 7 29 10 30 15 31 13 33 8 35 9 36 11 38
REMARK H PARENT 21 20 31 22 28 24 15 32 13 34 9 37 11 39
REMARK Flexibility Score: inf
ROOT
ATOM      1  O   UNL     1      17.252  -0.722 -11.900  1.00  0.00    -0.454 OA
ENDROOT
BRANCH   1   2
ATOM      2  C   UNL     1      15.919  -0.655 -12.332  1.00  0.00     0.214 A 
ATOM      3  C   UNL     1      15.392  -1.604 -13.230  1.00  0.00     0.180 A 
ATOM      4  O   UNL     1      14.114  -1.534 -13.584  1.00  0.00    -0.452 OA
ATOM      5  C   UNL     1      15.094   0.379 -11.875  1.00  0.00     0.239 A 
ATOM      6  C   UNL     1      13.283  -0.596 -13.144  1.00  0.00     0.146 A 
ATOM      7  O   UNL     1      15.605   1.277 -11.159  1.00  0.00    -0.285 OA
ATOM      8  C   UNL     1      13.727   0.406 -12.239  1.00  0.00     0.111 A 
ATOM      9  C   UNL     1      11.965  -0.607 -13.605  1.00  0.00     0.094 A 
ATOM     10  C   UNL     1      12.777   1.371 -11.777  1.00  0.00     0.134 A 
ATOM     11  C   UNL     1      11.061   0.364 -13.183  1.00  0.00     0.123 A 
ATOM     12  C   UNL     1      11.470   1.345 -12.277  1.00  0.00     0.093 A 
BRANCH   3  13
ATOM     13  C   UNL     1      16.213  -2.693 -13.802  1.00  0.00     0.021 A 
ATOM     14  C   UNL     1      17.064  -2.421 -14.885  1.00  0.00     0.016 A 
ATOM     15  C   UNL     1      17.832  -3.442 -15.453  1.00  0.00     0.047 A 
ATOM     16  C   UNL     1      17.771  -4.739 -14.937  1.00  0.00     0.115 A 
ATOM     17  C   UNL     1      16.172  -3.996 -13.273  1.00  0.00     0.016 A 
ATOM     18  C   UNL     1      16.940  -5.014 -13.844  1.00  0.00     0.047 A 
BRANCH  16  19
ATOM     19  O   UNL     1      18.547  -5.744 -15.511  1.00  0.00    -0.508 OA
ATOM     20  H   UNL     1      18.163  -6.663 -15.704  1.00  0.00     0.293 HD
ENDBRANCH  16  19
ENDBRANCH   3  13
BRANCH  10  21
ATOM     21  O   UNL     1      13.053   2.351 -10.820  1.00  0.00    -0.507 OA
ATOM     22  H   UNL     1      12.837   3.331 -10.902  1.00  0.00     0.293 HD
ENDBRANCH  10  21
BRANCH  11  23
ATOM     23  O   UNL     1       9.755   0.343 -13.668  1.00  0.00    -0.508 OA
ATOM     24  H   UNL     1       9.294   1.188 -13.986  1.00  0.00     0.293 HD
ENDBRANCH  11  23
ENDBRANCH   1   2
BRANCH   1  25
ATOM     25  C   UNL     1      17.702  -1.562 -10.829  1.00  0.00     0.339 C 
ATOM     26  C   UNL     1      19.031  -2.263 -11.235  1.00  0.00     0.214 C 
ATOM     27  O   UNL     1      17.798  -0.802  -9.629  1.00  0.00    -0.332 OA
ATOM     28  C   UNL     1      20.223  -1.794 -10.376  1.00  0.00     0.180 C 
ATOM     29  C   UNL     1      18.392  -1.520  -8.561  1.00  0.00     0.179 C 
ATOM     30  C   UNL     1      19.893  -1.825  -8.858  1.00  0.00     0.177 C 
BRANCH  26  31
ATOM     31  O   UNL     1      18.870  -3.654 -11.114  1.00  0.00    -0.384 OA
ATOM     32  H   UNL     1      18.241  -3.810 -10.360  1.00  0.00     0.211 HD
ENDBRANCH  26  31
BRANCH  28  33
ATOM     33  O   UNL     1      20.649  -0.517 -10.783  1.00  0.00    -0.387 OA
ATOM     34  H   UNL     1      19.914   0.125 -10.614  1.00  0.00     0.211 HD
ENDBRANCH  28  33
BRANCH  29  35
ATOM     35  C   UNL     1      17.519  -2.720  -8.118  1.00  0.00     0.191 C 
BRANCH  35  36
ATOM     36  O   UNL     1      17.731  -3.016  -6.761  1.00  0.00    -0.394 OA
ATOM     37  H   UNL     1      18.641  -2.696  -6.528  1.00  0.00     0.210 HD
ENDBRANCH  35  36
ENDBRANCH  29  35
BRANCH  30  38
ATOM     38  O   UNL     1      20.327  -3.019  -8.254  1.00  0.00    -0.387 OA
ATOM     39  H   UNL     1      20.786  -3.565  -8.942  1.00  0.00     0.211 HD
ENDBRANCH  30  38
ENDBRANCH   1  25
TORSDOF 11
ENDMDL
MODEL 5
REMARK VINA RESULT:    -5.885      2.549      7.514
REMARK INTER + INTRA:          -9.864
REMARK INTER:                  -8.522
REMARK INTRA:                  -1.342
REMARK UNBOUND:                -1.398
REMARK SMILES O=c1c(O[C@@H]2O[C@@H](CO)[C@@H](O)[C@H](O)[C@H]2O)c(-c2ccc(O)cc2)oc2cc(O)cc(O)c12
REMARK SMILES IDX 4 1 3 2 16 3 24 4 2 5 25 6 1 7 32 8 26 9 30 10 27 11 29 12
REMARK SMILES IDX 17 13 18 14 19 15 20 16 23 17 22 18 21 19 31 21 28 23 5 25
REMARK SMILES IDX 14 26 6 27 12 28 7 29 10 30 15 31 13 33 8 35 9 36 11 38
REMARK H PARENT 21 20 31 22 28 24 15 32 13 34 9 37 11 39
REMARK Flexibility Score: inf
ROOT
ATOM      1  O   UNL     1      16.475  -0.589 -12.863  1.00  0.00    -0.454 OA
ENDROOT
BRANCH   1   2
ATOM      2  C   UNL     1      16.896  -1.400 -13.928  1.00  0.00     0.214 A 
ATOM      3  C   UNL     1      16.565  -2.768 -13.982  1.00  0.00     0.180 A 
ATOM      4  O   UNL     1      16.945  -3.494 -15.027  1.00  0.00    -0.452 OA
ATOM      5  C   UNL     1      17.669  -0.847 -14.955  1.00  0.00     0.239 A 
ATOM      6  C   UNL     1      17.644  -3.004 -16.044  1.00  0.00     0.146 A 
ATOM      7  O   UNL     1      18.045   0.348 -14.842  1.00  0.00    -0.285 OA
ATOM      8  C   UNL     1      18.026  -1.635 -16.075  1.00  0.00     0.111 A 
ATOM      9  C   UNL     1      18.009  -3.870 -17.078  1.00  0.00     0.094 A 
ATOM     10  C   UNL     1      18.751  -1.160 -17.211  1.00  0.00     0.134 A 
ATOM     11  C   UNL     1      18.753  -3.405 -18.158  1.00  0.00     0.123 A 
ATOM     12  C   UNL     1      19.121  -2.059 -18.219  1.00  0.00     0.093 A 
BRANCH   3  13
ATOM     13  C   UNL     1      15.800  -3.440 -12.909  1.00  0.00     0.021 A 
ATOM     14  C   UNL     1      14.396  -3.407 -12.937  1.00  0.00     0.016 A 
ATOM     15  C   UNL     1      13.655  -4.017 -11.922  1.00  0.00     0.047 A 
ATOM     16  C   UNL     1      14.305  -4.681 -10.878  1.00  0.00     0.115 A 
ATOM     17  C   UNL     1      16.448  -4.127 -11.868  1.00  0.00     0.016 A 
ATOM     18  C   UNL     1      15.704  -4.735 -10.854  1.00  0.00     0.047 A 
BRANCH  16  19
ATOM     19  O   UNL     1      13.552  -5.289  -9.876  1.00  0.00    -0.508 OA
ATOM     20  H   UNL     1      13.424  -4.849  -8.971  1.00  0.00     0.293 HD
ENDBRANCH  16  19
ENDBRANCH   3  13
BRANCH  10  21
ATOM     21  O   UNL     1      19.109   0.176 -17.414  1.00  0.00    -0.507 OA
ATOM     22  H   UNL     1      19.197   0.633 -18.307  1.00  0.00     0.293 HD
ENDBRANCH  10  21
BRANCH  11  23
ATOM     23  O   UNL     1      19.119  -4.289 -19.170  1.00  0.00    -0.508 OA
ATOM     24  H   UNL     1      19.386  -5.246 -18.967  1.00  0.00     0.293 HD
ENDBRANCH  11  23
ENDBRANCH   1   2
BRANCH   1  25
ATOM     25  C   UNL     1      17.036  -0.647 -11.545  1.00  0.00     0.339 C 
ATOM     26  C   UNL     1      17.819   0.665 -11.250  1.00  0.00     0.214 C 
ATOM     27  O   UNL     1      16.014  -0.931 -10.597  1.00  0.00    -0.332 OA
ATOM     28  C   UNL     1      17.163   1.494 -10.127  1.00  0.00     0.180 C 
ATOM     29  C   UNL     1      16.458  -0.844  -9.254  1.00  0.00     0.179 C 
ATOM     30  C   UNL     1      16.830   0.625  -8.883  1.00  0.00     0.177 C 
BRANCH  26  31
ATOM     31  O   UNL     1      19.140   0.341 -10.899  1.00  0.00    -0.384 OA
ATOM     32  H   UNL     1      19.364  -0.510 -11.359  1.00  0.00     0.211 HD
ENDBRANCH  26  31
BRANCH  28  33
ATOM     33  O   UNL     1      16.020   2.158 -10.609  1.00  0.00    -0.387 OA
ATOM     34  H   UNL     1      15.229   1.591 -10.423  1.00  0.00     0.211 HD
ENDBRANCH  28  33
BRANCH  29  35
ATOM     35  C   UNL     1      17.516  -1.927  -8.927  1.00  0.00     0.191 C 
BRANCH  35  36
ATOM     36  O   UNL     1      17.586  -2.151  -7.542  1.00  0.00    -0.394 OA
ATOM     37  H   UNL     1      18.546  -2.204  -7.299  1.00  0.00     0.210 HD
ENDBRANCH  35  36
ENDBRANCH  29  35
BRANCH  30  38
ATOM     38  O   UNL     1      17.848   0.691  -7.914  1.00  0.00    -0.387 OA
ATOM     39  H   UNL     1      18.699   0.415  -8.339  1.00  0.00     0.211 HD
ENDBRANCH  30  38
ENDBRANCH   1  25
TORSDOF 11
ENDMDL
MODEL 6
REMARK VINA RESULT:    -5.849      1.693      6.369
REMARK INTER + INTRA:          -9.811
REMARK INTER:                  -8.726
REMARK INTRA:                  -1.086
REMARK UNBOUND:                -1.398
REMARK SMILES O=c1c(O[C@@H]2O[C@@H](CO)[C@@H](O)[C@H](O)[C@H]2O)c(-c2ccc(O)cc2)oc2cc(O)cc(O)c12
REMARK SMILES IDX 4 1 3 2 16 3 24 4 2 5 25 6 1 7 32 8 26 9 30 10 27 11 29 12
REMARK SMILES IDX 17 13 18 14 19 15 20 16 23 17 22 18 21 19 31 21 28 23 5 25
REMARK SMILES IDX 14 26 6 27 12 28 7 29 10 30 15 31 13 33 8 35 9 36 11 38
REMARK H PARENT 21 20 31 22 28 24 15 32 13 34 9 37 11 39
REMARK Flexibility Score: inf
ROOT
ATOM      1  O   UNL     1      16.703  -2.880 -11.931  1.00  0.00    -0.454 OA
ENDROOT
BRANCH   1   2
ATOM      2  C   UNL     1      17.134  -3.596 -13.058  1.00  0.00     0.214 A 
ATOM      3  C   UNL     1      17.344  -2.956 -14.295  1.00  0.00     0.180 A 
ATOM      4  O   UNL     1      17.793  -3.658 -15.330  1.00  0.00    -0.452 OA
ATOM      5  C   UNL     1      17.352  -4.975 -12.961  1.00  0.00     0.239 A 
ATOM      6  C   UNL     1      18.053  -4.959 -15.274  1.00  0.00     0.146 A 
ATOM      7  O   UNL     1      17.060  -5.550 -11.882  1.00  0.00    -0.285 OA
ATOM      8  C   UNL     1      17.867  -5.689 -14.069  1.00  0.00     0.111 A 
ATOM      9  C   UNL     1      18.498  -5.597 -16.434  1.00  0.00     0.094 A 
ATOM     10  C   UNL     1      18.193  -7.081 -14.064  1.00  0.00     0.134 A 
ATOM     11  C   UNL     1      18.769  -6.963 -16.428  1.00  0.00     0.123 A 
ATOM     12  C   UNL     1      18.614  -7.696 -15.249  1.00  0.00     0.093 A 
BRANCH   3  13
ATOM     13  C   UNL     1      17.084  -1.514 -14.494  1.00  0.00     0.021 A 
ATOM     14  C   UNL     1      18.163  -0.638 -14.697  1.00  0.00     0.016 A 
ATOM     15  C   UNL     1      17.940   0.731 -14.866  1.00  0.00     0.047 A 
ATOM     16  C   UNL     1      16.638   1.239 -14.851  1.00  0.00     0.115 A 
ATOM     17  C   UNL     1      15.775  -1.000 -14.502  1.00  0.00     0.016 A 
ATOM     18  C   UNL     1      15.555   0.369 -14.669  1.00  0.00     0.047 A 
BRANCH  16  19
ATOM     19  O   UNL     1      16.431   2.605 -15.025  1.00  0.00    -0.508 OA
ATOM     20  H   UNL     1      16.663   3.068 -15.897  1.00  0.00     0.293 HD
ENDBRANCH  16  19
ENDBRANCH   3  13
BRANCH  10  21
ATOM     21  O   UNL     1      18.145  -7.897 -12.929  1.00  0.00    -0.507 OA
ATOM     22  H   UNL     1      17.911  -8.875 -12.917  1.00  0.00     0.293 HD
ENDBRANCH  10  21
BRANCH  11  23
ATOM     23  O   UNL     1      19.198  -7.582 -17.600  1.00  0.00    -0.508 OA
ATOM     24  H   UNL     1      19.904  -8.311 -17.587  1.00  0.00     0.293 HD
ENDBRANCH  11  23
ENDBRANCH   1   2
BRANCH   1  25
ATOM     25  C   UNL     1      17.440  -2.805 -10.704  1.00  0.00     0.339 C 
ATOM     26  C   UNL     1      18.825  -2.146 -10.962  1.00  0.00     0.214 C 
ATOM     27  O   UNL     1      16.663  -2.139  -9.715  1.00  0.00    -0.332 OA
ATOM     28  C   UNL     1      18.959  -0.779 -10.260  1.00  0.00     0.180 C 
ATOM     29  C   UNL     1      17.381  -1.879  -8.522  1.00  0.00     0.179 C 
ATOM     30  C   UNL     1      18.524  -0.846  -8.770  1.00  0.00     0.177 C 
BRANCH  26  31
ATOM     31  O   UNL     1      19.836  -3.015 -10.518  1.00  0.00    -0.384 OA
ATOM     32  H   UNL     1      19.914  -3.739 -11.193  1.00  0.00     0.211 HD
ENDBRANCH  26  31
BRANCH  28  33
ATOM     33  O   UNL     1      18.240   0.207 -10.961  1.00  0.00    -0.387 OA
ATOM     34  H   UNL     1      17.273   0.053 -10.809  1.00  0.00     0.211 HD
ENDBRANCH  28  33
BRANCH  29  35
ATOM     35  C   UNL     1      17.780  -3.188  -7.795  1.00  0.00     0.191 C 
BRANCH  35  36
ATOM     36  O   UNL     1      17.747  -3.012  -6.401  1.00  0.00    -0.394 OA
ATOM     37  H   UNL     1      17.615  -2.044  -6.228  1.00  0.00     0.210 HD
ENDBRANCH  35  36
ENDBRANCH  29  35
BRANCH  30  38
ATOM     38  O   UNL     1      19.622  -1.046  -7.914  1.00  0.00    -0.387 OA
ATOM     39  H   UNL     1      19.523  -1.934  -7.485  1.00  0.00     0.211 HD
ENDBRANCH  30  38
ENDBRANCH   1  25
TORSDOF 11
ENDMDL
MODEL 7
REMARK VINA RESULT:    -5.794      3.573      6.457
REMARK INTER + INTRA:          -9.733
REMARK INTER:                  -8.424
REMARK INTRA:                  -1.309
REMARK UNBOUND:                -1.398
REMARK SMILES O=c1c(O[C@@H]2O[C@@H](CO)[C@@H](O)[C@H](O)[C@H]2O)c(-c2ccc(O)cc2)oc2cc(O)cc(O)c12
REMARK SMILES IDX 4 1 3 2 16 3 24 4 2 5 25 6 1 7 32 8 26 9 30 10 27 11 29 12
REMARK SMILES IDX 17 13 18 14 19 15 20 16 23 17 22 18 21 19 31 21 28 23 5 25
REMARK SMILES IDX 14 26 6 27 12 28 7 29 10 30 15 31 13 33 8 35 9 36 11 38
REMARK H PARENT 21 20 31 22 28 24 15 32 13 34 9 37 11 39
REMARK Flexibility Score: inf
ROOT
ATOM      1  O   UNL     1      17.214   0.814  -9.741  1.00  0.00    -0.454 OA
ENDROOT
BRANCH   1   2
ATOM      2  C   UNL     1      15.842   1.102  -9.682  1.00  0.00     0.214 A 
ATOM      3  C   UNL     1      14.952   0.628 -10.666  1.00  0.00     0.180 A 
ATOM      4  O   UNL     1      13.654   0.884 -10.555  1.00  0.00    -0.452 OA
ATOM      5  C   UNL     1      15.342   1.883  -8.634  1.00  0.00     0.239 A 
ATOM      6  C   UNL     1      13.129   1.584  -9.557  1.00  0.00     0.146 A 
ATOM      7  O   UNL     1      16.160   2.385  -7.822  1.00  0.00    -0.285 OA
ATOM      8  C   UNL     1      13.950   2.105  -8.520  1.00  0.00     0.111 A 
ATOM      9  C   UNL     1      11.751   1.811  -9.558  1.00  0.00     0.094 A 
ATOM     10  C   UNL     1      13.322   2.826  -7.457  1.00  0.00     0.134 A 
ATOM     11  C   UNL     1      11.157   2.552  -8.540  1.00  0.00     0.123 A 
ATOM     12  C   UNL     1      11.942   3.056  -7.500  1.00  0.00     0.093 A 
BRANCH   3  13
ATOM     13  C   UNL     1      15.409  -0.156 -11.835  1.00  0.00     0.021 A 
ATOM     14  C   UNL     1      15.149  -1.534 -11.887  1.00  0.00     0.016 A 
ATOM     15  C   UNL     1      15.590  -2.296 -12.972  1.00  0.00     0.047 A 
ATOM     16  C   UNL     1      16.282  -1.689 -14.024  1.00  0.00     0.115 A 
ATOM     17  C   UNL     1      16.086   0.454 -12.906  1.00  0.00     0.016 A 
ATOM     18  C   UNL     1      16.528  -0.311 -13.989  1.00  0.00     0.047 A 
BRANCH  16  19
ATOM     19  O   UNL     1      16.711  -2.461 -15.101  1.00  0.00    -0.508 OA
ATOM     20  H   UNL     1      16.867  -2.052 -16.015  1.00  0.00     0.293 HD
ENDBRANCH  16  19
ENDBRANCH   3  13
BRANCH  10  21
ATOM     21  O   UNL     1      13.993   3.312  -6.331  1.00  0.00    -0.507 OA
ATOM     22  H   UNL     1      14.872   3.804  -6.337  1.00  0.00     0.293 HD
ENDBRANCH  10  21
BRANCH  11  23
ATOM     23  O   UNL     1       9.783   2.779  -8.568  1.00  0.00    -0.508 OA
ATOM     24  H   UNL     1       9.210   2.465  -9.344  1.00  0.00     0.293 HD
ENDBRANCH  11  23
ENDBRANCH   1   2
BRANCH   1  25
ATOM     25  C   UNL     1      17.780  -0.456  -9.395  1.00  0.00     0.339 C 
ATOM     26  C   UNL     1      18.837  -0.868 -10.460  1.00  0.00     0.214 C 
ATOM     27  O   UNL     1      18.290  -0.411  -8.067  1.00  0.00    -0.332 OA
ATOM     28  C   UNL     1      20.264  -0.911  -9.877  1.00  0.00     0.180 C 
ATOM     29  C   UNL     1      19.011  -1.577  -7.707  1.00  0.00     0.179 C 
ATOM     30  C   UNL     1      20.323  -1.704  -8.542  1.00  0.00     0.177 C 
BRANCH  26  31
ATOM     31  O   UNL     1      18.494  -2.127 -10.982  1.00  0.00    -0.384 OA
ATOM     32  H   UNL     1      19.171  -2.349 -11.674  1.00  0.00     0.211 HD
ENDBRANCH  26  31
BRANCH  28  33
ATOM     33  O   UNL     1      20.771   0.392  -9.723  1.00  0.00    -0.387 OA
ATOM     34  H   UNL     1      20.702   0.642  -8.767  1.00  0.00     0.211 HD
ENDBRANCH  28  33
BRANCH  29  35
ATOM     35  C   UNL     1      18.098  -2.827  -7.662  1.00  0.00     0.191 C 
BRANCH  35  36
ATOM     36  O   UNL     1      17.699  -3.104  -6.344  1.00  0.00    -0.394 OA
ATOM     37  H   UNL     1      16.804  -3.531  -6.390  1.00  0.00     0.210 HD
ENDBRANCH  35  36
ENDBRANCH  29  35
BRANCH  30  38
ATOM     38  O   UNL     1      20.699  -3.044  -8.747  1.00  0.00    -0.387 OA
ATOM     39  H   UNL     1      20.990  -3.143  -9.689  1.00  0.00     0.211 HD
ENDBRANCH  30  38
ENDBRANCH   1  25
TORSDOF 11
ENDMDL
MODEL 8
REMARK VINA RESULT:    -5.793      1.729      6.174
REMARK INTER + INTRA:          -9.731
REMARK INTER:                  -8.381
REMARK INTRA:                  -1.350
REMARK UNBOUND:                -1.398
REMARK SMILES O=c1c(O[C@@H]2O[C@@H](CO)[C@@H](O)[C@H](O)[C@H]2O)c(-c2ccc(O)cc2)oc2cc(O)cc(O)c12
REMARK SMILES IDX 4 1 3 2 16 3 24 4 2 5 25 6 1 7 32 8 26 9 30 10 27 11 29 12
REMARK SMILES IDX 17 13 18 14 19 15 20 16 23 17 22 18 21 19 31 21 28 23 5 25
REMARK SMILES IDX 14 26 6 27 12 28 7 29 10 30 15 31 13 33 8 35 9 36 11 38
REMARK H PARENT 21 20 31 22 28 24 15 32 13 34 9 37 11 39
REMARK Flexibility Score: inf
ROOT
ATOM      1  O   UNL     1      16.611  -2.215 -11.446  1.00  0.00    -0.454 OA
ENDROOT
BRANCH   1   2
ATOM      2  C   UNL     1      16.980  -2.883 -12.623  1.00  0.00     0.214 A 
ATOM      3  C   UNL     1      17.021  -2.215 -13.862  1.00  0.00     0.180 A 
ATOM      4  O   UNL     1      17.417  -2.868 -14.948  1.00  0.00    -0.452 OA
ATOM      5  C   UNL     1      17.305  -4.244 -12.574  1.00  0.00     0.239 A 
ATOM      6  C   UNL     1      17.774  -4.147 -14.943  1.00  0.00     0.146 A 
ATOM      7  O   UNL     1      17.163  -4.852 -11.483  1.00  0.00    -0.285 OA
ATOM      8  C   UNL     1      17.761  -4.904 -13.739  1.00  0.00     0.111 A 
ATOM      9  C   UNL     1      18.149  -4.737 -16.152  1.00  0.00     0.094 A 
ATOM     10  C   UNL     1      18.185  -6.268 -13.792  1.00  0.00     0.134 A 
ATOM     11  C   UNL     1      18.518  -6.079 -16.198  1.00  0.00     0.123 A 
ATOM     12  C   UNL     1      18.532  -6.835 -15.024  1.00  0.00     0.093 A 
BRANCH   3  13
ATOM     13  C   UNL     1      16.639  -0.793 -14.007  1.00  0.00     0.021 A 
ATOM     14  C   UNL     1      17.632   0.198 -13.956  1.00  0.00     0.016 A 
ATOM     15  C   UNL     1      17.289   1.548 -14.069  1.00  0.00     0.047 A 
ATOM     16  C   UNL     1      15.955   1.923 -14.251  1.00  0.00     0.115 A 
ATOM     17  C   UNL     1      15.301  -0.412 -14.212  1.00  0.00     0.016 A 
ATOM     18  C   UNL     1      14.961   0.939 -14.324  1.00  0.00     0.047 A 
BRANCH  16  19
ATOM     19  O   UNL     1      15.629   3.272 -14.368  1.00  0.00    -0.508 OA
ATOM     20  H   UNL     1      15.266   3.655 -15.234  1.00  0.00     0.293 HD
ENDBRANCH  16  19
ENDBRANCH   3  13
BRANCH  10  21
ATOM     21  O   UNL     1      18.308  -7.098 -12.675  1.00  0.00    -0.507 OA
ATOM     22  H   UNL     1      18.060  -8.073 -12.636  1.00  0.00     0.293 HD
ENDBRANCH  10  21
BRANCH  11  23
ATOM     23  O   UNL     1      18.873  -6.650 -17.418  1.00  0.00    -0.508 OA
ATOM     24  H   UNL     1      18.785  -7.647 -17.582  1.00  0.00     0.293 HD
ENDBRANCH  11  23
ENDBRANCH   1   2
BRANCH   1  25
ATOM     25  C   UNL     1      17.549  -1.667 -10.510  1.00  0.00     0.339 C 
ATOM     26  C   UNL     1      16.964  -1.750  -9.071  1.00  0.00     0.214 C 
ATOM     27  O   UNL     1      18.808  -2.314 -10.655  1.00  0.00    -0.332 OA
ATOM     28  C   UNL     1      17.764  -2.714  -8.172  1.00  0.00     0.180 C 
ATOM     29  C   UNL     1      19.744  -1.944  -9.657  1.00  0.00     0.179 C 
ATOM     30  C   UNL     1      19.293  -2.450  -8.252  1.00  0.00     0.177 C 
BRANCH  26  31
ATOM     31  O   UNL     1      16.954  -0.463  -8.506  1.00  0.00    -0.384 OA
ATOM     32  H   UNL     1      16.696  -0.566  -7.552  1.00  0.00     0.211 HD
ENDBRANCH  26  31
BRANCH  28  33
ATOM     33  O   UNL     1      17.456  -4.050  -8.487  1.00  0.00    -0.387 OA
ATOM     34  H   UNL     1      17.616  -4.605  -7.682  1.00  0.00     0.211 HD
ENDBRANCH  28  33
BRANCH  29  35
ATOM     35  C   UNL     1      20.132  -0.448  -9.760  1.00  0.00     0.191 C 
BRANCH  35  36
ATOM     36  O   UNL     1      21.311  -0.190  -9.040  1.00  0.00    -0.394 OA
ATOM     37  H   UNL     1      22.021  -0.772  -9.417  1.00  0.00     0.210 HD
ENDBRANCH  35  36
ENDBRANCH  29  35
BRANCH  30  38
ATOM     38  O   UNL     1      19.732  -1.609  -7.214  1.00  0.00    -0.387 OA
ATOM     39  H   UNL     1      19.443  -2.004  -6.352  1.00  0.00     0.211 HD
ENDBRANCH  30  38
ENDBRANCH   1  25
TORSDOF 11
ENDMDL
MODEL 9
REMARK VINA RESULT:    -5.792      2.657      4.624
REMARK INTER + INTRA:          -9.730
REMARK INTER:                  -8.314
REMARK INTRA:                  -1.416
REMARK UNBOUND:                -1.398
REMARK SMILES O=c1c(O[C@@H]2O[C@@H](CO)[C@@H](O)[C@H](O)[C@H]2O)c(-c2ccc(O)cc2)oc2cc(O)cc(O)c12
REMARK SMILES IDX 4 1 3 2 16 3 24 4 2 5 25 6 1 7 32 8 26 9 30 10 27 11 29 12
REMARK SMILES IDX 17 13 18 14 19 15 20 16 23 17 22 18 21 19 31 21 28 23 5 25
REMARK SMILES IDX 14 26 6 27 12 28 7 29 10 30 15 31 13 33 8 35 9 36 11 38
REMARK H PARENT 21 20 31 22 28 24 15 32 13 34 9 37 11 39
REMARK Flexibility Score: inf
ROOT
ATOM      1  O   UNL     1      15.345  -4.583 -13.923  1.00  0.00    -0.454 OA
ENDROOT
BRANCH   1   2
ATOM      2  C   UNL     1      15.768  -4.179 -12.648  1.00  0.00     0.214 A 
ATOM      3  C   UNL     1      15.111  -4.621 -11.483  1.00  0.00     0.180 A 
ATOM      4  O   UNL     1      15.565  -4.252 -10.292  1.00  0.00    -0.452 OA
ATOM      5  C   UNL     1      16.857  -3.309 -12.524  1.00  0.00     0.239 A 
ATOM      6  C   UNL     1      16.620  -3.462 -10.124  1.00  0.00     0.146 A 
ATOM      7  O   UNL     1      17.368  -2.839 -13.572  1.00  0.00    -0.285 OA
ATOM      8  C   UNL     1      17.343  -2.963 -11.240  1.00  0.00     0.111 A 
ATOM      9  C   UNL     1      16.992  -3.119  -8.822  1.00  0.00     0.094 A 
ATOM     10  C   UNL     1      18.488  -2.142 -10.994  1.00  0.00     0.134 A 
ATOM     11  C   UNL     1      18.082  -2.282  -8.596  1.00  0.00     0.123 A 
ATOM     12  C   UNL     1      18.820  -1.798  -9.678  1.00  0.00     0.093 A 
BRANCH   3  13
ATOM     13  C   UNL     1      13.919  -5.496 -11.532  1.00  0.00     0.021 A 
ATOM     14  C   UNL     1      12.660  -4.968 -11.204  1.00  0.00     0.016 A 
ATOM     15  C   UNL     1      11.525  -5.783 -11.223  1.00  0.00     0.047 A 
ATOM     16  C   UNL     1      11.631  -7.129 -11.585  1.00  0.00     0.115 A 
ATOM     17  C   UNL     1      14.016  -6.845 -11.916  1.00  0.00     0.016 A 
ATOM     18  C   UNL     1      12.880  -7.658 -11.933  1.00  0.00     0.047 A 
BRANCH  16  19
ATOM     19  O   UNL     1      10.490  -7.927 -11.604  1.00  0.00    -0.508 OA
ATOM     20  H   UNL     1       9.632  -7.613 -12.043  1.00  0.00     0.293 HD
ENDBRANCH  16  19
ENDBRANCH   3  13
BRANCH  10  21
ATOM     21  O   UNL     1      19.341  -1.661 -11.991  1.00  0.00    -0.507 OA
ATOM     22  H   UNL     1      19.054  -1.272 -12.874  1.00  0.00     0.293 HD
ENDBRANCH  10  21
BRANCH  11  23
ATOM     23  O   UNL     1      18.426  -1.942  -7.290  1.00  0.00    -0.508 OA
ATOM     24  H   UNL     1      18.449  -2.634  -6.550  1.00  0.00     0.293 HD
ENDBRANCH  11  23
ENDBRANCH   1   2
BRANCH   1  25
ATOM     25  C   UNL     1      15.919  -5.681 -14.643  1.00  0.00     0.339 C 
ATOM     26  C   UNL     1      16.091  -5.293 -16.141  1.00  0.00     0.214 C 
ATOM     27  O   UNL     1      17.128  -6.091 -14.015  1.00  0.00    -0.332 OA
ATOM     28  C   UNL     1      17.575  -5.214 -16.554  1.00  0.00     0.180 C 
ATOM     29  C   UNL     1      17.842  -7.064 -14.758  1.00  0.00     0.179 C 
ATOM     30  C   UNL     1      18.374  -6.465 -16.097  1.00  0.00     0.177 C 
BRANCH  26  31
ATOM     31  O   UNL     1      15.421  -6.236 -16.938  1.00  0.00    -0.384 OA
ATOM     32  H   UNL     1      15.562  -7.125 -16.518  1.00  0.00     0.211 HD
ENDBRANCH  26  31
BRANCH  28  33
ATOM     33  O   UNL     1      18.158  -4.028 -16.070  1.00  0.00    -0.387 OA
ATOM     34  H   UNL     1      17.568  -3.656 -15.366  1.00  0.00     0.211 HD
ENDBRANCH  28  33
BRANCH  29  35
ATOM     35  C   UNL     1      17.060  -8.397 -14.861  1.00  0.00     0.191 C 
BRANCH  35  36
ATOM     36  O   UNL     1      17.936  -9.471 -15.092  1.00  0.00    -0.394 OA
ATOM     37  H   UNL     1      17.566 -10.261 -14.619  1.00  0.00     0.210 HD
ENDBRANCH  35  36
ENDBRANCH  29  35
BRANCH  30  38
ATOM     38  O   UNL     1      18.461  -7.429 -17.118  1.00  0.00    -0.387 OA
ATOM     39  H   UNL     1      17.919  -7.118 -17.886  1.00  0.00     0.211 HD
ENDBRANCH  30  38
ENDBRANCH   1  25
TORSDOF 11
ENDMDL
