MODEL 1
REMARK VINA RESULT:    -3.709      0.000      0.000
REMARK INTER + INTRA:         -14.021
REMARK INTER:                  -9.779
REMARK INTRA:                  -4.242
REMARK UNBOUND:                -4.242
REMARK SMILES CCCCCCCCCCCCCCCCCCCCCCCCCCCCCC(=O)[O-]
REMARK SMILES IDX 16 1 17 2 18 3 19 4 20 5 21 6 22 7 23 8 24 9 25 10 26 11
REMARK SMILES IDX 27 12 28 13 29 14 30 15 31 16 32 17 15 18 14 19 13 20 12 21
REMARK SMILES IDX 11 22 10 23 9 24 8 25 7 26 6 27 5 28 4 29 3 30 2 31 1 32
REMARK H PARENT
REMARK Flexibility Score: inf
ROOT
ATOM      1  C   UNL     1       7.632   3.995  -4.477  1.00  0.00     0.000 C 
ENDROOT
BRANCH   1   2
ATOM      2  C   UNL     1       6.521   4.499  -5.415  1.00  0.00     0.000 C 
BRANCH   2   3
ATOM      3  C   UNL     1       5.663   3.352  -5.986  1.00  0.00     0.000 C 
BRANCH   3   4
ATOM      4  C   UNL     1       5.648   3.292  -7.525  1.00  0.00     0.000 C 
BRANCH   4   5
ATOM      5  C   UNL     1       6.491   4.409  -8.170  1.00  0.00     0.000 C 
BRANCH   5   6
ATOM      6  C   UNL     1       6.047   4.714  -9.610  1.00  0.00     0.000 C 
BRANCH   6   7
ATOM      7  C   UNL     1       7.181   5.359 -10.431  1.00  0.00     0.000 C 
BRANCH   7   8
ATOM      8  C   UNL     1       8.497   4.571 -10.347  1.00  0.00     0.000 C 
BRANCH   8   9
ATOM      9  C   UNL     1       9.685   5.449  -9.918  1.00  0.00     0.000 C 
BRANCH   9  10
ATOM     10  C   UNL     1       9.244   6.615  -9.018  1.00  0.00     0.000 C 
BRANCH  10  11
ATOM     11  C   UNL     1       9.823   7.958  -9.487  1.00  0.00     0.000 C 
BRANCH  11  12
ATOM     12  C   UNL     1       8.984   8.594 -10.604  1.00  0.00     0.000 C 
BRANCH  12  13
ATOM     13  C   UNL     1       7.546   8.946 -10.156  1.00  0.00     0.006 C 
BRANCH  13  14
ATOM     14  C   UNL     1       7.209  10.422 -10.400  1.00  0.00     0.053 C 
BRANCH  14  15
ATOM     15  C   UNL     1       7.457  11.225  -9.159  1.00  0.00     0.041 C 
ATOM     16  O   UNL     1       7.670  10.644  -8.062  1.00  0.00    -0.550 OA
ATOM     17  O   UNL     1       7.520  12.611  -9.228  1.00  0.00    -0.550 OA
ENDBRANCH  14  15
ENDBRANCH  13  14
ENDBRANCH  12  13
ENDBRANCH  11  12
ENDBRANCH  10  11
ENDBRANCH   9  10
ENDBRANCH   8   9
ENDBRANCH   7   8
ENDBRANCH   6   7
ENDBRANCH   5   6
ENDBRANCH   4   5
ENDBRANCH   3   4
ENDBRANCH   2   3
ENDBRANCH   1   2
BRANCH   1  18
ATOM     18  C   UNL     1       7.961   2.507  -4.684  1.00  0.00     0.000 C 
BRANCH  18  19
ATOM     19  C   UNL     1       9.330   2.251  -5.343  1.00  0.00     0.000 C 
BRANCH  19  20
ATOM     20  C   UNL     1       9.317   2.479  -6.867  1.00  0.00     0.000 C 
BRANCH  20  21
ATOM     21  C   UNL     1       8.650   1.308  -7.610  1.00  0.00     0.000 C 
BRANCH  21  22
ATOM     22  C   UNL     1       9.066   1.266  -9.092  1.00  0.00     0.000 C 
BRANCH  22  23
ATOM     23  C   UNL     1       8.080   0.492  -9.983  1.00  0.00     0.000 C 
BRANCH  23  24
ATOM     24  C   UNL     1       6.833   1.286 -10.428  1.00  0.00    -0.000 C 
BRANCH  24  25
ATOM     25  C   UNL     1       5.481   0.599 -10.163  1.00  0.00    -0.000 C 
BRANCH  25  26
ATOM     26  C   UNL     1       5.598  -0.932 -10.039  1.00  0.00    -0.000 C 
BRANCH  26  27
ATOM     27  C   UNL     1       4.258  -1.607  -9.693  1.00  0.00    -0.000 C 
BRANCH  27  28
ATOM     28  C   UNL     1       3.795  -2.677 -10.700  1.00  0.00    -0.000 C 
BRANCH  28  29
ATOM     29  C   UNL     1       3.661  -4.086 -10.083  1.00  0.00    -0.000 C 
BRANCH  29  30
ATOM     30  C   UNL     1       4.675  -5.076 -10.674  1.00  0.00    -0.000 C 
BRANCH  30  31
ATOM     31  C   UNL     1       5.845  -5.315  -9.715  1.00  0.00    -0.003 C 
ATOM     32  C   UNL     1       7.023  -4.397 -10.041  1.00  0.00     0.004 C 
ENDBRANCH  30  31
ENDBRANCH  29  30
ENDBRANCH  28  29
ENDBRANCH  27  28
ENDBRANCH  26  27
ENDBRANCH  25  26
ENDBRANCH  24  25
ENDBRANCH  23  24
ENDBRANCH  22  23
ENDBRANCH  21  22
ENDBRANCH  20  21
ENDBRANCH  19  20
ENDBRANCH  18  19
ENDBRANCH   1  18
TORSDOF 28
ENDMDL
MODEL 2
REMARK VINA RESULT:    -3.531      2.144      4.624
REMARK INTER + INTRA:         -13.554
REMARK INTER:                 -10.382
REMARK INTRA:                  -3.172
REMARK UNBOUND:                -4.242
REMARK SMILES CCCCCCCCCCCCCCCCCCCCCCCCCCCCCC(=O)[O-]
REMARK SMILES IDX 16 1 17 2 18 3 19 4 20 5 21 6 22 7 23 8 24 9 25 10 26 11
REMARK SMILES IDX 27 12 28 13 29 14 30 15 31 16 32 17 15 18 14 19 13 20 12 21
REMARK SMILES IDX 11 22 10 23 9 24 8 25 7 26 6 27 5 28 4 29 3 30 2 31 1 32
REMARK H PARENT
REMARK Flexibility Score: inf
ROOT
ATOM      1  C   UNL     1       5.819   3.758  -7.401  1.00  0.00     0.000 C 
ENDROOT
BRANCH   1   2
ATOM      2  C   UNL     1       6.185   4.365  -6.035  1.00  0.00     0.000 C 
BRANCH   2   3
ATOM      3  C   UNL     1       6.937   3.370  -5.127  1.00  0.00     0.000 C 
BRANCH   3   4
ATOM      4  C   UNL     1       8.469   3.436  -5.268  1.00  0.00     0.000 C 
BRANCH   4   5
ATOM      5  C   UNL     1       9.190   2.370  -4.419  1.00  0.00     0.000 C 
BRANCH   5   6
ATOM      6  C   UNL     1       9.036   0.958  -5.007  1.00  0.00     0.000 C 
BRANCH   6   7
ATOM      7  C   UNL     1       9.963   0.742  -6.219  1.00  0.00     0.000 C 
BRANCH   7   8
ATOM      8  C   UNL     1       9.616   1.659  -7.403  1.00  0.00     0.000 C 
BRANCH   8   9
ATOM      9  C   UNL     1       8.307   1.252  -8.102  1.00  0.00     0.000 C 
BRANCH   9  10
ATOM     10  C   UNL     1       8.537   0.864  -9.572  1.00  0.00     0.000 C 
BRANCH  10  11
ATOM     11  C   UNL     1       9.831   1.474 -10.134  1.00  0.00     0.000 C 
BRANCH  11  12
ATOM     12  C   UNL     1       9.553   2.621 -11.115  1.00  0.00     0.000 C 
BRANCH  12  13
ATOM     13  C   UNL     1      10.021   3.997 -10.586  1.00  0.00     0.006 C 
BRANCH  13  14
ATOM     14  C   UNL     1       8.917   5.058 -10.679  1.00  0.00     0.053 C 
BRANCH  14  15
ATOM     15  C   UNL     1       9.287   6.267  -9.874  1.00  0.00     0.041 C 
ATOM     16  O   UNL     1       9.506   7.367 -10.449  1.00  0.00    -0.550 OA
ATOM     17  O   UNL     1       9.324   6.196  -8.488  1.00  0.00    -0.550 OA
ENDBRANCH  14  15
ENDBRANCH  13  14
ENDBRANCH  12  13
ENDBRANCH  11  12
ENDBRANCH  10  11
ENDBRANCH   9  10
ENDBRANCH   8   9
ENDBRANCH   7   8
ENDBRANCH   6   7
ENDBRANCH   5   6
ENDBRANCH   4   5
ENDBRANCH   3   4
ENDBRANCH   2   3
ENDBRANCH   1   2
BRANCH   1  18
ATOM     18  C   UNL     1       6.020   4.742  -8.565  1.00  0.00     0.000 C 
BRANCH  18  19
ATOM     19  C   UNL     1       5.039   4.539  -9.737  1.00  0.00     0.000 C 
BRANCH  19  20
ATOM     20  C   UNL     1       5.137   3.137 -10.368  1.00  0.00     0.000 C 
BRANCH  20  21
ATOM     21  C   UNL     1       3.832   2.341 -10.188  1.00  0.00     0.000 C 
BRANCH  21  22
ATOM     22  C   UNL     1       3.865   1.013 -10.967  1.00  0.00     0.000 C 
BRANCH  22  23
ATOM     23  C   UNL     1       5.132   0.181 -10.708  1.00  0.00     0.000 C 
BRANCH  23  24
ATOM     24  C   UNL     1       4.899  -1.163  -9.984  1.00  0.00    -0.000 C 
BRANCH  24  25
ATOM     25  C   UNL     1       4.526  -2.349 -10.892  1.00  0.00    -0.000 C 
BRANCH  25  26
ATOM     26  C   UNL     1       3.483  -3.288 -10.257  1.00  0.00    -0.000 C 
BRANCH  26  27
ATOM     27  C   UNL     1       3.187  -4.526 -11.125  1.00  0.00    -0.000 C 
BRANCH  27  28
ATOM     28  C   UNL     1       4.002  -5.781 -10.759  1.00  0.00    -0.000 C 
BRANCH  28  29
ATOM     29  C   UNL     1       4.437  -5.822  -9.278  1.00  0.00    -0.000 C 
BRANCH  29  30
ATOM     30  C   UNL     1       5.935  -6.122  -9.122  1.00  0.00    -0.000 C 
BRANCH  30  31
ATOM     31  C   UNL     1       6.725  -5.674 -10.356  1.00  0.00    -0.003 C 
ATOM     32  C   UNL     1       7.340  -4.291 -10.145  1.00  0.00     0.004 C 
ENDBRANCH  30  31
ENDBRANCH  29  30
ENDBRANCH  28  29
ENDBRANCH  27  28
ENDBRANCH  26  27
ENDBRANCH  25  26
ENDBRANCH  24  25
ENDBRANCH  23  24
ENDBRANCH  22  23
ENDBRANCH  21  22
ENDBRANCH  20  21
ENDBRANCH  19  20
ENDBRANCH  18  19
ENDBRANCH   1  18
TORSDOF 28
ENDMDL
MODEL 3
REMARK VINA RESULT:    -3.464      1.527      3.315
REMARK INTER + INTRA:         -13.376
REMARK INTER:                  -9.571
REMARK INTRA:                  -3.805
REMARK UNBOUND:                -4.242
REMARK SMILES CCCCCCCCCCCCCCCCCCCCCCCCCCCCCC(=O)[O-]
REMARK SMILES IDX 16 1 17 2 18 3 19 4 20 5 21 6 22 7 23 8 24 9 25 10 26 11
REMARK SMILES IDX 27 12 28 13 29 14 30 15 31 16 32 17 15 18 14 19 13 20 12 21
REMARK SMILES IDX 11 22 10 23 9 24 8 25 7 26 6 27 5 28 4 29 3 30 2 31 1 32
REMARK H PARENT
REMARK Flexibility Score: inf
ROOT
ATOM      1  C   UNL     1       6.415   4.736  -5.196  1.00  0.00     0.000 C 
ENDROOT
BRANCH   1   2
ATOM      2  C   UNL     1       7.526   3.852  -4.603  1.00  0.00     0.000 C 
BRANCH   2   3
ATOM      3  C   UNL     1       7.257   2.347  -4.805  1.00  0.00     0.000 C 
BRANCH   3   4
ATOM      4  C   UNL     1       8.507   1.538  -5.198  1.00  0.00     0.000 C 
BRANCH   4   5
ATOM      5  C   UNL     1       9.363   2.249  -6.265  1.00  0.00     0.000 C 
BRANCH   5   6
ATOM      6  C   UNL     1       9.557   1.387  -7.523  1.00  0.00     0.000 C 
BRANCH   6   7
ATOM      7  C   UNL     1       8.236   1.202  -8.295  1.00  0.00     0.000 C 
BRANCH   7   8
ATOM      8  C   UNL     1       8.447   0.614  -9.700  1.00  0.00     0.000 C 
BRANCH   8   9
ATOM      9  C   UNL     1       9.631   1.259 -10.439  1.00  0.00     0.000 C 
BRANCH   9  10
ATOM     10  C   UNL     1       9.246   2.602 -11.082  1.00  0.00     0.000 C 
BRANCH  10  11
ATOM     11  C   UNL     1       9.497   3.788 -10.136  1.00  0.00     0.000 C 
BRANCH  11  12
ATOM     12  C   UNL     1       9.308   5.139 -10.839  1.00  0.00     0.000 C 
BRANCH  12  13
ATOM     13  C   UNL     1       9.450   6.345  -9.881  1.00  0.00     0.006 C 
BRANCH  13  14
ATOM     14  C   UNL     1       8.188   7.216  -9.856  1.00  0.00     0.053 C 
BRANCH  14  15
ATOM     15  C   UNL     1       8.270   8.221  -8.748  1.00  0.00     0.041 C 
ATOM     16  O   UNL     1       9.102   8.067  -7.815  1.00  0.00    -0.550 OA
ATOM     17  O   UNL     1       7.475   9.360  -8.780  1.00  0.00    -0.550 OA
ENDBRANCH  14  15
ENDBRANCH  13  14
ENDBRANCH  12  13
ENDBRANCH  11  12
ENDBRANCH  10  11
ENDBRANCH   9  10
ENDBRANCH   8   9
ENDBRANCH   7   8
ENDBRANCH   6   7
ENDBRANCH   5   6
ENDBRANCH   4   5
ENDBRANCH   3   4
ENDBRANCH   2   3
ENDBRANCH   1   2
BRANCH   1  18
ATOM     18  C   UNL     1       6.855   5.476  -6.471  1.00  0.00     0.000 C 
BRANCH  18  19
ATOM     19  C   UNL     1       6.708   4.647  -7.762  1.00  0.00     0.000 C 
BRANCH  19  20
ATOM     20  C   UNL     1       5.601   3.580  -7.670  1.00  0.00     0.000 C 
BRANCH  20  21
ATOM     21  C   UNL     1       4.794   3.486  -8.977  1.00  0.00     0.000 C 
BRANCH  21  22
ATOM     22  C   UNL     1       5.676   3.038 -10.157  1.00  0.00     0.000 C 
BRANCH  22  23
ATOM     23  C   UNL     1       4.966   2.077 -11.124  1.00  0.00     0.000 C 
BRANCH  23  24
ATOM     24  C   UNL     1       3.837   1.229 -10.497  1.00  0.00    -0.000 C 
BRANCH  24  25
ATOM     25  C   UNL     1       3.718  -0.212 -11.028  1.00  0.00    -0.000 C 
BRANCH  25  26
ATOM     26  C   UNL     1       4.870  -1.122 -10.559  1.00  0.00    -0.000 C 
BRANCH  26  27
ATOM     27  C   UNL     1       4.628  -2.607 -10.891  1.00  0.00    -0.000 C 
BRANCH  27  28
ATOM     28  C   UNL     1       3.193  -3.101 -10.632  1.00  0.00    -0.000 C 
BRANCH  28  29
ATOM     29  C   UNL     1       3.050  -4.637 -10.698  1.00  0.00    -0.000 C 
BRANCH  29  30
ATOM     30  C   UNL     1       3.972  -5.349  -9.698  1.00  0.00    -0.000 C 
BRANCH  30  31
ATOM     31  C   UNL     1       5.262  -5.828 -10.373  1.00  0.00    -0.003 C 
ATOM     32  C   UNL     1       6.393  -5.975  -9.356  1.00  0.00     0.004 C 
ENDBRANCH  30  31
ENDBRANCH  29  30
ENDBRANCH  28  29
ENDBRANCH  27  28
ENDBRANCH  26  27
ENDBRANCH  25  26
ENDBRANCH  24  25
ENDBRANCH  23  24
ENDBRANCH  22  23
ENDBRANCH  21  22
ENDBRANCH  20  21
ENDBRANCH  19  20
ENDBRANCH  18  19
ENDBRANCH   1  18
TORSDOF 28
ENDMDL
MODEL 4
REMARK VINA RESULT:    -3.438      1.527      2.637
REMARK INTER + INTRA:         -13.308
REMARK INTER:                  -9.093
REMARK INTRA:                  -4.215
REMARK UNBOUND:                -4.242
REMARK SMILES CCCCCCCCCCCCCCCCCCCCCCCCCCCCCC(=O)[O-]
REMARK SMILES IDX 16 1 17 2 18 3 19 4 20 5 21 6 22 7 23 8 24 9 25 10 26 11
REMARK SMILES IDX 27 12 28 13 29 14 30 15 31 16 32 17 15 18 14 19 13 20 12 21
REMARK SMILES IDX 11 22 10 23 9 24 8 25 7 26 6 27 5 28 4 29 3 30 2 31 1 32
REMARK H PARENT
REMARK Flexibility Score: inf
ROOT
ATOM      1  C   UNL     1       6.016   4.687  -5.600  1.00  0.00     0.000 C 
ENDROOT
BRANCH   1   2
ATOM      2  C   UNL     1       6.917   5.446  -6.590  1.00  0.00     0.000 C 
BRANCH   2   3
ATOM      3  C   UNL     1       6.282   6.764  -7.078  1.00  0.00     0.000 C 
BRANCH   3   4
ATOM      4  C   UNL     1       6.004   6.798  -8.592  1.00  0.00     0.000 C 
BRANCH   4   5
ATOM      5  C   UNL     1       5.943   5.390  -9.216  1.00  0.00     0.000 C 
BRANCH   5   6
ATOM      6  C   UNL     1       6.177   5.418 -10.735  1.00  0.00     0.000 C 
BRANCH   6   7
ATOM      7  C   UNL     1       7.606   4.971 -11.099  1.00  0.00     0.000 C 
BRANCH   7   8
ATOM      8  C   UNL     1       8.459   4.647  -9.862  1.00  0.00     0.000 C 
BRANCH   8   9
ATOM      9  C   UNL     1       9.867   5.263  -9.936  1.00  0.00     0.000 C 
BRANCH   9  10
ATOM     10  C   UNL     1       9.829   6.728 -10.401  1.00  0.00     0.000 C 
BRANCH  10  11
ATOM     11  C   UNL     1       9.544   7.695  -9.241  1.00  0.00     0.000 C 
BRANCH  11  12
ATOM     12  C   UNL     1       9.138   9.091  -9.735  1.00  0.00     0.000 C 
BRANCH  12  13
ATOM     13  C   UNL     1       7.929   9.677  -8.970  1.00  0.00     0.006 C 
BRANCH  13  14
ATOM     14  C   UNL     1       8.303  10.930  -8.169  1.00  0.00     0.053 C 
BRANCH  14  15
ATOM     15  C   UNL     1       7.788  12.160  -8.855  1.00  0.00     0.041 C 
ATOM     16  O   UNL     1       7.639  13.230  -8.206  1.00  0.00    -0.550 OA
ATOM     17  O   UNL     1       7.537  12.142 -10.220  1.00  0.00    -0.550 OA
ENDBRANCH  14  15
ENDBRANCH  13  14
ENDBRANCH  12  13
ENDBRANCH  11  12
ENDBRANCH  10  11
ENDBRANCH   9  10
ENDBRANCH   8   9
ENDBRANCH   7   8
ENDBRANCH   6   7
ENDBRANCH   5   6
ENDBRANCH   4   5
ENDBRANCH   3   4
ENDBRANCH   2   3
ENDBRANCH   1   2
BRANCH   1  18
ATOM     18  C   UNL     1       6.397   3.204  -5.460  1.00  0.00     0.000 C 
BRANCH  18  19
ATOM     19  C   UNL     1       7.317   2.682  -6.580  1.00  0.00     0.000 C 
BRANCH  19  20
ATOM     20  C   UNL     1       8.782   2.519  -6.131  1.00  0.00     0.000 C 
BRANCH  20  21
ATOM     21  C   UNL     1       9.202   1.040  -6.090  1.00  0.00     0.000 C 
BRANCH  21  22
ATOM     22  C   UNL     1       9.905   0.614  -7.392  1.00  0.00     0.000 C 
BRANCH  22  23
ATOM     23  C   UNL     1       9.948   1.723  -8.457  1.00  0.00     0.000 C 
BRANCH  23  24
ATOM     24  C   UNL     1      10.083   1.230  -9.914  1.00  0.00    -0.000 C 
BRANCH  24  25
ATOM     25  C   UNL     1       8.761   1.090 -10.691  1.00  0.00    -0.000 C 
BRANCH  25  26
ATOM     26  C   UNL     1       7.562   0.755  -9.783  1.00  0.00    -0.000 C 
BRANCH  26  27
ATOM     27  C   UNL     1       6.408   1.766  -9.922  1.00  0.00    -0.000 C 
BRANCH  27  28
ATOM     28  C   UNL     1       5.354   1.400 -10.985  1.00  0.00    -0.000 C 
BRANCH  28  29
ATOM     29  C   UNL     1       4.114   0.689 -10.402  1.00  0.00    -0.000 C 
BRANCH  29  30
ATOM     30  C   UNL     1       4.053  -0.792 -10.801  1.00  0.00    -0.000 C 
BRANCH  30  31
ATOM     31  C   UNL     1       3.525  -1.659  -9.654  1.00  0.00    -0.003 C 
ATOM     32  C   UNL     1       3.506  -3.136 -10.042  1.00  0.00     0.004 C 
ENDBRANCH  30  31
ENDBRANCH  29  30
ENDBRANCH  28  29
ENDBRANCH  27  28
ENDBRANCH  26  27
ENDBRANCH  25  26
ENDBRANCH  24  25
ENDBRANCH  23  24
ENDBRANCH  22  23
ENDBRANCH  21  22
ENDBRANCH  20  21
ENDBRANCH  19  20
ENDBRANCH  18  19
ENDBRANCH   1  18
TORSDOF 28
ENDMDL
MODEL 5
REMARK VINA RESULT:    -3.407      3.989      8.967
REMARK INTER + INTRA:         -13.226
REMARK INTER:                  -8.337
REMARK INTRA:                  -4.888
REMARK UNBOUND:                -4.242
REMARK SMILES CCCCCCCCCCCCCCCCCCCCCCCCCCCCCC(=O)[O-]
REMARK SMILES IDX 16 1 17 2 18 3 19 4 20 5 21 6 22 7 23 8 24 9 25 10 26 11
REMARK SMILES IDX 27 12 28 13 29 14 30 15 31 16 32 17 15 18 14 19 13 20 12 21
REMARK SMILES IDX 11 22 10 23 9 24 8 25 7 26 6 27 5 28 4 29 3 30 2 31 1 32
REMARK H PARENT
REMARK Flexibility Score: inf
ROOT
ATOM      1  C   UNL     1       6.364   6.123  -6.087  1.00  0.00     0.000 C 
ENDROOT
BRANCH   1   2
ATOM      2  C   UNL     1       6.077   4.612  -6.093  1.00  0.00     0.000 C 
BRANCH   2   3
ATOM      3  C   UNL     1       7.277   3.779  -5.599  1.00  0.00     0.000 C 
BRANCH   3   4
ATOM      4  C   UNL     1       6.906   2.350  -5.161  1.00  0.00     0.000 C 
BRANCH   4   5
ATOM      5  C   UNL     1       7.832   1.282  -5.773  1.00  0.00     0.000 C 
BRANCH   5   6
ATOM      6  C   UNL     1       9.317   1.663  -5.655  1.00  0.00     0.000 C 
BRANCH   6   7
ATOM      7  C   UNL     1      10.124   1.195  -6.881  1.00  0.00     0.000 C 
BRANCH   7   8
ATOM      8  C   UNL     1       9.612   1.803  -8.197  1.00  0.00     0.000 C 
BRANCH   8   9
ATOM      9  C   UNL     1      10.103   1.034  -9.435  1.00  0.00     0.000 C 
BRANCH   9  10
ATOM     10  C   UNL     1       8.956   0.718 -10.408  1.00  0.00     0.000 C 
BRANCH  10  11
ATOM     11  C   UNL     1       7.580   0.809  -9.728  1.00  0.00     0.000 C 
BRANCH  11  12
ATOM     12  C   UNL     1       6.428   0.574 -10.716  1.00  0.00     0.000 C 
BRANCH  12  13
ATOM     13  C   UNL     1       5.040   0.561 -10.036  1.00  0.00     0.006 C 
BRANCH  13  14
ATOM     14  C   UNL     1       3.924   0.150 -11.005  1.00  0.00     0.053 C 
BRANCH  14  15
ATOM     15  C   UNL     1       3.148  -1.004 -10.447  1.00  0.00     0.041 C 
ATOM     16  O   UNL     1       3.552  -1.596  -9.411  1.00  0.00    -0.550 OA
ATOM     17  O   UNL     1       1.947  -1.382 -11.032  1.00  0.00    -0.550 OA
ENDBRANCH  14  15
ENDBRANCH  13  14
ENDBRANCH  12  13
ENDBRANCH  11  12
ENDBRANCH  10  11
ENDBRANCH   9  10
ENDBRANCH   8   9
ENDBRANCH   7   8
ENDBRANCH   6   7
ENDBRANCH   5   6
ENDBRANCH   4   5
ENDBRANCH   3   4
ENDBRANCH   2   3
ENDBRANCH   1   2
BRANCH   1  18
ATOM     18  C   UNL     1       7.313   6.557  -7.217  1.00  0.00     0.000 C 
BRANCH  18  19
ATOM     19  C   UNL     1       6.668   7.496  -8.255  1.00  0.00     0.000 C 
BRANCH  19  20
ATOM     20  C   UNL     1       5.216   7.109  -8.597  1.00  0.00     0.000 C 
BRANCH  20  21
ATOM     21  C   UNL     1       5.136   6.321  -9.916  1.00  0.00     0.000 C 
BRANCH  21  22
ATOM     22  C   UNL     1       5.021   4.806  -9.666  1.00  0.00     0.000 C 
BRANCH  22  23
ATOM     23  C   UNL     1       6.376   4.078  -9.676  1.00  0.00     0.000 C 
BRANCH  23  24
ATOM     24  C   UNL     1       7.337   4.493 -10.811  1.00  0.00    -0.000 C 
BRANCH  24  25
ATOM     25  C   UNL     1       8.837   4.382 -10.482  1.00  0.00    -0.000 C 
BRANCH  25  26
ATOM     26  C   UNL     1       9.555   5.745 -10.483  1.00  0.00    -0.000 C 
BRANCH  26  27
ATOM     27  C   UNL     1       8.702   6.867 -11.104  1.00  0.00    -0.000 C 
BRANCH  27  28
ATOM     28  C   UNL     1       9.371   8.255 -11.118  1.00  0.00    -0.000 C 
BRANCH  28  29
ATOM     29  C   UNL     1       9.858   8.717  -9.727  1.00  0.00    -0.000 C 
BRANCH  29  30
ATOM     30  C   UNL     1       9.632  10.219  -9.504  1.00  0.00    -0.000 C 
BRANCH  30  31
ATOM     31  C   UNL     1       8.913  10.484  -8.177  1.00  0.00    -0.003 C 
ATOM     32  C   UNL     1       7.519  11.064  -8.411  1.00  0.00     0.004 C 
ENDBRANCH  30  31
ENDBRANCH  29  30
ENDBRANCH  28  29
ENDBRANCH  27  28
ENDBRANCH  26  27
ENDBRANCH  25  26
ENDBRANCH  24  25
ENDBRANCH  23  24
ENDBRANCH  22  23
ENDBRANCH  21  22
ENDBRANCH  20  21
ENDBRANCH  19  20
ENDBRANCH  18  19
ENDBRANCH   1  18
TORSDOF 28
ENDMDL
MODEL 6
REMARK VINA RESULT:    -3.345      1.397      2.907
REMARK INTER + INTRA:         -13.063
REMARK INTER:                  -9.030
REMARK INTRA:                  -4.033
REMARK UNBOUND:                -4.242
REMARK SMILES CCCCCCCCCCCCCCCCCCCCCCCCCCCCCC(=O)[O-]
REMARK SMILES IDX 16 1 17 2 18 3 19 4 20 5 21 6 22 7 23 8 24 9 25 10 26 11
REMARK SMILES IDX 27 12 28 13 29 14 30 15 31 16 32 17 15 18 14 19 13 20 12 21
REMARK SMILES IDX 11 22 10 23 9 24 8 25 7 26 6 27 5 28 4 29 3 30 2 31 1 32
REMARK H PARENT
REMARK Flexibility Score: inf
ROOT
ATOM      1  C   UNL     1       6.371   3.636  -5.857  1.00  0.00     0.000 C 
ENDROOT
BRANCH   1   2
ATOM      2  C   UNL     1       5.756   3.188  -7.194  1.00  0.00     0.000 C 
BRANCH   2   3
ATOM      3  C   UNL     1       6.076   4.159  -8.348  1.00  0.00     0.000 C 
BRANCH   3   4
ATOM      4  C   UNL     1       5.017   4.167  -9.467  1.00  0.00     0.000 C 
BRANCH   4   5
ATOM      5  C   UNL     1       5.478   4.945 -10.715  1.00  0.00     0.000 C 
BRANCH   5   6
ATOM      6  C   UNL     1       5.224   6.456 -10.585  1.00  0.00     0.000 C 
BRANCH   6   7
ATOM      7  C   UNL     1       6.543   7.252 -10.529  1.00  0.00     0.000 C 
BRANCH   7   8
ATOM      8  C   UNL     1       6.717   8.020  -9.209  1.00  0.00     0.000 C 
BRANCH   8   9
ATOM      9  C   UNL     1       7.633   7.286  -8.215  1.00  0.00     0.000 C 
BRANCH   9  10
ATOM     10  C   UNL     1       8.943   6.823  -8.874  1.00  0.00     0.000 C 
BRANCH  10  11
ATOM     11  C   UNL     1       9.981   7.954  -8.952  1.00  0.00     0.000 C 
BRANCH  11  12
ATOM     12  C   UNL     1       9.989   8.641 -10.324  1.00  0.00     0.000 C 
BRANCH  12  13
ATOM     13  C   UNL     1       9.666  10.152 -10.248  1.00  0.00     0.006 C 
BRANCH  13  14
ATOM     14  C   UNL     1       9.091  10.553  -8.884  1.00  0.00     0.053 C 
BRANCH  14  15
ATOM     15  C   UNL     1       8.045  11.613  -9.051  1.00  0.00     0.041 C 
ATOM     16  O   UNL     1       7.136  11.475  -9.912  1.00  0.00    -0.550 OA
ATOM     17  O   UNL     1       8.036  12.719  -8.211  1.00  0.00    -0.550 OA
ENDBRANCH  14  15
ENDBRANCH  13  14
ENDBRANCH  12  13
ENDBRANCH  11  12
ENDBRANCH  10  11
ENDBRANCH   9  10
ENDBRANCH   8   9
ENDBRANCH   7   8
ENDBRANCH   6   7
ENDBRANCH   5   6
ENDBRANCH   4   5
ENDBRANCH   3   4
ENDBRANCH   2   3
ENDBRANCH   1   2
BRANCH   1  18
ATOM     18  C   UNL     1       7.239   2.547  -5.203  1.00  0.00     0.000 C 
BRANCH  18  19
ATOM     19  C   UNL     1       8.481   3.089  -4.468  1.00  0.00     0.000 C 
BRANCH  19  20
ATOM     20  C   UNL     1       9.684   2.129  -4.529  1.00  0.00     0.000 C 
BRANCH  20  21
ATOM     21  C   UNL     1       9.361   0.866  -5.347  1.00  0.00     0.000 C 
BRANCH  21  22
ATOM     22  C   UNL     1      10.004   0.917  -6.746  1.00  0.00     0.000 C 
BRANCH  22  23
ATOM     23  C   UNL     1       9.032   1.364  -7.851  1.00  0.00     0.000 C 
BRANCH  23  24
ATOM     24  C   UNL     1       9.382   2.706  -8.530  1.00  0.00    -0.000 C 
BRANCH  24  25
ATOM     25  C   UNL     1       9.708   2.623 -10.033  1.00  0.00    -0.000 C 
BRANCH  25  26
ATOM     26  C   UNL     1       8.455   2.702 -10.925  1.00  0.00    -0.000 C 
BRANCH  26  27
ATOM     27  C   UNL     1       7.773   1.334 -11.115  1.00  0.00    -0.000 C 
BRANCH  27  28
ATOM     28  C   UNL     1       6.235   1.361 -11.029  1.00  0.00    -0.000 C 
BRANCH  28  29
ATOM     29  C   UNL     1       5.646   0.224 -10.166  1.00  0.00    -0.000 C 
BRANCH  29  30
ATOM     30  C   UNL     1       5.194  -0.973 -11.013  1.00  0.00    -0.000 C 
BRANCH  30  31
ATOM     31  C   UNL     1       5.578  -2.301 -10.353  1.00  0.00    -0.003 C 
ATOM     32  C   UNL     1       4.337  -3.083  -9.924  1.00  0.00     0.004 C 
ENDBRANCH  30  31
ENDBRANCH  29  30
ENDBRANCH  28  29
ENDBRANCH  27  28
ENDBRANCH  26  27
ENDBRANCH  25  26
ENDBRANCH  24  25
ENDBRANCH  23  24
ENDBRANCH  22  23
ENDBRANCH  21  22
ENDBRANCH  20  21
ENDBRANCH  19  20
ENDBRANCH  18  19
ENDBRANCH   1  18
TORSDOF 28
ENDMDL
MODEL 7
REMARK VINA RESULT:    -3.306      4.497     10.590
REMARK INTER + INTRA:         -12.960
REMARK INTER:                  -9.818
REMARK INTRA:                  -3.142
REMARK UNBOUND:                -4.242
REMARK SMILES CCCCCCCCCCCCCCCCCCCCCCCCCCCCCC(=O)[O-]
REMARK SMILES IDX 16 1 17 2 18 3 19 4 20 5 21 6 22 7 23 8 24 9 25 10 26 11
REMARK SMILES IDX 27 12 28 13 29 14 30 15 31 16 32 17 15 18 14 19 13 20 12 21
REMARK SMILES IDX 11 22 10 23 9 24 8 25 7 26 6 27 5 28 4 29 3 30 2 31 1 32
REMARK H PARENT
REMARK Flexibility Score: inf
ROOT
ATOM      1  C   UNL     1       6.574   3.663  -5.286  1.00  0.00     0.000 C 
ENDROOT
BRANCH   1   2
ATOM      2  C   UNL     1       7.589   2.509  -5.213  1.00  0.00     0.000 C 
BRANCH   2   3
ATOM      3  C   UNL     1       7.619   1.665  -6.503  1.00  0.00     0.000 C 
BRANCH   3   4
ATOM      4  C   UNL     1       8.866   1.904  -7.374  1.00  0.00     0.000 C 
BRANCH   4   5
ATOM      5  C   UNL     1       8.891   1.014  -8.633  1.00  0.00     0.000 C 
BRANCH   5   6
ATOM      6  C   UNL     1       8.737   1.833  -9.925  1.00  0.00     0.000 C 
BRANCH   6   7
ATOM      7  C   UNL     1       7.502   1.390 -10.735  1.00  0.00     0.000 C 
BRANCH   7   8
ATOM      8  C   UNL     1       6.328   0.961  -9.840  1.00  0.00     0.000 C 
BRANCH   8   9
ATOM      9  C   UNL     1       5.371  -0.012 -10.548  1.00  0.00     0.000 C 
BRANCH   9  10
ATOM     10  C   UNL     1       4.817  -1.076  -9.586  1.00  0.00     0.000 C 
BRANCH  10  11
ATOM     11  C   UNL     1       3.469  -1.641 -10.063  1.00  0.00     0.000 C 
BRANCH  11  12
ATOM     12  C   UNL     1       3.513  -3.163 -10.254  1.00  0.00     0.000 C 
BRANCH  12  13
ATOM     13  C   UNL     1       4.941  -3.702 -10.505  1.00  0.00     0.006 C 
BRANCH  13  14
ATOM     14  C   UNL     1       4.983  -5.234 -10.542  1.00  0.00     0.053 C 
BRANCH  14  15
ATOM     15  C   UNL     1       6.329  -5.730 -10.110  1.00  0.00     0.041 C 
ATOM     16  O   UNL     1       7.164  -6.123 -10.969  1.00  0.00    -0.550 OA
ATOM     17  O   UNL     1       6.687  -5.696  -8.769  1.00  0.00    -0.550 OA
ENDBRANCH  14  15
ENDBRANCH  13  14
ENDBRANCH  12  13
ENDBRANCH  11  12
ENDBRANCH  10  11
ENDBRANCH   9  10
ENDBRANCH   8   9
ENDBRANCH   7   8
ENDBRANCH   6   7
ENDBRANCH   5   6
ENDBRANCH   4   5
ENDBRANCH   3   4
ENDBRANCH   2   3
ENDBRANCH   1   2
BRANCH   1  18
ATOM     18  C   UNL     1       7.092   4.866  -6.093  1.00  0.00     0.000 C 
BRANCH  18  19
ATOM     19  C   UNL     1       6.201   5.252  -7.290  1.00  0.00     0.000 C 
BRANCH  19  20
ATOM     20  C   UNL     1       6.437   4.364  -8.527  1.00  0.00     0.000 C 
BRANCH  20  21
ATOM     21  C   UNL     1       5.210   4.348  -9.455  1.00  0.00     0.000 C 
BRANCH  21  22
ATOM     22  C   UNL     1       5.399   5.284 -10.663  1.00  0.00     0.000 C 
BRANCH  22  23
ATOM     23  C   UNL     1       5.404   6.775 -10.288  1.00  0.00     0.000 C 
BRANCH  23  24
ATOM     24  C   UNL     1       6.531   7.611 -10.932  1.00  0.00    -0.000 C 
BRANCH  24  25
ATOM     25  C   UNL     1       7.922   6.949 -10.947  1.00  0.00    -0.000 C 
BRANCH  25  26
ATOM     26  C   UNL     1       8.601   6.946  -9.564  1.00  0.00    -0.000 C 
BRANCH  26  27
ATOM     27  C   UNL     1       9.830   7.872  -9.501  1.00  0.00    -0.000 C 
BRANCH  27  28
ATOM     28  C   UNL     1       9.676   9.202 -10.264  1.00  0.00    -0.000 C 
BRANCH  28  29
ATOM     29  C   UNL     1       9.472  10.422  -9.339  1.00  0.00    -0.000 C 
BRANCH  29  30
ATOM     30  C   UNL     1       7.987  10.763  -9.149  1.00  0.00    -0.000 C 
BRANCH  30  31
ATOM     31  C   UNL     1       7.770  12.277  -9.055  1.00  0.00    -0.003 C 
ATOM     32  C   UNL     1       8.828  12.932  -8.168  1.00  0.00     0.004 C 
ENDBRANCH  30  31
ENDBRANCH  29  30
ENDBRANCH  28  29
ENDBRANCH  27  28
ENDBRANCH  26  27
ENDBRANCH  25  26
ENDBRANCH  24  25
ENDBRANCH  23  24
ENDBRANCH  22  23
ENDBRANCH  21  22
ENDBRANCH  20  21
ENDBRANCH  19  20
ENDBRANCH  18  19
ENDBRANCH   1  18
TORSDOF 28
ENDMDL
MODEL 8
REMARK VINA RESULT:    -3.225      2.409      4.535
REMARK INTER + INTRA:         -12.746
REMARK INTER:                  -8.859
REMARK INTRA:                  -3.887
REMARK UNBOUND:                -4.242
REMARK SMILES CCCCCCCCCCCCCCCCCCCCCCCCCCCCCC(=O)[O-]
REMARK SMILES IDX 16 1 17 2 18 3 19 4 20 5 21 6 22 7 23 8 24 9 25 10 26 11
REMARK SMILES IDX 27 12 28 13 29 14 30 15 31 16 32 17 15 18 14 19 13 20 12 21
REMARK SMILES IDX 11 22 10 23 9 24 8 25 7 26 6 27 5 28 4 29 3 30 2 31 1 32
REMARK H PARENT
REMARK Flexibility Score: inf
ROOT
ATOM      1  C   UNL     1       9.252   0.937  -5.158  1.00  0.00     0.000 C 
ENDROOT
BRANCH   1   2
ATOM      2  C   UNL     1      10.072   0.853  -6.457  1.00  0.00     0.000 C 
BRANCH   2   3
ATOM      3  C   UNL     1       9.900   2.101  -7.347  1.00  0.00     0.000 C 
BRANCH   3   4
ATOM      4  C   UNL     1       8.586   2.116  -8.149  1.00  0.00     0.000 C 
BRANCH   4   5
ATOM      5  C   UNL     1       8.804   2.438  -9.641  1.00  0.00     0.000 C 
BRANCH   5   6
ATOM      6  C   UNL     1       9.680   3.685  -9.845  1.00  0.00     0.000 C 
BRANCH   6   7
ATOM      7  C   UNL     1       9.291   4.450 -11.125  1.00  0.00     0.000 C 
BRANCH   7   8
ATOM      8  C   UNL     1       9.563   5.959 -11.020  1.00  0.00     0.000 C 
BRANCH   8   9
ATOM      9  C   UNL     1       9.658   6.443  -9.563  1.00  0.00     0.000 C 
BRANCH   9  10
ATOM     10  C   UNL     1       9.502   7.968  -9.452  1.00  0.00     0.000 C 
BRANCH  10  11
ATOM     11  C   UNL     1       9.264   8.420  -8.002  1.00  0.00     0.000 C 
BRANCH  11  12
ATOM     12  C   UNL     1       7.775   8.635  -7.699  1.00  0.00     0.000 C 
BRANCH  12  13
ATOM     13  C   UNL     1       7.375  10.128  -7.651  1.00  0.00     0.006 C 
BRANCH  13  14
ATOM     14  C   UNL     1       7.199  10.725  -9.053  1.00  0.00     0.053 C 
BRANCH  14  15
ATOM     15  C   UNL     1       7.978  11.999  -9.178  1.00  0.00     0.041 C 
ATOM     16  O   UNL     1       8.735  12.372  -8.243  1.00  0.00    -0.550 OA
ATOM     17  O   UNL     1       7.918  12.738 -10.352  1.00  0.00    -0.550 OA
ENDBRANCH  14  15
ENDBRANCH  13  14
ENDBRANCH  12  13
ENDBRANCH  11  12
ENDBRANCH  10  11
ENDBRANCH   9  10
ENDBRANCH   8   9
ENDBRANCH   7   8
ENDBRANCH   6   7
ENDBRANCH   5   6
ENDBRANCH   4   5
ENDBRANCH   3   4
ENDBRANCH   2   3
ENDBRANCH   1   2
BRANCH   1  18
ATOM     18  C   UNL     1       9.158   2.367  -4.600  1.00  0.00     0.000 C 
BRANCH  18  19
ATOM     19  C   UNL     1       7.716   2.890  -4.450  1.00  0.00     0.000 C 
BRANCH  19  20
ATOM     20  C   UNL     1       6.713   2.166  -5.370  1.00  0.00     0.000 C 
BRANCH  20  21
ATOM     21  C   UNL     1       5.638   3.128  -5.904  1.00  0.00     0.000 C 
BRANCH  21  22
ATOM     22  C   UNL     1       6.029   4.600  -5.675  1.00  0.00     0.000 C 
BRANCH  22  23
ATOM     23  C   UNL     1       7.376   4.982  -6.310  1.00  0.00     0.000 C 
BRANCH  23  24
ATOM     24  C   UNL     1       7.330   5.277  -7.825  1.00  0.00    -0.000 C 
BRANCH  24  25
ATOM     25  C   UNL     1       5.928   5.249  -8.462  1.00  0.00    -0.000 C 
BRANCH  25  26
ATOM     26  C   UNL     1       5.718   6.367  -9.502  1.00  0.00    -0.000 C 
BRANCH  26  27
ATOM     27  C   UNL     1       5.735   5.845 -10.951  1.00  0.00    -0.000 C 
BRANCH  27  28
ATOM     28  C   UNL     1       5.569   4.319 -11.089  1.00  0.00    -0.000 C 
BRANCH  28  29
ATOM     29  C   UNL     1       4.095   3.859 -11.107  1.00  0.00    -0.000 C 
BRANCH  29  30
ATOM     30  C   UNL     1       3.814   2.774 -10.059  1.00  0.00    -0.000 C 
BRANCH  30  31
ATOM     31  C   UNL     1       5.105   2.081  -9.613  1.00  0.00    -0.003 C 
ATOM     32  C   UNL     1       5.213   0.678 -10.209  1.00  0.00     0.004 C 
ENDBRANCH  30  31
ENDBRANCH  29  30
ENDBRANCH  28  29
ENDBRANCH  27  28
ENDBRANCH  26  27
ENDBRANCH  25  26
ENDBRANCH  24  25
ENDBRANCH  23  24
ENDBRANCH  22  23
ENDBRANCH  21  22
ENDBRANCH  20  21
ENDBRANCH  19  20
ENDBRANCH  18  19
ENDBRANCH   1  18
TORSDOF 28
ENDMDL
MODEL 9
REMARK VINA RESULT:    -3.160      1.467      3.372
REMARK INTER + INTRA:         -12.575
REMARK INTER:                  -9.708
REMARK INTRA:                  -2.867
REMARK UNBOUND:                -4.242
REMARK SMILES CCCCCCCCCCCCCCCCCCCCCCCCCCCCCC(=O)[O-]
REMARK SMILES IDX 16 1 17 2 18 3 19 4 20 5 21 6 22 7 23 8 24 9 25 10 26 11
REMARK SMILES IDX 27 12 28 13 29 14 30 15 31 16 32 17 15 18 14 19 13 20 12 21
REMARK SMILES IDX 11 22 10 23 9 24 8 25 7 26 6 27 5 28 4 29 3 30 2 31 1 32
REMARK H PARENT
REMARK Flexibility Score: inf
ROOT
ATOM      1  C   UNL     1       9.215   1.017  -4.937  1.00  0.00     0.000 C 
ENDROOT
BRANCH   1   2
ATOM      2  C   UNL     1       9.853   0.526  -6.248  1.00  0.00     0.000 C 
BRANCH   2   3
ATOM      3  C   UNL     1       9.818   1.594  -7.360  1.00  0.00     0.000 C 
BRANCH   3   4
ATOM      4  C   UNL     1       8.708   1.370  -8.403  1.00  0.00     0.000 C 
BRANCH   4   5
ATOM      5  C   UNL     1       9.102   1.872  -9.807  1.00  0.00     0.000 C 
BRANCH   5   6
ATOM      6  C   UNL     1       9.983   3.130  -9.748  1.00  0.00     0.000 C 
BRANCH   6   7
ATOM      7  C   UNL     1      10.092   3.814 -11.125  1.00  0.00     0.000 C 
BRANCH   7   8
ATOM      8  C   UNL     1      10.005   5.346 -11.036  1.00  0.00     0.000 C 
BRANCH   8   9
ATOM      9  C   UNL     1       9.811   5.844  -9.594  1.00  0.00     0.000 C 
BRANCH   9  10
ATOM     10  C   UNL     1       8.886   7.071  -9.528  1.00  0.00     0.000 C 
BRANCH  10  11
ATOM     11  C   UNL     1       9.672   8.375  -9.320  1.00  0.00     0.000 C 
BRANCH  11  12
ATOM     12  C   UNL     1       9.592   8.876  -7.871  1.00  0.00     0.000 C 
BRANCH  12  13
ATOM     13  C   UNL     1       9.011  10.304  -7.754  1.00  0.00     0.006 C 
BRANCH  13  14
ATOM     14  C   UNL     1       7.509  10.345  -8.063  1.00  0.00     0.053 C 
BRANCH  14  15
ATOM     15  C   UNL     1       7.270  10.951  -9.412  1.00  0.00     0.041 C 
ATOM     16  O   UNL     1       7.465  12.182  -9.596  1.00  0.00    -0.550 OA
ATOM     17  O   UNL     1       6.899  10.146 -10.481  1.00  0.00    -0.550 OA
ENDBRANCH  14  15
ENDBRANCH  13  14
ENDBRANCH  12  13
ENDBRANCH  11  12
ENDBRANCH  10  11
ENDBRANCH   9  10
ENDBRANCH   8   9
ENDBRANCH   7   8
ENDBRANCH   6   7
ENDBRANCH   5   6
ENDBRANCH   4   5
ENDBRANCH   3   4
ENDBRANCH   2   3
ENDBRANCH   1   2
BRANCH   1  18
ATOM     18  C   UNL     1       9.331   2.539  -4.748  1.00  0.00     0.000 C 
BRANCH  18  19
ATOM     19  C   UNL     1       7.976   3.271  -4.697  1.00  0.00     0.000 C 
BRANCH  19  20
ATOM     20  C   UNL     1       6.811   2.423  -5.243  1.00  0.00     0.000 C 
BRANCH  20  21
ATOM     21  C   UNL     1       5.681   3.305  -5.803  1.00  0.00     0.000 C 
BRANCH  21  22
ATOM     22  C   UNL     1       6.221   4.639  -6.350  1.00  0.00     0.000 C 
BRANCH  22  23
ATOM     23  C   UNL     1       7.099   4.478  -7.602  1.00  0.00     0.000 C 
BRANCH  23  24
ATOM     24  C   UNL     1       6.347   4.045  -8.880  1.00  0.00    -0.000 C 
BRANCH  24  25
ATOM     25  C   UNL     1       5.015   3.309  -8.648  1.00  0.00    -0.000 C 
BRANCH  25  26
ATOM     26  C   UNL     1       4.015   3.496  -9.806  1.00  0.00    -0.000 C 
BRANCH  26  27
ATOM     27  C   UNL     1       4.134   2.397 -10.879  1.00  0.00    -0.000 C 
BRANCH  27  28
ATOM     28  C   UNL     1       4.482   0.998 -10.335  1.00  0.00    -0.000 C 
BRANCH  28  29
ATOM     29  C   UNL     1       3.349  -0.034 -10.521  1.00  0.00    -0.000 C 
BRANCH  29  30
ATOM     30  C   UNL     1       3.665  -1.371  -9.836  1.00  0.00    -0.000 C 
BRANCH  30  31
ATOM     31  C   UNL     1       4.379  -2.333 -10.791  1.00  0.00    -0.003 C 
ATOM     32  C   UNL     1       5.808  -2.612 -10.326  1.00  0.00     0.004 C 
ENDBRANCH  30  31
ENDBRANCH  29  30
ENDBRANCH  28  29
ENDBRANCH  27  28
ENDBRANCH  26  27
ENDBRANCH  25  26
ENDBRANCH  24  25
ENDBRANCH  23  24
ENDBRANCH  22  23
ENDBRANCH  21  22
ENDBRANCH  20  21
ENDBRANCH  19  20
ENDBRANCH  18  19
ENDBRANCH   1  18
TORSDOF 28
ENDMDL
