MODEL 1
REMARK VINA RESULT:    -5.476      0.000      0.000
REMARK INTER + INTRA:         -18.179
REMARK INTER:                 -14.439
REMARK INTRA:                  -3.740
REMARK UNBOUND:                -3.740
REMARK SMILES CCCCCCCCCCCCCCCCCCCCCCCCCCCCCC(=O)[O-]
REMARK SMILES IDX 16 1 17 2 18 3 19 4 20 5 21 6 22 7 23 8 24 9 25 10 26 11
REMARK SMILES IDX 27 12 28 13 29 14 30 15 31 16 32 17 15 18 14 19 13 20 12 21
REMARK SMILES IDX 11 22 10 23 9 24 8 25 7 26 6 27 5 28 4 29 3 30 2 31 1 32
REMARK H PARENT
REMARK Flexibility Score: inf
ROOT
ATOM      1  C   UNL     1     158.563 160.859 152.614  1.00  0.00     0.000 C 
ENDROOT
BRANCH   1   2
ATOM      2  C   UNL     1     159.649 160.422 153.625  1.00  0.00     0.000 C 
BRANCH   2   3
ATOM      3  C   UNL     1     160.356 159.094 153.285  1.00  0.00     0.000 C 
BRANCH   3   4
ATOM      4  C   UNL     1     160.193 158.658 151.819  1.00  0.00     0.000 C 
BRANCH   4   5
ATOM      5  C   UNL     1     160.725 157.230 151.547  1.00  0.00     0.000 C 
BRANCH   5   6
ATOM      6  C   UNL     1     161.018 156.958 150.058  1.00  0.00     0.000 C 
BRANCH   6   7
ATOM      7  C   UNL     1     160.618 158.119 149.128  1.00  0.00     0.000 C 
BRANCH   7   8
ATOM      8  C   UNL     1     159.251 157.909 148.455  1.00  0.00     0.000 C 
BRANCH   8   9
ATOM      9  C   UNL     1     158.875 156.414 148.356  1.00  0.00     0.000 C 
BRANCH   9  10
ATOM     10  C   UNL     1     157.807 155.985 149.378  1.00  0.00     0.000 C 
BRANCH  10  11
ATOM     11  C   UNL     1     157.013 157.151 149.995  1.00  0.00     0.000 C 
BRANCH  11  12
ATOM     12  C   UNL     1     155.612 156.784 150.525  1.00  0.00     0.000 C 
BRANCH  12  13
ATOM     13  C   UNL     1     154.778 155.877 149.602  1.00  0.00     0.006 C 
BRANCH  13  14
ATOM     14  C   UNL     1     154.040 154.768 150.362  1.00  0.00     0.053 C 
BRANCH  14  15
ATOM     15  C   UNL     1     155.011 153.904 151.105  1.00  0.00     0.041 C 
ATOM     16  O   UNL     1     155.084 153.972 152.359  1.00  0.00    -0.550 OA
ATOM     17  O   UNL     1     155.863 153.053 150.411  1.00  0.00    -0.550 OA
ENDBRANCH  14  15
ENDBRANCH  13  14
ENDBRANCH  12  13
ENDBRANCH  11  12
ENDBRANCH  10  11
ENDBRANCH   9  10
ENDBRANCH   8   9
ENDBRANCH   7   8
ENDBRANCH   6   7
ENDBRANCH   5   6
ENDBRANCH   4   5
ENDBRANCH   3   4
ENDBRANCH   2   3
ENDBRANCH   1   2
BRANCH   1  18
ATOM     18  C   UNL     1     158.537 162.371 152.320  1.00  0.00     0.000 C 
BRANCH  18  19
ATOM     19  C   UNL     1     158.519 162.697 150.811  1.00  0.00     0.000 C 
BRANCH  19  20
ATOM     20  C   UNL     1     158.723 161.444 149.941  1.00  0.00     0.000 C 
BRANCH  20  21
ATOM     21  C   UNL     1     159.701 161.663 148.770  1.00  0.00     0.000 C 
BRANCH  21  22
ATOM     22  C   UNL     1     160.997 162.363 149.209  1.00  0.00     0.000 C 
BRANCH  22  23
ATOM     23  C   UNL     1     161.895 161.403 150.009  1.00  0.00     0.000 C 
BRANCH  23  24
ATOM     24  C   UNL     1     163.186 162.075 150.515  1.00  0.00    -0.000 C 
BRANCH  24  25
ATOM     25  C   UNL     1     163.554 163.394 149.803  1.00  0.00    -0.000 C 
BRANCH  25  26
ATOM     26  C   UNL     1     165.050 163.771 149.855  1.00  0.00    -0.000 C 
BRANCH  26  27
ATOM     27  C   UNL     1     165.337 165.261 150.126  1.00  0.00    -0.000 C 
BRANCH  27  28
ATOM     28  C   UNL     1     164.748 165.742 151.465  1.00  0.00    -0.000 C 
BRANCH  28  29
ATOM     29  C   UNL     1     163.675 166.831 151.292  1.00  0.00    -0.000 C 
BRANCH  29  30
ATOM     30  C   UNL     1     163.281 167.046 149.820  1.00  0.00    -0.000 C 
BRANCH  30  31
ATOM     31  C   UNL     1     162.163 168.087 149.653  1.00  0.00    -0.003 C 
ATOM     32  C   UNL     1     161.436 168.391 150.964  1.00  0.00     0.004 C 
ENDBRANCH  30  31
ENDBRANCH  29  30
ENDBRANCH  28  29
ENDBRANCH  27  28
ENDBRANCH  26  27
ENDBRANCH  25  26
ENDBRANCH  24  25
ENDBRANCH  23  24
ENDBRANCH  22  23
ENDBRANCH  21  22
ENDBRANCH  20  21
ENDBRANCH  19  20
ENDBRANCH  18  19
ENDBRANCH   1  18
TORSDOF 28
ENDMDL
MODEL 2
REMARK VINA RESULT:    -5.389      4.183     10.396
REMARK INTER + INTRA:         -17.951
REMARK INTER:                 -14.424
REMARK INTRA:                  -3.527
REMARK UNBOUND:                -3.740
REMARK SMILES CCCCCCCCCCCCCCCCCCCCCCCCCCCCCC(=O)[O-]
REMARK SMILES IDX 16 1 17 2 18 3 19 4 20 5 21 6 22 7 23 8 24 9 25 10 26 11
REMARK SMILES IDX 27 12 28 13 29 14 30 15 31 16 32 17 15 18 14 19 13 20 12 21
REMARK SMILES IDX 11 22 10 23 9 24 8 25 7 26 6 27 5 28 4 29 3 30 2 31 1 32
REMARK H PARENT
REMARK Flexibility Score: inf
ROOT
ATOM      1  C   UNL     1     158.273 160.010 153.391  1.00  0.00     0.000 C 
ENDROOT
BRANCH   1   2
ATOM      2  C   UNL     1     157.705 161.356 153.896  1.00  0.00     0.000 C 
BRANCH   2   3
ATOM      3  C   UNL     1     157.692 162.489 152.850  1.00  0.00     0.000 C 
BRANCH   3   4
ATOM      4  C   UNL     1     158.904 162.477 151.902  1.00  0.00     0.000 C 
BRANCH   4   5
ATOM      5  C   UNL     1     158.506 162.520 150.408  1.00  0.00     0.000 C 
BRANCH   5   6
ATOM      6  C   UNL     1     159.440 161.694 149.501  1.00  0.00     0.000 C 
BRANCH   6   7
ATOM      7  C   UNL     1     160.299 162.553 148.554  1.00  0.00     0.000 C 
BRANCH   7   8
ATOM      8  C   UNL     1     161.619 163.019 149.192  1.00  0.00     0.000 C 
BRANCH   8   9
ATOM      9  C   UNL     1     162.304 161.893 149.998  1.00  0.00     0.000 C 
BRANCH   9  10
ATOM     10  C   UNL     1     163.617 162.337 150.669  1.00  0.00     0.000 C 
BRANCH  10  11
ATOM     11  C   UNL     1     164.493 163.259 149.802  1.00  0.00     0.000 C 
BRANCH  11  12
ATOM     12  C   UNL     1     165.250 164.360 150.572  1.00  0.00     0.000 C 
BRANCH  12  13
ATOM     13  C   UNL     1     164.394 165.561 151.011  1.00  0.00     0.006 C 
BRANCH  13  14
ATOM     14  C   UNL     1     163.581 166.168 149.860  1.00  0.00     0.053 C 
BRANCH  14  15
ATOM     15  C   UNL     1     163.047 167.513 150.247  1.00  0.00     0.041 C 
ATOM     16  O   UNL     1     163.386 168.035 151.340  1.00  0.00    -0.550 OA
ATOM     17  O   UNL     1     162.147 168.172 149.418  1.00  0.00    -0.550 OA
ENDBRANCH  14  15
ENDBRANCH  13  14
ENDBRANCH  12  13
ENDBRANCH  11  12
ENDBRANCH  10  11
ENDBRANCH   9  10
ENDBRANCH   8   9
ENDBRANCH   7   8
ENDBRANCH   6   7
ENDBRANCH   5   6
ENDBRANCH   4   5
ENDBRANCH   3   4
ENDBRANCH   2   3
ENDBRANCH   1   2
BRANCH   1  18
ATOM     18  C   UNL     1     159.628 159.617 154.008  1.00  0.00     0.000 C 
BRANCH  18  19
ATOM     19  C   UNL     1     160.768 159.531 152.971  1.00  0.00     0.000 C 
BRANCH  19  20
ATOM     20  C   UNL     1     160.303 158.904 151.644  1.00  0.00     0.000 C 
BRANCH  20  21
ATOM     21  C   UNL     1     160.717 157.427 151.487  1.00  0.00     0.000 C 
BRANCH  21  22
ATOM     22  C   UNL     1     160.824 156.999 150.015  1.00  0.00     0.000 C 
BRANCH  22  23
ATOM     23  C   UNL     1     160.233 158.074 149.086  1.00  0.00     0.000 C 
BRANCH  23  24
ATOM     24  C   UNL     1     158.987 157.585 148.324  1.00  0.00    -0.000 C 
BRANCH  24  25
ATOM     25  C   UNL     1     158.066 156.638 149.122  1.00  0.00    -0.000 C 
BRANCH  25  26
ATOM     26  C   UNL     1     157.165 157.329 150.166  1.00  0.00    -0.000 C 
BRANCH  26  27
ATOM     27  C   UNL     1     155.697 156.856 150.174  1.00  0.00    -0.000 C 
BRANCH  27  28
ATOM     28  C   UNL     1     155.560 155.351 149.879  1.00  0.00    -0.000 C 
BRANCH  28  29
ATOM     29  C   UNL     1     154.909 154.570 151.033  1.00  0.00    -0.000 C 
BRANCH  29  30
ATOM     30  C   UNL     1     155.519 153.170 151.219  1.00  0.00    -0.000 C 
BRANCH  30  31
ATOM     31  C   UNL     1     156.214 152.654 149.950  1.00  0.00    -0.003 C 
ATOM     32  C   UNL     1     157.394 151.730 150.254  1.00  0.00     0.004 C 
ENDBRANCH  30  31
ENDBRANCH  29  30
ENDBRANCH  28  29
ENDBRANCH  27  28
ENDBRANCH  26  27
ENDBRANCH  25  26
ENDBRANCH  24  25
ENDBRANCH  23  24
ENDBRANCH  22  23
ENDBRANCH  21  22
ENDBRANCH  20  21
ENDBRANCH  19  20
ENDBRANCH  18  19
ENDBRANCH   1  18
TORSDOF 28
ENDMDL
MODEL 3
REMARK VINA RESULT:    -5.367      1.568      3.407
REMARK INTER + INTRA:         -17.892
REMARK INTER:                 -14.402
REMARK INTRA:                  -3.491
REMARK UNBOUND:                -3.740
REMARK SMILES CCCCCCCCCCCCCCCCCCCCCCCCCCCCCC(=O)[O-]
REMARK SMILES IDX 16 1 17 2 18 3 19 4 20 5 21 6 22 7 23 8 24 9 25 10 26 11
REMARK SMILES IDX 27 12 28 13 29 14 30 15 31 16 32 17 15 18 14 19 13 20 12 21
REMARK SMILES IDX 11 22 10 23 9 24 8 25 7 26 6 27 5 28 4 29 3 30 2 31 1 32
REMARK H PARENT
REMARK Flexibility Score: inf
ROOT
ATOM      1  C   UNL     1     161.577 158.107 153.729  1.00  0.00     0.000 C 
ENDROOT
BRANCH   1   2
ATOM      2  C   UNL     1     161.525 156.994 152.657  1.00  0.00     0.000 C 
BRANCH   2   3
ATOM      3  C   UNL     1     160.504 157.230 151.525  1.00  0.00     0.000 C 
BRANCH   3   4
ATOM      4  C   UNL     1     161.115 157.176 150.114  1.00  0.00     0.000 C 
BRANCH   4   5
ATOM      5  C   UNL     1     160.668 158.353 149.214  1.00  0.00     0.000 C 
BRANCH   5   6
ATOM      6  C   UNL     1     159.490 158.000 148.284  1.00  0.00     0.000 C 
BRANCH   6   7
ATOM      7  C   UNL     1     158.113 158.103 148.965  1.00  0.00     0.000 C 
BRANCH   7   8
ATOM      8  C   UNL     1     157.573 156.744 149.443  1.00  0.00     0.000 C 
BRANCH   8   9
ATOM      9  C   UNL     1     156.338 156.898 150.358  1.00  0.00     0.000 C 
BRANCH   9  10
ATOM     10  C   UNL     1     155.226 155.877 150.058  1.00  0.00     0.000 C 
BRANCH  10  11
ATOM     11  C   UNL     1     154.857 154.971 151.247  1.00  0.00     0.000 C 
BRANCH  11  12
ATOM     12  C   UNL     1     155.337 153.509 151.132  1.00  0.00     0.000 C 
BRANCH  12  13
ATOM     13  C   UNL     1     156.249 153.211 149.929  1.00  0.00     0.006 C 
BRANCH  13  14
ATOM     14  C   UNL     1     156.508 151.711 149.732  1.00  0.00     0.053 C 
BRANCH  14  15
ATOM     15  C   UNL     1     156.800 151.052 151.044  1.00  0.00     0.041 C 
ATOM     16  O   UNL     1     155.926 150.336 151.599  1.00  0.00    -0.550 OA
ATOM     17  O   UNL     1     158.022 151.258 151.673  1.00  0.00    -0.550 OA
ENDBRANCH  14  15
ENDBRANCH  13  14
ENDBRANCH  12  13
ENDBRANCH  11  12
ENDBRANCH  10  11
ENDBRANCH   9  10
ENDBRANCH   8   9
ENDBRANCH   7   8
ENDBRANCH   6   7
ENDBRANCH   5   6
ENDBRANCH   4   5
ENDBRANCH   3   4
ENDBRANCH   2   3
ENDBRANCH   1   2
BRANCH   1  18
ATOM     18  C   UNL     1     161.174 159.503 153.219  1.00  0.00     0.000 C 
BRANCH  18  19
ATOM     19  C   UNL     1     159.856 160.019 153.834  1.00  0.00     0.000 C 
BRANCH  19  20
ATOM     20  C   UNL     1     158.669 159.889 152.862  1.00  0.00     0.000 C 
BRANCH  20  21
ATOM     21  C   UNL     1     158.893 160.614 151.520  1.00  0.00     0.000 C 
BRANCH  21  22
ATOM     22  C   UNL     1     158.788 162.142 151.652  1.00  0.00     0.000 C 
BRANCH  22  23
ATOM     23  C   UNL     1     159.117 162.832 150.318  1.00  0.00     0.000 C 
BRANCH  23  24
ATOM     24  C   UNL     1     159.529 161.837 149.216  1.00  0.00    -0.000 C 
BRANCH  24  25
ATOM     25  C   UNL     1     160.843 162.183 148.484  1.00  0.00    -0.000 C 
BRANCH  25  26
ATOM     26  C   UNL     1     161.867 162.980 149.320  1.00  0.00    -0.000 C 
BRANCH  26  27
ATOM     27  C   UNL     1     162.730 162.130 150.274  1.00  0.00    -0.000 C 
BRANCH  27  28
ATOM     28  C   UNL     1     164.235 162.416 150.120  1.00  0.00    -0.000 C 
BRANCH  28  29
ATOM     29  C   UNL     1     164.525 163.806 149.528  1.00  0.00    -0.000 C 
BRANCH  29  30
ATOM     30  C   UNL     1     165.379 164.682 150.461  1.00  0.00    -0.000 C 
BRANCH  30  31
ATOM     31  C   UNL     1     164.672 164.996 151.788  1.00  0.00    -0.003 C 
ATOM     32  C   UNL     1     164.522 166.497 152.040  1.00  0.00     0.004 C 
ENDBRANCH  30  31
ENDBRANCH  29  30
ENDBRANCH  28  29
ENDBRANCH  27  28
ENDBRANCH  26  27
ENDBRANCH  25  26
ENDBRANCH  24  25
ENDBRANCH  23  24
ENDBRANCH  22  23
ENDBRANCH  21  22
ENDBRANCH  20  21
ENDBRANCH  19  20
ENDBRANCH  18  19
ENDBRANCH   1  18
TORSDOF 28
ENDMDL
MODEL 4
REMARK VINA RESULT:    -5.332      0.965      1.806
REMARK INTER + INTRA:         -17.799
REMARK INTER:                 -14.359
REMARK INTRA:                  -3.440
REMARK UNBOUND:                -3.740
REMARK SMILES CCCCCCCCCCCCCCCCCCCCCCCCCCCCCC(=O)[O-]
REMARK SMILES IDX 16 1 17 2 18 3 19 4 20 5 21 6 22 7 23 8 24 9 25 10 26 11
REMARK SMILES IDX 27 12 28 13 29 14 30 15 31 16 32 17 15 18 14 19 13 20 12 21
REMARK SMILES IDX 11 22 10 23 9 24 8 25 7 26 6 27 5 28 4 29 3 30 2 31 1 32
REMARK H PARENT
REMARK Flexibility Score: inf
ROOT
ATOM      1  C   UNL     1     157.406 162.503 152.850  1.00  0.00     0.000 C 
ENDROOT
BRANCH   1   2
ATOM      2  C   UNL     1     157.882 161.477 153.904  1.00  0.00     0.000 C 
BRANCH   2   3
ATOM      3  C   UNL     1     158.516 160.196 153.323  1.00  0.00     0.000 C 
BRANCH   3   4
ATOM      4  C   UNL     1     159.739 159.693 154.111  1.00  0.00     0.000 C 
BRANCH   4   5
ATOM      5  C   UNL     1     160.860 159.137 153.202  1.00  0.00     0.000 C 
BRANCH   5   6
ATOM      6  C   UNL     1     160.345 158.604 151.850  1.00  0.00     0.000 C 
BRANCH   6   7
ATOM      7  C   UNL     1     160.785 157.159 151.550  1.00  0.00     0.000 C 
BRANCH   7   8
ATOM      8  C   UNL     1     160.912 156.867 150.044  1.00  0.00     0.000 C 
BRANCH   8   9
ATOM      9  C   UNL     1     160.449 158.061 149.180  1.00  0.00     0.000 C 
BRANCH   9  10
ATOM     10  C   UNL     1     159.207 157.749 148.325  1.00  0.00     0.000 C 
BRANCH  10  11
ATOM     11  C   UNL     1     158.189 156.812 149.002  1.00  0.00     0.000 C 
BRANCH  11  12
ATOM     12  C   UNL     1     157.254 157.488 150.025  1.00  0.00     0.000 C 
BRANCH  12  13
ATOM     13  C   UNL     1     155.913 156.771 150.261  1.00  0.00     0.006 C 
BRANCH  13  14
ATOM     14  C   UNL     1     155.968 155.274 149.929  1.00  0.00     0.053 C 
BRANCH  14  15
ATOM     15  C   UNL     1     154.885 154.535 150.652  1.00  0.00     0.041 C 
ATOM     16  O   UNL     1     153.718 154.510 150.183  1.00  0.00    -0.550 OA
ATOM     17  O   UNL     1     155.155 153.907 151.863  1.00  0.00    -0.550 OA
ENDBRANCH  14  15
ENDBRANCH  13  14
ENDBRANCH  12  13
ENDBRANCH  11  12
ENDBRANCH  10  11
ENDBRANCH   9  10
ENDBRANCH   8   9
ENDBRANCH   7   8
ENDBRANCH   6   7
ENDBRANCH   5   6
ENDBRANCH   4   5
ENDBRANCH   3   4
ENDBRANCH   2   3
ENDBRANCH   1   2
BRANCH   1  18
ATOM     18  C   UNL     1     158.493 162.943 151.851  1.00  0.00     0.000 C 
BRANCH  18  19
ATOM     19  C   UNL     1     158.135 162.627 150.384  1.00  0.00     0.000 C 
BRANCH  19  20
ATOM     20  C   UNL     1     159.062 161.560 149.774  1.00  0.00     0.000 C 
BRANCH  20  21
ATOM     21  C   UNL     1     160.495 161.596 150.343  1.00  0.00     0.000 C 
BRANCH  21  22
ATOM     22  C   UNL     1     161.554 161.830 149.255  1.00  0.00     0.000 C 
BRANCH  22  23
ATOM     23  C   UNL     1     162.436 163.044 149.598  1.00  0.00     0.000 C 
BRANCH  23  24
ATOM     24  C   UNL     1     163.749 162.649 150.299  1.00  0.00    -0.000 C 
BRANCH  24  25
ATOM     25  C   UNL     1     165.033 163.162 149.612  1.00  0.00    -0.000 C 
BRANCH  25  26
ATOM     26  C   UNL     1     165.313 164.668 149.791  1.00  0.00    -0.000 C 
BRANCH  26  27
ATOM     27  C   UNL     1     164.965 165.235 151.182  1.00  0.00    -0.000 C 
BRANCH  27  28
ATOM     28  C   UNL     1     163.999 166.432 151.107  1.00  0.00    -0.000 C 
BRANCH  28  29
ATOM     29  C   UNL     1     163.598 166.790 149.666  1.00  0.00    -0.000 C 
BRANCH  29  30
ATOM     30  C   UNL     1     162.125 167.219 149.549  1.00  0.00    -0.000 C 
BRANCH  30  31
ATOM     31  C   UNL     1     161.912 168.701 149.892  1.00  0.00    -0.003 C 
ATOM     32  C   UNL     1     160.714 169.312 149.163  1.00  0.00     0.004 C 
ENDBRANCH  30  31
ENDBRANCH  29  30
ENDBRANCH  28  29
ENDBRANCH  27  28
ENDBRANCH  26  27
ENDBRANCH  25  26
ENDBRANCH  24  25
ENDBRANCH  23  24
ENDBRANCH  22  23
ENDBRANCH  21  22
ENDBRANCH  20  21
ENDBRANCH  19  20
ENDBRANCH  18  19
ENDBRANCH   1  18
TORSDOF 28
ENDMDL
MODEL 5
REMARK VINA RESULT:    -5.279      4.119     10.905
REMARK INTER + INTRA:         -17.661
REMARK INTER:                 -14.174
REMARK INTRA:                  -3.486
REMARK UNBOUND:                -3.740
REMARK SMILES CCCCCCCCCCCCCCCCCCCCCCCCCCCCCC(=O)[O-]
REMARK SMILES IDX 16 1 17 2 18 3 19 4 20 5 21 6 22 7 23 8 24 9 25 10 26 11
REMARK SMILES IDX 27 12 28 13 29 14 30 15 31 16 32 17 15 18 14 19 13 20 12 21
REMARK SMILES IDX 11 22 10 23 9 24 8 25 7 26 6 27 5 28 4 29 3 30 2 31 1 32
REMARK H PARENT
REMARK Flexibility Score: inf
ROOT
ATOM      1  C   UNL     1     160.464 158.173 149.248  1.00  0.00     0.000 C 
ENDROOT
BRANCH   1   2
ATOM      2  C   UNL     1     161.062 156.970 150.013  1.00  0.00     0.000 C 
BRANCH   2   3
ATOM      3  C   UNL     1     160.922 157.040 151.547  1.00  0.00     0.000 C 
BRANCH   3   4
ATOM      4  C   UNL     1     160.026 158.190 152.039  1.00  0.00     0.000 C 
BRANCH   4   5
ATOM      5  C   UNL     1     160.681 159.035 153.158  1.00  0.00     0.000 C 
BRANCH   5   6
ATOM      6  C   UNL     1     159.806 160.213 153.629  1.00  0.00     0.000 C 
BRANCH   6   7
ATOM      7  C   UNL     1     158.733 160.632 152.608  1.00  0.00     0.000 C 
BRANCH   7   8
ATOM      8  C   UNL     1     158.572 162.157 152.492  1.00  0.00     0.000 C 
BRANCH   8   9
ATOM      9  C   UNL     1     158.744 162.652 151.039  1.00  0.00     0.000 C 
BRANCH   9  10
ATOM     10  C   UNL     1     158.885 161.508 150.018  1.00  0.00     0.000 C 
BRANCH  10  11
ATOM     11  C   UNL     1     159.916 161.772 148.905  1.00  0.00     0.000 C 
BRANCH  11  12
ATOM     12  C   UNL     1     160.830 162.993 149.135  1.00  0.00     0.000 C 
BRANCH  12  13
ATOM     13  C   UNL     1     162.271 162.663 149.563  1.00  0.00     0.006 C 
BRANCH  13  14
ATOM     14  C   UNL     1     163.122 163.915 149.814  1.00  0.00     0.053 C 
BRANCH  14  15
ATOM     15  C   UNL     1     164.559 163.542 150.010  1.00  0.00     0.041 C 
ATOM     16  O   UNL     1     164.925 162.346 149.871  1.00  0.00    -0.550 OA
ATOM     17  O   UNL     1     165.486 164.508 150.385  1.00  0.00    -0.550 OA
ENDBRANCH  14  15
ENDBRANCH  13  14
ENDBRANCH  12  13
ENDBRANCH  11  12
ENDBRANCH  10  11
ENDBRANCH   9  10
ENDBRANCH   8   9
ENDBRANCH   7   8
ENDBRANCH   6   7
ENDBRANCH   5   6
ENDBRANCH   4   5
ENDBRANCH   3   4
ENDBRANCH   2   3
ENDBRANCH   1   2
BRANCH   1  18
ATOM     18  C   UNL     1     159.159 157.863 148.492  1.00  0.00     0.000 C 
BRANCH  18  19
ATOM     19  C   UNL     1     158.897 156.352 148.324  1.00  0.00     0.000 C 
BRANCH  19  20
ATOM     20  C   UNL     1     157.783 155.845 149.258  1.00  0.00     0.000 C 
BRANCH  20  21
ATOM     21  C   UNL     1     157.072 156.973 150.032  1.00  0.00     0.000 C 
BRANCH  21  22
ATOM     22  C   UNL     1     155.543 156.822 150.022  1.00  0.00     0.000 C 
BRANCH  22  23
ATOM     23  C   UNL     1     155.138 155.351 149.820  1.00  0.00     0.000 C 
BRANCH  23  24
ATOM     24  C   UNL     1     154.588 154.701 151.104  1.00  0.00    -0.000 C 
BRANCH  24  25
ATOM     25  C   UNL     1     155.216 153.338 151.464  1.00  0.00    -0.000 C 
BRANCH  25  26
ATOM     26  C   UNL     1     156.168 152.755 150.399  1.00  0.00    -0.000 C 
BRANCH  26  27
ATOM     27  C   UNL     1     156.835 151.419 150.783  1.00  0.00    -0.000 C 
BRANCH  27  28
ATOM     28  C   UNL     1     158.082 151.115 149.932  1.00  0.00    -0.000 C 
BRANCH  28  29
ATOM     29  C   UNL     1     157.877 151.421 148.438  1.00  0.00    -0.000 C 
BRANCH  29  30
ATOM     30  C   UNL     1     157.308 150.222 147.660  1.00  0.00    -0.000 C 
BRANCH  30  31
ATOM     31  C   UNL     1     156.421 150.650 146.481  1.00  0.00    -0.003 C 
ATOM     32  C   UNL     1     154.954 150.827 146.876  1.00  0.00     0.004 C 
ENDBRANCH  30  31
ENDBRANCH  29  30
ENDBRANCH  28  29
ENDBRANCH  27  28
ENDBRANCH  26  27
ENDBRANCH  25  26
ENDBRANCH  24  25
ENDBRANCH  23  24
ENDBRANCH  22  23
ENDBRANCH  21  22
ENDBRANCH  20  21
ENDBRANCH  19  20
ENDBRANCH  18  19
ENDBRANCH   1  18
TORSDOF 28
ENDMDL
MODEL 6
REMARK VINA RESULT:    -5.235      1.118      2.420
REMARK INTER + INTRA:         -17.545
REMARK INTER:                 -14.454
REMARK INTRA:                  -3.091
REMARK UNBOUND:                -3.740
REMARK SMILES CCCCCCCCCCCCCCCCCCCCCCCCCCCCCC(=O)[O-]
REMARK SMILES IDX 16 1 17 2 18 3 19 4 20 5 21 6 22 7 23 8 24 9 25 10 26 11
REMARK SMILES IDX 27 12 28 13 29 14 30 15 31 16 32 17 15 18 14 19 13 20 12 21
REMARK SMILES IDX 11 22 10 23 9 24 8 25 7 26 6 27 5 28 4 29 3 30 2 31 1 32
REMARK H PARENT
REMARK Flexibility Score: inf
ROOT
ATOM      1  C   UNL     1     160.483 159.051 153.578  1.00  0.00     0.000 C 
ENDROOT
BRANCH   1   2
ATOM      2  C   UNL     1     160.707 158.783 152.071  1.00  0.00     0.000 C 
BRANCH   2   3
ATOM      3  C   UNL     1     160.764 157.292 151.678  1.00  0.00     0.000 C 
BRANCH   3   4
ATOM      4  C   UNL     1     161.101 157.051 150.196  1.00  0.00     0.000 C 
BRANCH   4   5
ATOM      5  C   UNL     1     160.663 158.216 149.277  1.00  0.00     0.000 C 
BRANCH   5   6
ATOM      6  C   UNL     1     159.282 157.999 148.627  1.00  0.00     0.000 C 
BRANCH   6   7
ATOM      7  C   UNL     1     158.938 156.517 148.390  1.00  0.00     0.000 C 
BRANCH   7   8
ATOM      8  C   UNL     1     157.750 156.030 149.237  1.00  0.00     0.000 C 
BRANCH   8   9
ATOM      9  C   UNL     1     157.028 157.195 149.950  1.00  0.00     0.000 C 
BRANCH   9  10
ATOM     10  C   UNL     1     155.563 156.880 150.303  1.00  0.00     0.000 C 
BRANCH  10  11
ATOM     11  C   UNL     1     155.110 155.457 149.924  1.00  0.00     0.000 C 
BRANCH  11  12
ATOM     12  C   UNL     1     154.636 154.584 151.104  1.00  0.00     0.000 C 
BRANCH  12  13
ATOM     13  C   UNL     1     155.430 153.283 151.318  1.00  0.00     0.006 C 
BRANCH  13  14
ATOM     14  C   UNL     1     156.190 152.833 150.064  1.00  0.00     0.053 C 
BRANCH  14  15
ATOM     15  C   UNL     1     156.870 151.521 150.304  1.00  0.00     0.041 C 
ATOM     16  O   UNL     1     158.030 151.491 150.789  1.00  0.00    -0.550 OA
ATOM     17  O   UNL     1     156.237 150.332 149.957  1.00  0.00    -0.550 OA
ENDBRANCH  14  15
ENDBRANCH  13  14
ENDBRANCH  12  13
ENDBRANCH  11  12
ENDBRANCH  10  11
ENDBRANCH   9  10
ENDBRANCH   8   9
ENDBRANCH   7   8
ENDBRANCH   6   7
ENDBRANCH   5   6
ENDBRANCH   4   5
ENDBRANCH   3   4
ENDBRANCH   2   3
ENDBRANCH   1   2
BRANCH   1  18
ATOM     18  C   UNL     1     159.349 160.045 153.887  1.00  0.00     0.000 C 
BRANCH  18  19
ATOM     19  C   UNL     1     158.622 160.552 152.623  1.00  0.00     0.000 C 
BRANCH  19  20
ATOM     20  C   UNL     1     158.517 162.088 152.587  1.00  0.00     0.000 C 
BRANCH  20  21
ATOM     21  C   UNL     1     158.433 162.662 151.158  1.00  0.00     0.000 C 
BRANCH  21  22
ATOM     22  C   UNL     1     159.217 161.822 150.138  1.00  0.00     0.000 C 
BRANCH  22  23
ATOM     23  C   UNL     1     160.417 162.609 149.584  1.00  0.00     0.000 C 
BRANCH  23  24
ATOM     24  C   UNL     1     161.651 161.721 149.335  1.00  0.00    -0.000 C 
BRANCH  24  25
ATOM     25  C   UNL     1     162.920 162.141 150.105  1.00  0.00    -0.000 C 
BRANCH  25  26
ATOM     26  C   UNL     1     163.378 163.595 149.870  1.00  0.00    -0.000 C 
BRANCH  26  27
ATOM     27  C   UNL     1     164.534 164.069 150.774  1.00  0.00    -0.000 C 
BRANCH  27  28
ATOM     28  C   UNL     1     164.522 165.593 150.997  1.00  0.00    -0.000 C 
BRANCH  28  29
ATOM     29  C   UNL     1     163.820 166.360 149.864  1.00  0.00    -0.000 C 
BRANCH  29  30
ATOM     30  C   UNL     1     162.774 167.361 150.385  1.00  0.00    -0.000 C 
BRANCH  30  31
ATOM     31  C   UNL     1     161.978 168.027 149.253  1.00  0.00    -0.003 C 
ATOM     32  C   UNL     1     161.182 169.245 149.724  1.00  0.00     0.004 C 
ENDBRANCH  30  31
ENDBRANCH  29  30
ENDBRANCH  28  29
ENDBRANCH  27  28
ENDBRANCH  26  27
ENDBRANCH  25  26
ENDBRANCH  24  25
ENDBRANCH  23  24
ENDBRANCH  22  23
ENDBRANCH  21  22
ENDBRANCH  20  21
ENDBRANCH  19  20
ENDBRANCH  18  19
ENDBRANCH   1  18
TORSDOF 28
ENDMDL
MODEL 7
REMARK VINA RESULT:    -5.212      2.158      4.365
REMARK INTER + INTRA:         -17.483
REMARK INTER:                 -14.042
REMARK INTRA:                  -3.441
REMARK UNBOUND:                -3.740
REMARK SMILES CCCCCCCCCCCCCCCCCCCCCCCCCCCCCC(=O)[O-]
REMARK SMILES IDX 16 1 17 2 18 3 19 4 20 5 21 6 22 7 23 8 24 9 25 10 26 11
REMARK SMILES IDX 27 12 28 13 29 14 30 15 31 16 32 17 15 18 14 19 13 20 12 21
REMARK SMILES IDX 11 22 10 23 9 24 8 25 7 26 6 27 5 28 4 29 3 30 2 31 1 32
REMARK H PARENT
REMARK Flexibility Score: inf
ROOT
ATOM      1  C   UNL     1     160.772 157.709 152.087  1.00  0.00     0.000 C 
ENDROOT
BRANCH   1   2
ATOM      2  C   UNL     1     160.458 158.596 150.860  1.00  0.00     0.000 C 
BRANCH   2   3
ATOM      3  C   UNL     1     160.685 157.917 149.493  1.00  0.00     0.000 C 
BRANCH   3   4
ATOM      4  C   UNL     1     159.412 157.798 148.637  1.00  0.00     0.000 C 
BRANCH   4   5
ATOM      5  C   UNL     1     158.961 156.334 148.421  1.00  0.00     0.000 C 
BRANCH   5   6
ATOM      6  C   UNL     1     157.805 155.905 149.346  1.00  0.00     0.000 C 
BRANCH   6   7
ATOM      7  C   UNL     1     156.996 157.087 149.912  1.00  0.00     0.000 C 
BRANCH   7   8
ATOM      8  C   UNL     1     155.493 156.785 150.039  1.00  0.00     0.000 C 
BRANCH   8   9
ATOM      9  C   UNL     1     155.209 155.671 151.071  1.00  0.00     0.000 C 
BRANCH   9  10
ATOM     10  C   UNL     1     154.445 154.472 150.479  1.00  0.00     0.000 C 
BRANCH  10  11
ATOM     11  C   UNL     1     155.347 153.360 149.914  1.00  0.00     0.000 C 
BRANCH  11  12
ATOM     12  C   UNL     1     156.123 152.545 150.969  1.00  0.00     0.000 C 
BRANCH  12  13
ATOM     13  C   UNL     1     157.184 151.583 150.405  1.00  0.00     0.006 C 
BRANCH  13  14
ATOM     14  C   UNL     1     157.415 151.763 148.899  1.00  0.00     0.053 C 
BRANCH  14  15
ATOM     15  C   UNL     1     158.589 150.951 148.447  1.00  0.00     0.041 C 
ATOM     16  O   UNL     1     158.959 150.993 147.245  1.00  0.00    -0.550 OA
ATOM     17  O   UNL     1     159.250 150.119 149.343  1.00  0.00    -0.550 OA
ENDBRANCH  14  15
ENDBRANCH  13  14
ENDBRANCH  12  13
ENDBRANCH  11  12
ENDBRANCH  10  11
ENDBRANCH   9  10
ENDBRANCH   8   9
ENDBRANCH   7   8
ENDBRANCH   6   7
ENDBRANCH   5   6
ENDBRANCH   4   5
ENDBRANCH   3   4
ENDBRANCH   2   3
ENDBRANCH   1   2
BRANCH   1  18
ATOM     18  C   UNL     1     160.754 158.455 153.434  1.00  0.00     0.000 C 
BRANCH  18  19
ATOM     19  C   UNL     1     160.619 159.985 153.281  1.00  0.00     0.000 C 
BRANCH  19  20
ATOM     20  C   UNL     1     159.235 160.496 153.723  1.00  0.00     0.000 C 
BRANCH  20  21
ATOM     21  C   UNL     1     158.406 161.096 152.569  1.00  0.00     0.000 C 
BRANCH  21  22
ATOM     22  C   UNL     1     159.166 162.192 151.807  1.00  0.00     0.000 C 
BRANCH  22  23
ATOM     23  C   UNL     1     158.509 162.469 150.443  1.00  0.00     0.000 C 
BRANCH  23  24
ATOM     24  C   UNL     1     158.825 161.383 149.397  1.00  0.00    -0.000 C 
BRANCH  24  25
ATOM     25  C   UNL     1     160.136 161.599 148.611  1.00  0.00    -0.000 C 
BRANCH  25  26
ATOM     26  C   UNL     1     160.621 163.061 148.536  1.00  0.00    -0.000 C 
BRANCH  26  27
ATOM     27  C   UNL     1     161.792 163.408 149.477  1.00  0.00    -0.000 C 
BRANCH  27  28
ATOM     28  C   UNL     1     162.621 162.171 149.868  1.00  0.00    -0.000 C 
BRANCH  28  29
ATOM     29  C   UNL     1     164.060 162.520 150.287  1.00  0.00    -0.000 C 
BRANCH  29  30
ATOM     30  C   UNL     1     164.221 164.000 150.676  1.00  0.00    -0.000 C 
BRANCH  30  31
ATOM     31  C   UNL     1     165.581 164.576 150.255  1.00  0.00    -0.003 C 
ATOM     32  C   UNL     1     165.623 164.986 148.783  1.00  0.00     0.004 C 
ENDBRANCH  30  31
ENDBRANCH  29  30
ENDBRANCH  28  29
ENDBRANCH  27  28
ENDBRANCH  26  27
ENDBRANCH  25  26
ENDBRANCH  24  25
ENDBRANCH  23  24
ENDBRANCH  22  23
ENDBRANCH  21  22
ENDBRANCH  20  21
ENDBRANCH  19  20
ENDBRANCH  18  19
ENDBRANCH   1  18
TORSDOF 28
ENDMDL
MODEL 8
REMARK VINA RESULT:    -5.160      4.461     10.205
REMARK INTER + INTRA:         -17.346
REMARK INTER:                 -13.870
REMARK INTRA:                  -3.476
REMARK UNBOUND:                -3.740
REMARK SMILES CCCCCCCCCCCCCCCCCCCCCCCCCCCCCC(=O)[O-]
REMARK SMILES IDX 16 1 17 2 18 3 19 4 20 5 21 6 22 7 23 8 24 9 25 10 26 11
REMARK SMILES IDX 27 12 28 13 29 14 30 15 31 16 32 17 15 18 14 19 13 20 12 21
REMARK SMILES IDX 11 22 10 23 9 24 8 25 7 26 6 27 5 28 4 29 3 30 2 31 1 32
REMARK H PARENT
REMARK Flexibility Score: inf
ROOT
ATOM      1  C   UNL     1     158.562 162.271 152.167  1.00  0.00     0.000 C 
ENDROOT
BRANCH   1   2
ATOM      2  C   UNL     1     159.166 161.383 151.054  1.00  0.00     0.000 C 
BRANCH   2   3
ATOM      3  C   UNL     1     158.817 161.817 149.616  1.00  0.00     0.000 C 
BRANCH   3   4
ATOM      4  C   UNL     1     160.004 161.753 148.640  1.00  0.00     0.000 C 
BRANCH   4   5
ATOM      5  C   UNL     1     160.748 163.103 148.501  1.00  0.00     0.000 C 
BRANCH   5   6
ATOM      6  C   UNL     1     161.774 163.356 149.623  1.00  0.00     0.000 C 
BRANCH   6   7
ATOM      7  C   UNL     1     162.718 162.166 149.877  1.00  0.00     0.000 C 
BRANCH   7   8
ATOM      8  C   UNL     1     164.018 162.570 150.595  1.00  0.00     0.000 C 
BRANCH   8   9
ATOM      9  C   UNL     1     165.060 163.163 149.621  1.00  0.00     0.000 C 
BRANCH   9  10
ATOM     10  C   UNL     1     165.274 164.677 149.806  1.00  0.00     0.000 C 
BRANCH  10  11
ATOM     11  C   UNL     1     164.549 165.276 151.025  1.00  0.00     0.000 C 
BRANCH  11  12
ATOM     12  C   UNL     1     164.021 166.713 150.834  1.00  0.00     0.000 C 
BRANCH  12  13
ATOM     13  C   UNL     1     162.990 166.888 149.705  1.00  0.00     0.006 C 
BRANCH  13  14
ATOM     14  C   UNL     1     162.825 168.349 149.267  1.00  0.00     0.053 C 
BRANCH  14  15
ATOM     15  C   UNL     1     163.111 168.494 147.804  1.00  0.00     0.041 C 
ATOM     16  O   UNL     1     162.162 168.565 146.981  1.00  0.00    -0.550 OA
ATOM     17  O   UNL     1     164.423 168.512 147.347  1.00  0.00    -0.550 OA
ENDBRANCH  14  15
ENDBRANCH  13  14
ENDBRANCH  12  13
ENDBRANCH  11  12
ENDBRANCH  10  11
ENDBRANCH   9  10
ENDBRANCH   8   9
ENDBRANCH   7   8
ENDBRANCH   6   7
ENDBRANCH   5   6
ENDBRANCH   4   5
ENDBRANCH   3   4
ENDBRANCH   2   3
ENDBRANCH   1   2
BRANCH   1  18
ATOM     18  C   UNL     1     158.112 161.501 153.423  1.00  0.00     0.000 C 
BRANCH  18  19
ATOM     19  C   UNL     1     158.640 160.052 153.471  1.00  0.00     0.000 C 
BRANCH  19  20
ATOM     20  C   UNL     1     160.042 159.961 154.100  1.00  0.00     0.000 C 
BRANCH  20  21
ATOM     21  C   UNL     1     160.872 158.770 153.580  1.00  0.00     0.000 C 
BRANCH  21  22
ATOM     22  C   UNL     1     160.260 158.131 152.324  1.00  0.00     0.000 C 
BRANCH  22  23
ATOM     23  C   UNL     1     161.146 156.986 151.803  1.00  0.00     0.000 C 
BRANCH  23  24
ATOM     24  C   UNL     1     161.167 156.899 150.265  1.00  0.00    -0.000 C 
BRANCH  24  25
ATOM     25  C   UNL     1     160.733 158.187 149.535  1.00  0.00    -0.000 C 
BRANCH  25  26
ATOM     26  C   UNL     1     159.707 157.983 148.401  1.00  0.00    -0.000 C 
BRANCH  26  27
ATOM     27  C   UNL     1     158.272 158.440 148.731  1.00  0.00    -0.000 C 
BRANCH  27  28
ATOM     28  C   UNL     1     157.700 157.736 149.976  1.00  0.00    -0.000 C 
BRANCH  28  29
ATOM     29  C   UNL     1     156.883 156.479 149.632  1.00  0.00    -0.000 C 
BRANCH  29  30
ATOM     30  C   UNL     1     155.444 156.541 150.174  1.00  0.00    -0.000 C 
BRANCH  30  31
ATOM     31  C   UNL     1     155.101 155.347 151.079  1.00  0.00    -0.003 C 
ATOM     32  C   UNL     1     154.110 154.379 150.433  1.00  0.00     0.004 C 
ENDBRANCH  30  31
ENDBRANCH  29  30
ENDBRANCH  28  29
ENDBRANCH  27  28
ENDBRANCH  26  27
ENDBRANCH  25  26
ENDBRANCH  24  25
ENDBRANCH  23  24
ENDBRANCH  22  23
ENDBRANCH  21  22
ENDBRANCH  20  21
ENDBRANCH  19  20
ENDBRANCH  18  19
ENDBRANCH   1  18
TORSDOF 28
ENDMDL
MODEL 9
REMARK VINA RESULT:    -5.118      4.405     11.319
REMARK INTER + INTRA:         -17.236
REMARK INTER:                 -13.909
REMARK INTRA:                  -3.327
REMARK UNBOUND:                -3.740
REMARK SMILES CCCCCCCCCCCCCCCCCCCCCCCCCCCCCC(=O)[O-]
REMARK SMILES IDX 16 1 17 2 18 3 19 4 20 5 21 6 22 7 23 8 24 9 25 10 26 11
REMARK SMILES IDX 27 12 28 13 29 14 30 15 31 16 32 17 15 18 14 19 13 20 12 21
REMARK SMILES IDX 11 22 10 23 9 24 8 25 7 26 6 27 5 28 4 29 3 30 2 31 1 32
REMARK H PARENT
REMARK Flexibility Score: inf
ROOT
ATOM      1  C   UNL     1     159.838 159.318 152.917  1.00  0.00     0.000 C 
ENDROOT
BRANCH   1   2
ATOM      2  C   UNL     1     158.672 160.137 152.317  1.00  0.00     0.000 C 
BRANCH   2   3
ATOM      3  C   UNL     1     158.856 161.668 152.374  1.00  0.00     0.000 C 
BRANCH   3   4
ATOM      4  C   UNL     1     158.776 162.357 151.001  1.00  0.00     0.000 C 
BRANCH   4   5
ATOM      5  C   UNL     1     158.706 161.356 149.823  1.00  0.00     0.000 C 
BRANCH   5   6
ATOM      6  C   UNL     1     160.043 161.200 149.071  1.00  0.00     0.000 C 
BRANCH   6   7
ATOM      7  C   UNL     1     160.596 162.525 148.515  1.00  0.00     0.000 C 
BRANCH   7   8
ATOM      8  C   UNL     1     161.767 163.084 149.342  1.00  0.00     0.000 C 
BRANCH   8   9
ATOM      9  C   UNL     1     162.668 161.963 149.905  1.00  0.00     0.000 C 
BRANCH   9  10
ATOM     10  C   UNL     1     163.954 162.491 150.569  1.00  0.00     0.000 C 
BRANCH  10  11
ATOM     11  C   UNL     1     164.702 163.556 149.746  1.00  0.00     0.000 C 
BRANCH  11  12
ATOM     12  C   UNL     1     165.393 164.659 150.573  1.00  0.00     0.000 C 
BRANCH  12  13
ATOM     13  C   UNL     1     164.485 165.827 150.997  1.00  0.00     0.006 C 
BRANCH  13  14
ATOM     14  C   UNL     1     163.473 166.222 149.914  1.00  0.00     0.053 C 
BRANCH  14  15
ATOM     15  C   UNL     1     163.083 167.661 150.058  1.00  0.00     0.041 C 
ATOM     16  O   UNL     1     163.205 168.238 151.169  1.00  0.00    -0.550 OA
ATOM     17  O   UNL     1     162.549 168.352 148.977  1.00  0.00    -0.550 OA
ENDBRANCH  14  15
ENDBRANCH  13  14
ENDBRANCH  12  13
ENDBRANCH  11  12
ENDBRANCH  10  11
ENDBRANCH   9  10
ENDBRANCH   8   9
ENDBRANCH   7   8
ENDBRANCH   6   7
ENDBRANCH   5   6
ENDBRANCH   4   5
ENDBRANCH   3   4
ENDBRANCH   2   3
ENDBRANCH   1   2
BRANCH   1  18
ATOM     18  C   UNL     1     160.760 158.661 151.873  1.00  0.00     0.000 C 
BRANCH  18  19
ATOM     19  C   UNL     1     160.110 157.457 151.159  1.00  0.00     0.000 C 
BRANCH  19  20
ATOM     20  C   UNL     1     160.355 157.478 149.639  1.00  0.00     0.000 C 
BRANCH  20  21
ATOM     21  C   UNL     1     159.064 157.644 148.813  1.00  0.00     0.000 C 
BRANCH  21  22
ATOM     22  C   UNL     1     157.814 157.788 149.696  1.00  0.00     0.000 C 
BRANCH  22  23
ATOM     23  C   UNL     1     156.953 156.514 149.641  1.00  0.00     0.000 C 
BRANCH  23  24
ATOM     24  C   UNL     1     155.567 156.701 150.287  1.00  0.00    -0.000 C 
BRANCH  24  25
ATOM     25  C   UNL     1     154.446 155.828 149.685  1.00  0.00    -0.000 C 
BRANCH  25  26
ATOM     26  C   UNL     1     154.601 154.311 149.918  1.00  0.00    -0.000 C 
BRANCH  26  27
ATOM     27  C   UNL     1     154.887 153.902 151.377  1.00  0.00    -0.000 C 
BRANCH  27  28
ATOM     28  C   UNL     1     155.648 152.567 151.478  1.00  0.00    -0.000 C 
BRANCH  28  29
ATOM     29  C   UNL     1     156.507 152.271 150.237  1.00  0.00    -0.000 C 
BRANCH  29  30
ATOM     30  C   UNL     1     157.003 150.815 150.193  1.00  0.00    -0.000 C 
BRANCH  30  31
ATOM     31  C   UNL     1     156.383 150.014 149.037  1.00  0.00    -0.003 C 
ATOM     32  C   UNL     1     155.928 150.901 147.878  1.00  0.00     0.004 C 
ENDBRANCH  30  31
ENDBRANCH  29  30
ENDBRANCH  28  29
ENDBRANCH  27  28
ENDBRANCH  26  27
ENDBRANCH  25  26
ENDBRANCH  24  25
ENDBRANCH  23  24
ENDBRANCH  22  23
ENDBRANCH  21  22
ENDBRANCH  20  21
ENDBRANCH  19  20
ENDBRANCH  18  19
ENDBRANCH   1  18
TORSDOF 28
ENDMDL
