MODEL 1
REMARK VINA RESULT:    -3.915      0.000      0.000
REMARK INTER + INTRA:         -11.129
REMARK INTER:                  -8.949
REMARK INTRA:                  -2.180
REMARK UNBOUND:                -2.180
REMARK SMILES CCCCCCCCCCCCCCCCCCCCCCCC(=O)[O-]
REMARK SMILES IDX 13 1 14 2 15 3 16 4 17 5 18 6 19 7 20 8 21 9 22 10 23 11
REMARK SMILES IDX 24 12 25 13 26 14 12 15 11 16 10 17 9 18 8 19 7 20 6 21 5 22
REMARK SMILES IDX 4 23 3 24 2 25 1 26
REMARK H PARENT
REMARK Flexibility Score: inf
ROOT
ATOM      1  C   UNL     1     -45.869 -29.941  -1.580  1.00  0.00     0.000 C 
ENDROOT
BRANCH   1   2
ATOM      2  C   UNL     1     -46.127 -28.702  -2.464  1.00  0.00     0.000 C 
BRANCH   2   3
ATOM      3  C   UNL     1     -46.930 -28.999  -3.746  1.00  0.00     0.000 C 
BRANCH   3   4
ATOM      4  C   UNL     1     -46.225 -29.907  -4.768  1.00  0.00     0.000 C 
BRANCH   4   5
ATOM      5  C   UNL     1     -45.268 -29.184  -5.737  1.00  0.00     0.000 C 
BRANCH   5   6
ATOM      6  C   UNL     1     -45.492 -27.656  -5.818  1.00  0.00     0.000 C 
BRANCH   6   7
ATOM      7  C   UNL     1     -45.480 -27.079  -7.250  1.00  0.00     0.000 C 
BRANCH   7   8
ATOM      8  C   UNL     1     -46.154 -27.959  -8.323  1.00  0.00     0.000 C 
BRANCH   8   9
ATOM      9  C   UNL     1     -45.576 -27.827  -9.745  1.00  0.00     0.000 C 
BRANCH   9  10
ATOM     10  C   UNL     1     -44.057 -28.050  -9.853  1.00  0.00     0.006 C 
BRANCH  10  11
ATOM     11  C   UNL     1     -43.602 -29.374  -9.228  1.00  0.00     0.053 C 
BRANCH  11  12
ATOM     12  C   UNL     1     -42.274 -29.212  -8.556  1.00  0.00     0.041 C 
ATOM     13  O   UNL     1     -42.169 -28.494  -7.526  1.00  0.00    -0.550 OA
ATOM     14  O   UNL     1     -41.161 -29.887  -9.042  1.00  0.00    -0.550 OA
ENDBRANCH  11  12
ENDBRANCH  10  11
ENDBRANCH   9  10
ENDBRANCH   8   9
ENDBRANCH   7   8
ENDBRANCH   6   7
ENDBRANCH   5   6
ENDBRANCH   4   5
ENDBRANCH   3   4
ENDBRANCH   2   3
ENDBRANCH   1   2
BRANCH   1  15
ATOM     15  C   UNL     1     -44.382 -30.121  -1.227  1.00  0.00     0.000 C 
BRANCH  15  16
ATOM     16  C   UNL     1     -43.980 -29.302   0.019  1.00  0.00     0.000 C 
BRANCH  16  17
ATOM     17  C   UNL     1     -43.338 -27.948  -0.321  1.00  0.00     0.000 C 
BRANCH  17  18
ATOM     18  C   UNL     1     -44.004 -26.774   0.416  1.00  0.00    -0.000 C 
BRANCH  18  19
ATOM     19  C   UNL     1     -45.492 -27.028   0.705  1.00  0.00    -0.000 C 
BRANCH  19  20
ATOM     20  C   UNL     1     -46.092 -26.007   1.682  1.00  0.00    -0.000 C 
BRANCH  20  21
ATOM     21  C   UNL     1     -46.465 -26.675   3.010  1.00  0.00    -0.000 C 
BRANCH  21  22
ATOM     22  C   UNL     1     -46.308 -28.202   2.923  1.00  0.00    -0.000 C 
BRANCH  22  23
ATOM     23  C   UNL     1     -45.952 -28.840   4.276  1.00  0.00    -0.000 C 
BRANCH  23  24
ATOM     24  C   UNL     1     -46.582 -28.094   5.466  1.00  0.00    -0.000 C 
BRANCH  24  25
ATOM     25  C   UNL     1     -45.753 -28.229   6.752  1.00  0.00    -0.003 C 
ATOM     26  C   UNL     1     -44.817 -29.438   6.728  1.00  0.00     0.004 C 
ENDBRANCH  24  25
ENDBRANCH  23  24
ENDBRANCH  22  23
ENDBRANCH  21  22
ENDBRANCH  20  21
ENDBRANCH  19  20
ENDBRANCH  18  19
ENDBRANCH  17  18
ENDBRANCH  16  17
ENDBRANCH  15  16
ENDBRANCH   1  15
TORSDOF 22
ENDMDL
MODEL 2
REMARK VINA RESULT:    -3.382      1.371      2.792
REMARK INTER + INTRA:          -9.911
REMARK INTER:                  -8.239
REMARK INTRA:                  -1.672
REMARK UNBOUND:                -2.180
REMARK SMILES CCCCCCCCCCCCCCCCCCCCCCCC(=O)[O-]
REMARK SMILES IDX 13 1 14 2 15 3 16 4 17 5 18 6 19 7 20 8 21 9 22 10 23 11
REMARK SMILES IDX 24 12 25 13 26 14 12 15 11 16 10 17 9 18 8 19 7 20 6 21 5 22
REMARK SMILES IDX 4 23 3 24 2 25 1 26
REMARK H PARENT
REMARK Flexibility Score: inf
ROOT
ATOM      1  C   UNL     1     -43.771 -27.100  -1.125  1.00  0.00     0.000 C 
ENDROOT
BRANCH   1   2
ATOM      2  C   UNL     1     -44.714 -27.686  -2.198  1.00  0.00     0.000 C 
BRANCH   2   3
ATOM      3  C   UNL     1     -46.100 -28.094  -1.662  1.00  0.00     0.000 C 
BRANCH   3   4
ATOM      4  C   UNL     1     -46.933 -28.983  -2.601  1.00  0.00     0.000 C 
BRANCH   4   5
ATOM      5  C   UNL     1     -46.173 -29.541  -3.821  1.00  0.00     0.000 C 
BRANCH   5   6
ATOM      6  C   UNL     1     -46.677 -28.998  -5.179  1.00  0.00     0.000 C 
BRANCH   6   7
ATOM      7  C   UNL     1     -46.015 -27.679  -5.629  1.00  0.00     0.000 C 
BRANCH   7   8
ATOM      8  C   UNL     1     -46.209 -27.315  -7.115  1.00  0.00     0.000 C 
BRANCH   8   9
ATOM      9  C   UNL     1     -45.421 -28.181  -8.117  1.00  0.00     0.000 C 
BRANCH   9  10
ATOM     10  C   UNL     1     -43.909 -27.901  -8.170  1.00  0.00     0.006 C 
BRANCH  10  11
ATOM     11  C   UNL     1     -43.210 -28.615  -9.334  1.00  0.00     0.053 C 
BRANCH  11  12
ATOM     12  C   UNL     1     -42.108 -29.492  -8.828  1.00  0.00     0.041 C 
ATOM     13  O   UNL     1     -41.107 -29.734  -9.553  1.00  0.00    -0.550 OA
ATOM     14  O   UNL     1     -42.165 -30.009  -7.539  1.00  0.00    -0.550 OA
ENDBRANCH  11  12
ENDBRANCH  10  11
ENDBRANCH   9  10
ENDBRANCH   8   9
ENDBRANCH   7   8
ENDBRANCH   6   7
ENDBRANCH   5   6
ENDBRANCH   4   5
ENDBRANCH   3   4
ENDBRANCH   2   3
ENDBRANCH   1   2
BRANCH   1  15
ATOM     15  C   UNL     1     -44.079 -27.625   0.290  1.00  0.00     0.000 C 
BRANCH  15  16
ATOM     16  C   UNL     1     -44.843 -26.584   1.138  1.00  0.00     0.000 C 
BRANCH  16  17
ATOM     17  C   UNL     1     -46.025 -27.181   1.918  1.00  0.00     0.000 C 
BRANCH  17  18
ATOM     18  C   UNL     1     -45.975 -28.716   1.988  1.00  0.00    -0.000 C 
BRANCH  18  19
ATOM     19  C   UNL     1     -46.600 -29.266   3.280  1.00  0.00    -0.000 C 
BRANCH  19  20
ATOM     20  C   UNL     1     -45.573 -29.949   4.196  1.00  0.00    -0.000 C 
BRANCH  20  21
ATOM     21  C   UNL     1     -46.129 -30.112   5.614  1.00  0.00    -0.000 C 
BRANCH  21  22
ATOM     22  C   UNL     1     -46.598 -28.763   6.183  1.00  0.00    -0.000 C 
BRANCH  22  23
ATOM     23  C   UNL     1     -45.434 -27.893   6.684  1.00  0.00    -0.000 C 
BRANCH  23  24
ATOM     24  C   UNL     1     -45.609 -26.406   6.325  1.00  0.00    -0.000 C 
BRANCH  24  25
ATOM     25  C   UNL     1     -46.881 -25.799   6.936  1.00  0.00    -0.003 C 
ATOM     26  C   UNL     1     -46.847 -25.769   8.465  1.00  0.00     0.004 C 
ENDBRANCH  24  25
ENDBRANCH  23  24
ENDBRANCH  22  23
ENDBRANCH  21  22
ENDBRANCH  20  21
ENDBRANCH  19  20
ENDBRANCH  18  19
ENDBRANCH  17  18
ENDBRANCH  16  17
ENDBRANCH  15  16
ENDBRANCH   1  15
TORSDOF 22
ENDMDL
MODEL 3
REMARK VINA RESULT:    -3.027      1.124      2.071
REMARK INTER + INTRA:          -9.101
REMARK INTER:                  -7.094
REMARK INTRA:                  -2.007
REMARK UNBOUND:                -2.180
REMARK SMILES CCCCCCCCCCCCCCCCCCCCCCCC(=O)[O-]
REMARK SMILES IDX 13 1 14 2 15 3 16 4 17 5 18 6 19 7 20 8 21 9 22 10 23 11
REMARK SMILES IDX 24 12 25 13 26 14 12 15 11 16 10 17 9 18 8 19 7 20 6 21 5 22
REMARK SMILES IDX 4 23 3 24 2 25 1 26
REMARK H PARENT
REMARK Flexibility Score: inf
ROOT
ATOM      1  C   UNL     1     -44.242 -27.516  -1.277  1.00  0.00     0.000 C 
ENDROOT
BRANCH   1   2
ATOM      2  C   UNL     1     -45.748 -27.503  -0.941  1.00  0.00     0.000 C 
BRANCH   2   3
ATOM      3  C   UNL     1     -46.659 -27.911  -2.115  1.00  0.00     0.000 C 
BRANCH   3   4
ATOM      4  C   UNL     1     -46.597 -29.397  -2.510  1.00  0.00     0.000 C 
BRANCH   4   5
ATOM      5  C   UNL     1     -47.084 -29.717  -3.937  1.00  0.00     0.000 C 
BRANCH   5   6
ATOM      6  C   UNL     1     -45.970 -29.657  -5.009  1.00  0.00     0.000 C 
BRANCH   6   7
ATOM      7  C   UNL     1     -45.682 -28.244  -5.559  1.00  0.00     0.000 C 
BRANCH   7   8
ATOM      8  C   UNL     1     -46.738 -27.686  -6.534  1.00  0.00     0.000 C 
BRANCH   8   9
ATOM      9  C   UNL     1     -46.426 -27.883  -8.031  1.00  0.00     0.000 C 
BRANCH   9  10
ATOM     10  C   UNL     1     -45.175 -28.728  -8.328  1.00  0.00     0.006 C 
BRANCH  10  11
ATOM     11  C   UNL     1     -43.932 -27.875  -8.612  1.00  0.00     0.053 C 
BRANCH  11  12
ATOM     12  C   UNL     1     -42.702 -28.727  -8.634  1.00  0.00     0.041 C 
ATOM     13  O   UNL     1     -41.860 -28.648  -7.699  1.00  0.00    -0.550 OA
ATOM     14  O   UNL     1     -42.504 -29.637  -9.664  1.00  0.00    -0.550 OA
ENDBRANCH  11  12
ENDBRANCH  10  11
ENDBRANCH   9  10
ENDBRANCH   8   9
ENDBRANCH   7   8
ENDBRANCH   6   7
ENDBRANCH   5   6
ENDBRANCH   4   5
ENDBRANCH   3   4
ENDBRANCH   2   3
ENDBRANCH   1   2
BRANCH   1  15
ATOM     15  C   UNL     1     -43.354 -27.664  -0.028  1.00  0.00     0.000 C 
BRANCH  15  16
ATOM     16  C   UNL     1     -42.862 -29.116   0.162  1.00  0.00     0.000 C 
BRANCH  16  17
ATOM     17  C   UNL     1     -44.002 -30.125   0.372  1.00  0.00     0.000 C 
BRANCH  17  18
ATOM     18  C   UNL     1     -44.766 -29.892   1.685  1.00  0.00    -0.000 C 
BRANCH  18  19
ATOM     19  C   UNL     1     -46.281 -30.094   1.529  1.00  0.00    -0.000 C 
BRANCH  19  20
ATOM     20  C   UNL     1     -47.098 -28.890   2.021  1.00  0.00    -0.000 C 
BRANCH  20  21
ATOM     21  C   UNL     1     -46.175 -27.751   2.469  1.00  0.00    -0.000 C 
BRANCH  21  22
ATOM     22  C   UNL     1     -46.881 -26.833   3.480  1.00  0.00    -0.000 C 
BRANCH  22  23
ATOM     23  C   UNL     1     -46.859 -27.396   4.910  1.00  0.00    -0.000 C 
BRANCH  23  24
ATOM     24  C   UNL     1     -45.893 -28.585   5.062  1.00  0.00    -0.000 C 
BRANCH  24  25
ATOM     25  C   UNL     1     -45.402 -28.763   6.507  1.00  0.00    -0.003 C 
ATOM     26  C   UNL     1     -44.701 -30.103   6.733  1.00  0.00     0.004 C 
ENDBRANCH  24  25
ENDBRANCH  23  24
ENDBRANCH  22  23
ENDBRANCH  21  22
ENDBRANCH  20  21
ENDBRANCH  19  20
ENDBRANCH  18  19
ENDBRANCH  17  18
ENDBRANCH  16  17
ENDBRANCH  15  16
ENDBRANCH   1  15
TORSDOF 22
ENDMDL
MODEL 4
REMARK VINA RESULT:    -2.821      4.278     10.828
REMARK INTER + INTRA:          -8.628
REMARK INTER:                  -7.430
REMARK INTRA:                  -1.199
REMARK UNBOUND:                -2.180
REMARK SMILES CCCCCCCCCCCCCCCCCCCCCCCC(=O)[O-]
REMARK SMILES IDX 13 1 14 2 15 3 16 4 17 5 18 6 19 7 20 8 21 9 22 10 23 11
REMARK SMILES IDX 24 12 25 13 26 14 12 15 11 16 10 17 9 18 8 19 7 20 6 21 5 22
REMARK SMILES IDX 4 23 3 24 2 25 1 26
REMARK H PARENT
REMARK Flexibility Score: inf
ROOT
ATOM      1  C   UNL     1     -41.945 -27.689  -0.099  1.00  0.00     0.000 C 
ENDROOT
BRANCH   1   2
ATOM      2  C   UNL     1     -42.942 -26.923  -0.995  1.00  0.00     0.000 C 
BRANCH   2   3
ATOM      3  C   UNL     1     -44.393 -26.939  -0.477  1.00  0.00     0.000 C 
BRANCH   3   4
ATOM      4  C   UNL     1     -44.597 -26.344   0.927  1.00  0.00     0.000 C 
BRANCH   4   5
ATOM      5  C   UNL     1     -45.923 -26.727   1.615  1.00  0.00     0.000 C 
BRANCH   5   6
ATOM      6  C   UNL     1     -46.427 -28.146   1.263  1.00  0.00     0.000 C 
BRANCH   6   7
ATOM      7  C   UNL     1     -46.128 -29.218   2.331  1.00  0.00     0.000 C 
BRANCH   7   8
ATOM      8  C   UNL     1     -46.621 -28.890   3.755  1.00  0.00     0.000 C 
BRANCH   8   9
ATOM      9  C   UNL     1     -45.585 -29.095   4.878  1.00  0.00     0.000 C 
BRANCH   9  10
ATOM     10  C   UNL     1     -46.142 -28.967   6.307  1.00  0.00     0.006 C 
BRANCH  10  11
ATOM     11  C   UNL     1     -45.362 -27.961   7.163  1.00  0.00     0.053 C 
BRANCH  11  12
ATOM     12  C   UNL     1     -45.776 -26.560   6.838  1.00  0.00     0.041 C 
ATOM     13  O   UNL     1     -45.807 -26.170   5.640  1.00  0.00    -0.550 OA
ATOM     14  O   UNL     1     -46.168 -25.696   7.853  1.00  0.00    -0.550 OA
ENDBRANCH  11  12
ENDBRANCH  10  11
ENDBRANCH   9  10
ENDBRANCH   8   9
ENDBRANCH   7   8
ENDBRANCH   6   7
ENDBRANCH   5   6
ENDBRANCH   4   5
ENDBRANCH   3   4
ENDBRANCH   2   3
ENDBRANCH   1   2
BRANCH   1  15
ATOM     15  C   UNL     1     -42.007 -29.213  -0.306  1.00  0.00     0.000 C 
BRANCH  15  16
ATOM     16  C   UNL     1     -43.462 -29.726  -0.390  1.00  0.00     0.000 C 
BRANCH  16  17
ATOM     17  C   UNL     1     -43.889 -30.124  -1.812  1.00  0.00     0.000 C 
BRANCH  17  18
ATOM     18  C   UNL     1     -45.412 -30.062  -2.013  1.00  0.00    -0.000 C 
BRANCH  18  19
ATOM     19  C   UNL     1     -45.838 -28.898  -2.922  1.00  0.00    -0.000 C 
BRANCH  19  20
ATOM     20  C   UNL     1     -46.929 -29.295  -3.927  1.00  0.00    -0.000 C 
BRANCH  20  21
ATOM     21  C   UNL     1     -46.420 -29.162  -5.367  1.00  0.00    -0.000 C 
BRANCH  21  22
ATOM     22  C   UNL     1     -45.322 -28.090  -5.467  1.00  0.00    -0.000 C 
BRANCH  22  23
ATOM     23  C   UNL     1     -45.430 -27.248  -6.749  1.00  0.00    -0.000 C 
BRANCH  23  24
ATOM     24  C   UNL     1     -46.444 -27.826  -7.753  1.00  0.00    -0.000 C 
BRANCH  24  25
ATOM     25  C   UNL     1     -45.918 -27.809  -9.196  1.00  0.00    -0.003 C 
ATOM     26  C   UNL     1     -44.392 -27.858  -9.271  1.00  0.00     0.004 C 
ENDBRANCH  24  25
ENDBRANCH  23  24
ENDBRANCH  22  23
ENDBRANCH  21  22
ENDBRANCH  20  21
ENDBRANCH  19  20
ENDBRANCH  18  19
ENDBRANCH  17  18
ENDBRANCH  16  17
ENDBRANCH  15  16
ENDBRANCH   1  15
TORSDOF 22
ENDMDL
MODEL 5
REMARK VINA RESULT:    -2.461      1.484      2.473
REMARK INTER + INTRA:          -7.806
REMARK INTER:                  -5.958
REMARK INTRA:                  -1.848
REMARK UNBOUND:                -2.180
REMARK SMILES CCCCCCCCCCCCCCCCCCCCCCCC(=O)[O-]
REMARK SMILES IDX 13 1 14 2 15 3 16 4 17 5 18 6 19 7 20 8 21 9 22 10 23 11
REMARK SMILES IDX 24 12 25 13 26 14 12 15 11 16 10 17 9 18 8 19 7 20 6 21 5 22
REMARK SMILES IDX 4 23 3 24 2 25 1 26
REMARK H PARENT
REMARK Flexibility Score: inf
ROOT
ATOM      1  C   UNL     1     -43.422 -27.883  -0.002  1.00  0.00     0.000 C 
ENDROOT
BRANCH   1   2
ATOM      2  C   UNL     1     -43.302 -27.679  -1.528  1.00  0.00     0.000 C 
BRANCH   2   3
ATOM      3  C   UNL     1     -44.480 -26.908  -2.154  1.00  0.00     0.000 C 
BRANCH   3   4
ATOM      4  C   UNL     1     -44.683 -27.129  -3.663  1.00  0.00     0.000 C 
BRANCH   4   5
ATOM      5  C   UNL     1     -45.930 -27.952  -4.045  1.00  0.00     0.000 C 
BRANCH   5   6
ATOM      6  C   UNL     1     -45.607 -29.314  -4.702  1.00  0.00     0.000 C 
BRANCH   6   7
ATOM      7  C   UNL     1     -46.335 -29.572  -6.038  1.00  0.00     0.000 C 
BRANCH   7   8
ATOM      8  C   UNL     1     -45.500 -29.311  -7.308  1.00  0.00     0.000 C 
BRANCH   8   9
ATOM      9  C   UNL     1     -44.491 -28.150  -7.209  1.00  0.00     0.000 C 
BRANCH   9  10
ATOM     10  C   UNL     1     -43.747 -27.822  -8.516  1.00  0.00     0.006 C 
BRANCH  10  11
ATOM     11  C   UNL     1     -43.437 -29.068  -9.355  1.00  0.00     0.053 C 
BRANCH  11  12
ATOM     12  C   UNL     1     -42.116 -29.652  -8.964  1.00  0.00     0.041 C 
ATOM     13  O   UNL     1     -41.174 -29.701  -9.799  1.00  0.00    -0.550 OA
ATOM     14  O   UNL     1     -41.910 -30.102  -7.666  1.00  0.00    -0.550 OA
ENDBRANCH  11  12
ENDBRANCH  10  11
ENDBRANCH   9  10
ENDBRANCH   8   9
ENDBRANCH   7   8
ENDBRANCH   6   7
ENDBRANCH   5   6
ENDBRANCH   4   5
ENDBRANCH   3   4
ENDBRANCH   2   3
ENDBRANCH   1   2
BRANCH   1  15
ATOM     15  C   UNL     1     -43.916 -29.292   0.373  1.00  0.00     0.000 C 
BRANCH  15  16
ATOM     16  C   UNL     1     -44.721 -29.946  -0.772  1.00  0.00     0.000 C 
BRANCH  16  17
ATOM     17  C   UNL     1     -46.225 -29.639  -0.714  1.00  0.00     0.000 C 
BRANCH  17  18
ATOM     18  C   UNL     1     -46.677 -29.145   0.670  1.00  0.00    -0.000 C 
BRANCH  18  19
ATOM     19  C   UNL     1     -46.956 -27.634   0.693  1.00  0.00    -0.000 C 
BRANCH  19  20
ATOM     20  C   UNL     1     -46.870 -27.033   2.104  1.00  0.00    -0.000 C 
BRANCH  20  21
ATOM     21  C   UNL     1     -46.507 -28.108   3.135  1.00  0.00    -0.000 C 
BRANCH  21  22
ATOM     22  C   UNL     1     -46.723 -27.595   4.568  1.00  0.00    -0.000 C 
BRANCH  22  23
ATOM     23  C   UNL     1     -45.639 -28.085   5.542  1.00  0.00    -0.000 C 
BRANCH  23  24
ATOM     24  C   UNL     1     -45.544 -27.212   6.807  1.00  0.00    -0.000 C 
BRANCH  24  25
ATOM     25  C   UNL     1     -46.662 -26.161   6.883  1.00  0.00    -0.003 C 
ATOM     26  C   UNL     1     -46.835 -25.581   8.287  1.00  0.00     0.004 C 
ENDBRANCH  24  25
ENDBRANCH  23  24
ENDBRANCH  22  23
ENDBRANCH  21  22
ENDBRANCH  20  21
ENDBRANCH  19  20
ENDBRANCH  18  19
ENDBRANCH  17  18
ENDBRANCH  16  17
ENDBRANCH  15  16
ENDBRANCH   1  15
TORSDOF 22
ENDMDL
MODEL 6
REMARK VINA RESULT:    -2.423      1.166      2.100
REMARK INTER + INTRA:          -7.718
REMARK INTER:                  -5.700
REMARK INTRA:                  -2.018
REMARK UNBOUND:                -2.180
REMARK SMILES CCCCCCCCCCCCCCCCCCCCCCCC(=O)[O-]
REMARK SMILES IDX 13 1 14 2 15 3 16 4 17 5 18 6 19 7 20 8 21 9 22 10 23 11
REMARK SMILES IDX 24 12 25 13 26 14 12 15 11 16 10 17 9 18 8 19 7 20 6 21 5 22
REMARK SMILES IDX 4 23 3 24 2 25 1 26
REMARK H PARENT
REMARK Flexibility Score: inf
ROOT
ATOM      1  C   UNL     1     -46.858 -28.929  -0.449  1.00  0.00     0.000 C 
ENDROOT
BRANCH   1   2
ATOM      2  C   UNL     1     -47.114 -29.591  -1.820  1.00  0.00     0.000 C 
BRANCH   2   3
ATOM      3  C   UNL     1     -46.621 -28.762  -3.022  1.00  0.00     0.000 C 
BRANCH   3   4
ATOM      4  C   UNL     1     -47.125 -29.231  -4.397  1.00  0.00     0.000 C 
BRANCH   4   5
ATOM      5  C   UNL     1     -46.146 -30.125  -5.185  1.00  0.00     0.000 C 
BRANCH   5   6
ATOM      6  C   UNL     1     -45.253 -29.352  -6.182  1.00  0.00     0.000 C 
BRANCH   6   7
ATOM      7  C   UNL     1     -45.561 -27.843  -6.286  1.00  0.00     0.000 C 
BRANCH   7   8
ATOM      8  C   UNL     1     -44.641 -27.043  -7.231  1.00  0.00     0.000 C 
BRANCH   8   9
ATOM      9  C   UNL     1     -44.891 -27.258  -8.736  1.00  0.00     0.000 C 
BRANCH   9  10
ATOM     10  C   UNL     1     -43.664 -27.726  -9.539  1.00  0.00     0.006 C 
BRANCH  10  11
ATOM     11  C   UNL     1     -43.549 -29.254  -9.615  1.00  0.00     0.053 C 
BRANCH  11  12
ATOM     12  C   UNL     1     -42.276 -29.719  -8.978  1.00  0.00     0.041 C 
ATOM     13  O   UNL     1     -41.308 -30.088  -9.694  1.00  0.00    -0.550 OA
ATOM     14  O   UNL     1     -42.144 -29.705  -7.595  1.00  0.00    -0.550 OA
ENDBRANCH  11  12
ENDBRANCH  10  11
ENDBRANCH   9  10
ENDBRANCH   8   9
ENDBRANCH   7   8
ENDBRANCH   6   7
ENDBRANCH   5   6
ENDBRANCH   4   5
ENDBRANCH   3   4
ENDBRANCH   2   3
ENDBRANCH   1   2
BRANCH   1  15
ATOM     15  C   UNL     1     -46.592 -29.955   0.667  1.00  0.00     0.000 C 
BRANCH  15  16
ATOM     16  C   UNL     1     -45.134 -29.893   1.174  1.00  0.00     0.000 C 
BRANCH  16  17
ATOM     17  C   UNL     1     -44.096 -29.840   0.042  1.00  0.00     0.000 C 
BRANCH  17  18
ATOM     18  C   UNL     1     -43.096 -28.683   0.206  1.00  0.00    -0.000 C 
BRANCH  18  19
ATOM     19  C   UNL     1     -43.297 -27.578  -0.843  1.00  0.00    -0.000 C 
BRANCH  19  20
ATOM     20  C   UNL     1     -44.171 -26.423  -0.333  1.00  0.00    -0.000 C 
BRANCH  20  21
ATOM     21  C   UNL     1     -44.597 -26.661   1.120  1.00  0.00    -0.000 C 
BRANCH  21  22
ATOM     22  C   UNL     1     -46.043 -26.195   1.355  1.00  0.00    -0.000 C 
BRANCH  22  23
ATOM     23  C   UNL     1     -46.346 -25.921   2.837  1.00  0.00    -0.000 C 
BRANCH  23  24
ATOM     24  C   UNL     1     -46.858 -27.170   3.577  1.00  0.00    -0.000 C 
BRANCH  24  25
ATOM     25  C   UNL     1     -46.198 -27.353   4.952  1.00  0.00    -0.003 C 
ATOM     26  C   UNL     1     -46.730 -26.374   5.999  1.00  0.00     0.004 C 
ENDBRANCH  24  25
ENDBRANCH  23  24
ENDBRANCH  22  23
ENDBRANCH  21  22
ENDBRANCH  20  21
ENDBRANCH  19  20
ENDBRANCH  18  19
ENDBRANCH  17  18
ENDBRANCH  16  17
ENDBRANCH  15  16
ENDBRANCH   1  15
TORSDOF 22
ENDMDL
MODEL 7
REMARK VINA RESULT:    -2.093      1.649      3.416
REMARK INTER + INTRA:          -6.964
REMARK INTER:                  -6.273
REMARK INTRA:                  -0.690
REMARK UNBOUND:                -2.180
REMARK SMILES CCCCCCCCCCCCCCCCCCCCCCCC(=O)[O-]
REMARK SMILES IDX 13 1 14 2 15 3 16 4 17 5 18 6 19 7 20 8 21 9 22 10 23 11
REMARK SMILES IDX 24 12 25 13 26 14 12 15 11 16 10 17 9 18 8 19 7 20 6 21 5 22
REMARK SMILES IDX 4 23 3 24 2 25 1 26
REMARK H PARENT
REMARK Flexibility Score: inf
ROOT
ATOM      1  C   UNL     1     -45.505 -29.174  -1.170  1.00  0.00     0.000 C 
ENDROOT
BRANCH   1   2
ATOM      2  C   UNL     1     -46.369 -29.662  -2.352  1.00  0.00     0.000 C 
BRANCH   2   3
ATOM      3  C   UNL     1     -47.102 -28.534  -3.103  1.00  0.00     0.000 C 
BRANCH   3   4
ATOM      4  C   UNL     1     -47.125 -28.670  -4.636  1.00  0.00     0.000 C 
BRANCH   4   5
ATOM      5  C   UNL     1     -45.761 -28.974  -5.287  1.00  0.00     0.000 C 
BRANCH   5   6
ATOM      6  C   UNL     1     -45.013 -27.720  -5.795  1.00  0.00     0.000 C 
BRANCH   6   7
ATOM      7  C   UNL     1     -45.556 -27.138  -7.117  1.00  0.00     0.000 C 
BRANCH   7   8
ATOM      8  C   UNL     1     -46.177 -28.165  -8.086  1.00  0.00     0.000 C 
BRANCH   8   9
ATOM      9  C   UNL     1     -45.669 -28.094  -9.539  1.00  0.00     0.000 C 
BRANCH   9  10
ATOM     10  C   UNL     1     -44.832 -29.303  -9.995  1.00  0.00     0.006 C 
BRANCH  10  11
ATOM     11  C   UNL     1     -43.332 -28.992 -10.078  1.00  0.00     0.053 C 
BRANCH  11  12
ATOM     12  C   UNL     1     -42.594 -29.655  -8.957  1.00  0.00     0.041 C 
ATOM     13  O   UNL     1     -43.221 -30.081  -7.951  1.00  0.00    -0.550 OA
ATOM     14  O   UNL     1     -41.220 -29.839  -9.041  1.00  0.00    -0.550 OA
ENDBRANCH  11  12
ENDBRANCH  10  11
ENDBRANCH   9  10
ENDBRANCH   8   9
ENDBRANCH   7   8
ENDBRANCH   6   7
ENDBRANCH   5   6
ENDBRANCH   4   5
ENDBRANCH   3   4
ENDBRANCH   2   3
ENDBRANCH   1   2
BRANCH   1  15
ATOM     15  C   UNL     1     -45.560 -30.125   0.040  1.00  0.00     0.000 C 
BRANCH  15  16
ATOM     16  C   UNL     1     -46.859 -29.947   0.856  1.00  0.00     0.000 C 
BRANCH  16  17
ATOM     17  C   UNL     1     -46.611 -29.670   2.347  1.00  0.00     0.000 C 
BRANCH  17  18
ATOM     18  C   UNL     1     -45.986 -28.288   2.598  1.00  0.00    -0.000 C 
BRANCH  18  19
ATOM     19  C   UNL     1     -46.770 -27.155   1.918  1.00  0.00    -0.000 C 
BRANCH  19  20
ATOM     20  C   UNL     1     -46.165 -26.736   0.570  1.00  0.00    -0.000 C 
BRANCH  20  21
ATOM     21  C   UNL     1     -44.761 -26.151   0.759  1.00  0.00    -0.000 C 
BRANCH  21  22
ATOM     22  C   UNL     1     -43.713 -27.265   0.907  1.00  0.00    -0.000 C 
BRANCH  22  23
ATOM     23  C   UNL     1     -42.893 -27.483  -0.375  1.00  0.00    -0.000 C 
BRANCH  23  24
ATOM     24  C   UNL     1     -41.393 -27.679  -0.092  1.00  0.00    -0.000 C 
BRANCH  24  25
ATOM     25  C   UNL     1     -40.949 -29.141  -0.253  1.00  0.00    -0.003 C 
ATOM     26  C   UNL     1     -42.127 -30.114  -0.313  1.00  0.00     0.004 C 
ENDBRANCH  24  25
ENDBRANCH  23  24
ENDBRANCH  22  23
ENDBRANCH  21  22
ENDBRANCH  20  21
ENDBRANCH  19  20
ENDBRANCH  18  19
ENDBRANCH  17  18
ENDBRANCH  16  17
ENDBRANCH  15  16
ENDBRANCH   1  15
TORSDOF 22
ENDMDL
MODEL 8
REMARK VINA RESULT:    -2.077      3.203     10.258
REMARK INTER + INTRA:          -6.928
REMARK INTER:                  -6.938
REMARK INTRA:                   0.009
REMARK UNBOUND:                -2.180
REMARK SMILES CCCCCCCCCCCCCCCCCCCCCCCC(=O)[O-]
REMARK SMILES IDX 13 1 14 2 15 3 16 4 17 5 18 6 19 7 20 8 21 9 22 10 23 11
REMARK SMILES IDX 24 12 25 13 26 14 12 15 11 16 10 17 9 18 8 19 7 20 6 21 5 22
REMARK SMILES IDX 4 23 3 24 2 25 1 26
REMARK H PARENT
REMARK Flexibility Score: inf
ROOT
ATOM      1  C   UNL     1     -44.503 -30.098  -0.037  1.00  0.00     0.000 C 
ENDROOT
BRANCH   1   2
ATOM      2  C   UNL     1     -45.993 -29.786  -0.294  1.00  0.00     0.000 C 
BRANCH   2   3
ATOM      3  C   UNL     1     -46.919 -30.125   0.890  1.00  0.00     0.000 C 
BRANCH   3   4
ATOM      4  C   UNL     1     -46.838 -29.160   2.085  1.00  0.00     0.000 C 
BRANCH   4   5
ATOM      5  C   UNL     1     -46.722 -29.836   3.466  1.00  0.00     0.000 C 
BRANCH   5   6
ATOM      6  C   UNL     1     -45.384 -29.557   4.191  1.00  0.00     0.000 C 
BRANCH   6   7
ATOM      7  C   UNL     1     -45.532 -29.034   5.635  1.00  0.00     0.000 C 
BRANCH   7   8
ATOM      8  C   UNL     1     -46.564 -27.904   5.827  1.00  0.00     0.000 C 
BRANCH   8   9
ATOM      9  C   UNL     1     -46.197 -26.555   5.178  1.00  0.00     0.000 C 
BRANCH   9  10
ATOM     10  C   UNL     1     -46.923 -26.250   3.855  1.00  0.00     0.006 C 
BRANCH  10  11
ATOM     11  C   UNL     1     -46.015 -26.400   2.628  1.00  0.00     0.053 C 
BRANCH  11  12
ATOM     12  C   UNL     1     -46.563 -25.628   1.469  1.00  0.00     0.041 C 
ATOM     13  O   UNL     1     -46.978 -26.233   0.445  1.00  0.00    -0.550 OA
ATOM     14  O   UNL     1     -46.656 -24.243   1.536  1.00  0.00    -0.550 OA
ENDBRANCH  11  12
ENDBRANCH  10  11
ENDBRANCH   9  10
ENDBRANCH   8   9
ENDBRANCH   7   8
ENDBRANCH   6   7
ENDBRANCH   5   6
ENDBRANCH   4   5
ENDBRANCH   3   4
ENDBRANCH   2   3
ENDBRANCH   1   2
BRANCH   1  15
ATOM     15  C   UNL     1     -43.636 -28.828   0.051  1.00  0.00     0.000 C 
BRANCH  15  16
ATOM     16  C   UNL     1     -44.073 -27.757  -0.973  1.00  0.00     0.000 C 
BRANCH  16  17
ATOM     17  C   UNL     1     -45.179 -28.238  -1.925  1.00  0.00     0.000 C 
BRANCH  17  18
ATOM     18  C   UNL     1     -45.101 -27.572  -3.308  1.00  0.00    -0.000 C 
BRANCH  18  19
ATOM     19  C   UNL     1     -46.270 -27.974  -4.222  1.00  0.00    -0.000 C 
BRANCH  19  20
ATOM     20  C   UNL     1     -46.046 -29.325  -4.918  1.00  0.00    -0.000 C 
BRANCH  20  21
ATOM     21  C   UNL     1     -45.472 -29.125  -6.325  1.00  0.00    -0.000 C 
BRANCH  21  22
ATOM     22  C   UNL     1     -45.665 -27.676  -6.800  1.00  0.00    -0.000 C 
BRANCH  22  23
ATOM     23  C   UNL     1     -44.351 -27.019  -7.254  1.00  0.00    -0.000 C 
BRANCH  23  24
ATOM     24  C   UNL     1     -43.661 -27.800  -8.387  1.00  0.00    -0.000 C 
BRANCH  24  25
ATOM     25  C   UNL     1     -42.380 -28.508  -7.919  1.00  0.00    -0.003 C 
ATOM     26  C   UNL     1     -41.920 -29.599  -8.887  1.00  0.00     0.004 C 
ENDBRANCH  24  25
ENDBRANCH  23  24
ENDBRANCH  22  23
ENDBRANCH  21  22
ENDBRANCH  20  21
ENDBRANCH  19  20
ENDBRANCH  18  19
ENDBRANCH  17  18
ENDBRANCH  16  17
ENDBRANCH  15  16
ENDBRANCH   1  15
TORSDOF 22
ENDMDL
MODEL 9
REMARK VINA RESULT:    -1.683      4.844     11.384
REMARK INTER + INTRA:          -6.027
REMARK INTER:                  -4.270
REMARK INTRA:                  -1.757
REMARK UNBOUND:                -2.180
REMARK SMILES CCCCCCCCCCCCCCCCCCCCCCCC(=O)[O-]
REMARK SMILES IDX 13 1 14 2 15 3 16 4 17 5 18 6 19 7 20 8 21 9 22 10 23 11
REMARK SMILES IDX 24 12 25 13 26 14 12 15 11 16 10 17 9 18 8 19 7 20 6 21 5 22
REMARK SMILES IDX 4 23 3 24 2 25 1 26
REMARK H PARENT
REMARK Flexibility Score: inf
ROOT
ATOM      1  C   UNL     1     -45.005 -29.053  -4.272  1.00  0.00     0.000 C 
ENDROOT
BRANCH   1   2
ATOM      2  C   UNL     1     -45.586 -27.758  -3.664  1.00  0.00     0.000 C 
BRANCH   2   3
ATOM      3  C   UNL     1     -46.075 -27.909  -2.211  1.00  0.00     0.000 C 
BRANCH   3   4
ATOM      4  C   UNL     1     -44.992 -28.292  -1.188  1.00  0.00     0.000 C 
BRANCH   4   5
ATOM      5  C   UNL     1     -45.477 -29.168  -0.015  1.00  0.00     0.000 C 
BRANCH   5   6
ATOM      6  C   UNL     1     -46.644 -28.549   0.789  1.00  0.00     0.000 C 
BRANCH   6   7
ATOM      7  C   UNL     1     -46.289 -27.249   1.541  1.00  0.00     0.000 C 
BRANCH   7   8
ATOM      8  C   UNL     1     -46.870 -27.129   2.965  1.00  0.00     0.000 C 
BRANCH   8   9
ATOM      9  C   UNL     1     -46.618 -28.337   3.887  1.00  0.00     0.000 C 
BRANCH   9  10
ATOM     10  C   UNL     1     -46.865 -28.076   5.384  1.00  0.00     0.006 C 
BRANCH  10  11
ATOM     11  C   UNL     1     -46.685 -26.603   5.770  1.00  0.00     0.053 C 
BRANCH  11  12
ATOM     12  C   UNL     1     -46.157 -26.484   7.165  1.00  0.00     0.041 C 
ATOM     13  O   UNL     1     -46.184 -25.374   7.760  1.00  0.00    -0.550 OA
ATOM     14  O   UNL     1     -45.674 -27.607   7.824  1.00  0.00    -0.550 OA
ENDBRANCH  11  12
ENDBRANCH  10  11
ENDBRANCH   9  10
ENDBRANCH   8   9
ENDBRANCH   7   8
ENDBRANCH   6   7
ENDBRANCH   5   6
ENDBRANCH   4   5
ENDBRANCH   3   4
ENDBRANCH   2   3
ENDBRANCH   1   2
BRANCH   1  15
ATOM     15  C   UNL     1     -46.088 -30.100  -4.588  1.00  0.00     0.000 C 
BRANCH  15  16
ATOM     16  C   UNL     1     -46.994 -29.660  -5.759  1.00  0.00     0.000 C 
BRANCH  16  17
ATOM     17  C   UNL     1     -46.484 -30.123  -7.133  1.00  0.00     0.000 C 
BRANCH  17  18
ATOM     18  C   UNL     1     -47.123 -29.345  -8.296  1.00  0.00    -0.000 C 
BRANCH  18  19
ATOM     19  C   UNL     1     -46.092 -28.906  -9.347  1.00  0.00    -0.000 C 
BRANCH  19  20
ATOM     20  C   UNL     1     -45.117 -30.028  -9.732  1.00  0.00    -0.000 C 
BRANCH  20  21
ATOM     21  C   UNL     1     -43.727 -29.462 -10.042  1.00  0.00    -0.000 C 
BRANCH  21  22
ATOM     22  C   UNL     1     -42.666 -30.056  -9.102  1.00  0.00    -0.000 C 
BRANCH  22  23
ATOM     23  C   UNL     1     -42.311 -29.117  -7.938  1.00  0.00    -0.000 C 
BRANCH  23  24
ATOM     24  C   UNL     1     -43.556 -28.599  -7.196  1.00  0.00    -0.000 C 
BRANCH  24  25
ATOM     25  C   UNL     1     -43.603 -27.065  -7.125  1.00  0.00    -0.003 C 
ATOM     26  C   UNL     1     -45.026 -26.511  -7.220  1.00  0.00     0.004 C 
ENDBRANCH  24  25
ENDBRANCH  23  24
ENDBRANCH  22  23
ENDBRANCH  21  22
ENDBRANCH  20  21
ENDBRANCH  19  20
ENDBRANCH  18  19
ENDBRANCH  17  18
ENDBRANCH  16  17
ENDBRANCH  15  16
ENDBRANCH   1  15
TORSDOF 22
ENDMDL
