MODEL 1
REMARK VINA RESULT:    -5.910      0.000      0.000
REMARK INTER + INTRA:          -7.076
REMARK INTER:                  -6.947
REMARK INTRA:                  -0.129
REMARK UNBOUND:                -0.129
REMARK SMILES O=C([O-])C=Cc1ccc(O)c(O)c1
REMARK SMILES IDX 6 1 13 2 7 3 11 4 8 5 9 6 5 7 4 8 2 9 1 10 3 11 12 12 10 14
REMARK H PARENT 12 13 10 15
REMARK Flexibility Score: inf
ROOT
ATOM      1  C   UNL     1     -33.274  -3.564 -18.612  1.00  0.00    -0.022 A 
ATOM      2  C   UNL     1     -33.565  -3.140 -19.920  1.00  0.00     0.058 A 
ATOM      3  C   UNL     1     -31.970  -3.380 -18.112  1.00  0.00     0.012 A 
ATOM      4  C   UNL     1     -32.585  -2.520 -20.708  1.00  0.00     0.157 A 
ATOM      5  C   UNL     1     -30.993  -2.763 -18.898  1.00  0.00     0.051 A 
ATOM      6  C   UNL     1     -31.293  -2.329 -20.192  1.00  0.00     0.157 A 
ENDROOT
BRANCH   1   7
ATOM      7  C   UNL     1     -34.346  -4.224 -17.826  1.00  0.00     0.010 C 
ATOM      8  C   UNL     1     -35.270  -5.034 -18.361  1.00  0.00     0.025 C 
BRANCH   8   9
ATOM      9  C   UNL     1     -36.309  -5.678 -17.541  1.00  0.00     0.064 C 
ATOM     10  O   UNL     1     -37.487  -5.235 -17.572  1.00  0.00    -0.545 OA
ATOM     11  O   UNL     1     -36.011  -6.767 -16.730  1.00  0.00    -0.545 OA
ENDBRANCH   8   9
ENDBRANCH   1   7
BRANCH   4  12
ATOM     12  O   UNL     1     -32.890  -2.095 -22.000  1.00  0.00    -0.504 OA
ATOM     13  H   UNL     1     -32.251  -1.520 -22.536  1.00  0.00     0.293 HD
ENDBRANCH   4  12
BRANCH   6  14
ATOM     14  O   UNL     1     -30.296  -1.715 -20.950  1.00  0.00    -0.504 OA
ATOM     15  H   UNL     1     -29.678  -2.243 -21.554  1.00  0.00     0.293 HD
ENDBRANCH   6  14
TORSDOF 4
ENDMDL
MODEL 2
REMARK VINA RESULT:    -5.666      3.477      5.209
REMARK INTER + INTRA:          -6.789
REMARK INTER:                  -6.661
REMARK INTRA:                  -0.128
REMARK UNBOUND:                -0.129
REMARK SMILES O=C([O-])C=Cc1ccc(O)c(O)c1
REMARK SMILES IDX 6 1 13 2 7 3 11 4 8 5 9 6 5 7 4 8 2 9 1 10 3 11 12 12 10 14
REMARK H PARENT 12 13 10 15
REMARK Flexibility Score: inf
ROOT
ATOM      1  C   UNL     1     -30.304  -3.386 -18.771  1.00  0.00    -0.022 A 
ATOM      2  C   UNL     1     -29.821  -2.833 -19.969  1.00  0.00     0.058 A 
ATOM      3  C   UNL     1     -31.696  -3.429 -18.555  1.00  0.00     0.012 A 
ATOM      4  C   UNL     1     -30.706  -2.354 -20.946  1.00  0.00     0.157 A 
ATOM      5  C   UNL     1     -32.577  -2.952 -19.528  1.00  0.00     0.051 A 
ATOM      6  C   UNL     1     -32.091  -2.418 -20.724  1.00  0.00     0.157 A 
ENDROOT
BRANCH   1   7
ATOM      7  C   UNL     1     -29.324  -3.867 -17.766  1.00  0.00     0.010 C 
ATOM      8  C   UNL     1     -29.030  -5.160 -17.572  1.00  0.00     0.025 C 
BRANCH   8   9
ATOM      9  C   UNL     1     -28.041  -5.592 -16.571  1.00  0.00     0.064 C 
ATOM     10  O   UNL     1     -27.074  -4.837 -16.289  1.00  0.00    -0.545 OA
ATOM     11  O   UNL     1     -28.156  -6.821 -15.932  1.00  0.00    -0.545 OA
ENDBRANCH   8   9
ENDBRANCH   1   7
BRANCH   4  12
ATOM     12  O   UNL     1     -30.214  -1.818 -22.134  1.00  0.00    -0.504 OA
ATOM     13  H   UNL     1     -29.326  -2.113 -22.523  1.00  0.00     0.293 HD
ENDBRANCH   4  12
BRANCH   6  14
ATOM     14  O   UNL     1     -32.997  -1.953 -21.677  1.00  0.00    -0.504 OA
ATOM     15  H   UNL     1     -32.710  -1.703 -22.616  1.00  0.00     0.293 HD
ENDBRANCH   6  14
TORSDOF 4
ENDMDL
MODEL 3
REMARK VINA RESULT:    -5.476      3.180      4.389
REMARK INTER + INTRA:          -6.566
REMARK INTER:                  -6.436
REMARK INTRA:                  -0.130
REMARK UNBOUND:                -0.129
REMARK SMILES O=C([O-])C=Cc1ccc(O)c(O)c1
REMARK SMILES IDX 6 1 13 2 7 3 11 4 8 5 9 6 5 7 4 8 2 9 1 10 3 11 12 12 10 14
REMARK H PARENT 12 13 10 15
REMARK Flexibility Score: inf
ROOT
ATOM      1  C   UNL     1     -35.866  -5.333 -16.621  1.00  0.00    -0.022 A 
ATOM      2  C   UNL     1     -36.376  -5.762 -17.859  1.00  0.00     0.058 A 
ATOM      3  C   UNL     1     -35.153  -4.120 -16.565  1.00  0.00     0.012 A 
ATOM      4  C   UNL     1     -36.202  -4.986 -19.015  1.00  0.00     0.157 A 
ATOM      5  C   UNL     1     -34.979  -3.347 -17.716  1.00  0.00     0.051 A 
ATOM      6  C   UNL     1     -35.503  -3.771 -18.940  1.00  0.00     0.157 A 
ENDROOT
BRANCH   1   7
ATOM      7  C   UNL     1     -36.069  -6.198 -15.433  1.00  0.00     0.010 C 
ATOM      8  C   UNL     1     -36.092  -7.538 -15.483  1.00  0.00     0.025 C 
BRANCH   8   9
ATOM      9  C   UNL     1     -36.284  -8.358 -14.276  1.00  0.00     0.064 C 
ATOM     10  O   UNL     1     -37.314  -9.073 -14.169  1.00  0.00    -0.545 OA
ATOM     11  O   UNL     1     -35.346  -8.355 -13.249  1.00  0.00    -0.545 OA
ENDBRANCH   8   9
ENDBRANCH   1   7
BRANCH   4  12
ATOM     12  O   UNL     1     -36.722  -5.419 -20.233  1.00  0.00    -0.504 OA
ATOM     13  H   UNL     1     -37.687  -5.716 -20.324  1.00  0.00     0.293 HD
ENDBRANCH   4  12
BRANCH   6  14
ATOM     14  O   UNL     1     -35.314  -2.976 -20.070  1.00  0.00    -0.504 OA
ATOM     15  H   UNL     1     -34.811  -2.098 -20.033  1.00  0.00     0.293 HD
ENDBRANCH   6  14
TORSDOF 4
ENDMDL
MODEL 4
REMARK VINA RESULT:    -5.405      2.860      5.192
REMARK INTER + INTRA:          -6.483
REMARK INTER:                  -6.352
REMARK INTRA:                  -0.130
REMARK UNBOUND:                -0.129
REMARK SMILES O=C([O-])C=Cc1ccc(O)c(O)c1
REMARK SMILES IDX 6 1 13 2 7 3 11 4 8 5 9 6 5 7 4 8 2 9 1 10 3 11 12 12 10 14
REMARK H PARENT 12 13 10 15
REMARK Flexibility Score: inf
ROOT
ATOM      1  C   UNL     1     -31.437  -3.350 -18.527  1.00  0.00    -0.022 A 
ATOM      2  C   UNL     1     -31.564  -2.802 -19.816  1.00  0.00     0.058 A 
ATOM      3  C   UNL     1     -32.600  -3.751 -17.842  1.00  0.00     0.012 A 
ATOM      4  C   UNL     1     -32.822  -2.680 -20.422  1.00  0.00     0.157 A 
ATOM      5  C   UNL     1     -33.854  -3.629 -18.446  1.00  0.00     0.051 A 
ATOM      6  C   UNL     1     -33.972  -3.098 -19.734  1.00  0.00     0.157 A 
ENDROOT
BRANCH   1   7
ATOM      7  C   UNL     1     -30.083  -3.445 -17.928  1.00  0.00     0.010 C 
ATOM      8  C   UNL     1     -29.449  -4.605 -17.702  1.00  0.00     0.025 C 
BRANCH   8   9
ATOM      9  C   UNL     1     -28.100  -4.653 -17.116  1.00  0.00     0.064 C 
ATOM     10  O   UNL     1     -27.333  -3.663 -17.241  1.00  0.00    -0.545 OA
ATOM     11  O   UNL     1     -27.657  -5.776 -16.426  1.00  0.00    -0.545 OA
ENDBRANCH   8   9
ENDBRANCH   1   7
BRANCH   4  12
ATOM     12  O   UNL     1     -32.932  -2.145 -21.704  1.00  0.00    -0.504 OA
ATOM     13  H   UNL     1     -32.974  -2.736 -22.526  1.00  0.00     0.293 HD
ENDBRANCH   4  12
BRANCH   6  14
ATOM     14  O   UNL     1     -35.238  -2.991 -20.310  1.00  0.00    -0.504 OA
ATOM     15  H   UNL     1     -35.994  -2.492 -19.858  1.00  0.00     0.293 HD
ENDBRANCH   6  14
TORSDOF 4
ENDMDL
MODEL 5
REMARK VINA RESULT:    -5.294      2.649      3.724
REMARK INTER + INTRA:          -6.352
REMARK INTER:                  -6.227
REMARK INTRA:                  -0.126
REMARK UNBOUND:                -0.129
REMARK SMILES O=C([O-])C=Cc1ccc(O)c(O)c1
REMARK SMILES IDX 6 1 13 2 7 3 11 4 8 5 9 6 5 7 4 8 2 9 1 10 3 11 12 12 10 14
REMARK H PARENT 12 13 10 15
REMARK Flexibility Score: inf
ROOT
ATOM      1  C   UNL     1     -35.889  -5.232 -17.435  1.00  0.00    -0.022 A 
ATOM      2  C   UNL     1     -36.228  -5.464 -18.780  1.00  0.00     0.058 A 
ATOM      3  C   UNL     1     -34.945  -4.231 -17.135  1.00  0.00     0.012 A 
ATOM      4  C   UNL     1     -35.657  -4.696 -19.805  1.00  0.00     0.157 A 
ATOM      5  C   UNL     1     -34.376  -3.467 -18.157  1.00  0.00     0.051 A 
ATOM      6  C   UNL     1     -34.729  -3.691 -19.491  1.00  0.00     0.157 A 
ENDROOT
BRANCH   1   7
ATOM      7  C   UNL     1     -36.514  -6.081 -16.390  1.00  0.00     0.010 C 
ATOM      8  C   UNL     1     -36.085  -7.312 -16.077  1.00  0.00     0.025 C 
BRANCH   8   9
ATOM      9  C   UNL     1     -36.728  -8.115 -15.025  1.00  0.00     0.064 C 
ATOM     10  O   UNL     1     -36.088  -8.390 -13.976  1.00  0.00    -0.545 OA
ATOM     11  O   UNL     1     -38.031  -8.577 -15.169  1.00  0.00    -0.545 OA
ENDBRANCH   8   9
ENDBRANCH   1   7
BRANCH   4  12
ATOM     12  O   UNL     1     -36.010  -4.930 -21.133  1.00  0.00    -0.504 OA
ATOM     13  H   UNL     1     -36.346  -5.835 -21.443  1.00  0.00     0.293 HD
ENDBRANCH   4  12
BRANCH   6  14
ATOM     14  O   UNL     1     -34.146  -2.910 -20.488  1.00  0.00    -0.504 OA
ATOM     15  H   UNL     1     -33.210  -3.088 -20.832  1.00  0.00     0.293 HD
ENDBRANCH   6  14
TORSDOF 4
ENDMDL
MODEL 6
REMARK VINA RESULT:    -5.202      3.359      7.796
REMARK INTER + INTRA:          -6.244
REMARK INTER:                  -6.117
REMARK INTRA:                  -0.127
REMARK UNBOUND:                -0.129
REMARK SMILES O=C([O-])C=Cc1ccc(O)c(O)c1
REMARK SMILES IDX 6 1 13 2 7 3 11 4 8 5 9 6 5 7 4 8 2 9 1 10 3 11 12 12 10 14
REMARK H PARENT 12 13 10 15
REMARK Flexibility Score: inf
ROOT
ATOM      1  C   UNL     1     -36.771  -6.800 -16.160  1.00  0.00    -0.022 A 
ATOM      2  C   UNL     1     -38.057  -6.387 -15.770  1.00  0.00     0.058 A 
ATOM      3  C   UNL     1     -36.244  -7.986 -15.612  1.00  0.00     0.012 A 
ATOM      4  C   UNL     1     -38.815  -7.152 -14.873  1.00  0.00     0.157 A 
ATOM      5  C   UNL     1     -36.999  -8.749 -14.718  1.00  0.00     0.051 A 
ATOM      6  C   UNL     1     -38.283  -8.341 -14.347  1.00  0.00     0.157 A 
ENDROOT
BRANCH   1   7
ATOM      7  C   UNL     1     -36.007  -5.946 -17.103  1.00  0.00     0.010 C 
ATOM      8  C   UNL     1     -35.742  -4.650 -16.887  1.00  0.00     0.025 C 
BRANCH   8   9
ATOM      9  C   UNL     1     -34.970  -3.843 -17.845  1.00  0.00     0.064 C 
ATOM     10  O   UNL     1     -33.717  -3.780 -17.736  1.00  0.00    -0.545 OA
ATOM     11  O   UNL     1     -35.601  -3.147 -18.870  1.00  0.00    -0.545 OA
ENDBRANCH   8   9
ENDBRANCH   1   7
BRANCH   4  12
ATOM     12  O   UNL     1     -40.093  -6.736 -14.504  1.00  0.00    -0.504 OA
ATOM     13  H   UNL     1     -40.869  -7.385 -14.449  1.00  0.00     0.293 HD
ENDBRANCH   4  12
BRANCH   6  14
ATOM     14  O   UNL     1     -39.013  -9.125 -13.454  1.00  0.00    -0.504 OA
ATOM     15  H   UNL     1     -39.958  -8.887 -13.177  1.00  0.00     0.293 HD
ENDBRANCH   6  14
TORSDOF 4
ENDMDL
MODEL 7
REMARK VINA RESULT:    -5.179      4.282      6.984
REMARK INTER + INTRA:          -6.217
REMARK INTER:                  -6.091
REMARK INTRA:                  -0.126
REMARK UNBOUND:                -0.129
REMARK SMILES O=C([O-])C=Cc1ccc(O)c(O)c1
REMARK SMILES IDX 6 1 13 2 7 3 11 4 8 5 9 6 5 7 4 8 2 9 1 10 3 11 12 12 10 14
REMARK H PARENT 12 13 10 15
REMARK Flexibility Score: inf
ROOT
ATOM      1  C   UNL     1     -36.497  -6.561 -16.138  1.00  0.00    -0.022 A 
ATOM      2  C   UNL     1     -36.075  -5.843 -15.004  1.00  0.00     0.058 A 
ATOM      3  C   UNL     1     -36.438  -7.968 -16.110  1.00  0.00     0.012 A 
ATOM      4  C   UNL     1     -35.628  -6.513 -13.856  1.00  0.00     0.157 A 
ATOM      5  C   UNL     1     -35.992  -8.635 -14.967  1.00  0.00     0.051 A 
ATOM      6  C   UNL     1     -35.590  -7.916 -13.838  1.00  0.00     0.157 A 
ENDROOT
BRANCH   1   7
ATOM      7  C   UNL     1     -36.950  -5.802 -17.330  1.00  0.00     0.010 C 
ATOM      8  C   UNL     1     -36.120  -5.333 -18.273  1.00  0.00     0.025 C 
BRANCH   8   9
ATOM      9  C   UNL     1     -36.614  -4.595 -19.446  1.00  0.00     0.064 C 
ATOM     10  O   UNL     1     -36.727  -5.189 -20.551  1.00  0.00    -0.545 OA
ATOM     11  O   UNL     1     -36.958  -3.251 -19.356  1.00  0.00    -0.545 OA
ENDBRANCH   8   9
ENDBRANCH   1   7
BRANCH   4  12
ATOM     12  O   UNL     1     -35.223  -5.788 -12.737  1.00  0.00    -0.504 OA
ATOM     13  H   UNL     1     -35.632  -4.889 -12.509  1.00  0.00     0.293 HD
ENDBRANCH   4  12
BRANCH   6  14
ATOM     14  O   UNL     1     -35.152  -8.611 -12.711  1.00  0.00    -0.504 OA
ATOM     15  H   UNL     1     -35.618  -9.448 -12.380  1.00  0.00     0.293 HD
ENDBRANCH   6  14
TORSDOF 4
ENDMDL
MODEL 8
REMARK VINA RESULT:    -5.072      2.145      3.152
REMARK INTER + INTRA:          -6.091
REMARK INTER:                  -5.959
REMARK INTRA:                  -0.132
REMARK UNBOUND:                -0.129
REMARK SMILES O=C([O-])C=Cc1ccc(O)c(O)c1
REMARK SMILES IDX 6 1 13 2 7 3 11 4 8 5 9 6 5 7 4 8 2 9 1 10 3 11 12 12 10 14
REMARK H PARENT 12 13 10 15
REMARK Flexibility Score: inf
ROOT
ATOM      1  C   UNL     1     -35.131  -4.429 -17.905  1.00  0.00    -0.022 A 
ATOM      2  C   UNL     1     -33.923  -3.718 -18.017  1.00  0.00     0.058 A 
ATOM      3  C   UNL     1     -35.632  -5.098 -19.038  1.00  0.00     0.012 A 
ATOM      4  C   UNL     1     -33.213  -3.695 -19.226  1.00  0.00     0.157 A 
ATOM      5  C   UNL     1     -34.926  -5.076 -20.243  1.00  0.00     0.051 A 
ATOM      6  C   UNL     1     -33.717  -4.381 -20.343  1.00  0.00     0.157 A 
ENDROOT
BRANCH   1   7
ATOM      7  C   UNL     1     -35.847  -4.410 -16.606  1.00  0.00     0.010 C 
ATOM      8  C   UNL     1     -36.083  -5.506 -15.870  1.00  0.00     0.025 C 
BRANCH   8   9
ATOM      9  C   UNL     1     -36.788  -5.440 -14.580  1.00  0.00     0.064 C 
ATOM     10  O   UNL     1     -36.996  -4.320 -14.043  1.00  0.00    -0.545 OA
ATOM     11  O   UNL     1     -37.228  -6.594 -13.942  1.00  0.00    -0.545 OA
ENDBRANCH   8   9
ENDBRANCH   1   7
BRANCH   4  12
ATOM     12  O   UNL     1     -32.012  -2.996 -19.319  1.00  0.00    -0.504 OA
ATOM     13  H   UNL     1     -31.987  -1.983 -19.340  1.00  0.00     0.293 HD
ENDBRANCH   4  12
BRANCH   6  14
ATOM     14  O   UNL     1     -33.034  -4.379 -21.559  1.00  0.00    -0.504 OA
ATOM     15  H   UNL     1     -32.691  -3.525 -21.983  1.00  0.00     0.293 HD
ENDBRANCH   6  14
TORSDOF 4
ENDMDL
MODEL 9
REMARK VINA RESULT:    -4.904      6.976      8.281
REMARK INTER + INTRA:          -5.894
REMARK INTER:                  -5.753
REMARK INTRA:                  -0.141
REMARK UNBOUND:                -0.129
REMARK SMILES O=C([O-])C=Cc1ccc(O)c(O)c1
REMARK SMILES IDX 6 1 13 2 7 3 11 4 8 5 9 6 5 7 4 8 2 9 1 10 3 11 12 12 10 14
REMARK H PARENT 12 13 10 15
REMARK Flexibility Score: inf
ROOT
ATOM      1  C   UNL     1     -37.986  -6.033 -13.749  1.00  0.00    -0.022 A 
ATOM      2  C   UNL     1     -38.794  -6.960 -14.431  1.00  0.00     0.058 A 
ATOM      3  C   UNL     1     -36.586  -6.173 -13.818  1.00  0.00     0.012 A 
ATOM      4  C   UNL     1     -38.220  -7.991 -15.189  1.00  0.00     0.157 A 
ATOM      5  C   UNL     1     -36.014  -7.200 -14.572  1.00  0.00     0.051 A 
ATOM      6  C   UNL     1     -36.822  -8.108 -15.261  1.00  0.00     0.157 A 
ENDROOT
BRANCH   1   7
ATOM      7  C   UNL     1     -38.645  -4.969 -12.952  1.00  0.00     0.010 C 
ATOM      8  C   UNL     1     -38.024  -3.853 -12.543  1.00  0.00     0.025 C 
BRANCH   8   9
ATOM      9  C   UNL     1     -38.720  -2.817 -11.764  1.00  0.00     0.064 C 
ATOM     10  O   UNL     1     -39.972  -2.870 -11.639  1.00  0.00    -0.545 OA
ATOM     11  O   UNL     1     -38.019  -1.778 -11.163  1.00  0.00    -0.545 OA
ENDBRANCH   8   9
ENDBRANCH   1   7
BRANCH   4  12
ATOM     12  O   UNL     1     -39.033  -8.896 -15.868  1.00  0.00    -0.504 OA
ATOM     13  H   UNL     1     -39.896  -8.605 -16.313  1.00  0.00     0.293 HD
ENDBRANCH   4  12
BRANCH   6  14
ATOM     14  O   UNL     1     -36.221  -9.122 -16.008  1.00  0.00    -0.504 OA
ATOM     15  H   UNL     1     -35.298  -9.017 -16.411  1.00  0.00     0.293 HD
ENDBRANCH   6  14
TORSDOF 4
ENDMDL
