MODEL 1
REMARK VINA RESULT:    -4.626      0.000      0.000
REMARK INTER + INTRA:          -6.084
REMARK INTER:                  -5.707
REMARK INTRA:                  -0.377
REMARK UNBOUND:                -0.377
REMARK SMILES Oc1cc(O)c2cc(O)c(-c3cc(O)c(O)c(O)c3)[o+]c2c1
REMARK SMILES IDX 10 1 20 2 21 3 22 4 2 5 3 6 4 7 6 8 7 9 8 10 11 11 12 12
REMARK SMILES IDX 13 13 19 14 15 15 17 16 14 17 16 19 18 21 9 23 1 25 5 27
REMARK H PARENT 14 18 16 20 18 22 9 24 1 26 5 28
REMARK Flexibility Score: inf
ROOT
ATOM      1  C   UNL     1      20.263 -37.684   7.408  1.00  0.00     0.402 A 
ATOM      2  O   UNL     1      19.144 -38.037   6.781  1.00  0.00    -0.202 OA
ATOM      3  C   UNL     1      19.105 -38.950   5.817  1.00  0.00     0.368 A 
ATOM      4  C   UNL     1      17.879 -39.256   5.220  1.00  0.00     0.162 A 
ATOM      5  C   UNL     1      17.808 -40.213   4.207  1.00  0.00     0.128 A 
ATOM      6  C   UNL     1      18.969 -40.871   3.786  1.00  0.00     0.093 A 
ATOM      7  C   UNL     1      20.210 -40.583   4.370  1.00  0.00     0.136 A 
ATOM      8  C   UNL     1      20.286 -39.608   5.398  1.00  0.00     0.125 A 
ATOM      9  C   UNL     1      21.487 -39.246   6.030  1.00  0.00     0.078 A 
ATOM     10  C   UNL     1      21.485 -38.272   7.033  1.00  0.00     0.223 A 
ENDROOT
BRANCH   1  11
ATOM     11  C   UNL     1      20.176 -36.660   8.475  1.00  0.00     0.091 A 
ATOM     12  C   UNL     1      20.378 -35.299   8.198  1.00  0.00     0.068 A 
ATOM     13  C   UNL     1      20.314 -34.348   9.225  1.00  0.00     0.162 A 
ATOM     14  C   UNL     1      19.945 -37.059   9.798  1.00  0.00     0.068 A 
ATOM     15  C   UNL     1      20.058 -34.747  10.544  1.00  0.00     0.200 A 
ATOM     16  C   UNL     1      19.878 -36.120  10.834  1.00  0.00     0.162 A 
BRANCH  13  17
ATOM     17  O   UNL     1      20.508 -32.997   8.942  1.00  0.00    -0.504 OA
ATOM     18  H   UNL     1      20.628 -32.312   9.679  1.00  0.00     0.293 HD
ENDBRANCH  13  17
BRANCH  15  19
ATOM     19  O   UNL     1      19.998 -33.758  11.529  1.00  0.00    -0.502 OA
ATOM     20  H   UNL     1      19.588 -33.893  12.442  1.00  0.00     0.293 HD
ENDBRANCH  15  19
BRANCH  16  21
ATOM     21  O   UNL     1      19.631 -36.593  12.125  1.00  0.00    -0.504 OA
ATOM     22  H   UNL     1      19.988 -36.160  12.964  1.00  0.00     0.293 HD
ENDBRANCH  16  21
ENDBRANCH   1  11
BRANCH  10  23
ATOM     23  O   UNL     1      22.685 -37.876   7.626  1.00  0.00    -0.500 OA
ATOM     24  H   UNL     1      23.280 -37.174   7.204  1.00  0.00     0.294 HD
ENDBRANCH  10  23
BRANCH   5  25
ATOM     25  O   UNL     1      16.576 -40.504   3.623  1.00  0.00    -0.507 OA
ATOM     26  H   UNL     1      16.450 -41.314   3.028  1.00  0.00     0.293 HD
ENDBRANCH   5  25
BRANCH   7  27
ATOM     27  O   UNL     1      21.321 -41.285   3.896  1.00  0.00    -0.507 OA
ATOM     28  H   UNL     1      21.357 -42.288   3.784  1.00  0.00     0.293 HD
ENDBRANCH   7  27
TORSDOF 7
ENDMDL
MODEL 2
REMARK VINA RESULT:    -4.551      2.665      7.077
REMARK INTER + INTRA:          -5.992
REMARK INTER:                  -5.958
REMARK INTRA:                  -0.033
REMARK UNBOUND:                -0.377
REMARK SMILES Oc1cc(O)c2cc(O)c(-c3cc(O)c(O)c(O)c3)[o+]c2c1
REMARK SMILES IDX 10 1 20 2 21 3 22 4 2 5 3 6 4 7 6 8 7 9 8 10 11 11 12 12
REMARK SMILES IDX 13 13 19 14 15 15 17 16 14 17 16 19 18 21 9 23 1 25 5 27
REMARK H PARENT 14 18 16 20 18 22 9 24 1 26 5 28
REMARK Flexibility Score: inf
ROOT
ATOM      1  C   UNL     1      20.794 -36.998   9.101  1.00  0.00     0.402 A 
ATOM      2  O   UNL     1      20.589 -35.838   8.482  1.00  0.00    -0.202 OA
ATOM      3  C   UNL     1      19.901 -34.836   9.018  1.00  0.00     0.368 A 
ATOM      4  C   UNL     1      19.744 -33.653   8.290  1.00  0.00     0.162 A 
ATOM      5  C   UNL     1      19.029 -32.584   8.830  1.00  0.00     0.128 A 
ATOM      6  C   UNL     1      18.467 -32.693  10.107  1.00  0.00     0.093 A 
ATOM      7  C   UNL     1      18.612 -33.867  10.857  1.00  0.00     0.136 A 
ATOM      8  C   UNL     1      19.336 -34.958  10.310  1.00  0.00     0.125 A 
ATOM      9  C   UNL     1      19.520 -36.177  10.984  1.00  0.00     0.078 A 
ATOM     10  C   UNL     1      20.242 -37.210  10.379  1.00  0.00     0.223 A 
ENDROOT
BRANCH   1  11
ATOM     11  C   UNL     1      21.586 -38.036   8.402  1.00  0.00     0.091 A 
ATOM     12  C   UNL     1      22.595 -38.752   9.064  1.00  0.00     0.068 A 
ATOM     13  C   UNL     1      23.348 -39.714   8.379  1.00  0.00     0.162 A 
ATOM     14  C   UNL     1      21.366 -38.269   7.038  1.00  0.00     0.068 A 
ATOM     15  C   UNL     1      23.111 -39.964   7.020  1.00  0.00     0.200 A 
ATOM     16  C   UNL     1      22.111 -39.227   6.341  1.00  0.00     0.162 A 
BRANCH  13  17
ATOM     17  O   UNL     1      24.344 -40.429   9.044  1.00  0.00    -0.504 OA
ATOM     18  H   UNL     1      25.317 -40.366   8.768  1.00  0.00     0.293 HD
ENDBRANCH  13  17
BRANCH  15  19
ATOM     19  O   UNL     1      23.886 -40.938   6.386  1.00  0.00    -0.502 OA
ATOM     20  H   UNL     1      24.280 -41.740   6.856  1.00  0.00     0.293 HD
ENDBRANCH  15  19
BRANCH  16  21
ATOM     21  O   UNL     1      21.827 -39.412   4.986  1.00  0.00    -0.504 OA
ATOM     22  H   UNL     1      21.566 -38.668   4.356  1.00  0.00     0.293 HD
ENDBRANCH  16  21
ENDBRANCH   1  11
BRANCH  10  23
ATOM     23  O   UNL     1      20.383 -38.438  11.026  1.00  0.00    -0.500 OA
ATOM     24  H   UNL     1      19.949 -39.281  10.669  1.00  0.00     0.294 HD
ENDBRANCH  10  23
BRANCH   5  25
ATOM     25  O   UNL     1      18.881 -31.413   8.088  1.00  0.00    -0.507 OA
ATOM     26  H   UNL     1      17.976 -30.977   7.960  1.00  0.00     0.293 HD
ENDBRANCH   5  25
BRANCH   7  27
ATOM     27  O   UNL     1      18.024 -33.897  12.125  1.00  0.00    -0.507 OA
ATOM     28  H   UNL     1      17.336 -33.233  12.450  1.00  0.00     0.293 HD
ENDBRANCH   7  27
TORSDOF 7
ENDMDL
MODEL 3
REMARK VINA RESULT:    -4.544     12.880     15.483
REMARK INTER + INTRA:          -5.983
REMARK INTER:                  -5.729
REMARK INTRA:                  -0.255
REMARK UNBOUND:                -0.377
REMARK SMILES Oc1cc(O)c2cc(O)c(-c3cc(O)c(O)c(O)c3)[o+]c2c1
REMARK SMILES IDX 10 1 20 2 21 3 22 4 2 5 3 6 4 7 6 8 7 9 8 10 11 11 12 12
REMARK SMILES IDX 13 13 19 14 15 15 17 16 14 17 16 19 18 21 9 23 1 25 5 27
REMARK H PARENT 14 18 16 20 18 22 9 24 1 26 5 28
REMARK Flexibility Score: inf
ROOT
ATOM      1  C   UNL     1      31.187 -35.463  -0.733  1.00  0.00     0.402 A 
ATOM      2  O   UNL     1      31.210 -35.053   0.533  1.00  0.00    -0.202 OA
ATOM      3  C   UNL     1      31.662 -33.861   0.906  1.00  0.00     0.368 A 
ATOM      4  C   UNL     1      31.642 -33.520   2.261  1.00  0.00     0.162 A 
ATOM      5  C   UNL     1      32.107 -32.273   2.680  1.00  0.00     0.128 A 
ATOM      6  C   UNL     1      32.596 -31.359   1.741  1.00  0.00     0.093 A 
ATOM      7  C   UNL     1      32.625 -31.677   0.377  1.00  0.00     0.136 A 
ATOM      8  C   UNL     1      32.156 -32.945  -0.053  1.00  0.00     0.125 A 
ATOM      9  C   UNL     1      32.160 -33.354  -1.397  1.00  0.00     0.078 A 
ATOM     10  C   UNL     1      31.685 -34.622  -1.745  1.00  0.00     0.223 A 
ENDROOT
BRANCH   1  11
ATOM     11  C   UNL     1      30.649 -36.813  -1.023  1.00  0.00     0.091 A 
ATOM     12  C   UNL     1      31.330 -37.972  -0.621  1.00  0.00     0.068 A 
ATOM     13  C   UNL     1      30.817 -39.239  -0.925  1.00  0.00     0.162 A 
ATOM     14  C   UNL     1      29.467 -36.939  -1.765  1.00  0.00     0.068 A 
ATOM     15  C   UNL     1      29.621 -39.364  -1.647  1.00  0.00     0.200 A 
ATOM     16  C   UNL     1      28.942 -38.199  -2.076  1.00  0.00     0.162 A 
BRANCH  13  17
ATOM     17  O   UNL     1      31.494 -40.387  -0.516  1.00  0.00    -0.504 OA
ATOM     18  H   UNL     1      31.792 -41.093  -1.179  1.00  0.00     0.293 HD
ENDBRANCH  13  17
BRANCH  15  19
ATOM     19  O   UNL     1      29.150 -40.651  -1.918  1.00  0.00    -0.502 OA
ATOM     20  H   UNL     1      28.587 -40.889  -2.722  1.00  0.00     0.293 HD
ENDBRANCH  15  19
BRANCH  16  21
ATOM     21  O   UNL     1      27.753 -38.245  -2.809  1.00  0.00    -0.504 OA
ATOM     22  H   UNL     1      27.711 -38.332  -3.813  1.00  0.00     0.293 HD
ENDBRANCH  16  21
ENDBRANCH   1  11
BRANCH  10  23
ATOM     23  O   UNL     1      31.735 -35.048  -3.073  1.00  0.00    -0.500 OA
ATOM     24  H   UNL     1      31.909 -36.016  -3.314  1.00  0.00     0.294 HD
ENDBRANCH  10  23
BRANCH   5  25
ATOM     25  O   UNL     1      32.080 -31.952   4.036  1.00  0.00    -0.507 OA
ATOM     26  H   UNL     1      32.899 -32.058   4.623  1.00  0.00     0.293 HD
ENDBRANCH   5  25
BRANCH   7  27
ATOM     27  O   UNL     1      33.125 -30.708  -0.498  1.00  0.00    -0.507 OA
ATOM     28  H   UNL     1      33.969 -30.177  -0.340  1.00  0.00     0.293 HD
ENDBRANCH   7  27
TORSDOF 7
ENDMDL
MODEL 4
REMARK VINA RESULT:    -4.541      1.567      3.436
REMARK INTER + INTRA:          -5.980
REMARK INTER:                  -5.694
REMARK INTRA:                  -0.286
REMARK UNBOUND:                -0.377
REMARK SMILES Oc1cc(O)c2cc(O)c(-c3cc(O)c(O)c(O)c3)[o+]c2c1
REMARK SMILES IDX 10 1 20 2 21 3 22 4 2 5 3 6 4 7 6 8 7 9 8 10 11 11 12 12
REMARK SMILES IDX 13 13 19 14 15 15 17 16 14 17 16 19 18 21 9 23 1 25 5 27
REMARK H PARENT 14 18 16 20 18 22 9 24 1 26 5 28
REMARK Flexibility Score: inf
ROOT
ATOM      1  C   UNL     1      19.879 -36.761   7.736  1.00  0.00     0.402 A 
ATOM      2  O   UNL     1      21.024 -37.386   7.475  1.00  0.00    -0.202 OA
ATOM      3  C   UNL     1      21.105 -38.475   6.718  1.00  0.00     0.368 A 
ATOM      4  C   UNL     1      22.356 -39.059   6.498  1.00  0.00     0.162 A 
ATOM      5  C   UNL     1      22.471 -40.200   5.704  1.00  0.00     0.128 A 
ATOM      6  C   UNL     1      21.330 -40.764   5.124  1.00  0.00     0.093 A 
ATOM      7  C   UNL     1      20.065 -40.198   5.328  1.00  0.00     0.136 A 
ATOM      8  C   UNL     1      19.943 -39.038   6.137  1.00  0.00     0.125 A 
ATOM      9  C   UNL     1      18.716 -38.410   6.407  1.00  0.00     0.078 A 
ATOM     10  C   UNL     1      18.674 -37.273   7.218  1.00  0.00     0.223 A 
ENDROOT
BRANCH   1  11
ATOM     11  C   UNL     1      19.919 -35.550   8.587  1.00  0.00     0.091 A 
ATOM     12  C   UNL     1      20.168 -35.634   9.966  1.00  0.00     0.068 A 
ATOM     13  C   UNL     1      20.180 -34.479  10.758  1.00  0.00     0.162 A 
ATOM     14  C   UNL     1      19.647 -34.298   8.019  1.00  0.00     0.068 A 
ATOM     15  C   UNL     1      19.930 -33.225  10.183  1.00  0.00     0.200 A 
ATOM     16  C   UNL     1      19.655 -33.135   8.798  1.00  0.00     0.162 A 
BRANCH  13  17
ATOM     17  O   UNL     1      20.435 -34.569  12.125  1.00  0.00    -0.504 OA
ATOM     18  H   UNL     1      20.802 -35.417  12.542  1.00  0.00     0.293 HD
ENDBRANCH  13  17
BRANCH  15  19
ATOM     19  O   UNL     1      19.960 -32.104  11.017  1.00  0.00    -0.502 OA
ATOM     20  H   UNL     1      20.126 -31.162  10.692  1.00  0.00     0.293 HD
ENDBRANCH  15  19
BRANCH  16  21
ATOM     21  O   UNL     1      19.386 -31.923   8.159  1.00  0.00    -0.504 OA
ATOM     22  H   UNL     1      19.640 -31.718   7.204  1.00  0.00     0.293 HD
ENDBRANCH  16  21
ENDBRANCH   1  11
BRANCH  10  23
ATOM     23  O   UNL     1      17.450 -36.678   7.527  1.00  0.00    -0.500 OA
ATOM     24  H   UNL     1      17.068 -36.704   8.465  1.00  0.00     0.294 HD
ENDBRANCH  10  23
BRANCH   5  25
ATOM     25  O   UNL     1      23.727 -40.769   5.498  1.00  0.00    -0.507 OA
ATOM     26  H   UNL     1      24.275 -41.135   6.266  1.00  0.00     0.293 HD
ENDBRANCH   5  25
BRANCH   7  27
ATOM     27  O   UNL     1      18.975 -40.818   4.711  1.00  0.00    -0.507 OA
ATOM     28  H   UNL     1      18.890 -40.963   3.715  1.00  0.00     0.293 HD
ENDBRANCH   7  27
TORSDOF 7
ENDMDL
MODEL 5
REMARK VINA RESULT:    -4.504      2.654      6.779
REMARK INTER + INTRA:          -5.935
REMARK INTER:                  -5.931
REMARK INTRA:                  -0.003
REMARK UNBOUND:                -0.377
REMARK SMILES Oc1cc(O)c2cc(O)c(-c3cc(O)c(O)c(O)c3)[o+]c2c1
REMARK SMILES IDX 10 1 20 2 21 3 22 4 2 5 3 6 4 7 6 8 7 9 8 10 11 11 12 12
REMARK SMILES IDX 13 13 19 14 15 15 17 16 14 17 16 19 18 21 9 23 1 25 5 27
REMARK H PARENT 14 18 16 20 18 22 9 24 1 26 5 28
REMARK Flexibility Score: inf
ROOT
ATOM      1  C   UNL     1      20.540 -36.980   8.137  1.00  0.00     0.402 A 
ATOM      2  O   UNL     1      20.827 -35.933   8.906  1.00  0.00    -0.202 OA
ATOM      3  C   UNL     1      19.996 -34.913   9.092  1.00  0.00     0.368 A 
ATOM      4  C   UNL     1      20.387 -33.860   9.922  1.00  0.00     0.162 A 
ATOM      5  C   UNL     1      19.532 -32.778  10.138  1.00  0.00     0.128 A 
ATOM      6  C   UNL     1      18.277 -32.747   9.521  1.00  0.00     0.093 A 
ATOM      7  C   UNL     1      17.861 -33.792   8.686  1.00  0.00     0.136 A 
ATOM      8  C   UNL     1      18.728 -34.892   8.461  1.00  0.00     0.125 A 
ATOM      9  C   UNL     1      18.401 -35.976   7.630  1.00  0.00     0.078 A 
ATOM     10  C   UNL     1      19.310 -37.023   7.453  1.00  0.00     0.223 A 
ENDROOT
BRANCH   1  11
ATOM     11  C   UNL     1      21.547 -38.059   8.017  1.00  0.00     0.091 A 
ATOM     12  C   UNL     1      21.901 -38.591   6.767  1.00  0.00     0.068 A 
ATOM     13  C   UNL     1      22.840 -39.627   6.677  1.00  0.00     0.162 A 
ATOM     14  C   UNL     1      22.117 -38.603   9.176  1.00  0.00     0.068 A 
ATOM     15  C   UNL     1      23.427 -40.153   7.836  1.00  0.00     0.200 A 
ATOM     16  C   UNL     1      23.056 -39.638   9.100  1.00  0.00     0.162 A 
BRANCH  13  17
ATOM     17  O   UNL     1      23.193 -40.145   5.432  1.00  0.00    -0.504 OA
ATOM     18  H   UNL     1      24.008 -40.737   5.315  1.00  0.00     0.293 HD
ENDBRANCH  13  17
BRANCH  15  19
ATOM     19  O   UNL     1      24.362 -41.181   7.688  1.00  0.00    -0.502 OA
ATOM     20  H   UNL     1      25.015 -41.458   8.406  1.00  0.00     0.293 HD
ENDBRANCH  15  19
BRANCH  16  21
ATOM     21  O   UNL     1      23.590 -40.120  10.298  1.00  0.00    -0.504 OA
ATOM     22  H   UNL     1      24.520 -39.910  10.627  1.00  0.00     0.293 HD
ENDBRANCH  16  21
ENDBRANCH   1  11
BRANCH  10  23
ATOM     23  O   UNL     1      19.007 -38.075   6.589  1.00  0.00    -0.500 OA
ATOM     24  H   UNL     1      19.414 -38.138   5.663  1.00  0.00     0.294 HD
ENDBRANCH  10  23
BRANCH   5  25
ATOM     25  O   UNL     1      19.941 -31.735  10.968  1.00  0.00    -0.507 OA
ATOM     26  H   UNL     1      20.783 -31.206  10.779  1.00  0.00     0.293 HD
ENDBRANCH   5  25
BRANCH   7  27
ATOM     27  O   UNL     1      16.591 -33.688   8.110  1.00  0.00    -0.507 OA
ATOM     28  H   UNL     1      16.196 -32.831   7.751  1.00  0.00     0.293 HD
ENDBRANCH   7  27
TORSDOF 7
ENDMDL
MODEL 6
REMARK VINA RESULT:    -4.436      2.908      3.896
REMARK INTER + INTRA:          -5.850
REMARK INTER:                  -5.546
REMARK INTRA:                  -0.304
REMARK UNBOUND:                -0.377
REMARK SMILES Oc1cc(O)c2cc(O)c(-c3cc(O)c(O)c(O)c3)[o+]c2c1
REMARK SMILES IDX 10 1 20 2 21 3 22 4 2 5 3 6 4 7 6 8 7 9 8 10 11 11 12 12
REMARK SMILES IDX 13 13 19 14 15 15 17 16 14 17 16 19 18 21 9 23 1 25 5 27
REMARK H PARENT 14 18 16 20 18 22 9 24 1 26 5 28
REMARK Flexibility Score: inf
ROOT
ATOM      1  C   UNL     1      20.676 -37.086   8.967  1.00  0.00     0.402 A 
ATOM      2  O   UNL     1      21.282 -37.456   7.843  1.00  0.00    -0.202 OA
ATOM      3  C   UNL     1      21.808 -38.662   7.659  1.00  0.00     0.368 A 
ATOM      4  C   UNL     1      22.422 -38.959   6.440  1.00  0.00     0.162 A 
ATOM      5  C   UNL     1      22.979 -40.218   6.219  1.00  0.00     0.128 A 
ATOM      6  C   UNL     1      22.922 -41.192   7.223  1.00  0.00     0.093 A 
ATOM      7  C   UNL     1      22.311 -40.920   8.453  1.00  0.00     0.136 A 
ATOM      8  C   UNL     1      21.747 -39.639   8.683  1.00  0.00     0.125 A 
ATOM      9  C   UNL     1      21.126 -39.273   9.889  1.00  0.00     0.078 A 
ATOM     10  C   UNL     1      20.596 -37.989  10.044  1.00  0.00     0.223 A 
ENDROOT
BRANCH   1  11
ATOM     11  C   UNL     1      20.121 -35.714   9.047  1.00  0.00     0.091 A 
ATOM     12  C   UNL     1      18.965 -35.353   8.340  1.00  0.00     0.068 A 
ATOM     13  C   UNL     1      18.469 -34.044   8.410  1.00  0.00     0.162 A 
ATOM     14  C   UNL     1      20.795 -34.740   9.796  1.00  0.00     0.068 A 
ATOM     15  C   UNL     1      19.131 -33.077   9.180  1.00  0.00     0.200 A 
ATOM     16  C   UNL     1      20.311 -33.429   9.876  1.00  0.00     0.162 A 
BRANCH  13  17
ATOM     17  O   UNL     1      17.315 -33.693   7.712  1.00  0.00    -0.504 OA
ATOM     18  H   UNL     1      16.563 -34.357   7.559  1.00  0.00     0.293 HD
ENDBRANCH  13  17
BRANCH  15  19
ATOM     19  O   UNL     1      18.591 -31.789   9.221  1.00  0.00    -0.502 OA
ATOM     20  H   UNL     1      17.855 -31.465   8.610  1.00  0.00     0.293 HD
ENDBRANCH  15  19
BRANCH  16  21
ATOM     21  O   UNL     1      21.030 -32.517  10.652  1.00  0.00    -0.504 OA
ATOM     22  H   UNL     1      21.329 -31.610  10.327  1.00  0.00     0.293 HD
ENDBRANCH  16  21
ENDBRANCH   1  11
BRANCH  10  23
ATOM     23  O   UNL     1      20.025 -37.609  11.259  1.00  0.00    -0.500 OA
ATOM     24  H   UNL     1      20.513 -37.731  12.138  1.00  0.00     0.294 HD
ENDBRANCH  10  23
BRANCH   5  25
ATOM     25  O   UNL     1      23.588 -40.495   4.996  1.00  0.00    -0.507 OA
ATOM     26  H   UNL     1      24.580 -40.691   4.930  1.00  0.00     0.293 HD
ENDBRANCH   5  25
BRANCH   7  27
ATOM     27  O   UNL     1      22.293 -41.946   9.403  1.00  0.00    -0.507 OA
ATOM     28  H   UNL     1      23.116 -42.327   9.847  1.00  0.00     0.293 HD
ENDBRANCH   7  27
TORSDOF 7
ENDMDL
MODEL 7
REMARK VINA RESULT:    -4.425      2.749      4.013
REMARK INTER + INTRA:          -5.836
REMARK INTER:                  -5.525
REMARK INTRA:                  -0.312
REMARK UNBOUND:                -0.377
REMARK SMILES Oc1cc(O)c2cc(O)c(-c3cc(O)c(O)c(O)c3)[o+]c2c1
REMARK SMILES IDX 10 1 20 2 21 3 22 4 2 5 3 6 4 7 6 8 7 9 8 10 11 11 12 12
REMARK SMILES IDX 13 13 19 14 15 15 17 16 14 17 16 19 18 21 9 23 1 25 5 27
REMARK H PARENT 14 18 16 20 18 22 9 24 1 26 5 28
REMARK Flexibility Score: inf
ROOT
ATOM      1  C   UNL     1      20.703 -37.464   8.391  1.00  0.00     0.402 A 
ATOM      2  O   UNL     1      21.238 -37.910   7.258  1.00  0.00    -0.202 OA
ATOM      3  C   UNL     1      22.036 -38.970   7.195  1.00  0.00     0.368 A 
ATOM      4  C   UNL     1      22.547 -39.364   5.956  1.00  0.00     0.162 A 
ATOM      5  C   UNL     1      23.385 -40.476   5.860  1.00  0.00     0.128 A 
ATOM      6  C   UNL     1      23.715 -41.201   7.010  1.00  0.00     0.093 A 
ATOM      7  C   UNL     1      23.215 -40.827   8.264  1.00  0.00     0.136 A 
ATOM      8  C   UNL     1      22.365 -39.695   8.365  1.00  0.00     0.125 A 
ATOM      9  C   UNL     1      21.829 -39.240   9.581  1.00  0.00     0.078 A 
ATOM     10  C   UNL     1      21.002 -38.113   9.603  1.00  0.00     0.223 A 
ENDROOT
BRANCH   1  11
ATOM     11  C   UNL     1      19.821 -36.275   8.330  1.00  0.00     0.091 A 
ATOM     12  C   UNL     1      20.256 -35.019   8.776  1.00  0.00     0.068 A 
ATOM     13  C   UNL     1      19.399 -33.912   8.731  1.00  0.00     0.162 A 
ATOM     14  C   UNL     1      18.503 -36.417   7.872  1.00  0.00     0.068 A 
ATOM     15  C   UNL     1      18.089 -34.051   8.250  1.00  0.00     0.200 A 
ATOM     16  C   UNL     1      17.636 -35.321   7.821  1.00  0.00     0.162 A 
BRANCH  13  17
ATOM     17  O   UNL     1      19.841 -32.664   9.169  1.00  0.00    -0.504 OA
ATOM     18  H   UNL     1      20.051 -31.917   8.517  1.00  0.00     0.293 HD
ENDBRANCH  13  17
BRANCH  15  19
ATOM     19  O   UNL     1      17.277 -32.914   8.221  1.00  0.00    -0.502 OA
ATOM     20  H   UNL     1      17.090 -32.375   7.388  1.00  0.00     0.293 HD
ENDBRANCH  15  19
BRANCH  16  21
ATOM     21  O   UNL     1      16.342 -35.537   7.342  1.00  0.00    -0.504 OA
ATOM     22  H   UNL     1      15.509 -35.161   7.770  1.00  0.00     0.293 HD
ENDBRANCH  16  21
ENDBRANCH   1  11
BRANCH  10  23
ATOM     23  O   UNL     1      20.509 -37.631  10.817  1.00  0.00    -0.500 OA
ATOM     24  H   UNL     1      20.043 -38.237  11.480  1.00  0.00     0.294 HD
ENDBRANCH  10  23
BRANCH   5  25
ATOM     25  O   UNL     1      23.885 -40.853   4.615  1.00  0.00    -0.507 OA
ATOM     26  H   UNL     1      23.304 -41.318   3.928  1.00  0.00     0.293 HD
ENDBRANCH   5  25
BRANCH   7  27
ATOM     27  O   UNL     1      23.589 -41.605   9.363  1.00  0.00    -0.507 OA
ATOM     28  H   UNL     1      24.251 -41.315  10.068  1.00  0.00     0.293 HD
ENDBRANCH   7  27
TORSDOF 7
ENDMDL
MODEL 8
REMARK VINA RESULT:    -4.402      7.458     10.493
REMARK INTER + INTRA:          -5.808
REMARK INTER:                  -5.437
REMARK INTRA:                  -0.371
REMARK UNBOUND:                -0.377
REMARK SMILES Oc1cc(O)c2cc(O)c(-c3cc(O)c(O)c(O)c3)[o+]c2c1
REMARK SMILES IDX 10 1 20 2 21 3 22 4 2 5 3 6 4 7 6 8 7 9 8 10 11 11 12 12
REMARK SMILES IDX 13 13 19 14 15 15 17 16 14 17 16 19 18 21 9 23 1 25 5 27
REMARK H PARENT 14 18 16 20 18 22 9 24 1 26 5 28
REMARK Flexibility Score: inf
ROOT
ATOM      1  C   UNL     1      16.472 -37.269  -0.666  1.00  0.00     0.402 A 
ATOM      2  O   UNL     1      15.527 -36.544  -0.073  1.00  0.00    -0.202 OA
ATOM      3  C   UNL     1      15.233 -35.298  -0.427  1.00  0.00     0.368 A 
ATOM      4  C   UNL     1      14.220 -34.618   0.253  1.00  0.00     0.162 A 
ATOM      5  C   UNL     1      13.889 -33.310  -0.099  1.00  0.00     0.128 A 
ATOM      6  C   UNL     1      14.573 -32.674  -1.141  1.00  0.00     0.093 A 
ATOM      7  C   UNL     1      15.592 -33.333  -1.840  1.00  0.00     0.136 A 
ATOM      8  C   UNL     1      15.934 -34.663  -1.482  1.00  0.00     0.125 A 
ATOM      9  C   UNL     1      16.949 -35.397  -2.117  1.00  0.00     0.078 A 
ATOM     10  C   UNL     1      17.233 -36.702  -1.706  1.00  0.00     0.223 A 
ENDROOT
BRANCH   1  11
ATOM     11  C   UNL     1      16.700 -38.652  -0.186  1.00  0.00     0.091 A 
ATOM     12  C   UNL     1      15.923 -39.723  -0.652  1.00  0.00     0.068 A 
ATOM     13  C   UNL     1      16.139 -41.020  -0.169  1.00  0.00     0.162 A 
ATOM     14  C   UNL     1      17.671 -38.890   0.796  1.00  0.00     0.068 A 
ATOM     15  C   UNL     1      17.127 -41.261   0.796  1.00  0.00     0.200 A 
ATOM     16  C   UNL     1      17.898 -40.181   1.288  1.00  0.00     0.162 A 
BRANCH  13  17
ATOM     17  O   UNL     1      15.369 -42.082  -0.642  1.00  0.00    -0.504 OA
ATOM     18  H   UNL     1      14.370 -42.128  -0.477  1.00  0.00     0.293 HD
ENDBRANCH  13  17
BRANCH  15  19
ATOM     19  O   UNL     1      17.306 -42.574   1.239  1.00  0.00    -0.502 OA
ATOM     20  H   UNL     1      18.168 -43.090   1.143  1.00  0.00     0.293 HD
ENDBRANCH  15  19
BRANCH  16  21
ATOM     21  O   UNL     1      18.891 -40.342   2.257  1.00  0.00    -0.504 OA
ATOM     22  H   UNL     1      18.751 -40.815   3.137  1.00  0.00     0.293 HD
ENDBRANCH  16  21
ENDBRANCH   1  11
BRANCH  10  23
ATOM     23  O   UNL     1      18.274 -37.413  -2.303  1.00  0.00    -0.500 OA
ATOM     24  H   UNL     1      18.098 -38.152  -2.973  1.00  0.00     0.294 HD
ENDBRANCH  10  23
BRANCH   5  25
ATOM     25  O   UNL     1      12.876 -32.648   0.593  1.00  0.00    -0.507 OA
ATOM     26  H   UNL     1      12.396 -31.850   0.195  1.00  0.00     0.293 HD
ENDBRANCH   5  25
BRANCH   7  27
ATOM     27  O   UNL     1      16.225 -32.631  -2.869  1.00  0.00    -0.507 OA
ATOM     28  H   UNL     1      16.566 -31.684  -2.788  1.00  0.00     0.293 HD
ENDBRANCH   7  27
TORSDOF 7
ENDMDL
MODEL 9
REMARK VINA RESULT:    -2.441      1.284      2.954
REMARK INTER + INTRA:          -3.389
REMARK INTER:                  -3.005
REMARK INTRA:                  -0.384
REMARK UNBOUND:                -0.377
REMARK SMILES Oc1cc(O)c2cc(O)c(-c3cc(O)c(O)c(O)c3)[o+]c2c1
REMARK SMILES IDX 10 1 20 2 21 3 22 4 2 5 3 6 4 7 6 8 7 9 8 10 11 11 12 12
REMARK SMILES IDX 13 13 19 14 15 15 17 16 14 17 16 19 18 21 9 23 1 25 5 27
REMARK H PARENT 14 18 16 20 18 22 9 24 1 26 5 28
REMARK Flexibility Score: inf
ROOT
ATOM      1  C   UNL     1      20.408 -37.746   7.471  1.00  0.00     0.402 A 
ATOM      2  O   UNL     1      21.583 -38.359   7.358  1.00  0.00    -0.202 OA
ATOM      3  C   UNL     1      21.824 -39.318   6.471  1.00  0.00     0.368 A 
ATOM      4  C   UNL     1      23.094 -39.899   6.426  1.00  0.00     0.162 A 
ATOM      5  C   UNL     1      23.375 -40.906   5.502  1.00  0.00     0.128 A 
ATOM      6  C   UNL     1      22.383 -41.335   4.614  1.00  0.00     0.093 A 
ATOM      7  C   UNL     1      21.103 -40.767   4.638  1.00  0.00     0.136 A 
ATOM      8  C   UNL     1      20.811 -39.746   5.579  1.00  0.00     0.125 A 
ATOM      9  C   UNL     1      19.554 -39.128   5.684  1.00  0.00     0.078 A 
ATOM     10  C   UNL     1      19.340 -38.131   6.639  1.00  0.00     0.223 A 
ENDROOT
BRANCH   1  11
ATOM     11  C   UNL     1      20.266 -36.684   8.495  1.00  0.00     0.091 A 
ATOM     12  C   UNL     1      20.440 -35.330   8.171  1.00  0.00     0.068 A 
ATOM     13  C   UNL     1      20.323 -34.343   9.158  1.00  0.00     0.162 A 
ATOM     14  C   UNL     1      20.011 -37.040   9.827  1.00  0.00     0.068 A 
ATOM     15  C   UNL     1      20.044 -34.699  10.486  1.00  0.00     0.200 A 
ATOM     16  C   UNL     1      19.892 -36.065  10.823  1.00  0.00     0.162 A 
BRANCH  13  17
ATOM     17  O   UNL     1      20.489 -32.999   8.829  1.00  0.00    -0.504 OA
ATOM     18  H   UNL     1      20.638 -32.292   9.540  1.00  0.00     0.293 HD
ENDBRANCH  13  17
BRANCH  15  19
ATOM     19  O   UNL     1      19.932 -33.675  11.430  1.00  0.00    -0.502 OA
ATOM     20  H   UNL     1      20.213 -32.720  11.263  1.00  0.00     0.293 HD
ENDBRANCH  15  19
BRANCH  16  21
ATOM     21  O   UNL     1      19.624 -36.495  12.125  1.00  0.00    -0.504 OA
ATOM     22  H   UNL     1      18.763 -36.938  12.409  1.00  0.00     0.293 HD
ENDBRANCH  16  21
ENDBRANCH   1  11
BRANCH  10  23
ATOM     23  O   UNL     1      18.078 -37.553   6.778  1.00  0.00    -0.500 OA
ATOM     24  H   UNL     1      17.952 -36.549   6.800  1.00  0.00     0.294 HD
ENDBRANCH  10  23
BRANCH   5  25
ATOM     25  O   UNL     1      24.647 -41.475   5.473  1.00  0.00    -0.507 OA
ATOM     26  H   UNL     1      24.842 -42.311   4.935  1.00  0.00     0.293 HD
ENDBRANCH   5  25
BRANCH   7  27
ATOM     27  O   UNL     1      20.168 -41.249   3.717  1.00  0.00    -0.507 OA
ATOM     28  H   UNL     1      19.529 -40.666   3.195  1.00  0.00     0.293 HD
ENDBRANCH   7  27
TORSDOF 7
ENDMDL
