MODEL 1
REMARK VINA RESULT:    -3.664      0.000      0.000
REMARK INTER + INTRA:         -11.163
REMARK INTER:                  -7.948
REMARK INTRA:                  -3.215
REMARK UNBOUND:                -3.215
REMARK SMILES CCCCCCCCCCCCCCCCCCCCCC(=O)[O-]
REMARK SMILES IDX 12 1 11 2 10 3 9 4 8 5 7 6 6 7 5 8 4 9 3 10 2 11 1 12 13 13
REMARK SMILES IDX 14 14 15 15 16 16 17 17 18 18 19 19 20 20 21 21 22 22 23 23
REMARK SMILES IDX 24 24
REMARK H PARENT
REMARK Flexibility Score: inf
ROOT
ATOM      1  C   UNL     1     -94.617 148.978 237.585  1.00  0.00     0.000 C 
ENDROOT
BRANCH   1   2
ATOM      2  C   UNL     1     -95.074 149.229 239.033  1.00  0.00     0.000 C 
BRANCH   2   3
ATOM      3  C   UNL     1     -94.751 148.097 240.024  1.00  0.00     0.000 C 
BRANCH   3   4
ATOM      4  C   UNL     1     -96.005 147.504 240.682  1.00  0.00    -0.000 C 
BRANCH   4   5
ATOM      5  C   UNL     1     -97.259 148.366 240.457  1.00  0.00    -0.000 C 
BRANCH   5   6
ATOM      6  C   UNL     1     -97.694 149.160 241.707  1.00  0.00    -0.000 C 
BRANCH   6   7
ATOM      7  C   UNL     1     -98.365 150.496 241.344  1.00  0.00    -0.000 C 
BRANCH   7   8
ATOM      8  C   UNL     1     -98.205 150.858 239.857  1.00  0.00    -0.000 C 
BRANCH   8   9
ATOM      9  C   UNL     1     -99.526 151.018 239.078  1.00  0.00    -0.000 C 
BRANCH   9  10
ATOM     10  C   UNL     1     -99.633 150.175 237.794  1.00  0.00    -0.000 C 
BRANCH  10  11
ATOM     11  C   UNL     1     -98.264 149.832 237.191  1.00  0.00    -0.003 C 
ATOM     12  C   UNL     1     -98.173 148.350 236.844  1.00  0.00     0.004 C 
ENDBRANCH  10  11
ENDBRANCH   9  10
ENDBRANCH   8   9
ENDBRANCH   7   8
ENDBRANCH   6   7
ENDBRANCH   5   6
ENDBRANCH   4   5
ENDBRANCH   3   4
ENDBRANCH   2   3
ENDBRANCH   1   2
BRANCH   1  13
ATOM     13  C   UNL     1     -93.683 147.762 237.454  1.00  0.00     0.000 C 
BRANCH  13  14
ATOM     14  C   UNL     1     -93.850 147.013 236.119  1.00  0.00     0.000 C 
BRANCH  14  15
ATOM     15  C   UNL     1     -94.894 147.611 235.156  1.00  0.00     0.000 C 
BRANCH  15  16
ATOM     16  C   UNL     1     -94.300 148.013 233.798  1.00  0.00     0.000 C 
BRANCH  16  17
ATOM     17  C   UNL     1     -94.824 149.386 233.352  1.00  0.00     0.000 C 
BRANCH  17  18
ATOM     18  C   UNL     1     -95.967 149.896 234.255  1.00  0.00     0.000 C 
BRANCH  18  19
ATOM     19  C   UNL     1     -95.860 151.391 234.601  1.00  0.00     0.000 C 
BRANCH  19  20
ATOM     20  C   UNL     1     -95.971 152.299 233.365  1.00  0.00     0.006 C 
BRANCH  20  21
ATOM     21  C   UNL     1     -97.364 152.932 233.234  1.00  0.00     0.053 C 
BRANCH  21  22
ATOM     22  C   UNL     1     -97.765 153.656 234.483  1.00  0.00     0.041 C 
ATOM     23  O   UNL     1     -97.168 154.712 234.821  1.00  0.00    -0.550 OA
ATOM     24  O   UNL     1     -98.766 153.141 235.296  1.00  0.00    -0.550 OA
ENDBRANCH  21  22
ENDBRANCH  20  21
ENDBRANCH  19  20
ENDBRANCH  18  19
ENDBRANCH  17  18
ENDBRANCH  16  17
ENDBRANCH  15  16
ENDBRANCH  14  15
ENDBRANCH  13  14
ENDBRANCH   1  13
TORSDOF 20
ENDMDL
MODEL 2
REMARK VINA RESULT:    -3.525      3.227      6.447
REMARK INTER + INTRA:         -10.862
REMARK INTER:                  -7.741
REMARK INTRA:                  -3.121
REMARK UNBOUND:                -3.215
REMARK SMILES CCCCCCCCCCCCCCCCCCCCCC(=O)[O-]
REMARK SMILES IDX 12 1 11 2 10 3 9 4 8 5 7 6 6 7 5 8 4 9 3 10 2 11 1 12 13 13
REMARK SMILES IDX 14 14 15 15 16 16 17 17 18 18 19 19 20 20 21 21 22 22 23 23
REMARK SMILES IDX 24 24
REMARK H PARENT
REMARK Flexibility Score: inf
ROOT
ATOM      1  C   UNL     1     -95.353 149.529 236.791  1.00  0.00     0.000 C 
ENDROOT
BRANCH   1   2
ATOM      2  C   UNL     1     -96.246 148.878 235.720  1.00  0.00     0.000 C 
BRANCH   2   3
ATOM      3  C   UNL     1     -97.732 149.273 235.782  1.00  0.00     0.000 C 
BRANCH   3   4
ATOM      4  C   UNL     1     -98.152 149.800 237.161  1.00  0.00    -0.000 C 
BRANCH   4   5
ATOM      5  C   UNL     1     -99.551 150.441 237.153  1.00  0.00    -0.000 C 
BRANCH   5   6
ATOM      6  C   UNL     1     -99.555 151.917 237.604  1.00  0.00    -0.000 C 
BRANCH   6   7
ATOM      7  C   UNL     1    -100.749 152.698 237.031  1.00  0.00    -0.000 C 
BRANCH   7   8
ATOM      8  C   UNL     1    -100.549 153.096 235.558  1.00  0.00    -0.000 C 
BRANCH   8   9
ATOM      9  C   UNL     1     -99.151 153.648 235.214  1.00  0.00    -0.000 C 
BRANCH   9  10
ATOM     10  C   UNL     1     -98.300 152.748 234.300  1.00  0.00    -0.000 C 
BRANCH  10  11
ATOM     11  C   UNL     1     -96.875 153.280 234.099  1.00  0.00    -0.003 C 
ATOM     12  C   UNL     1     -95.864 152.139 234.061  1.00  0.00     0.004 C 
ENDBRANCH  10  11
ENDBRANCH   9  10
ENDBRANCH   8   9
ENDBRANCH   7   8
ENDBRANCH   6   7
ENDBRANCH   5   6
ENDBRANCH   4   5
ENDBRANCH   3   4
ENDBRANCH   2   3
ENDBRANCH   1   2
BRANCH   1  13
ATOM     13  C   UNL     1     -94.330 148.551 237.393  1.00  0.00     0.000 C 
BRANCH  13  14
ATOM     14  C   UNL     1     -94.506 148.349 238.909  1.00  0.00     0.000 C 
BRANCH  14  15
ATOM     15  C   UNL     1     -95.849 147.727 239.339  1.00  0.00     0.000 C 
BRANCH  15  16
ATOM     16  C   UNL     1     -96.516 148.478 240.499  1.00  0.00     0.000 C 
BRANCH  16  17
ATOM     17  C   UNL     1     -96.297 149.994 240.373  1.00  0.00     0.000 C 
BRANCH  17  18
ATOM     18  C   UNL     1     -97.587 150.794 240.654  1.00  0.00     0.000 C 
BRANCH  18  19
ATOM     19  C   UNL     1     -98.846 149.917 240.764  1.00  0.00     0.000 C 
BRANCH  19  20
ATOM     20  C   UNL     1     -99.617 150.140 242.075  1.00  0.00     0.006 C 
BRANCH  20  21
ATOM     21  C   UNL     1     -98.683 150.466 243.249  1.00  0.00     0.053 C 
BRANCH  21  22
ATOM     22  C   UNL     1     -99.350 151.348 244.261  1.00  0.00     0.041 C 
ATOM     23  O   UNL     1     -98.664 152.142 244.958  1.00  0.00    -0.550 OA
ATOM     24  O   UNL     1    -100.720 151.260 244.466  1.00  0.00    -0.550 OA
ENDBRANCH  21  22
ENDBRANCH  20  21
ENDBRANCH  19  20
ENDBRANCH  18  19
ENDBRANCH  17  18
ENDBRANCH  16  17
ENDBRANCH  15  16
ENDBRANCH  14  15
ENDBRANCH  13  14
ENDBRANCH   1  13
TORSDOF 20
ENDMDL
MODEL 3
REMARK VINA RESULT:    -3.517      1.215      2.269
REMARK INTER + INTRA:         -10.843
REMARK INTER:                  -8.172
REMARK INTRA:                  -2.671
REMARK UNBOUND:                -3.215
REMARK SMILES CCCCCCCCCCCCCCCCCCCCCC(=O)[O-]
REMARK SMILES IDX 12 1 11 2 10 3 9 4 8 5 7 6 6 7 5 8 4 9 3 10 2 11 1 12 13 13
REMARK SMILES IDX 14 14 15 15 16 16 17 17 18 18 19 19 20 20 21 21 22 22 23 23
REMARK SMILES IDX 24 24
REMARK H PARENT
REMARK Flexibility Score: inf
ROOT
ATOM      1  C   UNL     1     -95.989 148.169 236.664  1.00  0.00     0.000 C 
ENDROOT
BRANCH   1   2
ATOM      2  C   UNL     1     -94.960 149.210 237.139  1.00  0.00     0.000 C 
BRANCH   2   3
ATOM      3  C   UNL     1     -94.000 148.723 238.239  1.00  0.00     0.000 C 
BRANCH   3   4
ATOM      4  C   UNL     1     -94.451 147.405 238.883  1.00  0.00    -0.000 C 
BRANCH   4   5
ATOM      5  C   UNL     1     -94.948 147.587 240.327  1.00  0.00    -0.000 C 
BRANCH   5   6
ATOM      6  C   UNL     1     -96.485 147.522 240.462  1.00  0.00    -0.000 C 
BRANCH   6   7
ATOM      7  C   UNL     1     -97.065 148.784 241.123  1.00  0.00    -0.000 C 
BRANCH   7   8
ATOM      8  C   UNL     1     -96.870 150.048 240.267  1.00  0.00    -0.000 C 
BRANCH   8   9
ATOM      9  C   UNL     1     -98.033 151.059 240.321  1.00  0.00    -0.000 C 
BRANCH   9  10
ATOM     10  C   UNL     1     -99.065 150.928 239.186  1.00  0.00    -0.000 C 
BRANCH  10  11
ATOM     11  C   UNL     1     -98.589 150.012 238.050  1.00  0.00    -0.003 C 
ATOM     12  C   UNL     1     -98.948 150.595 236.688  1.00  0.00     0.004 C 
ENDBRANCH  10  11
ENDBRANCH   9  10
ENDBRANCH   8   9
ENDBRANCH   7   8
ENDBRANCH   6   7
ENDBRANCH   5   6
ENDBRANCH   4   5
ENDBRANCH   3   4
ENDBRANCH   2   3
ENDBRANCH   1   2
BRANCH   1  13
ATOM     13  C   UNL     1     -95.629 147.550 235.302  1.00  0.00     0.000 C 
BRANCH  13  14
ATOM     14  C   UNL     1     -94.518 148.319 234.564  1.00  0.00     0.000 C 
BRANCH  14  15
ATOM     15  C   UNL     1     -94.975 149.102 233.317  1.00  0.00     0.000 C 
BRANCH  15  16
ATOM     16  C   UNL     1     -96.289 149.865 233.535  1.00  0.00     0.000 C 
BRANCH  16  17
ATOM     17  C   UNL     1     -96.053 151.153 234.338  1.00  0.00     0.000 C 
BRANCH  17  18
ATOM     18  C   UNL     1     -95.868 152.384 233.426  1.00  0.00     0.000 C 
BRANCH  18  19
ATOM     19  C   UNL     1     -97.157 152.820 232.709  1.00  0.00     0.000 C 
BRANCH  19  20
ATOM     20  C   UNL     1     -98.168 153.491 233.654  1.00  0.00     0.006 C 
BRANCH  20  21
ATOM     21  C   UNL     1     -97.497 154.490 234.607  1.00  0.00     0.053 C 
BRANCH  21  22
ATOM     22  C   UNL     1     -98.199 155.814 234.609  1.00  0.00     0.041 C 
ATOM     23  O   UNL     1     -97.575 156.861 234.290  1.00  0.00    -0.550 OA
ATOM     24  O   UNL     1     -99.527 155.898 235.006  1.00  0.00    -0.550 OA
ENDBRANCH  21  22
ENDBRANCH  20  21
ENDBRANCH  19  20
ENDBRANCH  18  19
ENDBRANCH  17  18
ENDBRANCH  16  17
ENDBRANCH  15  16
ENDBRANCH  14  15
ENDBRANCH  13  14
ENDBRANCH   1  13
TORSDOF 20
ENDMDL
MODEL 4
REMARK VINA RESULT:    -3.490      1.303      1.973
REMARK INTER + INTRA:         -10.785
REMARK INTER:                  -7.550
REMARK INTRA:                  -3.235
REMARK UNBOUND:                -3.215
REMARK SMILES CCCCCCCCCCCCCCCCCCCCCC(=O)[O-]
REMARK SMILES IDX 12 1 11 2 10 3 9 4 8 5 7 6 6 7 5 8 4 9 3 10 2 11 1 12 13 13
REMARK SMILES IDX 14 14 15 15 16 16 17 17 18 18 19 19 20 20 21 21 22 22 23 23
REMARK SMILES IDX 24 24
REMARK H PARENT
REMARK Flexibility Score: inf
ROOT
ATOM      1  C   UNL     1     -95.193 149.142 237.027  1.00  0.00     0.000 C 
ENDROOT
BRANCH   1   2
ATOM      2  C   UNL     1     -94.285 149.063 238.267  1.00  0.00     0.000 C 
BRANCH   2   3
ATOM      3  C   UNL     1     -95.025 148.925 239.609  1.00  0.00     0.000 C 
BRANCH   3   4
ATOM      4  C   UNL     1     -95.692 150.232 240.060  1.00  0.00    -0.000 C 
BRANCH   4   5
ATOM      5  C   UNL     1     -97.070 150.007 240.704  1.00  0.00    -0.000 C 
BRANCH   5   6
ATOM      6  C   UNL     1     -98.222 150.714 239.959  1.00  0.00    -0.000 C 
BRANCH   6   7
ATOM      7  C   UNL     1     -99.233 149.717 239.367  1.00  0.00    -0.000 C 
BRANCH   7   8
ATOM      8  C   UNL     1     -98.616 148.818 238.281  1.00  0.00    -0.000 C 
BRANCH   8   9
ATOM      9  C   UNL     1     -99.056 149.139 236.839  1.00  0.00    -0.000 C 
BRANCH   9  10
ATOM     10  C   UNL     1     -98.489 150.447 236.259  1.00  0.00    -0.000 C 
BRANCH  10  11
ATOM     11  C   UNL     1     -99.583 151.448 235.864  1.00  0.00    -0.003 C 
ATOM     12  C   UNL     1     -99.831 152.458 236.979  1.00  0.00     0.004 C 
ENDBRANCH  10  11
ENDBRANCH   9  10
ENDBRANCH   8   9
ENDBRANCH   7   8
ENDBRANCH   6   7
ENDBRANCH   5   6
ENDBRANCH   4   5
ENDBRANCH   3   4
ENDBRANCH   2   3
ENDBRANCH   1   2
BRANCH   1  13
ATOM     13  C   UNL     1     -95.301 147.803 236.277  1.00  0.00     0.000 C 
BRANCH  13  14
ATOM     14  C   UNL     1     -93.940 147.109 236.082  1.00  0.00     0.000 C 
BRANCH  14  15
ATOM     15  C   UNL     1     -93.320 147.258 234.679  1.00  0.00     0.000 C 
BRANCH  15  16
ATOM     16  C   UNL     1     -94.371 147.420 233.571  1.00  0.00     0.000 C 
BRANCH  16  17
ATOM     17  C   UNL     1     -94.274 148.806 232.917  1.00  0.00     0.000 C 
BRANCH  17  18
ATOM     18  C   UNL     1     -95.593 149.600 233.034  1.00  0.00     0.000 C 
BRANCH  18  19
ATOM     19  C   UNL     1     -95.431 150.966 233.723  1.00  0.00     0.000 C 
BRANCH  19  20
ATOM     20  C   UNL     1     -96.576 151.939 233.397  1.00  0.00     0.006 C 
BRANCH  20  21
ATOM     21  C   UNL     1     -96.584 153.159 234.330  1.00  0.00     0.053 C 
BRANCH  21  22
ATOM     22  C   UNL     1     -97.658 154.135 233.958  1.00  0.00     0.041 C 
ATOM     23  O   UNL     1     -98.224 154.822 234.849  1.00  0.00    -0.550 OA
ATOM     24  O   UNL     1     -98.065 154.254 232.636  1.00  0.00    -0.550 OA
ENDBRANCH  21  22
ENDBRANCH  20  21
ENDBRANCH  19  20
ENDBRANCH  18  19
ENDBRANCH  17  18
ENDBRANCH  16  17
ENDBRANCH  15  16
ENDBRANCH  14  15
ENDBRANCH  13  14
ENDBRANCH   1  13
TORSDOF 20
ENDMDL
MODEL 5
REMARK VINA RESULT:    -3.427      1.693      3.585
REMARK INTER + INTRA:         -10.647
REMARK INTER:                  -7.236
REMARK INTRA:                  -3.411
REMARK UNBOUND:                -3.215
REMARK SMILES CCCCCCCCCCCCCCCCCCCCCC(=O)[O-]
REMARK SMILES IDX 12 1 11 2 10 3 9 4 8 5 7 6 6 7 5 8 4 9 3 10 2 11 1 12 13 13
REMARK SMILES IDX 14 14 15 15 16 16 17 17 18 18 19 19 20 20 21 21 22 22 23 23
REMARK SMILES IDX 24 24
REMARK H PARENT
REMARK Flexibility Score: inf
ROOT
ATOM      1  C   UNL     1     -95.539 149.331 236.200  1.00  0.00     0.000 C 
ENDROOT
BRANCH   1   2
ATOM      2  C   UNL     1     -94.625 148.104 236.359  1.00  0.00     0.000 C 
BRANCH   2   3
ATOM      3  C   UNL     1     -93.986 147.943 237.750  1.00  0.00     0.000 C 
BRANCH   3   4
ATOM      4  C   UNL     1     -94.204 149.165 238.652  1.00  0.00    -0.000 C 
BRANCH   4   5
ATOM      5  C   UNL     1     -94.871 148.806 239.990  1.00  0.00    -0.000 C 
BRANCH   5   6
ATOM      6  C   UNL     1     -95.247 147.314 240.111  1.00  0.00    -0.000 C 
BRANCH   6   7
ATOM      7  C   UNL     1     -96.766 147.103 240.229  1.00  0.00    -0.000 C 
BRANCH   7   8
ATOM      8  C   UNL     1     -97.506 147.346 238.902  1.00  0.00    -0.000 C 
BRANCH   8   9
ATOM      9  C   UNL     1     -98.598 148.433 238.952  1.00  0.00    -0.000 C 
BRANCH   9  10
ATOM     10  C   UNL     1     -98.079 149.882 238.919  1.00  0.00    -0.000 C 
BRANCH  10  11
ATOM     11  C   UNL     1     -98.652 150.746 240.051  1.00  0.00    -0.003 C 
ATOM     12  C   UNL     1     -97.978 150.427 241.380  1.00  0.00     0.004 C 
ENDBRANCH  10  11
ENDBRANCH   9  10
ENDBRANCH   8   9
ENDBRANCH   7   8
ENDBRANCH   6   7
ENDBRANCH   5   6
ENDBRANCH   4   5
ENDBRANCH   3   4
ENDBRANCH   2   3
ENDBRANCH   1   2
BRANCH   1  13
ATOM     13  C   UNL     1     -96.914 148.981 235.603  1.00  0.00     0.000 C 
BRANCH  13  14
ATOM     14  C   UNL     1     -97.189 149.691 234.265  1.00  0.00     0.000 C 
BRANCH  14  15
ATOM     15  C   UNL     1     -95.937 150.168 233.502  1.00  0.00     0.000 C 
BRANCH  15  16
ATOM     16  C   UNL     1     -96.097 151.572 232.903  1.00  0.00     0.000 C 
BRANCH  16  17
ATOM     17  C   UNL     1     -96.204 152.635 234.007  1.00  0.00     0.000 C 
BRANCH  17  18
ATOM     18  C   UNL     1     -97.354 153.632 233.747  1.00  0.00     0.000 C 
BRANCH  18  19
ATOM     19  C   UNL     1     -98.304 153.802 234.945  1.00  0.00     0.000 C 
BRANCH  19  20
ATOM     20  C   UNL     1     -99.347 152.676 235.045  1.00  0.00     0.006 C 
BRANCH  20  21
ATOM     21  C   UNL     1     -99.533 152.185 236.487  1.00  0.00     0.053 C 
BRANCH  21  22
ATOM     22  C   UNL     1    -100.751 152.783 237.125  1.00  0.00     0.041 C 
ATOM     23  O   UNL     1    -101.159 153.919 236.766  1.00  0.00    -0.550 OA
ATOM     24  O   UNL     1    -101.406 152.107 238.146  1.00  0.00    -0.550 OA
ENDBRANCH  21  22
ENDBRANCH  20  21
ENDBRANCH  19  20
ENDBRANCH  18  19
ENDBRANCH  17  18
ENDBRANCH  16  17
ENDBRANCH  15  16
ENDBRANCH  14  15
ENDBRANCH  13  14
ENDBRANCH   1  13
TORSDOF 20
ENDMDL
MODEL 6
REMARK VINA RESULT:    -3.422      2.980      6.549
REMARK INTER + INTRA:         -10.639
REMARK INTER:                  -8.099
REMARK INTRA:                  -2.540
REMARK UNBOUND:                -3.215
REMARK SMILES CCCCCCCCCCCCCCCCCCCCCC(=O)[O-]
REMARK SMILES IDX 12 1 11 2 10 3 9 4 8 5 7 6 6 7 5 8 4 9 3 10 2 11 1 12 13 13
REMARK SMILES IDX 14 14 15 15 16 16 17 17 18 18 19 19 20 20 21 21 22 22 23 23
REMARK SMILES IDX 24 24
REMARK H PARENT
REMARK Flexibility Score: inf
ROOT
ATOM      1  C   UNL     1     -95.542 149.680 236.681  1.00  0.00     0.000 C 
ENDROOT
BRANCH   1   2
ATOM      2  C   UNL     1     -96.843 149.483 235.882  1.00  0.00     0.000 C 
BRANCH   2   3
ATOM      3  C   UNL     1     -96.989 150.382 234.642  1.00  0.00     0.000 C 
BRANCH   3   4
ATOM      4  C   UNL     1     -95.656 150.991 234.186  1.00  0.00    -0.000 C 
BRANCH   4   5
ATOM      5  C   UNL     1     -95.841 152.219 233.279  1.00  0.00    -0.000 C 
BRANCH   5   6
ATOM      6  C   UNL     1     -97.264 152.815 233.332  1.00  0.00    -0.000 C 
BRANCH   6   7
ATOM      7  C   UNL     1     -97.405 153.887 234.426  1.00  0.00    -0.000 C 
BRANCH   7   8
ATOM      8  C   UNL     1     -98.869 154.131 234.835  1.00  0.00    -0.000 C 
BRANCH   8   9
ATOM      9  C   UNL     1     -99.592 152.908 235.436  1.00  0.00    -0.000 C 
BRANCH   9  10
ATOM     10  C   UNL     1    -100.261 153.152 236.801  1.00  0.00    -0.000 C 
BRANCH  10  11
ATOM     11  C   UNL     1    -100.848 151.873 237.414  1.00  0.00    -0.003 C 
ATOM     12  C   UNL     1     -99.987 150.660 237.080  1.00  0.00     0.004 C 
ENDBRANCH  10  11
ENDBRANCH   9  10
ENDBRANCH   8   9
ENDBRANCH   7   8
ENDBRANCH   6   7
ENDBRANCH   5   6
ENDBRANCH   4   5
ENDBRANCH   3   4
ENDBRANCH   2   3
ENDBRANCH   1   2
BRANCH   1  13
ATOM     13  C   UNL     1     -94.677 148.410 236.740  1.00  0.00     0.000 C 
BRANCH  13  14
ATOM     14  C   UNL     1     -93.815 148.324 238.013  1.00  0.00     0.000 C 
BRANCH  14  15
ATOM     15  C   UNL     1     -94.400 149.029 239.252  1.00  0.00     0.000 C 
BRANCH  15  16
ATOM     16  C   UNL     1     -95.174 148.078 240.176  1.00  0.00     0.000 C 
BRANCH  16  17
ATOM     17  C   UNL     1     -96.461 148.739 240.695  1.00  0.00     0.000 C 
BRANCH  17  18
ATOM     18  C   UNL     1     -96.499 150.253 240.399  1.00  0.00     0.000 C 
BRANCH  18  19
ATOM     19  C   UNL     1     -97.921 150.810 240.217  1.00  0.00     0.000 C 
BRANCH  19  20
ATOM     20  C   UNL     1     -99.013 149.790 240.578  1.00  0.00     0.006 C 
BRANCH  20  21
ATOM     21  C   UNL     1     -99.828 150.223 241.805  1.00  0.00     0.053 C 
BRANCH  21  22
ATOM     22  C   UNL     1     -99.071 150.003 243.080  1.00  0.00     0.041 C 
ATOM     23  O   UNL     1     -98.608 150.986 243.718  1.00  0.00    -0.550 OA
ATOM     24  O   UNL     1     -98.839 148.714 243.539  1.00  0.00    -0.550 OA
ENDBRANCH  21  22
ENDBRANCH  20  21
ENDBRANCH  19  20
ENDBRANCH  18  19
ENDBRANCH  17  18
ENDBRANCH  16  17
ENDBRANCH  15  16
ENDBRANCH  14  15
ENDBRANCH  13  14
ENDBRANCH   1  13
TORSDOF 20
ENDMDL
MODEL 7
REMARK VINA RESULT:    -3.407      3.462      7.236
REMARK INTER + INTRA:         -10.605
REMARK INTER:                  -7.512
REMARK INTRA:                  -3.094
REMARK UNBOUND:                -3.215
REMARK SMILES CCCCCCCCCCCCCCCCCCCCCC(=O)[O-]
REMARK SMILES IDX 12 1 11 2 10 3 9 4 8 5 7 6 6 7 5 8 4 9 3 10 2 11 1 12 13 13
REMARK SMILES IDX 14 14 15 15 16 16 17 17 18 18 19 19 20 20 21 21 22 22 23 23
REMARK SMILES IDX 24 24
REMARK H PARENT
REMARK Flexibility Score: inf
ROOT
ATOM      1  C   UNL     1     -97.329 148.730 241.040  1.00  0.00     0.000 C 
ENDROOT
BRANCH   1   2
ATOM      2  C   UNL     1     -96.575 147.648 240.248  1.00  0.00     0.000 C 
BRANCH   2   3
ATOM      3  C   UNL     1     -95.043 147.696 240.375  1.00  0.00     0.000 C 
BRANCH   3   4
ATOM      4  C   UNL     1     -94.328 146.875 239.292  1.00  0.00    -0.000 C 
BRANCH   4   5
ATOM      5  C   UNL     1     -93.492 147.746 238.339  1.00  0.00    -0.000 C 
BRANCH   5   6
ATOM      6  C   UNL     1     -94.237 148.130 237.042  1.00  0.00    -0.000 C 
BRANCH   6   7
ATOM      7  C   UNL     1     -95.050 149.426 237.198  1.00  0.00    -0.000 C 
BRANCH   7   8
ATOM      8  C   UNL     1     -96.504 149.278 236.715  1.00  0.00    -0.000 C 
BRANCH   8   9
ATOM      9  C   UNL     1     -96.895 150.187 235.533  1.00  0.00    -0.000 C 
BRANCH   9  10
ATOM     10  C   UNL     1     -95.715 150.710 234.693  1.00  0.00    -0.000 C 
BRANCH  10  11
ATOM     11  C   UNL     1     -95.612 150.029 233.322  1.00  0.00    -0.003 C 
ATOM     12  C   UNL     1     -94.659 148.840 233.371  1.00  0.00     0.004 C 
ENDBRANCH  10  11
ENDBRANCH   9  10
ENDBRANCH   8   9
ENDBRANCH   7   8
ENDBRANCH   6   7
ENDBRANCH   5   6
ENDBRANCH   4   5
ENDBRANCH   3   4
ENDBRANCH   2   3
ENDBRANCH   1   2
BRANCH   1  13
ATOM     13  C   UNL     1     -96.875 150.157 240.686  1.00  0.00     0.000 C 
BRANCH  13  14
ATOM     14  C   UNL     1     -97.987 151.000 240.033  1.00  0.00     0.000 C 
BRANCH  14  15
ATOM     15  C   UNL     1     -99.022 150.203 239.214  1.00  0.00     0.000 C 
BRANCH  15  16
ATOM     16  C   UNL     1    -100.472 150.578 239.551  1.00  0.00     0.000 C 
BRANCH  16  17
ATOM     17  C   UNL     1    -101.277 149.340 239.976  1.00  0.00     0.000 C 
BRANCH  17  18
ATOM     18  C   UNL     1    -100.947 148.896 241.417  1.00  0.00     0.000 C 
BRANCH  18  19
ATOM     19  C   UNL     1    -100.852 150.062 242.415  1.00  0.00     0.000 C 
BRANCH  19  20
ATOM     20  C   UNL     1     -99.882 149.780 243.574  1.00  0.00     0.006 C 
BRANCH  20  21
ATOM     21  C   UNL     1     -98.896 150.934 243.800  1.00  0.00     0.053 C 
BRANCH  21  22
ATOM     22  C   UNL     1     -99.266 151.755 244.997  1.00  0.00     0.041 C 
ATOM     23  O   UNL     1     -98.375 152.361 245.649  1.00  0.00    -0.550 OA
ATOM     24  O   UNL     1    -100.587 151.814 245.420  1.00  0.00    -0.550 OA
ENDBRANCH  21  22
ENDBRANCH  20  21
ENDBRANCH  19  20
ENDBRANCH  18  19
ENDBRANCH  17  18
ENDBRANCH  16  17
ENDBRANCH  15  16
ENDBRANCH  14  15
ENDBRANCH  13  14
ENDBRANCH   1  13
TORSDOF 20
ENDMDL
MODEL 8
REMARK VINA RESULT:    -3.405      2.482      6.256
REMARK INTER + INTRA:         -10.601
REMARK INTER:                  -7.794
REMARK INTRA:                  -2.807
REMARK UNBOUND:                -3.215
REMARK SMILES CCCCCCCCCCCCCCCCCCCCCC(=O)[O-]
REMARK SMILES IDX 12 1 11 2 10 3 9 4 8 5 7 6 6 7 5 8 4 9 3 10 2 11 1 12 13 13
REMARK SMILES IDX 14 14 15 15 16 16 17 17 18 18 19 19 20 20 21 21 22 22 23 23
REMARK SMILES IDX 24 24
REMARK H PARENT
REMARK Flexibility Score: inf
ROOT
ATOM      1  C   UNL     1     -96.899 150.015 234.622  1.00  0.00     0.000 C 
ENDROOT
BRANCH   1   2
ATOM      2  C   UNL     1     -95.588 150.622 234.093  1.00  0.00     0.000 C 
BRANCH   2   3
ATOM      3  C   UNL     1     -95.623 152.141 233.851  1.00  0.00     0.000 C 
BRANCH   3   4
ATOM      4  C   UNL     1     -96.385 152.525 232.575  1.00  0.00    -0.000 C 
BRANCH   4   5
ATOM      5  C   UNL     1     -97.619 153.398 232.859  1.00  0.00    -0.000 C 
BRANCH   5   6
ATOM      6  C   UNL     1     -97.557 154.130 234.216  1.00  0.00    -0.000 C 
BRANCH   6   7
ATOM      7  C   UNL     1     -98.714 153.729 235.148  1.00  0.00    -0.000 C 
BRANCH   7   8
ATOM      8  C   UNL     1     -99.592 152.610 234.560  1.00  0.00    -0.000 C 
BRANCH   8   9
ATOM      9  C   UNL     1    -100.139 151.601 235.589  1.00  0.00    -0.000 C 
BRANCH   9  10
ATOM     10  C   UNL     1     -99.661 151.819 237.036  1.00  0.00    -0.000 C 
BRANCH  10  11
ATOM     11  C   UNL     1    -100.811 151.813 238.051  1.00  0.00    -0.003 C 
ATOM     12  C   UNL     1    -101.850 152.875 237.709  1.00  0.00     0.004 C 
ENDBRANCH  10  11
ENDBRANCH   9  10
ENDBRANCH   8   9
ENDBRANCH   7   8
ENDBRANCH   6   7
ENDBRANCH   5   6
ENDBRANCH   4   5
ENDBRANCH   3   4
ENDBRANCH   2   3
ENDBRANCH   1   2
BRANCH   1  13
ATOM     13  C   UNL     1     -96.813 149.600 236.101  1.00  0.00     0.000 C 
BRANCH  13  14
ATOM     14  C   UNL     1     -95.377 149.635 236.655  1.00  0.00     0.000 C 
BRANCH  14  15
ATOM     15  C   UNL     1     -94.680 148.265 236.765  1.00  0.00     0.000 C 
BRANCH  15  16
ATOM     16  C   UNL     1     -93.818 148.128 238.029  1.00  0.00     0.000 C 
BRANCH  16  17
ATOM     17  C   UNL     1     -94.412 148.938 239.191  1.00  0.00     0.000 C 
BRANCH  17  18
ATOM     18  C   UNL     1     -95.376 148.098 240.055  1.00  0.00     0.000 C 
BRANCH  18  19
ATOM     19  C   UNL     1     -96.543 148.909 240.643  1.00  0.00     0.000 C 
BRANCH  19  20
ATOM     20  C   UNL     1     -96.488 150.398 240.262  1.00  0.00     0.006 C 
BRANCH  20  21
ATOM     21  C   UNL     1     -97.882 151.041 240.232  1.00  0.00     0.053 C 
BRANCH  21  22
ATOM     22  C   UNL     1     -98.882 150.236 241.004  1.00  0.00     0.041 C 
ATOM     23  O   UNL     1     -99.612 149.398 240.412  1.00  0.00    -0.550 OA
ATOM     24  O   UNL     1     -99.039 150.443 242.368  1.00  0.00    -0.550 OA
ENDBRANCH  21  22
ENDBRANCH  20  21
ENDBRANCH  19  20
ENDBRANCH  18  19
ENDBRANCH  17  18
ENDBRANCH  16  17
ENDBRANCH  15  16
ENDBRANCH  14  15
ENDBRANCH  13  14
ENDBRANCH   1  13
TORSDOF 20
ENDMDL
MODEL 9
REMARK VINA RESULT:    -3.399      1.081      1.731
REMARK INTER + INTRA:         -10.588
REMARK INTER:                  -7.531
REMARK INTRA:                  -3.056
REMARK UNBOUND:                -3.215
REMARK SMILES CCCCCCCCCCCCCCCCCCCCCC(=O)[O-]
REMARK SMILES IDX 12 1 11 2 10 3 9 4 8 5 7 6 6 7 5 8 4 9 3 10 2 11 1 12 13 13
REMARK SMILES IDX 14 14 15 15 16 16 17 17 18 18 19 19 20 20 21 21 22 22 23 23
REMARK SMILES IDX 24 24
REMARK H PARENT
REMARK Flexibility Score: inf
ROOT
ATOM      1  C   UNL     1     -93.848 147.996 237.626  1.00  0.00     0.000 C 
ENDROOT
BRANCH   1   2
ATOM      2  C   UNL     1     -94.668 149.181 238.167  1.00  0.00     0.000 C 
BRANCH   2   3
ATOM      3  C   UNL     1     -94.883 149.184 239.691  1.00  0.00     0.000 C 
BRANCH   3   4
ATOM      4  C   UNL     1     -95.108 147.777 240.264  1.00  0.00    -0.000 C 
BRANCH   4   5
ATOM      5  C   UNL     1     -96.594 147.383 240.307  1.00  0.00    -0.000 C 
BRANCH   5   6
ATOM      6  C   UNL     1     -97.297 147.770 241.625  1.00  0.00    -0.000 C 
BRANCH   6   7
ATOM      7  C   UNL     1     -98.453 148.759 241.400  1.00  0.00    -0.000 C 
BRANCH   7   8
ATOM      8  C   UNL     1     -98.008 150.229 241.498  1.00  0.00    -0.000 C 
BRANCH   8   9
ATOM      9  C   UNL     1     -98.005 151.001 240.163  1.00  0.00    -0.000 C 
BRANCH   9  10
ATOM     10  C   UNL     1     -98.946 150.440 239.082  1.00  0.00    -0.000 C 
BRANCH  10  11
ATOM     11  C   UNL     1     -98.192 149.838 237.889  1.00  0.00    -0.003 C 
ATOM     12  C   UNL     1     -99.032 148.776 237.188  1.00  0.00     0.004 C 
ENDBRANCH  10  11
ENDBRANCH   9  10
ENDBRANCH   8   9
ENDBRANCH   7   8
ENDBRANCH   6   7
ENDBRANCH   5   6
ENDBRANCH   4   5
ENDBRANCH   3   4
ENDBRANCH   2   3
ENDBRANCH   1   2
BRANCH   1  13
ATOM     13  C   UNL     1     -94.301 147.543 236.227  1.00  0.00     0.000 C 
BRANCH  13  14
ATOM     14  C   UNL     1     -95.634 148.178 235.790  1.00  0.00     0.000 C 
BRANCH  14  15
ATOM     15  C   UNL     1     -95.864 148.243 234.267  1.00  0.00     0.000 C 
BRANCH  15  16
ATOM     16  C   UNL     1     -95.579 149.631 233.674  1.00  0.00     0.000 C 
BRANCH  16  17
ATOM     17  C   UNL     1     -95.747 150.729 234.736  1.00  0.00     0.000 C 
BRANCH  17  18
ATOM     18  C   UNL     1     -95.840 152.136 234.109  1.00  0.00     0.000 C 
BRANCH  18  19
ATOM     19  C   UNL     1     -96.916 152.255 233.017  1.00  0.00     0.000 C 
BRANCH  19  20
ATOM     20  C   UNL     1     -97.840 153.468 233.218  1.00  0.00     0.006 C 
BRANCH  20  21
ATOM     21  C   UNL     1     -98.020 153.820 234.701  1.00  0.00     0.053 C 
BRANCH  21  22
ATOM     22  C   UNL     1     -99.398 153.487 235.187  1.00  0.00     0.041 C 
ATOM     23  O   UNL     1    -100.203 154.408 235.487  1.00  0.00    -0.550 OA
ATOM     24  O   UNL     1     -99.777 152.162 235.353  1.00  0.00    -0.550 OA
ENDBRANCH  21  22
ENDBRANCH  20  21
ENDBRANCH  19  20
ENDBRANCH  18  19
ENDBRANCH  17  18
ENDBRANCH  16  17
ENDBRANCH  15  16
ENDBRANCH  14  15
ENDBRANCH  13  14
ENDBRANCH   1  13
TORSDOF 20
ENDMDL
