MODEL 1
REMARK VINA RESULT:    -6.503      0.000      0.000
REMARK INTER + INTRA:         -10.581
REMARK INTER:                  -9.354
REMARK INTRA:                  -1.226
REMARK UNBOUND:                -1.226
REMARK SMILES O=c1c(O[C@H]2O[C@@H](CO)[C@H](O)[C@@H](O)[C@@H]2O)c(-c2ccc(O)cc2)oc2cc(O)cc(O)c12
REMARK SMILES IDX 4 1 3 2 16 3 24 4 2 5 25 6 1 7 32 8 26 9 30 10 27 11 29 12
REMARK SMILES IDX 17 13 18 14 19 15 20 16 23 17 22 18 21 19 31 21 28 23 5 25
REMARK SMILES IDX 14 26 6 27 12 28 7 29 10 30 15 31 13 33 8 35 9 36 11 38
REMARK H PARENT 21 20 31 22 28 24 15 32 13 34 9 37 11 39
REMARK Flexibility Score: inf
ROOT
ATOM      1  O   UNL     1      14.954  -3.412 -12.363  1.00  0.00    -0.454 OA
ENDROOT
BRANCH   1   2
ATOM      2  C   UNL     1      15.676  -2.626 -11.441  1.00  0.00     0.214 A 
ATOM      3  C   UNL     1      15.829  -1.252 -11.721  1.00  0.00     0.180 A 
ATOM      4  O   UNL     1      16.586  -0.499 -10.937  1.00  0.00    -0.452 OA
ATOM      5  C   UNL     1      16.204  -3.127 -10.217  1.00  0.00     0.239 A 
ATOM      6  C   UNL     1      17.221  -0.967  -9.862  1.00  0.00     0.146 A 
ATOM      7  O   UNL     1      15.920  -4.289  -9.821  1.00  0.00    -0.285 OA
ATOM      8  C   UNL     1      17.087  -2.312  -9.469  1.00  0.00     0.111 A 
ATOM      9  C   UNL     1      18.049  -0.095  -9.145  1.00  0.00     0.094 A 
ATOM     10  C   UNL     1      17.814  -2.773  -8.350  1.00  0.00     0.134 A 
ATOM     11  C   UNL     1      18.760  -0.552  -8.037  1.00  0.00     0.123 A 
ATOM     12  C   UNL     1      18.655  -1.896  -7.645  1.00  0.00     0.093 A 
BRANCH   3  13
ATOM     13  C   UNL     1      15.032  -0.620 -12.786  1.00  0.00     0.021 A 
ATOM     14  C   UNL     1      15.709  -0.133 -13.918  1.00  0.00     0.016 A 
ATOM     15  C   UNL     1      15.014   0.574 -14.900  1.00  0.00     0.047 A 
ATOM     16  C   UNL     1      13.631   0.782 -14.775  1.00  0.00     0.115 A 
ATOM     17  C   UNL     1      13.643  -0.482 -12.706  1.00  0.00     0.016 A 
ATOM     18  C   UNL     1      12.940   0.229 -13.689  1.00  0.00     0.047 A 
BRANCH  16  19
ATOM     19  O   UNL     1      12.954   1.540 -15.728  1.00  0.00    -0.508 OA
ATOM     20  H   UNL     1      11.938   1.577 -15.748  1.00  0.00     0.293 HD
ENDBRANCH  16  19
ENDBRANCH   3  13
BRANCH  10  21
ATOM     21  O   UNL     1      17.711  -4.111  -7.927  1.00  0.00    -0.507 OA
ATOM     22  H   UNL     1      18.502  -4.611  -7.548  1.00  0.00     0.293 HD
ENDBRANCH  10  21
BRANCH  11  23
ATOM     23  O   UNL     1      19.582   0.306  -7.297  1.00  0.00    -0.508 OA
ATOM     24  H   UNL     1      20.549   0.065  -7.110  1.00  0.00     0.293 HD
ENDBRANCH  11  23
ENDBRANCH   1   2
BRANCH   1  25
ATOM     25  C   UNL     1      15.433  -4.224 -13.452  1.00  0.00     0.339 C 
ATOM     26  C   UNL     1      15.790  -5.650 -12.910  1.00  0.00     0.214 C 
ATOM     27  O   UNL     1      16.567  -3.598 -14.026  1.00  0.00    -0.332 OA
ATOM     28  C   UNL     1      17.300  -5.858 -12.896  1.00  0.00     0.180 C 
ATOM     29  C   UNL     1      17.140  -4.416 -15.027  1.00  0.00     0.179 C 
ATOM     30  C   UNL     1      17.860  -5.624 -14.340  1.00  0.00     0.177 C 
BRANCH  26  31
ATOM     31  O   UNL     1      15.158  -6.610 -13.747  1.00  0.00    -0.384 OA
ATOM     32  H   UNL     1      15.716  -7.429 -13.694  1.00  0.00     0.211 HD
ENDBRANCH  26  31
BRANCH  28  33
ATOM     33  O   UNL     1      17.907  -4.970 -11.980  1.00  0.00    -0.387 OA
ATOM     34  H   UNL     1      18.856  -4.830 -12.260  1.00  0.00     0.211 HD
ENDBRANCH  28  33
BRANCH  29  35
ATOM     35  C   UNL     1      18.099  -3.534 -15.875  1.00  0.00     0.191 C 
BRANCH  35  36
ATOM     36  O   UNL     1      18.024  -2.173 -15.512  1.00  0.00    -0.394 OA
ATOM     37  H   UNL     1      17.529  -1.692 -16.226  1.00  0.00     0.210 HD
ENDBRANCH  35  36
ENDBRANCH  29  35
BRANCH  30  38
ATOM     38  O   UNL     1      17.747  -6.807 -15.086  1.00  0.00    -0.387 OA
ATOM     39  H   UNL     1      18.362  -6.728 -15.888  1.00  0.00     0.211 HD
ENDBRANCH  30  38
ENDBRANCH   1  25
TORSDOF 11
ENDMDL
MODEL 2
REMARK VINA RESULT:    -6.396      1.137      1.773
REMARK INTER + INTRA:         -10.426
REMARK INTER:                  -9.279
REMARK INTRA:                  -1.148
REMARK UNBOUND:                -1.226
REMARK SMILES O=c1c(O[C@H]2O[C@@H](CO)[C@H](O)[C@@H](O)[C@@H]2O)c(-c2ccc(O)cc2)oc2cc(O)cc(O)c12
REMARK SMILES IDX 4 1 3 2 16 3 24 4 2 5 25 6 1 7 32 8 26 9 30 10 27 11 29 12
REMARK SMILES IDX 17 13 18 14 19 15 20 16 23 17 22 18 21 19 31 21 28 23 5 25
REMARK SMILES IDX 14 26 6 27 12 28 7 29 10 30 15 31 13 33 8 35 9 36 11 38
REMARK H PARENT 21 20 31 22 28 24 15 32 13 34 9 37 11 39
REMARK Flexibility Score: inf
ROOT
ATOM      1  O   UNL     1      15.582  -3.399 -12.714  1.00  0.00    -0.454 OA
ENDROOT
BRANCH   1   2
ATOM      2  C   UNL     1      16.191  -2.633 -11.698  1.00  0.00     0.214 A 
ATOM      3  C   UNL     1      16.383  -1.256 -11.934  1.00  0.00     0.180 A 
ATOM      4  O   UNL     1      17.043  -0.521 -11.051  1.00  0.00    -0.452 OA
ATOM      5  C   UNL     1      16.564  -3.158 -10.428  1.00  0.00     0.239 A 
ATOM      6  C   UNL     1      17.541  -1.011  -9.916  1.00  0.00     0.146 A 
ATOM      7  O   UNL     1      16.228  -4.323 -10.089  1.00  0.00    -0.285 OA
ATOM      8  C   UNL     1      17.355  -2.361  -9.564  1.00  0.00     0.111 A 
ATOM      9  C   UNL     1      18.280  -0.156  -9.089  1.00  0.00     0.094 A 
ATOM     10  C   UNL     1      17.938  -2.845  -8.374  1.00  0.00     0.134 A 
ATOM     11  C   UNL     1      18.851  -0.637  -7.912  1.00  0.00     0.123 A 
ATOM     12  C   UNL     1      18.692  -1.986  -7.558  1.00  0.00     0.093 A 
BRANCH   3  13
ATOM     13  C   UNL     1      15.723  -0.600 -13.076  1.00  0.00     0.021 A 
ATOM     14  C   UNL     1      16.511  -0.269 -14.193  1.00  0.00     0.016 A 
ATOM     15  C   UNL     1      15.957   0.454 -15.250  1.00  0.00     0.047 A 
ATOM     16  C   UNL     1      14.606   0.832 -15.217  1.00  0.00     0.115 A 
ATOM     17  C   UNL     1      14.359  -0.294 -13.083  1.00  0.00     0.016 A 
ATOM     18  C   UNL     1      13.798   0.433 -14.144  1.00  0.00     0.047 A 
BRANCH  16  19
ATOM     19  O   UNL     1      14.074   1.604 -16.248  1.00  0.00    -0.508 OA
ATOM     20  H   UNL     1      14.567   2.418 -16.605  1.00  0.00     0.293 HD
ENDBRANCH  16  19
ENDBRANCH   3  13
BRANCH  10  21
ATOM     21  O   UNL     1      17.779  -4.190  -7.990  1.00  0.00    -0.507 OA
ATOM     22  H   UNL     1      18.128  -4.536  -7.108  1.00  0.00     0.293 HD
ENDBRANCH  10  21
BRANCH  11  23
ATOM     23  O   UNL     1      19.581   0.204  -7.063  1.00  0.00    -0.508 OA
ATOM     24  H   UNL     1      20.169   0.939  -7.441  1.00  0.00     0.293 HD
ENDBRANCH  11  23
ENDBRANCH   1   2
BRANCH   1  25
ATOM     25  C   UNL     1      16.057  -4.583 -13.382  1.00  0.00     0.339 C 
ATOM     26  C   UNL     1      17.623  -4.551 -13.430  1.00  0.00     0.214 C 
ATOM     27  O   UNL     1      15.508  -4.624 -14.687  1.00  0.00    -0.332 OA
ATOM     28  C   UNL     1      18.112  -4.293 -14.849  1.00  0.00     0.180 C 
ATOM     29  C   UNL     1      16.037  -5.710 -15.421  1.00  0.00     0.179 C 
ATOM     30  C   UNL     1      17.521  -5.388 -15.800  1.00  0.00     0.177 C 
BRANCH  26  31
ATOM     31  O   UNL     1      18.103  -5.801 -12.951  1.00  0.00    -0.384 OA
ATOM     32  H   UNL     1      17.300  -6.321 -12.689  1.00  0.00     0.211 HD
ENDBRANCH  26  31
BRANCH  28  33
ATOM     33  O   UNL     1      17.721  -3.004 -15.275  1.00  0.00    -0.387 OA
ATOM     34  H   UNL     1      18.193  -2.329 -14.708  1.00  0.00     0.211 HD
ENDBRANCH  28  33
BRANCH  29  35
ATOM     35  C   UNL     1      15.126  -5.940 -16.660  1.00  0.00     0.191 C 
BRANCH  35  36
ATOM     36  O   UNL     1      15.746  -6.758 -17.628  1.00  0.00    -0.394 OA
ATOM     37  H   UNL     1      15.217  -7.594 -17.708  1.00  0.00     0.210 HD
ENDBRANCH  35  36
ENDBRANCH  29  35
BRANCH  30  38
ATOM     38  O   UNL     1      18.339  -6.528 -15.770  1.00  0.00    -0.387 OA
ATOM     39  H   UNL     1      19.233  -6.278 -16.176  1.00  0.00     0.211 HD
ENDBRANCH  30  38
ENDBRANCH   1  25
TORSDOF 11
ENDMDL
MODEL 3
REMARK VINA RESULT:    -6.290      2.568      7.252
REMARK INTER + INTRA:         -10.274
REMARK INTER:                  -8.956
REMARK INTRA:                  -1.318
REMARK UNBOUND:                -1.226
REMARK SMILES O=c1c(O[C@H]2O[C@@H](CO)[C@H](O)[C@@H](O)[C@@H]2O)c(-c2ccc(O)cc2)oc2cc(O)cc(O)c12
REMARK SMILES IDX 4 1 3 2 16 3 24 4 2 5 25 6 1 7 32 8 26 9 30 10 27 11 29 12
REMARK SMILES IDX 17 13 18 14 19 15 20 16 23 17 22 18 21 19 31 21 28 23 5 25
REMARK SMILES IDX 14 26 6 27 12 28 7 29 10 30 15 31 13 33 8 35 9 36 11 38
REMARK H PARENT 21 20 31 22 28 24 15 32 13 34 9 37 11 39
REMARK Flexibility Score: inf
ROOT
ATOM      1  O   UNL     1      16.746  -3.193 -13.868  1.00  0.00    -0.454 OA
ENDROOT
BRANCH   1   2
ATOM      2  C   UNL     1      17.356  -2.873 -15.098  1.00  0.00     0.214 A 
ATOM      3  C   UNL     1      17.633  -3.927 -15.993  1.00  0.00     0.180 A 
ATOM      4  O   UNL     1      18.298  -3.684 -17.113  1.00  0.00    -0.452 OA
ATOM      5  C   UNL     1      17.649  -1.542 -15.513  1.00  0.00     0.239 A 
ATOM      6  C   UNL     1      18.722  -2.470 -17.465  1.00  0.00     0.146 A 
ATOM      7  O   UNL     1      17.236  -0.555 -14.848  1.00  0.00    -0.285 OA
ATOM      8  C   UNL     1      18.447  -1.345 -16.665  1.00  0.00     0.111 A 
ATOM      9  C   UNL     1      19.474  -2.342 -18.639  1.00  0.00     0.094 A 
ATOM     10  C   UNL     1      18.955  -0.087 -17.055  1.00  0.00     0.134 A 
ATOM     11  C   UNL     1      19.970  -1.098 -19.024  1.00  0.00     0.123 A 
ATOM     12  C   UNL     1      19.723   0.031 -18.226  1.00  0.00     0.093 A 
BRANCH   3  13
ATOM     13  C   UNL     1      17.056  -5.263 -15.766  1.00  0.00     0.021 A 
ATOM     14  C   UNL     1      17.826  -6.203 -15.057  1.00  0.00     0.016 A 
ATOM     15  C   UNL     1      17.372  -7.515 -14.915  1.00  0.00     0.047 A 
ATOM     16  C   UNL     1      16.134  -7.897 -15.456  1.00  0.00     0.115 A 
ATOM     17  C   UNL     1      15.789  -5.625 -16.231  1.00  0.00     0.016 A 
ATOM     18  C   UNL     1      15.329  -6.943 -16.092  1.00  0.00     0.047 A 
BRANCH  16  19
ATOM     19  O   UNL     1      15.714  -9.222 -15.363  1.00  0.00    -0.508 OA
ATOM     20  H   UNL     1      16.124  -9.859 -14.685  1.00  0.00     0.293 HD
ENDBRANCH  16  19
ENDBRANCH   3  13
BRANCH  10  21
ATOM     21  O   UNL     1      18.707   1.061 -16.281  1.00  0.00    -0.507 OA
ATOM     22  H   UNL     1      19.015   1.132 -15.321  1.00  0.00     0.293 HD
ENDBRANCH  10  21
BRANCH  11  23
ATOM     23  O   UNL     1      20.712  -0.944 -20.202  1.00  0.00    -0.508 OA
ATOM     24  H   UNL     1      20.256  -0.693 -21.072  1.00  0.00     0.293 HD
ENDBRANCH  11  23
ENDBRANCH   1   2
BRANCH   1  25
ATOM     25  C   UNL     1      17.345  -3.427 -12.578  1.00  0.00     0.339 C 
ATOM     26  C   UNL     1      16.658  -4.667 -11.912  1.00  0.00     0.214 C 
ATOM     27  O   UNL     1      17.185  -2.266 -11.782  1.00  0.00    -0.332 OA
ATOM     28  C   UNL     1      15.779  -4.233 -10.745  1.00  0.00     0.180 C 
ATOM     29  C   UNL     1      17.657  -2.489 -10.468  1.00  0.00     0.179 C 
ATOM     30  C   UNL     1      16.650  -3.426  -9.722  1.00  0.00     0.177 C 
BRANCH  26  31
ATOM     31  O   UNL     1      17.680  -5.552 -11.469  1.00  0.00    -0.384 OA
ATOM     32  H   UNL     1      18.397  -5.505 -12.154  1.00  0.00     0.211 HD
ENDBRANCH  26  31
BRANCH  28  33
ATOM     33  O   UNL     1      14.704  -3.443 -11.210  1.00  0.00    -0.387 OA
ATOM     34  H   UNL     1      13.993  -3.435 -10.507  1.00  0.00     0.211 HD
ENDBRANCH  28  33
BRANCH  29  35
ATOM     35  C   UNL     1      17.829  -1.105  -9.780  1.00  0.00     0.191 C 
BRANCH  35  36
ATOM     36  O   UNL     1      17.399  -1.127  -8.437  1.00  0.00    -0.394 OA
ATOM     37  H   UNL     1      17.886  -0.412  -7.948  1.00  0.00     0.210 HD
ENDBRANCH  35  36
ENDBRANCH  29  35
BRANCH  30  38
ATOM     38  O   UNL     1      17.296  -4.316  -8.850  1.00  0.00    -0.387 OA
ATOM     39  H   UNL     1      17.546  -3.802  -8.013  1.00  0.00     0.211 HD
ENDBRANCH  30  38
ENDBRANCH   1  25
TORSDOF 11
ENDMDL
MODEL 4
REMARK VINA RESULT:    -6.195      3.775      6.268
REMARK INTER + INTRA:         -10.138
REMARK INTER:                  -9.039
REMARK INTRA:                  -1.099
REMARK UNBOUND:                -1.226
REMARK SMILES O=c1c(O[C@H]2O[C@@H](CO)[C@H](O)[C@@H](O)[C@@H]2O)c(-c2ccc(O)cc2)oc2cc(O)cc(O)c12
REMARK SMILES IDX 4 1 3 2 16 3 24 4 2 5 25 6 1 7 32 8 26 9 30 10 27 11 29 12
REMARK SMILES IDX 17 13 18 14 19 15 20 16 23 17 22 18 21 19 31 21 28 23 5 25
REMARK SMILES IDX 14 26 6 27 12 28 7 29 10 30 15 31 13 33 8 35 9 36 11 38
REMARK H PARENT 21 20 31 22 28 24 15 32 13 34 9 37 11 39
REMARK Flexibility Score: inf
ROOT
ATOM      1  O   UNL     1      15.135  -7.108 -12.711  1.00  0.00    -0.454 OA
ENDROOT
BRANCH   1   2
ATOM      2  C   UNL     1      14.000  -6.879 -11.905  1.00  0.00     0.214 A 
ATOM      3  C   UNL     1      13.956  -5.690 -11.148  1.00  0.00     0.180 A 
ATOM      4  O   UNL     1      12.960  -5.484 -10.300  1.00  0.00    -0.452 OA
ATOM      5  C   UNL     1      12.873  -7.749 -11.861  1.00  0.00     0.239 A 
ATOM      6  C   UNL     1      11.960  -6.348 -10.121  1.00  0.00     0.146 A 
ATOM      7  O   UNL     1      12.770  -8.710 -12.668  1.00  0.00    -0.285 OA
ATOM      8  C   UNL     1      11.886  -7.538 -10.868  1.00  0.00     0.111 A 
ATOM      9  C   UNL     1      10.996  -6.058  -9.148  1.00  0.00     0.094 A 
ATOM     10  C   UNL     1      10.834  -8.443 -10.612  1.00  0.00     0.134 A 
ATOM     11  C   UNL     1       9.955  -6.951  -8.901  1.00  0.00     0.123 A 
ATOM     12  C   UNL     1       9.879  -8.152  -9.623  1.00  0.00     0.093 A 
BRANCH   3  13
ATOM     13  C   UNL     1      14.925  -4.611 -11.407  1.00  0.00     0.021 A 
ATOM     14  C   UNL     1      16.068  -4.539 -10.590  1.00  0.00     0.016 A 
ATOM     15  C   UNL     1      16.955  -3.470 -10.721  1.00  0.00     0.047 A 
ATOM     16  C   UNL     1      16.727  -2.475 -11.684  1.00  0.00     0.115 A 
ATOM     17  C   UNL     1      14.744  -3.664 -12.419  1.00  0.00     0.016 A 
ATOM     18  C   UNL     1      15.634  -2.587 -12.554  1.00  0.00     0.047 A 
BRANCH  16  19
ATOM     19  O   UNL     1      17.584  -1.380 -11.770  1.00  0.00    -0.508 OA
ATOM     20  H   UNL     1      17.329  -0.550 -12.299  1.00  0.00     0.293 HD
ENDBRANCH  16  19
ENDBRANCH   3  13
BRANCH  10  21
ATOM     21  O   UNL     1      10.727  -9.645 -11.334  1.00  0.00    -0.507 OA
ATOM     22  H   UNL     1       9.978 -10.303 -11.166  1.00  0.00     0.293 HD
ENDBRANCH  10  21
BRANCH  11  23
ATOM     23  O   UNL     1       8.972  -6.674  -7.943  1.00  0.00    -0.508 OA
ATOM     24  H   UNL     1       8.955  -5.782  -7.460  1.00  0.00     0.293 HD
ENDBRANCH  11  23
ENDBRANCH   1   2
BRANCH   1  25
ATOM     25  C   UNL     1      15.318  -6.894 -14.124  1.00  0.00     0.339 C 
ATOM     26  C   UNL     1      14.978  -8.217 -14.891  1.00  0.00     0.214 C 
ATOM     27  O   UNL     1      16.657  -6.498 -14.357  1.00  0.00    -0.332 OA
ATOM     28  C   UNL     1      16.245  -8.858 -15.445  1.00  0.00     0.180 C 
ATOM     29  C   UNL     1      16.914  -6.386 -15.744  1.00  0.00     0.179 C 
ATOM     30  C   UNL     1      16.981  -7.822 -16.362  1.00  0.00     0.177 C 
BRANCH  26  31
ATOM     31  O   UNL     1      14.075  -7.897 -15.942  1.00  0.00    -0.384 OA
ATOM     32  H   UNL     1      14.607  -7.406 -16.620  1.00  0.00     0.211 HD
ENDBRANCH  26  31
BRANCH  28  33
ATOM     33  O   UNL     1      17.087  -9.270 -14.388  1.00  0.00    -0.387 OA
ATOM     34  H   UNL     1      17.129 -10.269 -14.391  1.00  0.00     0.211 HD
ENDBRANCH  28  33
BRANCH  29  35
ATOM     35  C   UNL     1      18.232  -5.581 -15.923  1.00  0.00     0.191 C 
BRANCH  35  36
ATOM     36  O   UNL     1      18.911  -5.936 -17.107  1.00  0.00    -0.394 OA
ATOM     37  H   UNL     1      19.879  -6.005 -16.896  1.00  0.00     0.210 HD
ENDBRANCH  35  36
ENDBRANCH  29  35
BRANCH  30  38
ATOM     38  O   UNL     1      16.441  -7.872 -17.656  1.00  0.00    -0.387 OA
ATOM     39  H   UNL     1      16.634  -8.792 -18.036  1.00  0.00     0.211 HD
ENDBRANCH  30  38
ENDBRANCH   1  25
TORSDOF 11
ENDMDL
MODEL 5
REMARK VINA RESULT:    -6.138      2.003      6.503
REMARK INTER + INTRA:         -10.056
REMARK INTER:                  -8.651
REMARK INTRA:                  -1.404
REMARK UNBOUND:                -1.226
REMARK SMILES O=c1c(O[C@H]2O[C@@H](CO)[C@H](O)[C@@H](O)[C@@H]2O)c(-c2ccc(O)cc2)oc2cc(O)cc(O)c12
REMARK SMILES IDX 4 1 3 2 16 3 24 4 2 5 25 6 1 7 32 8 26 9 30 10 27 11 29 12
REMARK SMILES IDX 17 13 18 14 19 15 20 16 23 17 22 18 21 19 31 21 28 23 5 25
REMARK SMILES IDX 14 26 6 27 12 28 7 29 10 30 15 31 13 33 8 35 9 36 11 38
REMARK H PARENT 21 20 31 22 28 24 15 32 13 34 9 37 11 39
REMARK Flexibility Score: inf
ROOT
ATOM      1  O   UNL     1      17.752  -1.584 -11.307  1.00  0.00    -0.454 OA
ENDROOT
BRANCH   1   2
ATOM      2  C   UNL     1      16.391  -1.432 -11.646  1.00  0.00     0.214 A 
ATOM      3  C   UNL     1      15.828  -2.355 -12.552  1.00  0.00     0.180 A 
ATOM      4  O   UNL     1      14.585  -2.187 -12.978  1.00  0.00    -0.452 OA
ATOM      5  C   UNL     1      15.542  -0.438 -11.081  1.00  0.00     0.239 A 
ATOM      6  C   UNL     1      13.805  -1.180 -12.583  1.00  0.00     0.146 A 
ATOM      7  O   UNL     1      15.936   0.274 -10.120  1.00  0.00    -0.285 OA
ATOM      8  C   UNL     1      14.257  -0.237 -11.641  1.00  0.00     0.111 A 
ATOM      9  C   UNL     1      12.530  -1.063 -13.151  1.00  0.00     0.094 A 
ATOM     10  C   UNL     1      13.413   0.837 -11.288  1.00  0.00     0.134 A 
ATOM     11  C   UNL     1      11.697  -0.004 -12.796  1.00  0.00     0.123 A 
ATOM     12  C   UNL     1      12.141   0.956 -11.874  1.00  0.00     0.093 A 
BRANCH   3  13
ATOM     13  C   UNL     1      16.558  -3.584 -12.906  1.00  0.00     0.021 A 
ATOM     14  C   UNL     1      17.426  -3.542 -14.012  1.00  0.00     0.016 A 
ATOM     15  C   UNL     1      18.051  -4.709 -14.456  1.00  0.00     0.047 A 
ATOM     16  C   UNL     1      17.837  -5.923 -13.786  1.00  0.00     0.115 A 
ATOM     17  C   UNL     1      16.412  -4.778 -12.193  1.00  0.00     0.016 A 
ATOM     18  C   UNL     1      17.038  -5.953 -12.636  1.00  0.00     0.047 A 
BRANCH  16  19
ATOM     19  O   UNL     1      18.416  -7.095 -14.270  1.00  0.00    -0.508 OA
ATOM     20  H   UNL     1      18.431  -7.945 -13.714  1.00  0.00     0.293 HD
ENDBRANCH  16  19
ENDBRANCH   3  13
BRANCH  10  21
ATOM     21  O   UNL     1      13.829   1.802 -10.353  1.00  0.00    -0.507 OA
ATOM     22  H   UNL     1      13.650   1.698  -9.365  1.00  0.00     0.293 HD
ENDBRANCH  10  21
BRANCH  11  23
ATOM     23  O   UNL     1      10.413   0.123 -13.340  1.00  0.00    -0.508 OA
ATOM     24  H   UNL     1      10.154  -0.379 -14.182  1.00  0.00     0.293 HD
ENDBRANCH  11  23
ENDBRANCH   1   2
BRANCH   1  25
ATOM     25  C   UNL     1      18.359  -2.401 -10.287  1.00  0.00     0.339 C 
ATOM     26  C   UNL     1      17.318  -2.649  -9.143  1.00  0.00     0.214 C 
ATOM     27  O   UNL     1      19.510  -1.738  -9.795  1.00  0.00    -0.332 OA
ATOM     28  C   UNL     1      17.701  -1.872  -7.890  1.00  0.00     0.180 C 
ATOM     29  C   UNL     1      20.075  -2.450  -8.712  1.00  0.00     0.179 C 
ATOM     30  C   UNL     1      19.152  -2.280  -7.460  1.00  0.00     0.177 C 
BRANCH  26  31
ATOM     31  O   UNL     1      17.281  -4.046  -8.877  1.00  0.00    -0.384 OA
ATOM     32  H   UNL     1      17.533  -4.150  -7.924  1.00  0.00     0.211 HD
ENDBRANCH  26  31
BRANCH  28  33
ATOM     33  O   UNL     1      17.630  -0.483  -8.135  1.00  0.00    -0.387 OA
ATOM     34  H   UNL     1      18.352  -0.033  -7.609  1.00  0.00     0.211 HD
ENDBRANCH  28  33
BRANCH  29  35
ATOM     35  C   UNL     1      21.517  -1.913  -8.486  1.00  0.00     0.191 C 
BRANCH  35  36
ATOM     36  O   UNL     1      22.036  -2.306  -7.235  1.00  0.00    -0.394 OA
ATOM     37  H   UNL     1      23.020  -2.404  -7.328  1.00  0.00     0.210 HD
ENDBRANCH  35  36
ENDBRANCH  29  35
BRANCH  30  38
ATOM     38  O   UNL     1      19.100  -3.441  -6.673  1.00  0.00    -0.387 OA
ATOM     39  H   UNL     1      19.980  -3.931  -6.787  1.00  0.00     0.211 HD
ENDBRANCH  30  38
ENDBRANCH   1  25
TORSDOF 11
ENDMDL
MODEL 6
REMARK VINA RESULT:    -6.098      1.962      6.479
REMARK INTER + INTRA:          -9.998
REMARK INTER:                  -8.909
REMARK INTRA:                  -1.088
REMARK UNBOUND:                -1.226
REMARK SMILES O=c1c(O[C@H]2O[C@@H](CO)[C@H](O)[C@@H](O)[C@@H]2O)c(-c2ccc(O)cc2)oc2cc(O)cc(O)c12
REMARK SMILES IDX 4 1 3 2 16 3 24 4 2 5 25 6 1 7 32 8 26 9 30 10 27 11 29 12
REMARK SMILES IDX 17 13 18 14 19 15 20 16 23 17 22 18 21 19 31 21 28 23 5 25
REMARK SMILES IDX 14 26 6 27 12 28 7 29 10 30 15 31 13 33 8 35 9 36 11 38
REMARK H PARENT 21 20 31 22 28 24 15 32 13 34 9 37 11 39
REMARK Flexibility Score: inf
ROOT
ATOM      1  O   UNL     1      18.384  -3.022 -12.344  1.00  0.00    -0.454 OA
ENDROOT
BRANCH   1   2
ATOM      2  C   UNL     1      17.951  -3.827 -13.419  1.00  0.00     0.214 A 
ATOM      3  C   UNL     1      17.146  -3.229 -14.410  1.00  0.00     0.180 A 
ATOM      4  O   UNL     1      16.632  -3.971 -15.380  1.00  0.00    -0.452 OA
ATOM      5  C   UNL     1      18.332  -5.188 -13.591  1.00  0.00     0.239 A 
ATOM      6  C   UNL     1      16.846  -5.283 -15.490  1.00  0.00     0.146 A 
ATOM      7  O   UNL     1      19.211  -5.709 -12.853  1.00  0.00    -0.285 OA
ATOM      8  C   UNL     1      17.679  -5.961 -14.581  1.00  0.00     0.111 A 
ATOM      9  C   UNL     1      16.197  -5.979 -16.517  1.00  0.00     0.094 A 
ATOM     10  C   UNL     1      17.838  -7.357 -14.710  1.00  0.00     0.134 A 
ATOM     11  C   UNL     1      16.361  -7.357 -16.645  1.00  0.00     0.123 A 
ATOM     12  C   UNL     1      17.172  -8.052 -15.733  1.00  0.00     0.093 A 
BRANCH   3  13
ATOM     13  C   UNL     1      16.999  -1.764 -14.462  1.00  0.00     0.021 A 
ATOM     14  C   UNL     1      15.912  -1.185 -13.782  1.00  0.00     0.016 A 
ATOM     15  C   UNL     1      15.666   0.184 -13.895  1.00  0.00     0.047 A 
ATOM     16  C   UNL     1      16.514   0.994 -14.666  1.00  0.00     0.115 A 
ATOM     17  C   UNL     1      17.888  -0.942 -15.160  1.00  0.00     0.016 A 
ATOM     18  C   UNL     1      17.644   0.434 -15.277  1.00  0.00     0.047 A 
BRANCH  16  19
ATOM     19  O   UNL     1      16.228   2.349 -14.823  1.00  0.00    -0.508 OA
ATOM     20  H   UNL     1      16.719   3.058 -14.284  1.00  0.00     0.293 HD
ENDBRANCH  16  19
ENDBRANCH   3  13
BRANCH  10  21
ATOM     21  O   UNL     1      18.659  -8.073 -13.819  1.00  0.00    -0.507 OA
ATOM     22  H   UNL     1      19.560  -7.723 -13.527  1.00  0.00     0.293 HD
ENDBRANCH  10  21
BRANCH  11  23
ATOM     23  O   UNL     1      15.734  -8.071 -17.673  1.00  0.00    -0.508 OA
ATOM     24  H   UNL     1      14.738  -7.978 -17.836  1.00  0.00     0.293 HD
ENDBRANCH  11  23
ENDBRANCH   1   2
BRANCH   1  25
ATOM     25  C   UNL     1      18.478  -3.335 -10.941  1.00  0.00     0.339 C 
ATOM     26  C   UNL     1      17.035  -3.456 -10.345  1.00  0.00     0.214 C 
ATOM     27  O   UNL     1      19.214  -2.313 -10.293  1.00  0.00    -0.332 OA
ATOM     28  C   UNL     1      16.727  -2.273  -9.436  1.00  0.00     0.180 C 
ATOM     29  C   UNL     1      19.235  -2.520  -8.894  1.00  0.00     0.179 C 
ATOM     30  C   UNL     1      17.819  -2.194  -8.314  1.00  0.00     0.177 C 
BRANCH  26  31
ATOM     31  O   UNL     1      16.958  -4.679  -9.623  1.00  0.00    -0.384 OA
ATOM     32  H   UNL     1      16.336  -5.260 -10.134  1.00  0.00     0.211 HD
ENDBRANCH  26  31
BRANCH  28  33
ATOM     33  O   UNL     1      16.700  -1.075 -10.184  1.00  0.00    -0.387 OA
ATOM     34  H   UNL     1      15.954  -1.136 -10.848  1.00  0.00     0.211 HD
ENDBRANCH  28  33
BRANCH  29  35
ATOM     35  C   UNL     1      20.361  -1.629  -8.296  1.00  0.00     0.191 C 
BRANCH  35  36
ATOM     36  O   UNL     1      20.042  -1.177  -6.998  1.00  0.00    -0.394 OA
ATOM     37  H   UNL     1      20.882  -0.873  -6.565  1.00  0.00     0.210 HD
ENDBRANCH  35  36
ENDBRANCH  29  35
BRANCH  30  38
ATOM     38  O   UNL     1      17.467  -3.045  -7.255  1.00  0.00    -0.387 OA
ATOM     39  H   UNL     1      17.998  -3.903  -7.359  1.00  0.00     0.211 HD
ENDBRANCH  30  38
ENDBRANCH   1  25
TORSDOF 11
ENDMDL
MODEL 7
REMARK VINA RESULT:    -6.042      2.624      6.668
REMARK INTER + INTRA:          -9.917
REMARK INTER:                  -8.690
REMARK INTRA:                  -1.227
REMARK UNBOUND:                -1.226
REMARK SMILES O=c1c(O[C@H]2O[C@@H](CO)[C@H](O)[C@@H](O)[C@@H]2O)c(-c2ccc(O)cc2)oc2cc(O)cc(O)c12
REMARK SMILES IDX 4 1 3 2 16 3 24 4 2 5 25 6 1 7 32 8 26 9 30 10 27 11 29 12
REMARK SMILES IDX 17 13 18 14 19 15 20 16 23 17 22 18 21 19 31 21 28 23 5 25
REMARK SMILES IDX 14 26 6 27 12 28 7 29 10 30 15 31 13 33 8 35 9 36 11 38
REMARK H PARENT 21 20 31 22 28 24 15 32 13 34 9 37 11 39
REMARK Flexibility Score: inf
ROOT
ATOM      1  O   UNL     1      17.459  -1.695 -10.753  1.00  0.00    -0.454 OA
ENDROOT
BRANCH   1   2
ATOM      2  C   UNL     1      17.588  -1.411 -12.128  1.00  0.00     0.214 A 
ATOM      3  C   UNL     1      17.040  -2.329 -13.047  1.00  0.00     0.180 A 
ATOM      4  O   UNL     1      17.228  -2.155 -14.347  1.00  0.00    -0.452 OA
ATOM      5  C   UNL     1      18.184  -0.222 -12.638  1.00  0.00     0.239 A 
ATOM      6  C   UNL     1      17.912  -1.130 -14.857  1.00  0.00     0.146 A 
ATOM      7  O   UNL     1      18.500   0.721 -11.865  1.00  0.00    -0.285 OA
ATOM      8  C   UNL     1      18.452  -0.132 -14.025  1.00  0.00     0.111 A 
ATOM      9  C   UNL     1      18.106  -1.083 -16.243  1.00  0.00     0.094 A 
ATOM     10  C   UNL     1      19.206   0.910 -14.607  1.00  0.00     0.134 A 
ATOM     11  C   UNL     1      18.847  -0.050 -16.815  1.00  0.00     0.123 A 
ATOM     12  C   UNL     1      19.410   0.942 -15.997  1.00  0.00     0.093 A 
BRANCH   3  13
ATOM     13  C   UNL     1      16.132  -3.391 -12.581  1.00  0.00     0.021 A 
ATOM     14  C   UNL     1      16.626  -4.707 -12.530  1.00  0.00     0.016 A 
ATOM     15  C   UNL     1      15.773  -5.763 -12.205  1.00  0.00     0.047 A 
ATOM     16  C   UNL     1      14.425  -5.515 -11.903  1.00  0.00     0.115 A 
ATOM     17  C   UNL     1      14.811  -3.139 -12.201  1.00  0.00     0.016 A 
ATOM     18  C   UNL     1      13.949  -4.197 -11.874  1.00  0.00     0.047 A 
BRANCH  16  19
ATOM     19  O   UNL     1      13.565  -6.579 -11.638  1.00  0.00    -0.508 OA
ATOM     20  H   UNL     1      12.995  -6.600 -10.796  1.00  0.00     0.293 HD
ENDBRANCH  16  19
ENDBRANCH   3  13
BRANCH  10  21
ATOM     21  O   UNL     1      19.766   1.925 -13.809  1.00  0.00    -0.507 OA
ATOM     22  H   UNL     1      20.730   1.896 -13.511  1.00  0.00     0.293 HD
ENDBRANCH  10  21
BRANCH  11  23
ATOM     23  O   UNL     1      19.041   0.024 -18.199  1.00  0.00    -0.508 OA
ATOM     24  H   UNL     1      18.414  -0.453 -18.837  1.00  0.00     0.293 HD
ENDBRANCH  11  23
ENDBRANCH   1   2
BRANCH   1  25
ATOM     25  C   UNL     1      18.352  -2.405  -9.873  1.00  0.00     0.339 C 
ATOM     26  C   UNL     1      17.656  -2.595  -8.482  1.00  0.00     0.214 C 
ATOM     27  O   UNL     1      19.553  -1.666  -9.746  1.00  0.00    -0.332 OA
ATOM     28  C   UNL     1      18.307  -1.706  -7.430  1.00  0.00     0.180 C 
ATOM     29  C   UNL     1      20.416  -2.268  -8.801  1.00  0.00     0.179 C 
ATOM     30  C   UNL     1      19.840  -2.029  -7.367  1.00  0.00     0.177 C 
BRANCH  26  31
ATOM     31  O   UNL     1      17.764  -3.966  -8.120  1.00  0.00    -0.384 OA
ATOM     32  H   UNL     1      16.863  -4.357  -8.259  1.00  0.00     0.211 HD
ENDBRANCH  26  31
BRANCH  28  33
ATOM     33  O   UNL     1      18.101  -0.345  -7.743  1.00  0.00    -0.387 OA
ATOM     34  H   UNL     1      17.358  -0.285  -8.410  1.00  0.00     0.211 HD
ENDBRANCH  28  33
BRANCH  29  35
ATOM     35  C   UNL     1      21.836  -1.666  -8.998  1.00  0.00     0.191 C 
BRANCH  35  36
ATOM     36  O   UNL     1      22.580  -1.666  -7.800  1.00  0.00    -0.394 OA
ATOM     37  H   UNL     1      21.952  -1.496  -7.050  1.00  0.00     0.210 HD
ENDBRANCH  35  36
ENDBRANCH  29  35
BRANCH  30  38
ATOM     38  O   UNL     1      20.055  -3.123  -6.515  1.00  0.00    -0.387 OA
ATOM     39  H   UNL     1      19.474  -3.887  -6.841  1.00  0.00     0.211 HD
ENDBRANCH  30  38
ENDBRANCH   1  25
TORSDOF 11
ENDMDL
MODEL 8
REMARK VINA RESULT:    -6.021      2.507      6.116
REMARK INTER + INTRA:          -9.887
REMARK INTER:                  -8.344
REMARK INTRA:                  -1.543
REMARK UNBOUND:                -1.226
REMARK SMILES O=c1c(O[C@H]2O[C@@H](CO)[C@H](O)[C@@H](O)[C@@H]2O)c(-c2ccc(O)cc2)oc2cc(O)cc(O)c12
REMARK SMILES IDX 4 1 3 2 16 3 24 4 2 5 25 6 1 7 32 8 26 9 30 10 27 11 29 12
REMARK SMILES IDX 17 13 18 14 19 15 20 16 23 17 22 18 21 19 31 21 28 23 5 25
REMARK SMILES IDX 14 26 6 27 12 28 7 29 10 30 15 31 13 33 8 35 9 36 11 38
REMARK H PARENT 21 20 31 22 28 24 15 32 13 34 9 37 11 39
REMARK Flexibility Score: inf
ROOT
ATOM      1  O   UNL     1      17.544  -1.856 -13.623  1.00  0.00    -0.454 OA
ENDROOT
BRANCH   1   2
ATOM      2  C   UNL     1      16.463  -0.999 -13.913  1.00  0.00     0.214 A 
ATOM      3  C   UNL     1      16.689   0.073 -14.801  1.00  0.00     0.180 A 
ATOM      4  O   UNL     1      15.732   0.963 -15.020  1.00  0.00    -0.452 OA
ATOM      5  C   UNL     1      15.144  -1.191 -13.411  1.00  0.00     0.239 A 
ATOM      6  C   UNL     1      14.529   0.899 -14.449  1.00  0.00     0.146 A 
ATOM      7  O   UNL     1      14.840  -2.241 -12.787  1.00  0.00    -0.285 OA
ATOM      8  C   UNL     1      14.188  -0.162 -13.590  1.00  0.00     0.111 A 
ATOM      9  C   UNL     1      13.617   1.932 -14.701  1.00  0.00     0.094 A 
ATOM     10  C   UNL     1      12.918  -0.163 -12.973  1.00  0.00     0.134 A 
ATOM     11  C   UNL     1      12.362   1.925 -14.094  1.00  0.00     0.123 A 
ATOM     12  C   UNL     1      12.014   0.884 -13.219  1.00  0.00     0.093 A 
BRANCH   3  13
ATOM     13  C   UNL     1      17.925   0.125 -15.601  1.00  0.00     0.021 A 
ATOM     14  C   UNL     1      18.944   1.001 -15.186  1.00  0.00     0.016 A 
ATOM     15  C   UNL     1      20.085   1.169 -15.973  1.00  0.00     0.047 A 
ATOM     16  C   UNL     1      20.232   0.448 -17.168  1.00  0.00     0.115 A 
ATOM     17  C   UNL     1      18.112  -0.652 -16.748  1.00  0.00     0.016 A 
ATOM     18  C   UNL     1      19.256  -0.486 -17.542  1.00  0.00     0.047 A 
BRANCH  16  19
ATOM     19  O   UNL     1      21.345   0.664 -17.978  1.00  0.00    -0.508 OA
ATOM     20  H   UNL     1      22.118   1.247 -17.668  1.00  0.00     0.293 HD
ENDBRANCH  16  19
ENDBRANCH   3  13
BRANCH  10  21
ATOM     21  O   UNL     1      12.541  -1.204 -12.105  1.00  0.00    -0.507 OA
ATOM     22  H   UNL     1      12.805  -1.205 -11.130  1.00  0.00     0.293 HD
ENDBRANCH  10  21
BRANCH  11  23
ATOM     23  O   UNL     1      11.429   2.939 -14.344  1.00  0.00    -0.508 OA
ATOM     24  H   UNL     1      11.731   3.897 -14.487  1.00  0.00     0.293 HD
ENDBRANCH  11  23
ENDBRANCH   1   2
BRANCH   1  25
ATOM     25  C   UNL     1      18.400  -1.898 -12.465  1.00  0.00     0.339 C 
ATOM     26  C   UNL     1      18.505  -3.376 -11.958  1.00  0.00     0.214 C 
ATOM     27  O   UNL     1      17.858  -1.053 -11.465  1.00  0.00    -0.332 OA
ATOM     28  C   UNL     1      17.747  -3.551 -10.648  1.00  0.00     0.180 C 
ATOM     29  C   UNL     1      18.604  -1.150 -10.267  1.00  0.00     0.179 C 
ATOM     30  C   UNL     1      18.304  -2.532  -9.597  1.00  0.00     0.177 C 
BRANCH  26  31
ATOM     31  O   UNL     1      19.883  -3.686 -11.788  1.00  0.00    -0.384 OA
ATOM     32  H   UNL     1      19.956  -4.132 -10.905  1.00  0.00     0.211 HD
ENDBRANCH  26  31
BRANCH  28  33
ATOM     33  O   UNL     1      16.365  -3.347 -10.852  1.00  0.00    -0.387 OA
ATOM     34  H   UNL     1      16.129  -2.436 -10.514  1.00  0.00     0.211 HD
ENDBRANCH  28  33
BRANCH  29  35
ATOM     35  C   UNL     1      18.226   0.061  -9.369  1.00  0.00     0.191 C 
BRANCH  35  36
ATOM     36  O   UNL     1      17.788  -0.346  -8.091  1.00  0.00    -0.394 OA
ATOM     37  H   UNL     1      17.287   0.408  -7.684  1.00  0.00     0.210 HD
ENDBRANCH  35  36
ENDBRANCH  29  35
BRANCH  30  38
ATOM     38  O   UNL     1      19.434  -3.076  -8.967  1.00  0.00    -0.387 OA
ATOM     39  H   UNL     1      19.835  -2.356  -8.376  1.00  0.00     0.211 HD
ENDBRANCH  30  38
ENDBRANCH   1  25
TORSDOF 11
ENDMDL
MODEL 9
REMARK VINA RESULT:    -5.991      3.129      5.856
REMARK INTER + INTRA:          -9.844
REMARK INTER:                  -8.873
REMARK INTRA:                  -0.972
REMARK UNBOUND:                -1.226
REMARK SMILES O=c1c(O[C@H]2O[C@@H](CO)[C@H](O)[C@@H](O)[C@@H]2O)c(-c2ccc(O)cc2)oc2cc(O)cc(O)c12
REMARK SMILES IDX 4 1 3 2 16 3 24 4 2 5 25 6 1 7 32 8 26 9 30 10 27 11 29 12
REMARK SMILES IDX 17 13 18 14 19 15 20 16 23 17 22 18 21 19 31 21 28 23 5 25
REMARK SMILES IDX 14 26 6 27 12 28 7 29 10 30 15 31 13 33 8 35 9 36 11 38
REMARK H PARENT 21 20 31 22 28 24 15 32 13 34 9 37 11 39
REMARK Flexibility Score: inf
ROOT
ATOM      1  O   UNL     1      16.209  -5.915 -12.558  1.00  0.00    -0.454 OA
ENDROOT
BRANCH   1   2
ATOM      2  C   UNL     1      14.886  -6.047 -12.087  1.00  0.00     0.214 A 
ATOM      3  C   UNL     1      14.274  -4.916 -11.510  1.00  0.00     0.180 A 
ATOM      4  O   UNL     1      13.072  -5.023 -10.962  1.00  0.00    -0.452 OA
ATOM      5  C   UNL     1      14.116  -7.238 -12.217  1.00  0.00     0.239 A 
ATOM      6  C   UNL     1      12.380  -6.162 -10.931  1.00  0.00     0.146 A 
ATOM      7  O   UNL     1      14.538  -8.205 -12.905  1.00  0.00    -0.285 OA
ATOM      8  C   UNL     1      12.883  -7.334 -11.528  1.00  0.00     0.111 A 
ATOM      9  C   UNL     1      11.149  -6.176 -10.265  1.00  0.00     0.094 A 
ATOM     10  C   UNL     1      12.135  -8.526 -11.431  1.00  0.00     0.134 A 
ATOM     11  C   UNL     1      10.410  -7.354 -10.176  1.00  0.00     0.123 A 
ATOM     12  C   UNL     1      10.908  -8.536 -10.747  1.00  0.00     0.093 A 
BRANCH   3  13
ATOM     13  C   UNL     1      14.892  -3.586 -11.650  1.00  0.00     0.021 A 
ATOM     14  C   UNL     1      15.872  -3.212 -10.713  1.00  0.00     0.016 A 
ATOM     15  C   UNL     1      16.404  -1.921 -10.735  1.00  0.00     0.047 A 
ATOM     16  C   UNL     1      15.983  -1.000 -11.706  1.00  0.00     0.115 A 
ATOM     17  C   UNL     1      14.536  -2.694 -12.665  1.00  0.00     0.016 A 
ATOM     18  C   UNL     1      15.067  -1.396 -12.691  1.00  0.00     0.047 A 
BRANCH  16  19
ATOM     19  O   UNL     1      16.473   0.304 -11.686  1.00  0.00    -0.508 OA
ATOM     20  H   UNL     1      16.248   0.965 -12.425  1.00  0.00     0.293 HD
ENDBRANCH  16  19
ENDBRANCH   3  13
BRANCH  10  21
ATOM     21  O   UNL     1      12.605  -9.719 -12.011  1.00  0.00    -0.507 OA
ATOM     22  H   UNL     1      13.198  -9.716 -12.829  1.00  0.00     0.293 HD
ENDBRANCH  10  21
BRANCH  11  23
ATOM     23  O   UNL     1       9.170  -7.387  -9.527  1.00  0.00    -0.508 OA
ATOM     24  H   UNL     1       8.877  -6.622  -8.929  1.00  0.00     0.293 HD
ENDBRANCH  11  23
ENDBRANCH   1   2
BRANCH   1  25
ATOM     25  C   UNL     1      16.770  -6.269 -13.837  1.00  0.00     0.339 C 
ATOM     26  C   UNL     1      18.176  -5.595 -13.985  1.00  0.00     0.214 C 
ATOM     27  O   UNL     1      15.888  -5.840 -14.859  1.00  0.00    -0.332 OA
ATOM     28  C   UNL     1      18.126  -4.465 -15.006  1.00  0.00     0.180 C 
ATOM     29  C   UNL     1      16.451  -6.065 -16.136  1.00  0.00     0.179 C 
ATOM     30  C   UNL     1      17.603  -5.032 -16.369  1.00  0.00     0.177 C 
BRANCH  26  31
ATOM     31  O   UNL     1      19.104  -6.596 -14.387  1.00  0.00    -0.384 OA
ATOM     32  H   UNL     1      19.722  -6.719 -13.621  1.00  0.00     0.211 HD
ENDBRANCH  26  31
BRANCH  28  33
ATOM     33  O   UNL     1      17.284  -3.428 -14.546  1.00  0.00    -0.387 OA
ATOM     34  H   UNL     1      17.003  -3.642 -13.610  1.00  0.00     0.211 HD
ENDBRANCH  28  33
BRANCH  29  35
ATOM     35  C   UNL     1      15.310  -5.957 -17.188  1.00  0.00     0.191 C 
BRANCH  35  36
ATOM     36  O   UNL     1      15.509  -6.835 -18.274  1.00  0.00    -0.394 OA
ATOM     37  H   UNL     1      15.313  -6.336 -19.110  1.00  0.00     0.210 HD
ENDBRANCH  35  36
ENDBRANCH  29  35
BRANCH  30  38
ATOM     38  O   UNL     1      18.673  -5.581 -17.092  1.00  0.00    -0.387 OA
ATOM     39  H   UNL     1      18.525  -5.369 -18.072  1.00  0.00     0.211 HD
ENDBRANCH  30  38
ENDBRANCH   1  25
TORSDOF 11
ENDMDL
