MODEL 1
REMARK VINA RESULT:    -5.182      0.000      0.000
REMARK INTER + INTRA:          -6.342
REMARK INTER:                  -6.091
REMARK INTRA:                  -0.252
REMARK UNBOUND:                -0.252
REMARK SMILES O=c1c(O)c(-c2ccc(O)cc2)oc2cc(O)cc(O)c12
REMARK SMILES IDX 5 1 3 2 2 3 1 4 21 5 19 6 18 7 16 8 15 9 14 10 13 11 6 12
REMARK SMILES IDX 7 13 8 14 9 15 12 16 11 17 10 18 4 20 20 22 17 24
REMARK H PARENT 10 19 4 21 20 23 17 25
REMARK Flexibility Score: inf
ROOT
ATOM      1  C   UNL     1     140.114 170.558 176.600  1.00  0.00     0.180 A 
ATOM      2  C   UNL     1     140.083 171.661 175.729  1.00  0.00     0.208 A 
ATOM      3  C   UNL     1     141.262 172.039 175.066  1.00  0.00     0.238 A 
ATOM      4  O   UNL     1     141.215 172.992 174.246  1.00  0.00    -0.285 OA
ATOM      5  C   UNL     1     142.460 171.321 175.298  1.00  0.00     0.111 A 
ATOM      6  C   UNL     1     143.722 171.642 174.712  1.00  0.00     0.134 A 
ATOM      7  C   UNL     1     144.812 170.785 174.908  1.00  0.00     0.093 A 
ATOM      8  C   UNL     1     144.703 169.655 175.723  1.00  0.00     0.123 A 
ATOM      9  C   UNL     1     143.491 169.367 176.346  1.00  0.00     0.094 A 
ATOM     10  C   UNL     1     142.376 170.183 176.141  1.00  0.00     0.146 A 
ATOM     11  O   UNL     1     141.237 169.867 176.745  1.00  0.00    -0.452 OA
ENDROOT
BRANCH   1  12
ATOM     12  C   UNL     1     138.918 170.115 177.353  1.00  0.00     0.021 A 
ATOM     13  C   UNL     1     138.142 169.024 176.919  1.00  0.00     0.016 A 
ATOM     14  C   UNL     1     137.003 168.639 177.632  1.00  0.00     0.047 A 
ATOM     15  C   UNL     1     136.616 169.344 178.776  1.00  0.00     0.115 A 
ATOM     16  C   UNL     1     138.511 170.833 178.490  1.00  0.00     0.016 A 
ATOM     17  C   UNL     1     137.371 170.445 179.202  1.00  0.00     0.047 A 
BRANCH  15  18
ATOM     18  O   UNL     1     135.480 168.949 179.477  1.00  0.00    -0.508 OA
ATOM     19  H   UNL     1     134.990 168.091 179.252  1.00  0.00     0.293 HD
ENDBRANCH  15  18
ENDBRANCH   1  12
BRANCH   2  20
ATOM     20  O   UNL     1     138.884 172.341 175.499  1.00  0.00    -0.502 OA
ATOM     21  H   UNL     1     138.060 171.881 175.127  1.00  0.00     0.293 HD
ENDBRANCH   2  20
BRANCH   6  22
ATOM     22  O   UNL     1     143.962 172.794 173.957  1.00  0.00    -0.507 OA
ATOM     23  H   UNL     1     143.555 173.698 174.143  1.00  0.00     0.293 HD
ENDBRANCH   6  22
BRANCH   8  24
ATOM     24  O   UNL     1     145.797 168.817 175.925  1.00  0.00    -0.508 OA
ATOM     25  H   UNL     1     146.245 168.739 176.831  1.00  0.00     0.293 HD
ENDBRANCH   8  24
TORSDOF 5
ENDMDL
MODEL 2
REMARK VINA RESULT:    -5.116      1.821      6.894
REMARK INTER + INTRA:          -6.265
REMARK INTER:                  -5.965
REMARK INTRA:                  -0.300
REMARK UNBOUND:                -0.252
REMARK SMILES O=c1c(O)c(-c2ccc(O)cc2)oc2cc(O)cc(O)c12
REMARK SMILES IDX 5 1 3 2 2 3 1 4 21 5 19 6 18 7 16 8 15 9 14 10 13 11 6 12
REMARK SMILES IDX 7 13 8 14 9 15 12 16 11 17 10 18 4 20 20 22 17 24
REMARK H PARENT 10 19 4 21 20 23 17 25
REMARK Flexibility Score: inf
ROOT
ATOM      1  C   UNL     1     139.372 170.530 176.651  1.00  0.00     0.180 A 
ATOM      2  C   UNL     1     138.858 171.086 177.835  1.00  0.00     0.208 A 
ATOM      3  C   UNL     1     137.776 170.454 178.470  1.00  0.00     0.238 A 
ATOM      4  O   UNL     1     137.355 170.926 179.559  1.00  0.00    -0.285 OA
ATOM      5  C   UNL     1     137.211 169.286 177.903  1.00  0.00     0.111 A 
ATOM      6  C   UNL     1     136.088 168.587 178.440  1.00  0.00     0.134 A 
ATOM      7  C   UNL     1     135.696 167.369 177.870  1.00  0.00     0.093 A 
ATOM      8  C   UNL     1     136.347 166.858 176.744  1.00  0.00     0.123 A 
ATOM      9  C   UNL     1     137.407 167.564 176.178  1.00  0.00     0.094 A 
ATOM     10  C   UNL     1     137.843 168.763 176.745  1.00  0.00     0.146 A 
ATOM     11  O   UNL     1     138.863 169.398 176.181  1.00  0.00    -0.452 OA
ENDROOT
BRANCH   1  12
ATOM     12  C   UNL     1     140.494 171.152 175.912  1.00  0.00     0.021 A 
ATOM     13  C   UNL     1     140.269 172.121 174.916  1.00  0.00     0.016 A 
ATOM     14  C   UNL     1     141.343 172.676 174.215  1.00  0.00     0.047 A 
ATOM     15  C   UNL     1     142.652 172.263 174.487  1.00  0.00     0.115 A 
ATOM     16  C   UNL     1     141.809 170.726 176.164  1.00  0.00     0.016 A 
ATOM     17  C   UNL     1     142.882 171.284 175.462  1.00  0.00     0.047 A 
BRANCH  15  18
ATOM     18  O   UNL     1     143.712 172.826 173.781  1.00  0.00    -0.508 OA
ATOM     19  H   UNL     1     144.638 172.901 174.187  1.00  0.00     0.293 HD
ENDBRANCH  15  18
ENDBRANCH   1  12
BRANCH   2  20
ATOM     20  O   UNL     1     139.444 172.227 178.389  1.00  0.00    -0.502 OA
ATOM     21  H   UNL     1     138.908 173.057 178.617  1.00  0.00     0.293 HD
ENDBRANCH   2  20
BRANCH   6  22
ATOM     22  O   UNL     1     135.312 169.056 179.504  1.00  0.00    -0.507 OA
ATOM     23  H   UNL     1     134.456 168.628 179.822  1.00  0.00     0.293 HD
ENDBRANCH   6  22
BRANCH   8  24
ATOM     24  O   UNL     1     135.941 165.654 176.175  1.00  0.00    -0.508 OA
ATOM     25  H   UNL     1     136.030 164.775 176.672  1.00  0.00     0.293 HD
ENDBRANCH   8  24
TORSDOF 5
ENDMDL
MODEL 3
REMARK VINA RESULT:    -5.066      1.811      6.978
REMARK INTER + INTRA:          -6.206
REMARK INTER:                  -5.906
REMARK INTRA:                  -0.300
REMARK UNBOUND:                -0.252
REMARK SMILES O=c1c(O)c(-c2ccc(O)cc2)oc2cc(O)cc(O)c12
REMARK SMILES IDX 5 1 3 2 2 3 1 4 21 5 19 6 18 7 16 8 15 9 14 10 13 11 6 12
REMARK SMILES IDX 7 13 8 14 9 15 12 16 11 17 10 18 4 20 20 22 17 24
REMARK H PARENT 10 19 4 21 20 23 17 25
REMARK Flexibility Score: inf
ROOT
ATOM      1  C   UNL     1     139.552 170.217 176.156  1.00  0.00     0.180 A 
ATOM      2  C   UNL     1     138.888 169.225 175.414  1.00  0.00     0.208 A 
ATOM      3  C   UNL     1     137.782 168.575 175.984  1.00  0.00     0.238 A 
ATOM      4  O   UNL     1     137.158 167.726 175.293  1.00  0.00    -0.285 OA
ATOM      5  C   UNL     1     137.364 168.912 177.293  1.00  0.00     0.111 A 
ATOM      6  C   UNL     1     136.282 168.289 177.984  1.00  0.00     0.134 A 
ATOM      7  C   UNL     1     135.874 168.792 179.226  1.00  0.00     0.093 A 
ATOM      8  C   UNL     1     136.551 169.854 179.831  1.00  0.00     0.123 A 
ATOM      9  C   UNL     1     137.646 170.430 179.190  1.00  0.00     0.094 A 
ATOM     10  C   UNL     1     138.054 169.973 177.935  1.00  0.00     0.146 A 
ATOM     11  O   UNL     1     139.096 170.557 177.355  1.00  0.00    -0.452 OA
ENDROOT
BRANCH   1  12
ATOM     12  C   UNL     1     140.740 170.929 175.633  1.00  0.00     0.021 A 
ATOM     13  C   UNL     1     142.042 170.436 175.841  1.00  0.00     0.016 A 
ATOM     14  C   UNL     1     143.150 171.138 175.359  1.00  0.00     0.047 A 
ATOM     15  C   UNL     1     142.976 172.346 174.676  1.00  0.00     0.115 A 
ATOM     16  C   UNL     1     140.574 172.154 174.965  1.00  0.00     0.016 A 
ATOM     17  C   UNL     1     141.685 172.855 174.482  1.00  0.00     0.047 A 
BRANCH  15  18
ATOM     18  O   UNL     1     144.088 173.035 174.199  1.00  0.00    -0.508 OA
ATOM     19  H   UNL     1     143.993 173.891 173.666  1.00  0.00     0.293 HD
ENDBRANCH  15  18
ENDBRANCH   1  12
BRANCH   2  20
ATOM     20  O   UNL     1     139.304 168.923 174.114  1.00  0.00    -0.502 OA
ATOM     21  H   UNL     1     139.528 169.641 173.434  1.00  0.00     0.293 HD
ENDBRANCH   2  20
BRANCH   6  22
ATOM     22  O   UNL     1     135.597 167.165 177.512  1.00  0.00    -0.507 OA
ATOM     23  H   UNL     1     135.116 166.498 178.096  1.00  0.00     0.293 HD
ENDBRANCH   6  22
BRANCH   8  24
ATOM     24  O   UNL     1     136.148 170.338 181.073  1.00  0.00    -0.508 OA
ATOM     25  H   UNL     1     135.867 171.303 181.200  1.00  0.00     0.293 HD
ENDBRANCH   8  24
TORSDOF 5
ENDMDL
MODEL 4
REMARK VINA RESULT:    -4.891      5.234      7.019
REMARK INTER + INTRA:          -6.001
REMARK INTER:                  -5.748
REMARK INTRA:                  -0.252
REMARK UNBOUND:                -0.252
REMARK SMILES O=c1c(O)c(-c2ccc(O)cc2)oc2cc(O)cc(O)c12
REMARK SMILES IDX 5 1 3 2 2 3 1 4 21 5 19 6 18 7 16 8 15 9 14 10 13 11 6 12
REMARK SMILES IDX 7 13 8 14 9 15 12 16 11 17 10 18 4 20 20 22 17 24
REMARK H PARENT 10 19 4 21 20 23 17 25
REMARK Flexibility Score: inf
ROOT
ATOM      1  C   UNL     1     142.538 171.077 171.436  1.00  0.00     0.180 A 
ATOM      2  C   UNL     1     143.631 171.612 170.732  1.00  0.00     0.208 A 
ATOM      3  C   UNL     1     143.946 171.090 169.467  1.00  0.00     0.238 A 
ATOM      4  O   UNL     1     144.892 171.609 168.818  1.00  0.00    -0.285 OA
ATOM      5  C   UNL     1     143.176 170.030 168.931  1.00  0.00     0.111 A 
ATOM      6  C   UNL     1     143.431 169.398 167.676  1.00  0.00     0.134 A 
ATOM      7  C   UNL     1     142.527 168.448 167.185  1.00  0.00     0.093 A 
ATOM      8  C   UNL     1     141.412 168.061 167.933  1.00  0.00     0.123 A 
ATOM      9  C   UNL     1     141.188 168.630 169.185  1.00  0.00     0.094 A 
ATOM     10  C   UNL     1     142.052 169.605 169.686  1.00  0.00     0.146 A 
ATOM     11  O   UNL     1     141.796 170.129 170.878  1.00  0.00    -0.452 OA
ENDROOT
BRANCH   1  12
ATOM     12  C   UNL     1     142.159 171.558 172.785  1.00  0.00     0.021 A 
ATOM     13  C   UNL     1     142.894 171.191 173.928  1.00  0.00     0.016 A 
ATOM     14  C   UNL     1     142.503 171.637 175.193  1.00  0.00     0.047 A 
ATOM     15  C   UNL     1     141.368 172.443 175.337  1.00  0.00     0.115 A 
ATOM     16  C   UNL     1     141.008 172.349 172.939  1.00  0.00     0.016 A 
ATOM     17  C   UNL     1     140.620 172.796 174.207  1.00  0.00     0.047 A 
BRANCH  15  18
ATOM     18  O   UNL     1     140.991 172.881 176.604  1.00  0.00    -0.508 OA
ATOM     19  H   UNL     1     141.631 173.393 177.199  1.00  0.00     0.293 HD
ENDBRANCH  15  18
ENDBRANCH   1  12
BRANCH   2  20
ATOM     20  O   UNL     1     144.364 172.673 171.271  1.00  0.00    -0.502 OA
ATOM     21  H   UNL     1     144.552 173.522 170.752  1.00  0.00     0.293 HD
ENDBRANCH   2  20
BRANCH   6  22
ATOM     22  O   UNL     1     144.563 169.645 166.893  1.00  0.00    -0.507 OA
ATOM     23  H   UNL     1     145.278 170.321 167.114  1.00  0.00     0.293 HD
ENDBRANCH   6  22
BRANCH   8  24
ATOM     24  O   UNL     1     140.526 167.104 167.444  1.00  0.00    -0.508 OA
ATOM     25  H   UNL     1     139.522 167.234 167.497  1.00  0.00     0.293 HD
ENDBRANCH   8  24
TORSDOF 5
ENDMDL
MODEL 5
REMARK VINA RESULT:    -4.648      8.791     10.599
REMARK INTER + INTRA:          -5.715
REMARK INTER:                  -5.420
REMARK INTRA:                  -0.294
REMARK UNBOUND:                -0.252
REMARK SMILES O=c1c(O)c(-c2ccc(O)cc2)oc2cc(O)cc(O)c12
REMARK SMILES IDX 5 1 3 2 2 3 1 4 21 5 19 6 18 7 16 8 15 9 14 10 13 11 6 12
REMARK SMILES IDX 7 13 8 14 9 15 12 16 11 17 10 18 4 20 20 22 17 24
REMARK H PARENT 10 19 4 21 20 23 17 25
REMARK Flexibility Score: inf
ROOT
ATOM      1  C   UNL     1     143.862 165.831 168.525  1.00  0.00     0.180 A 
ATOM      2  C   UNL     1     142.673 165.989 167.791  1.00  0.00     0.208 A 
ATOM      3  C   UNL     1     142.171 167.284 167.579  1.00  0.00     0.238 A 
ATOM      4  O   UNL     1     141.136 167.422 166.875  1.00  0.00    -0.285 OA
ATOM      5  C   UNL     1     142.853 168.400 168.118  1.00  0.00     0.111 A 
ATOM      6  C   UNL     1     142.413 169.753 167.999  1.00  0.00     0.134 A 
ATOM      7  C   UNL     1     143.235 170.790 168.458  1.00  0.00     0.093 A 
ATOM      8  C   UNL     1     144.451 170.519 169.091  1.00  0.00     0.123 A 
ATOM      9  C   UNL     1     144.861 169.198 169.263  1.00  0.00     0.094 A 
ATOM     10  C   UNL     1     144.080 168.145 168.784  1.00  0.00     0.146 A 
ATOM     11  O   UNL     1     144.513 166.902 168.960  1.00  0.00    -0.452 OA
ENDROOT
BRANCH   1  12
ATOM     12  C   UNL     1     144.439 164.498 168.810  1.00  0.00     0.021 A 
ATOM     13  C   UNL     1     144.013 163.734 169.913  1.00  0.00     0.016 A 
ATOM     14  C   UNL     1     144.590 162.489 170.176  1.00  0.00     0.047 A 
ATOM     15  C   UNL     1     145.608 161.996 169.353  1.00  0.00     0.115 A 
ATOM     16  C   UNL     1     145.478 164.006 168.001  1.00  0.00     0.016 A 
ATOM     17  C   UNL     1     146.053 162.759 168.266  1.00  0.00     0.047 A 
BRANCH  15  18
ATOM     18  O   UNL     1     146.173 160.753 169.627  1.00  0.00    -0.508 OA
ATOM     19  H   UNL     1     145.610 159.974 169.946  1.00  0.00     0.293 HD
ENDBRANCH  15  18
ENDBRANCH   1  12
BRANCH   2  20
ATOM     20  O   UNL     1     142.028 164.874 167.249  1.00  0.00    -0.502 OA
ATOM     21  H   UNL     1     141.684 164.854 166.296  1.00  0.00     0.293 HD
ENDBRANCH   2  20
BRANCH   6  22
ATOM     22  O   UNL     1     141.175 170.128 167.468  1.00  0.00    -0.507 OA
ATOM     23  H   UNL     1     140.964 170.178 166.483  1.00  0.00     0.293 HD
ENDBRANCH   6  22
BRANCH   8  24
ATOM     24  O   UNL     1     145.255 171.555 169.558  1.00  0.00    -0.508 OA
ATOM     25  H   UNL     1     145.152 172.504 169.215  1.00  0.00     0.293 HD
ENDBRANCH   8  24
TORSDOF 5
ENDMDL
MODEL 6
REMARK VINA RESULT:    -4.566      2.137      3.749
REMARK INTER + INTRA:          -5.618
REMARK INTER:                  -5.392
REMARK INTRA:                  -0.226
REMARK UNBOUND:                -0.252
REMARK SMILES O=c1c(O)c(-c2ccc(O)cc2)oc2cc(O)cc(O)c12
REMARK SMILES IDX 5 1 3 2 2 3 1 4 21 5 19 6 18 7 16 8 15 9 14 10 13 11 6 12
REMARK SMILES IDX 7 13 8 14 9 15 12 16 11 17 10 18 4 20 20 22 17 24
REMARK H PARENT 10 19 4 21 20 23 17 25
REMARK Flexibility Score: inf
ROOT
ATOM      1  C   UNL     1     140.254 170.834 175.469  1.00  0.00     0.180 A 
ATOM      2  C   UNL     1     141.639 170.723 175.683  1.00  0.00     0.208 A 
ATOM      3  C   UNL     1     142.518 171.081 174.647  1.00  0.00     0.238 A 
ATOM      4  O   UNL     1     143.757 171.031 174.863  1.00  0.00    -0.285 OA
ATOM      5  C   UNL     1     142.000 171.527 173.407  1.00  0.00     0.111 A 
ATOM      6  C   UNL     1     142.798 171.877 172.276  1.00  0.00     0.134 A 
ATOM      7  C   UNL     1     142.186 172.430 171.144  1.00  0.00     0.093 A 
ATOM      8  C   UNL     1     140.798 172.586 171.079  1.00  0.00     0.123 A 
ATOM      9  C   UNL     1     140.007 172.192 172.156  1.00  0.00     0.094 A 
ATOM     10  C   UNL     1     140.592 171.670 173.312  1.00  0.00     0.146 A 
ATOM     11  O   UNL     1     139.802 171.317 174.319  1.00  0.00    -0.452 OA
ENDROOT
BRANCH   1  12
ATOM     12  C   UNL     1     139.265 170.453 176.504  1.00  0.00     0.021 A 
ATOM     13  C   UNL     1     139.034 171.263 177.631  1.00  0.00     0.016 A 
ATOM     14  C   UNL     1     138.114 170.870 178.607  1.00  0.00     0.047 A 
ATOM     15  C   UNL     1     137.423 169.661 178.479  1.00  0.00     0.115 A 
ATOM     16  C   UNL     1     138.585 169.228 176.393  1.00  0.00     0.016 A 
ATOM     17  C   UNL     1     137.663 168.839 177.370  1.00  0.00     0.047 A 
BRANCH  15  18
ATOM     18  O   UNL     1     136.509 169.283 179.458  1.00  0.00    -0.508 OA
ATOM     19  H   UNL     1     136.757 169.275 180.441  1.00  0.00     0.293 HD
ENDBRANCH  15  18
ENDBRANCH   1  12
BRANCH   2  20
ATOM     20  O   UNL     1     142.128 170.301 176.921  1.00  0.00    -0.502 OA
ATOM     21  H   UNL     1     142.989 170.659 177.317  1.00  0.00     0.293 HD
ENDBRANCH   2  20
BRANCH   6  22
ATOM     22  O   UNL     1     144.179 171.676 172.202  1.00  0.00    -0.507 OA
ATOM     23  H   UNL     1     144.656 170.842 172.511  1.00  0.00     0.293 HD
ENDBRANCH   6  22
BRANCH   8  24
ATOM     24  O   UNL     1     140.197 173.123 169.944  1.00  0.00    -0.508 OA
ATOM     25  H   UNL     1     140.424 174.054 169.613  1.00  0.00     0.293 HD
ENDBRANCH   8  24
TORSDOF 5
ENDMDL
MODEL 7
REMARK VINA RESULT:    -4.563      2.324      6.777
REMARK INTER + INTRA:          -5.615
REMARK INTER:                  -5.355
REMARK INTRA:                  -0.261
REMARK UNBOUND:                -0.252
REMARK SMILES O=c1c(O)c(-c2ccc(O)cc2)oc2cc(O)cc(O)c12
REMARK SMILES IDX 5 1 3 2 2 3 1 4 21 5 19 6 18 7 16 8 15 9 14 10 13 11 6 12
REMARK SMILES IDX 7 13 8 14 9 15 12 16 11 17 10 18 4 20 20 22 17 24
REMARK H PARENT 10 19 4 21 20 23 17 25
REMARK Flexibility Score: inf
ROOT
ATOM      1  C   UNL     1     141.142 171.198 174.628  1.00  0.00     0.180 A 
ATOM      2  C   UNL     1     141.151 172.066 175.733  1.00  0.00     0.208 A 
ATOM      3  C   UNL     1     140.260 171.829 176.793  1.00  0.00     0.238 A 
ATOM      4  O   UNL     1     140.310 172.578 177.804  1.00  0.00    -0.285 OA
ATOM      5  C   UNL     1     139.361 170.738 176.725  1.00  0.00     0.111 A 
ATOM      6  C   UNL     1     138.388 170.428 177.722  1.00  0.00     0.134 A 
ATOM      7  C   UNL     1     137.639 169.249 177.613  1.00  0.00     0.093 A 
ATOM      8  C   UNL     1     137.783 168.403 176.510  1.00  0.00     0.123 A 
ATOM      9  C   UNL     1     138.689 168.729 175.503  1.00  0.00     0.094 A 
ATOM     10  C   UNL     1     139.475 169.879 175.601  1.00  0.00     0.146 A 
ATOM     11  O   UNL     1     140.333 170.147 174.624  1.00  0.00    -0.452 OA
ENDROOT
BRANCH   1  12
ATOM     12  C   UNL     1     142.035 171.398 173.463  1.00  0.00     0.021 A 
ATOM     13  C   UNL     1     143.381 170.989 173.492  1.00  0.00     0.016 A 
ATOM     14  C   UNL     1     144.211 171.210 172.389  1.00  0.00     0.047 A 
ATOM     15  C   UNL     1     143.714 171.853 171.251  1.00  0.00     0.115 A 
ATOM     16  C   UNL     1     141.548 172.063 172.325  1.00  0.00     0.016 A 
ATOM     17  C   UNL     1     142.380 172.282 171.222  1.00  0.00     0.047 A 
BRANCH  15  18
ATOM     18  O   UNL     1     144.551 172.066 170.159  1.00  0.00    -0.508 OA
ATOM     19  H   UNL     1     144.232 171.915 169.209  1.00  0.00     0.293 HD
ENDBRANCH  15  18
ENDBRANCH   1  12
BRANCH   2  20
ATOM     20  O   UNL     1     142.062 173.125 175.789  1.00  0.00    -0.502 OA
ATOM     21  H   UNL     1     142.088 173.858 175.090  1.00  0.00     0.293 HD
ENDBRANCH   2  20
BRANCH   6  22
ATOM     22  O   UNL     1     138.099 171.251 178.815  1.00  0.00    -0.507 OA
ATOM     23  H   UNL     1     138.579 172.112 179.027  1.00  0.00     0.293 HD
ENDBRANCH   6  22
BRANCH   8  24
ATOM     24  O   UNL     1     137.024 167.240 176.403  1.00  0.00    -0.508 OA
ATOM     25  H   UNL     1     136.506 166.870 177.191  1.00  0.00     0.293 HD
ENDBRANCH   8  24
TORSDOF 5
ENDMDL
MODEL 8
REMARK VINA RESULT:    -4.524      3.220      6.642
REMARK INTER + INTRA:          -5.569
REMARK INTER:                  -5.270
REMARK INTRA:                  -0.299
REMARK UNBOUND:                -0.252
REMARK SMILES O=c1c(O)c(-c2ccc(O)cc2)oc2cc(O)cc(O)c12
REMARK SMILES IDX 5 1 3 2 2 3 1 4 21 5 19 6 18 7 16 8 15 9 14 10 13 11 6 12
REMARK SMILES IDX 7 13 8 14 9 15 12 16 11 17 10 18 4 20 20 22 17 24
REMARK H PARENT 10 19 4 21 20 23 17 25
REMARK Flexibility Score: inf
ROOT
ATOM      1  C   UNL     1     140.921 170.718 173.536  1.00  0.00     0.180 A 
ATOM      2  C   UNL     1     141.451 171.837 174.201  1.00  0.00     0.208 A 
ATOM      3  C   UNL     1     140.982 172.150 175.488  1.00  0.00     0.238 A 
ATOM      4  O   UNL     1     141.499 173.121 176.100  1.00  0.00    -0.285 OA
ATOM      5  C   UNL     1     139.978 171.350 176.084  1.00  0.00     0.111 A 
ATOM      6  C   UNL     1     139.401 171.598 177.366  1.00  0.00     0.134 A 
ATOM      7  C   UNL     1     138.509 170.667 177.914  1.00  0.00     0.093 A 
ATOM      8  C   UNL     1     138.124 169.531 177.198  1.00  0.00     0.123 A 
ATOM      9  C   UNL     1     138.638 169.311 175.921  1.00  0.00     0.094 A 
ATOM     10  C   UNL     1     139.557 170.203 175.363  1.00  0.00     0.146 A 
ATOM     11  O   UNL     1     140.029 169.950 174.149  1.00  0.00    -0.452 OA
ENDROOT
BRANCH   1  12
ATOM     12  C   UNL     1     141.348 170.340 172.169  1.00  0.00     0.021 A 
ATOM     13  C   UNL     1     140.722 170.881 171.030  1.00  0.00     0.016 A 
ATOM     14  C   UNL     1     141.126 170.490 169.750  1.00  0.00     0.047 A 
ATOM     15  C   UNL     1     142.146 169.547 169.590  1.00  0.00     0.115 A 
ATOM     16  C   UNL     1     142.356 169.377 172.001  1.00  0.00     0.016 A 
ATOM     17  C   UNL     1     142.759 168.989 170.719  1.00  0.00     0.047 A 
BRANCH  15  18
ATOM     18  O   UNL     1     142.538 169.168 168.309  1.00  0.00    -0.508 OA
ATOM     19  H   UNL     1     142.368 168.232 167.957  1.00  0.00     0.293 HD
ENDBRANCH  15  18
ENDBRANCH   1  12
BRANCH   2  20
ATOM     20  O   UNL     1     142.457 172.600 173.602  1.00  0.00    -0.502 OA
ATOM     21  H   UNL     1     143.237 172.181 173.108  1.00  0.00     0.293 HD
ENDBRANCH   2  20
BRANCH   6  22
ATOM     22  O   UNL     1     139.646 172.747 178.124  1.00  0.00    -0.507 OA
ATOM     23  H   UNL     1     140.378 172.836 178.813  1.00  0.00     0.293 HD
ENDBRANCH   6  22
BRANCH   8  24
ATOM     24  O   UNL     1     137.225 168.617 177.744  1.00  0.00    -0.508 OA
ATOM     25  H   UNL     1     137.093 167.697 177.341  1.00  0.00     0.293 HD
ENDBRANCH   8  24
TORSDOF 5
ENDMDL
MODEL 9
REMARK VINA RESULT:    -4.466      8.264     10.858
REMARK INTER + INTRA:          -5.500
REMARK INTER:                  -5.233
REMARK INTRA:                  -0.267
REMARK UNBOUND:                -0.252
REMARK SMILES O=c1c(O)c(-c2ccc(O)cc2)oc2cc(O)cc(O)c12
REMARK SMILES IDX 5 1 3 2 2 3 1 4 21 5 19 6 18 7 16 8 15 9 14 10 13 11 6 12
REMARK SMILES IDX 7 13 8 14 9 15 12 16 11 17 10 18 4 20 20 22 17 24
REMARK H PARENT 10 19 4 21 20 23 17 25
REMARK Flexibility Score: inf
ROOT
ATOM      1  C   UNL     1     144.888 166.476 169.656  1.00  0.00     0.180 A 
ATOM      2  C   UNL     1     144.072 166.021 170.707  1.00  0.00     0.208 A 
ATOM      3  C   UNL     1     143.871 164.640 170.864  1.00  0.00     0.238 A 
ATOM      4  O   UNL     1     143.184 164.237 171.839  1.00  0.00    -0.285 OA
ATOM      5  C   UNL     1     144.473 163.734 169.959  1.00  0.00     0.111 A 
ATOM      6  C   UNL     1     144.305 162.317 170.000  1.00  0.00     0.134 A 
ATOM      7  C   UNL     1     145.052 161.507 169.136  1.00  0.00     0.093 A 
ATOM      8  C   UNL     1     145.913 162.067 168.188  1.00  0.00     0.123 A 
ATOM      9  C   UNL     1     146.039 163.452 168.102  1.00  0.00     0.094 A 
ATOM     10  C   UNL     1     145.334 164.284 168.974  1.00  0.00     0.146 A 
ATOM     11  O   UNL     1     145.491 165.598 168.865  1.00  0.00    -0.452 OA
ENDROOT
BRANCH   1  12
ATOM     12  C   UNL     1     145.127 167.916 169.412  1.00  0.00     0.021 A 
ATOM     13  C   UNL     1     146.092 168.634 170.143  1.00  0.00     0.016 A 
ATOM     14  C   UNL     1     146.283 169.999 169.912  1.00  0.00     0.047 A 
ATOM     15  C   UNL     1     145.506 170.669 168.961  1.00  0.00     0.115 A 
ATOM     16  C   UNL     1     144.335 168.600 168.474  1.00  0.00     0.016 A 
ATOM     17  C   UNL     1     144.529 169.966 168.244  1.00  0.00     0.047 A 
BRANCH  15  18
ATOM     18  O   UNL     1     145.708 172.029 168.740  1.00  0.00    -0.508 OA
ATOM     19  H   UNL     1     145.867 172.672 169.507  1.00  0.00     0.293 HD
ENDBRANCH  15  18
ENDBRANCH   1  12
BRANCH   2  20
ATOM     20  O   UNL     1     143.505 166.933 171.602  1.00  0.00    -0.502 OA
ATOM     21  H   UNL     1     142.674 167.468 171.379  1.00  0.00     0.293 HD
ENDBRANCH   2  20
BRANCH   6  22
ATOM     22  O   UNL     1     143.403 161.661 170.844  1.00  0.00    -0.507 OA
ATOM     23  H   UNL     1     142.401 161.666 170.728  1.00  0.00     0.293 HD
ENDBRANCH   6  22
BRANCH   8  24
ATOM     24  O   UNL     1     146.641 161.255 167.322  1.00  0.00    -0.508 OA
ATOM     25  H   UNL     1     146.249 160.924 166.449  1.00  0.00     0.293 HD
ENDBRANCH   8  24
TORSDOF 5
ENDMDL
