MODEL 1
REMARK VINA RESULT:    -5.231      0.000      0.000
REMARK INTER + INTRA:          -8.565
REMARK INTER:                  -7.524
REMARK INTRA:                  -1.040
REMARK UNBOUND:                -1.040
REMARK SMILES O=c1cc(-c2ccc(O)c(O)c2)oc2cc(O[C@@H]3O[C@H](CO)[C@@H](O)[C@@H](O)[C@H]3O)cc(O)c12
REMARK SMILES IDX 17 1 16 2 4 3 3 4 13 5 2 6 14 7 1 8 32 9 15 10 30 11 29 12
REMARK SMILES IDX 5 13 6 14 7 15 8 16 12 17 10 18 9 19 11 21 31 23 18 25 27 26
REMARK SMILES IDX 19 27 25 28 20 29 23 30 28 31 26 33 21 35 22 36 24 38
REMARK H PARENT 9 20 11 22 31 24 28 32 26 34 22 37 24 39
REMARK Flexibility Score: inf
ROOT
ATOM      1  O   UNL     1       4.462  -4.595  -5.557  1.00  0.00    -0.462 OA
ENDROOT
BRANCH   1   2
ATOM      2  C   UNL     1       3.644  -5.639  -6.014  1.00  0.00     0.130 A 
ATOM      3  C   UNL     1      -0.668  -7.452  -6.968  1.00  0.00     0.138 A 
ATOM      4  C   UNL     1      -0.124  -8.655  -7.447  1.00  0.00     0.100 A 
ATOM      5  O   UNL     1       0.146  -6.492  -6.535  1.00  0.00    -0.456 OA
ATOM      6  C   UNL     1       1.260  -8.827  -7.450  1.00  0.00     0.197 A 
ATOM      7  C   UNL     1       1.470  -6.609  -6.518  1.00  0.00     0.146 A 
ATOM      8  O   UNL     1       1.740  -9.910  -7.884  1.00  0.00    -0.289 OA
ATOM      9  C   UNL     1       2.093  -7.794  -6.976  1.00  0.00     0.107 A 
ATOM     10  C   UNL     1       2.242  -5.545  -6.043  1.00  0.00     0.094 A 
ATOM     11  C   UNL     1       3.502  -7.887  -6.945  1.00  0.00     0.134 A 
ATOM     12  C   UNL     1       4.260  -6.810  -6.464  1.00  0.00     0.093 A 
BRANCH   3  13
ATOM     13  C   UNL     1      -2.133  -7.210  -6.942  1.00  0.00     0.021 A 
ATOM     14  C   UNL     1      -3.050  -8.167  -7.417  1.00  0.00     0.016 A 
ATOM     15  C   UNL     1      -4.423  -7.916  -7.370  1.00  0.00     0.051 A 
ATOM     16  C   UNL     1      -4.906  -6.713  -6.842  1.00  0.00     0.157 A 
ATOM     17  C   UNL     1      -2.627  -6.009  -6.400  1.00  0.00     0.062 A 
ATOM     18  C   UNL     1      -4.002  -5.756  -6.353  1.00  0.00     0.158 A 
BRANCH  16  19
ATOM     19  O   UNL     1      -6.278  -6.466  -6.798  1.00  0.00    -0.504 OA
ATOM     20  H   UNL     1      -6.954  -7.218  -6.865  1.00  0.00     0.293 HD
ENDBRANCH  16  19
BRANCH  18  21
ATOM     21  O   UNL     1      -4.450  -4.549  -5.818  1.00  0.00    -0.504 OA
ATOM     22  H   UNL     1      -3.944  -4.063  -5.087  1.00  0.00     0.293 HD
ENDBRANCH  18  21
ENDBRANCH   3  13
BRANCH  11  23
ATOM     23  O   UNL     1       4.156  -9.039  -7.388  1.00  0.00    -0.507 OA
ATOM     24  H   UNL     1       4.507  -9.735  -6.741  1.00  0.00     0.293 HD
ENDBRANCH  11  23
ENDBRANCH   1   2
BRANCH   1  25
ATOM     25  C   UNL     1       4.000  -3.423  -4.880  1.00  0.00     0.339 C 
ATOM     26  C   UNL     1       3.870  -3.692  -3.370  1.00  0.00     0.214 C 
ATOM     27  O   UNL     1       4.816  -2.292  -5.170  1.00  0.00    -0.332 OA
ATOM     28  C   UNL     1       5.255  -3.819  -2.730  1.00  0.00     0.180 C 
ATOM     29  C   UNL     1       6.126  -2.348  -4.611  1.00  0.00     0.179 C 
ATOM     30  C   UNL     1       6.122  -2.597  -3.083  1.00  0.00     0.177 C 
BRANCH  26  31
ATOM     31  O   UNL     1       3.149  -2.652  -2.756  1.00  0.00    -0.384 OA
ATOM     32  H   UNL     1       3.807  -2.097  -2.262  1.00  0.00     0.211 HD
ENDBRANCH  26  31
BRANCH  28  33
ATOM     33  O   UNL     1       5.121  -3.947  -1.338  1.00  0.00    -0.387 OA
ATOM     34  H   UNL     1       5.645  -4.748  -1.072  1.00  0.00     0.211 HD
ENDBRANCH  28  33
BRANCH  29  35
ATOM     35  C   UNL     1       7.065  -3.291  -5.394  1.00  0.00     0.191 C 
BRANCH  35  36
ATOM     36  O   UNL     1       6.814  -3.203  -6.772  1.00  0.00    -0.394 OA
ATOM     37  H   UNL     1       6.841  -2.240  -7.011  1.00  0.00     0.210 HD
ENDBRANCH  35  36
ENDBRANCH  29  35
BRANCH  30  38
ATOM     38  O   UNL     1       5.634  -1.447  -2.438  1.00  0.00    -0.387 OA
ATOM     39  H   UNL     1       6.034  -0.663  -2.897  1.00  0.00     0.211 HD
ENDBRANCH  30  38
ENDBRANCH   1  25
TORSDOF 11
ENDMDL
MODEL 2
REMARK VINA RESULT:    -5.035      2.050      2.854
REMARK INTER + INTRA:          -8.283
REMARK INTER:                  -7.282
REMARK INTRA:                  -1.001
REMARK UNBOUND:                -1.040
REMARK SMILES O=c1cc(-c2ccc(O)c(O)c2)oc2cc(O[C@@H]3O[C@H](CO)[C@@H](O)[C@@H](O)[C@H]3O)cc(O)c12
REMARK SMILES IDX 17 1 16 2 4 3 3 4 13 5 2 6 14 7 1 8 32 9 15 10 30 11 29 12
REMARK SMILES IDX 5 13 6 14 7 15 8 16 12 17 10 18 9 19 11 21 31 23 18 25 27 26
REMARK SMILES IDX 19 27 25 28 20 29 23 30 28 31 26 33 21 35 22 36 24 38
REMARK H PARENT 9 20 11 22 31 24 28 32 26 34 22 37 24 39
REMARK Flexibility Score: inf
ROOT
ATOM      1  O   UNL     1       5.223  -5.104  -5.589  1.00  0.00    -0.462 OA
ENDROOT
BRANCH   1   2
ATOM      2  C   UNL     1       4.075  -5.031  -6.393  1.00  0.00     0.130 A 
ATOM      3  C   UNL     1      -0.563  -5.885  -7.136  1.00  0.00     0.138 A 
ATOM      4  C   UNL     1      -0.538  -5.266  -8.396  1.00  0.00     0.100 A 
ATOM      5  O   UNL     1       0.552  -5.938  -6.410  1.00  0.00    -0.456 OA
ATOM      6  C   UNL     1       0.659  -4.728  -8.872  1.00  0.00     0.197 A 
ATOM      7  C   UNL     1       1.715  -5.441  -6.820  1.00  0.00     0.146 A 
ATOM      8  O   UNL     1       0.671  -4.173 -10.005  1.00  0.00    -0.289 OA
ATOM      9  C   UNL     1       1.823  -4.811  -8.082  1.00  0.00     0.107 A 
ATOM     10  C   UNL     1       2.832  -5.548  -5.988  1.00  0.00     0.094 A 
ATOM     11  C   UNL     1       3.073  -4.293  -8.489  1.00  0.00     0.134 A 
ATOM     12  C   UNL     1       4.183  -4.410  -7.640  1.00  0.00     0.093 A 
BRANCH   3  13
ATOM     13  C   UNL     1      -1.807  -6.473  -6.576  1.00  0.00     0.021 A 
ATOM     14  C   UNL     1      -1.777  -7.570  -5.695  1.00  0.00     0.016 A 
ATOM     15  C   UNL     1      -2.962  -8.095  -5.177  1.00  0.00     0.051 A 
ATOM     16  C   UNL     1      -4.197  -7.531  -5.522  1.00  0.00     0.157 A 
ATOM     17  C   UNL     1      -3.050  -5.903  -6.907  1.00  0.00     0.062 A 
ATOM     18  C   UNL     1      -4.240  -6.429  -6.390  1.00  0.00     0.158 A 
BRANCH  16  19
ATOM     19  O   UNL     1      -5.379  -8.059  -5.003  1.00  0.00    -0.504 OA
ATOM     20  H   UNL     1      -5.676  -9.003  -5.216  1.00  0.00     0.293 HD
ENDBRANCH  16  19
BRANCH  18  21
ATOM     21  O   UNL     1      -5.452  -5.842  -6.750  1.00  0.00    -0.504 OA
ATOM     22  H   UNL     1      -6.287  -5.941  -6.186  1.00  0.00     0.293 HD
ENDBRANCH  18  21
ENDBRANCH   3  13
BRANCH  11  23
ATOM     23  O   UNL     1       3.222  -3.664  -9.726  1.00  0.00    -0.507 OA
ATOM     24  H   UNL     1       2.889  -2.721  -9.888  1.00  0.00     0.293 HD
ENDBRANCH  11  23
ENDBRANCH   1   2
BRANCH   1  25
ATOM     25  C   UNL     1       5.878  -3.985  -4.985  1.00  0.00     0.339 C 
ATOM     26  C   UNL     1       4.841  -2.996  -4.422  1.00  0.00     0.214 C 
ATOM     27  O   UNL     1       6.833  -4.397  -4.012  1.00  0.00    -0.332 OA
ATOM     28  C   UNL     1       4.162  -3.585  -3.182  1.00  0.00     0.180 C 
ATOM     29  C   UNL     1       6.269  -4.964  -2.832  1.00  0.00     0.179 C 
ATOM     30  C   UNL     1       5.218  -4.046  -2.161  1.00  0.00     0.177 C 
BRANCH  26  31
ATOM     31  O   UNL     1       5.464  -1.778  -4.098  1.00  0.00    -0.384 OA
ATOM     32  H   UNL     1       4.852  -1.296  -3.482  1.00  0.00     0.211 HD
ENDBRANCH  26  31
BRANCH  28  33
ATOM     33  O   UNL     1       3.306  -2.628  -2.613  1.00  0.00    -0.387 OA
ATOM     34  H   UNL     1       2.456  -2.664  -3.125  1.00  0.00     0.211 HD
ENDBRANCH  28  33
BRANCH  29  35
ATOM     35  C   UNL     1       5.784  -6.414  -3.045  1.00  0.00     0.191 C 
BRANCH  35  36
ATOM     36  O   UNL     1       6.639  -7.095  -3.926  1.00  0.00    -0.394 OA
ATOM     37  H   UNL     1       6.067  -7.529  -4.610  1.00  0.00     0.210 HD
ENDBRANCH  35  36
ENDBRANCH  29  35
BRANCH  30  38
ATOM     38  O   UNL     1       5.877  -2.936  -1.603  1.00  0.00    -0.387 OA
ATOM     39  H   UNL     1       6.774  -2.884  -2.028  1.00  0.00     0.211 HD
ENDBRANCH  30  38
ENDBRANCH   1  25
TORSDOF 11
ENDMDL
MODEL 3
REMARK VINA RESULT:    -4.798      5.106     10.651
REMARK INTER + INTRA:          -7.942
REMARK INTER:                  -6.964
REMARK INTRA:                  -0.978
REMARK UNBOUND:                -1.040
REMARK SMILES O=c1cc(-c2ccc(O)c(O)c2)oc2cc(O[C@@H]3O[C@H](CO)[C@@H](O)[C@@H](O)[C@H]3O)cc(O)c12
REMARK SMILES IDX 17 1 16 2 4 3 3 4 13 5 2 6 14 7 1 8 32 9 15 10 30 11 29 12
REMARK SMILES IDX 5 13 6 14 7 15 8 16 12 17 10 18 9 19 11 21 31 23 18 25 27 26
REMARK SMILES IDX 19 27 25 28 20 29 23 30 28 31 26 33 21 35 22 36 24 38
REMARK H PARENT 9 20 11 22 31 24 28 32 26 34 22 37 24 39
REMARK Flexibility Score: inf
ROOT
ATOM      1  O   UNL     1      -7.012  -1.074  -3.531  1.00  0.00    -0.462 OA
ENDROOT
BRANCH   1   2
ATOM      2  C   UNL     1      -6.876  -2.354  -4.089  1.00  0.00     0.130 A 
ATOM      3  C   UNL     1      -4.298  -5.666  -6.362  1.00  0.00     0.138 A 
ATOM      4  C   UNL     1      -5.342  -6.605  -6.308  1.00  0.00     0.100 A 
ATOM      5  O   UNL     1      -4.474  -4.460  -5.828  1.00  0.00    -0.456 OA
ATOM      6  C   UNL     1      -6.550  -6.252  -5.705  1.00  0.00     0.197 A 
ATOM      7  C   UNL     1      -5.605  -4.077  -5.244  1.00  0.00     0.146 A 
ATOM      8  O   UNL     1      -7.481  -7.101  -5.660  1.00  0.00    -0.289 OA
ATOM      9  C   UNL     1      -6.705  -4.962  -5.158  1.00  0.00     0.107 A 
ATOM     10  C   UNL     1      -5.694  -2.788  -4.713  1.00  0.00     0.094 A 
ATOM     11  C   UNL     1      -7.893  -4.525  -4.531  1.00  0.00     0.134 A 
ATOM     12  C   UNL     1      -7.965  -3.227  -4.005  1.00  0.00     0.093 A 
BRANCH   3  13
ATOM     13  C   UNL     1      -2.990  -5.986  -6.989  1.00  0.00     0.021 A 
ATOM     14  C   UNL     1      -2.876  -6.265  -8.364  1.00  0.00     0.016 A 
ATOM     15  C   UNL     1      -1.631  -6.551  -8.928  1.00  0.00     0.051 A 
ATOM     16  C   UNL     1      -0.478  -6.557  -8.133  1.00  0.00     0.157 A 
ATOM     17  C   UNL     1      -1.825  -5.981  -6.200  1.00  0.00     0.062 A 
ATOM     18  C   UNL     1      -0.577  -6.269  -6.762  1.00  0.00     0.158 A 
BRANCH  16  19
ATOM     19  O   UNL     1       0.764  -6.845  -8.700  1.00  0.00    -0.504 OA
ATOM     20  H   UNL     1       1.514  -6.164  -8.706  1.00  0.00     0.293 HD
ENDBRANCH  16  19
BRANCH  18  21
ATOM     21  O   UNL     1       0.552  -6.263  -5.944  1.00  0.00    -0.504 OA
ATOM     22  H   UNL     1       0.625  -5.662  -5.132  1.00  0.00     0.293 HD
ENDBRANCH  18  21
ENDBRANCH   3  13
BRANCH  11  23
ATOM     23  O   UNL     1      -9.001  -5.368  -4.425  1.00  0.00    -0.507 OA
ATOM     24  H   UNL     1      -9.316  -5.725  -3.531  1.00  0.00     0.293 HD
ENDBRANCH  11  23
ENDBRANCH   1   2
BRANCH   1  25
ATOM     25  C   UNL     1      -6.525   0.136  -4.119  1.00  0.00     0.339 C 
ATOM     26  C   UNL     1      -7.047   0.279  -5.560  1.00  0.00     0.214 C 
ATOM     27  O   UNL     1      -6.820   1.270  -3.309  1.00  0.00    -0.332 OA
ATOM     28  C   UNL     1      -8.547   0.591  -5.555  1.00  0.00     0.180 C 
ATOM     29  C   UNL     1      -8.203   1.612  -3.253  1.00  0.00     0.179 C 
ATOM     30  C   UNL     1      -8.838   1.803  -4.652  1.00  0.00     0.177 C 
BRANCH  26  31
ATOM     31  O   UNL     1      -6.345   1.299  -6.227  1.00  0.00    -0.384 OA
ATOM     32  H   UNL     1      -5.664   0.855  -6.797  1.00  0.00     0.211 HD
ENDBRANCH  26  31
BRANCH  28  33
ATOM     33  O   UNL     1      -8.982   0.834  -6.868  1.00  0.00    -0.387 OA
ATOM     34  H   UNL     1      -9.302  -0.034  -7.229  1.00  0.00     0.211 HD
ENDBRANCH  28  33
BRANCH  29  35
ATOM     35  C   UNL     1      -9.008   0.676  -2.325  1.00  0.00     0.191 C 
BRANCH  35  36
ATOM     36  O   UNL     1      -8.257   0.349  -1.185  1.00  0.00    -0.394 OA
ATOM     37  H   UNL     1      -8.496   1.005  -0.481  1.00  0.00     0.210 HD
ENDBRANCH  35  36
ENDBRANCH  29  35
BRANCH  30  38
ATOM     38  O   UNL     1      -8.323   2.978  -5.226  1.00  0.00    -0.387 OA
ATOM     39  H   UNL     1      -8.143   2.782  -6.183  1.00  0.00     0.211 HD
ENDBRANCH  30  38
ENDBRANCH   1  25
TORSDOF 11
ENDMDL
MODEL 4
REMARK VINA RESULT:    -4.798      5.620     10.706
REMARK INTER + INTRA:          -7.942
REMARK INTER:                  -7.255
REMARK INTRA:                  -0.686
REMARK UNBOUND:                -1.040
REMARK SMILES O=c1cc(-c2ccc(O)c(O)c2)oc2cc(O[C@@H]3O[C@H](CO)[C@@H](O)[C@@H](O)[C@H]3O)cc(O)c12
REMARK SMILES IDX 17 1 16 2 4 3 3 4 13 5 2 6 14 7 1 8 32 9 15 10 30 11 29 12
REMARK SMILES IDX 5 13 6 14 7 15 8 16 12 17 10 18 9 19 11 21 31 23 18 25 27 26
REMARK SMILES IDX 19 27 25 28 20 29 23 30 28 31 26 33 21 35 22 36 24 38
REMARK H PARENT 9 20 11 22 31 24 28 32 26 34 22 37 24 39
REMARK Flexibility Score: inf
ROOT
ATOM      1  O   UNL     1      -6.928  -0.215  -3.815  1.00  0.00    -0.462 OA
ENDROOT
BRANCH   1   2
ATOM      2  C   UNL     1      -6.878  -1.590  -4.086  1.00  0.00     0.130 A 
ATOM      3  C   UNL     1      -4.692  -5.398  -5.958  1.00  0.00     0.138 A 
ATOM      4  C   UNL     1      -5.703  -6.270  -5.523  1.00  0.00     0.100 A 
ATOM      5  O   UNL     1      -4.785  -4.099  -5.685  1.00  0.00    -0.456 OA
ATOM      6  C   UNL     1      -6.795  -5.757  -4.822  1.00  0.00     0.197 A 
ATOM      7  C   UNL     1      -5.805  -3.563  -5.022  1.00  0.00     0.146 A 
ATOM      8  O   UNL     1      -7.698  -6.547  -4.434  1.00  0.00    -0.289 OA
ATOM      9  C   UNL     1      -6.867  -4.374  -4.559  1.00  0.00     0.107 A 
ATOM     10  C   UNL     1      -5.814  -2.186  -4.785  1.00  0.00     0.094 A 
ATOM     11  C   UNL     1      -7.936  -3.774  -3.857  1.00  0.00     0.134 A 
ATOM     12  C   UNL     1      -7.929  -2.391  -3.630  1.00  0.00     0.093 A 
BRANCH   3  13
ATOM     13  C   UNL     1      -3.505  -5.887  -6.706  1.00  0.00     0.021 A 
ATOM     14  C   UNL     1      -3.578  -6.226  -8.071  1.00  0.00     0.016 A 
ATOM     15  C   UNL     1      -2.443  -6.673  -8.751  1.00  0.00     0.051 A 
ATOM     16  C   UNL     1      -1.216  -6.782  -8.086  1.00  0.00     0.157 A 
ATOM     17  C   UNL     1      -2.265  -5.986  -6.049  1.00  0.00     0.062 A 
ATOM     18  C   UNL     1      -1.127  -6.436  -6.728  1.00  0.00     0.158 A 
BRANCH  16  19
ATOM     19  O   UNL     1      -0.085  -7.230  -8.769  1.00  0.00    -0.504 OA
ATOM     20  H   UNL     1       0.746  -6.655  -8.853  1.00  0.00     0.293 HD
ENDBRANCH  16  19
BRANCH  18  21
ATOM     21  O   UNL     1       0.080  -6.529  -6.038  1.00  0.00    -0.504 OA
ATOM     22  H   UNL     1       0.965  -6.281  -6.464  1.00  0.00     0.293 HD
ENDBRANCH  18  21
ENDBRANCH   3  13
BRANCH  11  23
ATOM     23  O   UNL     1      -9.003  -4.539  -3.383  1.00  0.00    -0.507 OA
ATOM     24  H   UNL     1      -8.977  -5.552  -3.388  1.00  0.00     0.293 HD
ENDBRANCH  11  23
ENDBRANCH   1   2
BRANCH   1  25
ATOM     25  C   UNL     1      -8.125   0.563  -3.723  1.00  0.00     0.339 C 
ATOM     26  C   UNL     1      -7.828   1.930  -3.080  1.00  0.00     0.214 C 
ATOM     27  O   UNL     1      -8.776   0.677  -4.985  1.00  0.00    -0.332 OA
ATOM     28  C   UNL     1      -7.031   2.812  -4.046  1.00  0.00     0.180 C 
ATOM     29  C   UNL     1      -8.083   1.479  -5.938  1.00  0.00     0.179 C 
ATOM     30  C   UNL     1      -7.745   2.894  -5.407  1.00  0.00     0.177 C 
BRANCH  26  31
ATOM     31  O   UNL     1      -9.030   2.567  -2.726  1.00  0.00    -0.384 OA
ATOM     32  H   UNL     1      -8.961   2.801  -1.764  1.00  0.00     0.211 HD
ENDBRANCH  26  31
BRANCH  28  33
ATOM     33  O   UNL     1      -6.870   4.092  -3.492  1.00  0.00    -0.387 OA
ATOM     34  H   UNL     1      -6.468   3.966  -2.592  1.00  0.00     0.211 HD
ENDBRANCH  28  33
BRANCH  29  35
ATOM     35  C   UNL     1      -6.879   0.745  -6.568  1.00  0.00     0.191 C 
BRANCH  35  36
ATOM     36  O   UNL     1      -6.205   1.586  -7.466  1.00  0.00    -0.394 OA
ATOM     37  H   UNL     1      -5.331   1.812  -7.054  1.00  0.00     0.210 HD
ENDBRANCH  35  36
ENDBRANCH  29  35
BRANCH  30  38
ATOM     38  O   UNL     1      -8.936   3.632  -5.293  1.00  0.00    -0.387 OA
ATOM     39  H   UNL     1      -9.081   4.090  -6.162  1.00  0.00     0.211 HD
ENDBRANCH  30  38
ENDBRANCH   1  25
TORSDOF 11
ENDMDL
MODEL 5
REMARK VINA RESULT:    -4.773     11.788     15.133
REMARK INTER + INTRA:          -7.906
REMARK INTER:                  -6.838
REMARK INTRA:                  -1.067
REMARK UNBOUND:                -1.040
REMARK SMILES O=c1cc(-c2ccc(O)c(O)c2)oc2cc(O[C@@H]3O[C@H](CO)[C@@H](O)[C@@H](O)[C@H]3O)cc(O)c12
REMARK SMILES IDX 17 1 16 2 4 3 3 4 13 5 2 6 14 7 1 8 32 9 15 10 30 11 29 12
REMARK SMILES IDX 5 13 6 14 7 15 8 16 12 17 10 18 9 19 11 21 31 23 18 25 27 26
REMARK SMILES IDX 19 27 25 28 20 29 23 30 28 31 26 33 21 35 22 36 24 38
REMARK H PARENT 9 20 11 22 31 24 28 32 26 34 22 37 24 39
REMARK Flexibility Score: inf
ROOT
ATOM      1  O   UNL     1       2.601   6.542  -2.361  1.00  0.00    -0.462 OA
ENDROOT
BRANCH   1   2
ATOM      2  C   UNL     1       2.300   6.990  -1.066  1.00  0.00     0.130 A 
ATOM      3  C   UNL     1      -0.837   7.882   2.420  1.00  0.00     0.138 A 
ATOM      4  C   UNL     1       0.169   8.315   3.298  1.00  0.00     0.100 A 
ATOM      5  O   UNL     1      -0.507   7.473   1.197  1.00  0.00    -0.456 OA
ATOM      6  C   UNL     1       1.497   8.321   2.870  1.00  0.00     0.197 A 
ATOM      7  C   UNL     1       0.742   7.461   0.743  1.00  0.00     0.146 A 
ATOM      8  O   UNL     1       2.394   8.711   3.667  1.00  0.00    -0.289 OA
ATOM      9  C   UNL     1       1.810   7.891   1.565  1.00  0.00     0.107 A 
ATOM     10  C   UNL     1       0.990   7.016  -0.558  1.00  0.00     0.094 A 
ATOM     11  C   UNL     1       3.127   7.866   1.053  1.00  0.00     0.134 A 
ATOM     12  C   UNL     1       3.355   7.417  -0.255  1.00  0.00     0.093 A 
BRANCH   3  13
ATOM     13  C   UNL     1      -2.267   7.852   2.820  1.00  0.00     0.021 A 
ATOM     14  C   UNL     1      -2.659   7.875   4.172  1.00  0.00     0.016 A 
ATOM     15  C   UNL     1      -4.011   7.856   4.519  1.00  0.00     0.051 A 
ATOM     16  C   UNL     1      -4.997   7.822   3.524  1.00  0.00     0.157 A 
ATOM     17  C   UNL     1      -3.264   7.830   1.827  1.00  0.00     0.062 A 
ATOM     18  C   UNL     1      -4.620   7.810   2.172  1.00  0.00     0.158 A 
BRANCH  16  19
ATOM     19  O   UNL     1      -6.347   7.802   3.875  1.00  0.00    -0.504 OA
ATOM     20  H   UNL     1      -6.910   6.967   3.767  1.00  0.00     0.293 HD
ENDBRANCH  16  19
BRANCH  18  21
ATOM     21  O   UNL     1      -5.576   7.779   1.158  1.00  0.00    -0.504 OA
ATOM     22  H   UNL     1      -6.508   8.154   1.285  1.00  0.00     0.293 HD
ENDBRANCH  18  21
ENDBRANCH   3  13
BRANCH  11  23
ATOM     23  O   UNL     1       4.208   8.282   1.832  1.00  0.00    -0.507 OA
ATOM     24  H   UNL     1       4.101   8.518   2.812  1.00  0.00     0.293 HD
ENDBRANCH  11  23
ENDBRANCH   1   2
BRANCH   1  25
ATOM     25  C   UNL     1       1.823   5.603  -3.109  1.00  0.00     0.339 C 
ATOM     26  C   UNL     1       1.176   6.291  -4.325  1.00  0.00     0.214 C 
ATOM     27  O   UNL     1       2.585   4.454  -3.465  1.00  0.00    -0.332 OA
ATOM     28  C   UNL     1       2.240   6.625  -5.375  1.00  0.00     0.180 C 
ATOM     29  C   UNL     1       3.601   4.696  -4.435  1.00  0.00     0.179 C 
ATOM     30  C   UNL     1       3.064   5.372  -5.720  1.00  0.00     0.177 C 
BRANCH  26  31
ATOM     31  O   UNL     1       0.193   5.456  -4.884  1.00  0.00    -0.384 OA
ATOM     32  H   UNL     1      -0.288   5.030  -4.127  1.00  0.00     0.211 HD
ENDBRANCH  26  31
BRANCH  28  33
ATOM     33  O   UNL     1       1.621   7.144  -6.524  1.00  0.00    -0.387 OA
ATOM     34  H   UNL     1       1.149   6.388  -6.962  1.00  0.00     0.211 HD
ENDBRANCH  28  33
BRANCH  29  35
ATOM     35  C   UNL     1       4.840   5.395  -3.834  1.00  0.00     0.191 C 
BRANCH  35  36
ATOM     36  O   UNL     1       5.119   4.888  -2.555  1.00  0.00    -0.394 OA
ATOM     37  H   UNL     1       5.120   5.658  -1.931  1.00  0.00     0.210 HD
ENDBRANCH  35  36
ENDBRANCH  29  35
BRANCH  30  38
ATOM     38  O   UNL     1       2.276   4.445  -6.424  1.00  0.00    -0.387 OA
ATOM     39  H   UNL     1       2.781   4.191  -7.240  1.00  0.00     0.211 HD
ENDBRANCH  30  38
ENDBRANCH   1  25
TORSDOF 11
ENDMDL
MODEL 6
REMARK VINA RESULT:    -4.751      3.195      9.653
REMARK INTER + INTRA:          -7.875
REMARK INTER:                  -6.897
REMARK INTRA:                  -0.978
REMARK UNBOUND:                -1.040
REMARK SMILES O=c1cc(-c2ccc(O)c(O)c2)oc2cc(O[C@@H]3O[C@H](CO)[C@@H](O)[C@@H](O)[C@H]3O)cc(O)c12
REMARK SMILES IDX 17 1 16 2 4 3 3 4 13 5 2 6 14 7 1 8 32 9 15 10 30 11 29 12
REMARK SMILES IDX 5 13 6 14 7 15 8 16 12 17 10 18 9 19 11 21 31 23 18 25 27 26
REMARK SMILES IDX 19 27 25 28 20 29 23 30 28 31 26 33 21 35 22 36 24 38
REMARK H PARENT 9 20 11 22 31 24 28 32 26 34 22 37 24 39
REMARK Flexibility Score: inf
ROOT
ATOM      1  O   UNL     1       3.024  -5.119  -5.541  1.00  0.00    -0.462 OA
ENDROOT
BRANCH   1   2
ATOM      2  C   UNL     1       4.024  -4.871  -4.589  1.00  0.00     0.130 A 
ATOM      3  C   UNL     1       6.926  -1.876  -2.266  1.00  0.00     0.138 A 
ATOM      4  C   UNL     1       7.465  -2.908  -1.481  1.00  0.00     0.100 A 
ATOM      5  O   UNL     1       5.985  -2.159  -3.164  1.00  0.00    -0.456 OA
ATOM      6  C   UNL     1       7.012  -4.216  -1.665  1.00  0.00     0.197 A 
ATOM      7  C   UNL     1       5.523  -3.387  -3.375  1.00  0.00     0.146 A 
ATOM      8  O   UNL     1       7.501  -5.136  -0.954  1.00  0.00    -0.289 OA
ATOM      9  C   UNL     1       6.022  -4.481  -2.631  1.00  0.00     0.107 A 
ATOM     10  C   UNL     1       4.534  -3.585  -4.343  1.00  0.00     0.094 A 
ATOM     11  C   UNL     1       5.509  -5.774  -2.880  1.00  0.00     0.134 A 
ATOM     12  C   UNL     1       4.518  -5.953  -3.855  1.00  0.00     0.093 A 
BRANCH   3  13
ATOM     13  C   UNL     1       7.367  -0.465  -2.115  1.00  0.00     0.021 A 
ATOM     14  C   UNL     1       8.097  -0.034  -0.991  1.00  0.00     0.016 A 
ATOM     15  C   UNL     1       8.507   1.296  -0.880  1.00  0.00     0.051 A 
ATOM     16  C   UNL     1       8.204   2.217  -1.891  1.00  0.00     0.157 A 
ATOM     17  C   UNL     1       7.079   0.462  -3.132  1.00  0.00     0.062 A 
ATOM     18  C   UNL     1       7.488   1.796  -3.023  1.00  0.00     0.158 A 
BRANCH  16  19
ATOM     19  O   UNL     1       8.616   3.545  -1.777  1.00  0.00    -0.504 OA
ATOM     20  H   UNL     1       8.612   4.171  -2.573  1.00  0.00     0.293 HD
ENDBRANCH  16  19
BRANCH  18  21
ATOM     21  O   UNL     1       7.173   2.687  -4.048  1.00  0.00    -0.504 OA
ATOM     22  H   UNL     1       6.979   3.665  -3.871  1.00  0.00     0.293 HD
ENDBRANCH  18  21
ENDBRANCH   3  13
BRANCH  11  23
ATOM     23  O   UNL     1       5.974  -6.880  -2.167  1.00  0.00    -0.507 OA
ATOM     24  H   UNL     1       5.351  -7.617  -1.858  1.00  0.00     0.293 HD
ENDBRANCH  11  23
ENDBRANCH   1   2
BRANCH   1  25
ATOM     25  C   UNL     1       2.097  -4.148  -6.034  1.00  0.00     0.339 C 
ATOM     26  C   UNL     1       2.643  -3.483  -7.309  1.00  0.00     0.214 C 
ATOM     27  O   UNL     1       0.798  -4.705  -6.214  1.00  0.00    -0.332 OA
ATOM     28  C   UNL     1       2.613  -4.471  -8.480  1.00  0.00     0.180 C 
ATOM     29  C   UNL     1       0.700  -5.642  -7.284  1.00  0.00     0.179 C 
ATOM     30  C   UNL     1       1.206  -5.076  -8.633  1.00  0.00     0.177 C 
BRANCH  26  31
ATOM     31  O   UNL     1       1.882  -2.343  -7.622  1.00  0.00    -0.384 OA
ATOM     32  H   UNL     1       0.928  -2.617  -7.600  1.00  0.00     0.211 HD
ENDBRANCH  26  31
BRANCH  28  33
ATOM     33  O   UNL     1       3.004  -3.817  -9.659  1.00  0.00    -0.387 OA
ATOM     34  H   UNL     1       3.608  -3.076  -9.390  1.00  0.00     0.211 HD
ENDBRANCH  28  33
BRANCH  29  35
ATOM     35  C   UNL     1       1.297  -7.020  -6.922  1.00  0.00     0.191 C 
BRANCH  35  36
ATOM     36  O   UNL     1       0.967  -7.368  -5.603  1.00  0.00    -0.394 OA
ATOM     37  H   UNL     1       0.225  -6.772  -5.322  1.00  0.00     0.210 HD
ENDBRANCH  35  36
ENDBRANCH  29  35
BRANCH  30  38
ATOM     38  O   UNL     1       0.300  -4.101  -9.084  1.00  0.00    -0.387 OA
ATOM     39  H   UNL     1      -0.227  -3.805  -8.296  1.00  0.00     0.211 HD
ENDBRANCH  30  38
ENDBRANCH   1  25
TORSDOF 11
ENDMDL
MODEL 7
REMARK VINA RESULT:    -4.744     12.917     16.805
REMARK INTER + INTRA:          -7.865
REMARK INTER:                  -7.010
REMARK INTRA:                  -0.855
REMARK UNBOUND:                -1.040
REMARK SMILES O=c1cc(-c2ccc(O)c(O)c2)oc2cc(O[C@@H]3O[C@H](CO)[C@@H](O)[C@@H](O)[C@H]3O)cc(O)c12
REMARK SMILES IDX 17 1 16 2 4 3 3 4 13 5 2 6 14 7 1 8 32 9 15 10 30 11 29 12
REMARK SMILES IDX 5 13 6 14 7 15 8 16 12 17 10 18 9 19 11 21 31 23 18 25 27 26
REMARK SMILES IDX 19 27 25 28 20 29 23 30 28 31 26 33 21 35 22 36 24 38
REMARK H PARENT 9 20 11 22 31 24 28 32 26 34 22 37 24 39
REMARK Flexibility Score: inf
ROOT
ATOM      1  O   UNL     1       3.540   6.582  -1.703  1.00  0.00    -0.462 OA
ENDROOT
BRANCH   1   2
ATOM      2  C   UNL     1       4.636   6.399  -0.846  1.00  0.00     0.130 A 
ATOM      3  C   UNL     1       6.852   7.146   3.315  1.00  0.00     0.138 A 
ATOM      4  C   UNL     1       7.952   6.356   2.942  1.00  0.00     0.100 A 
ATOM      5  O   UNL     1       5.838   7.299   2.467  1.00  0.00    -0.456 OA
ATOM      6  C   UNL     1       7.968   5.755   1.682  1.00  0.00     0.197 A 
ATOM      7  C   UNL     1       5.807   6.748   1.258  1.00  0.00     0.146 A 
ATOM      8  O   UNL     1       8.959   5.046   1.356  1.00  0.00    -0.289 OA
ATOM      9  C   UNL     1       6.881   5.947   0.805  1.00  0.00     0.107 A 
ATOM     10  C   UNL     1       4.698   6.969   0.437  1.00  0.00     0.094 A 
ATOM     11  C   UNL     1       6.818   5.375  -0.485  1.00  0.00     0.134 A 
ATOM     12  C   UNL     1       5.697   5.608  -1.295  1.00  0.00     0.093 A 
BRANCH   3  13
ATOM     13  C   UNL     1       6.779   7.809   4.643  1.00  0.00     0.021 A 
ATOM     14  C   UNL     1       7.916   8.368   5.255  1.00  0.00     0.016 A 
ATOM     15  C   UNL     1       7.815   8.994   6.499  1.00  0.00     0.051 A 
ATOM     16  C   UNL     1       6.578   9.080   7.150  1.00  0.00     0.157 A 
ATOM     17  C   UNL     1       5.537   7.912   5.296  1.00  0.00     0.062 A 
ATOM     18  C   UNL     1       5.434   8.537   6.544  1.00  0.00     0.158 A 
BRANCH  16  19
ATOM     19  O   UNL     1       6.481   9.706   8.393  1.00  0.00    -0.504 OA
ATOM     20  H   UNL     1       5.641  10.197   8.675  1.00  0.00     0.293 HD
ENDBRANCH  16  19
BRANCH  18  21
ATOM     21  O   UNL     1       4.187   8.610   7.163  1.00  0.00    -0.504 OA
ATOM     22  H   UNL     1       3.595   7.797   7.278  1.00  0.00     0.293 HD
ENDBRANCH  18  21
ENDBRANCH   3  13
BRANCH  11  23
ATOM     23  O   UNL     1       7.857   4.577  -0.969  1.00  0.00    -0.507 OA
ATOM     24  H   UNL     1       8.815   4.908  -0.997  1.00  0.00     0.293 HD
ENDBRANCH  11  23
ENDBRANCH   1   2
BRANCH   1  25
ATOM     25  C   UNL     1       2.239   6.020  -1.508  1.00  0.00     0.339 C 
ATOM     26  C   UNL     1       1.513   6.734  -0.355  1.00  0.00     0.214 C 
ATOM     27  O   UNL     1       1.484   6.012  -2.716  1.00  0.00    -0.332 OA
ATOM     28  C   UNL     1       1.110   8.151  -0.775  1.00  0.00     0.180 C 
ATOM     29  C   UNL     1       1.083   7.302  -3.171  1.00  0.00     0.179 C 
ATOM     30  C   UNL     1       0.320   8.113  -2.095  1.00  0.00     0.177 C 
BRANCH  26  31
ATOM     31  O   UNL     1       0.374   6.002   0.024  1.00  0.00    -0.384 OA
ATOM     32  H   UNL     1       0.689   5.249   0.589  1.00  0.00     0.211 HD
ENDBRANCH  26  31
BRANCH  28  33
ATOM     33  O   UNL     1       0.348   8.747   0.243  1.00  0.00    -0.387 OA
ATOM     34  H   UNL     1       0.115   8.026   0.885  1.00  0.00     0.211 HD
ENDBRANCH  28  33
BRANCH  29  35
ATOM     35  C   UNL     1       2.237   8.081  -3.838  1.00  0.00     0.191 C 
BRANCH  35  36
ATOM     36  O   UNL     1       3.009   7.226  -4.639  1.00  0.00    -0.394 OA
ATOM     37  H   UNL     1       2.405   6.511  -4.969  1.00  0.00     0.210 HD
ENDBRANCH  35  36
ENDBRANCH  29  35
BRANCH  30  38
ATOM     38  O   UNL     1      -0.942   7.526  -1.895  1.00  0.00    -0.387 OA
ATOM     39  H   UNL     1      -0.787   6.629  -1.498  1.00  0.00     0.211 HD
ENDBRANCH  30  38
ENDBRANCH   1  25
TORSDOF 11
ENDMDL
MODEL 8
REMARK VINA RESULT:    -4.742     12.788     16.720
REMARK INTER + INTRA:          -7.862
REMARK INTER:                  -6.771
REMARK INTRA:                  -1.091
REMARK UNBOUND:                -1.040
REMARK SMILES O=c1cc(-c2ccc(O)c(O)c2)oc2cc(O[C@@H]3O[C@H](CO)[C@@H](O)[C@@H](O)[C@H]3O)cc(O)c12
REMARK SMILES IDX 17 1 16 2 4 3 3 4 13 5 2 6 14 7 1 8 32 9 15 10 30 11 29 12
REMARK SMILES IDX 5 13 6 14 7 15 8 16 12 17 10 18 9 19 11 21 31 23 18 25 27 26
REMARK SMILES IDX 19 27 25 28 20 29 23 30 28 31 26 33 21 35 22 36 24 38
REMARK H PARENT 9 20 11 22 31 24 28 32 26 34 22 37 24 39
REMARK Flexibility Score: inf
ROOT
ATOM      1  O   UNL     1      -1.638   8.568   3.555  1.00  0.00    -0.462 OA
ENDROOT
BRANCH   1   2
ATOM      2  C   UNL     1      -0.340   8.402   3.050  1.00  0.00     0.130 A 
ATOM      3  C   UNL     1       2.671   6.743  -0.262  1.00  0.00     0.138 A 
ATOM      4  C   UNL     1       3.788   7.284   0.394  1.00  0.00     0.100 A 
ATOM      5  O   UNL     1       1.458   6.919   0.258  1.00  0.00    -0.456 OA
ATOM      6  C   UNL     1       3.609   7.986   1.587  1.00  0.00     0.197 A 
ATOM      7  C   UNL     1       1.237   7.579   1.390  1.00  0.00     0.146 A 
ATOM      8  O   UNL     1       4.619   8.470   2.169  1.00  0.00    -0.289 OA
ATOM      9  C   UNL     1       2.312   8.145   2.114  1.00  0.00     0.107 A 
ATOM     10  C   UNL     1      -0.074   7.709   1.857  1.00  0.00     0.094 A 
ATOM     11  C   UNL     1       2.044   8.840   3.315  1.00  0.00     0.134 A 
ATOM     12  C   UNL     1       0.722   8.959   3.768  1.00  0.00     0.093 A 
BRANCH   3  13
ATOM     13  C   UNL     1       2.800   5.988  -1.535  1.00  0.00     0.021 A 
ATOM     14  C   UNL     1       3.959   5.254  -1.846  1.00  0.00     0.016 A 
ATOM     15  C   UNL     1       4.048   4.545  -3.046  1.00  0.00     0.051 A 
ATOM     16  C   UNL     1       2.980   4.550  -3.952  1.00  0.00     0.157 A 
ATOM     17  C   UNL     1       1.726   5.977  -2.444  1.00  0.00     0.062 A 
ATOM     18  C   UNL     1       1.813   5.269  -3.648  1.00  0.00     0.158 A 
BRANCH  16  19
ATOM     19  O   UNL     1       3.073   3.841  -5.150  1.00  0.00    -0.504 OA
ATOM     20  H   UNL     1       2.848   2.855  -5.201  1.00  0.00     0.293 HD
ENDBRANCH  16  19
BRANCH  18  21
ATOM     21  O   UNL     1       0.731   5.291  -4.526  1.00  0.00    -0.504 OA
ATOM     22  H   UNL     1       0.569   4.553  -5.200  1.00  0.00     0.293 HD
ENDBRANCH  18  21
ENDBRANCH   3  13
BRANCH  11  23
ATOM     23  O   UNL     1       3.076   9.414   4.059  1.00  0.00    -0.507 OA
ATOM     24  H   UNL     1       3.648   8.864   4.690  1.00  0.00     0.293 HD
ENDBRANCH  11  23
ENDBRANCH   1   2
BRANCH   1  25
ATOM     25  C   UNL     1      -2.668   7.577   3.521  1.00  0.00     0.339 C 
ATOM     26  C   UNL     1      -3.503   7.626   4.813  1.00  0.00     0.214 C 
ATOM     27  O   UNL     1      -3.465   7.687   2.344  1.00  0.00    -0.332 OA
ATOM     28  C   UNL     1      -4.372   8.887   4.838  1.00  0.00     0.180 C 
ATOM     29  C   UNL     1      -4.294   8.845   2.298  1.00  0.00     0.179 C 
ATOM     30  C   UNL     1      -5.200   8.993   3.545  1.00  0.00     0.177 C 
BRANCH  26  31
ATOM     31  O   UNL     1      -4.313   6.481   4.907  1.00  0.00    -0.384 OA
ATOM     32  H   UNL     1      -4.090   5.905   4.130  1.00  0.00     0.211 HD
ENDBRANCH  26  31
BRANCH  28  33
ATOM     33  O   UNL     1      -5.212   8.859   5.964  1.00  0.00    -0.387 OA
ATOM     34  H   UNL     1      -6.003   9.418   5.745  1.00  0.00     0.211 HD
ENDBRANCH  28  33
BRANCH  29  35
ATOM     35  C   UNL     1      -3.506  10.125   1.945  1.00  0.00     0.191 C 
BRANCH  35  36
ATOM     36  O   UNL     1      -2.654   9.893   0.854  1.00  0.00    -0.394 OA
ATOM     37  H   UNL     1      -2.043  10.672   0.790  1.00  0.00     0.210 HD
ENDBRANCH  35  36
ENDBRANCH  29  35
BRANCH  30  38
ATOM     38  O   UNL     1      -6.185   7.990   3.510  1.00  0.00    -0.387 OA
ATOM     39  H   UNL     1      -5.724   7.134   3.307  1.00  0.00     0.211 HD
ENDBRANCH  30  38
ENDBRANCH   1  25
TORSDOF 11
ENDMDL
MODEL 9
REMARK VINA RESULT:    -4.717     11.573     14.064
REMARK INTER + INTRA:          -7.826
REMARK INTER:                  -6.736
REMARK INTRA:                  -1.090
REMARK UNBOUND:                -1.040
REMARK SMILES O=c1cc(-c2ccc(O)c(O)c2)oc2cc(O[C@@H]3O[C@H](CO)[C@@H](O)[C@@H](O)[C@H]3O)cc(O)c12
REMARK SMILES IDX 17 1 16 2 4 3 3 4 13 5 2 6 14 7 1 8 32 9 15 10 30 11 29 12
REMARK SMILES IDX 5 13 6 14 7 15 8 16 12 17 10 18 9 19 11 21 31 23 18 25 27 26
REMARK SMILES IDX 19 27 25 28 20 29 23 30 28 31 26 33 21 35 22 36 24 38
REMARK H PARENT 9 20 11 22 31 24 28 32 26 34 22 37 24 39
REMARK Flexibility Score: inf
ROOT
ATOM      1  O   UNL     1       2.937  -7.006   7.497  1.00  0.00    -0.462 OA
ENDROOT
BRANCH   1   2
ATOM      2  C   UNL     1       1.648  -6.455   7.573  1.00  0.00     0.130 A 
ATOM      3  C   UNL     1      -1.328  -2.737   7.250  1.00  0.00     0.138 A 
ATOM      4  C   UNL     1      -2.449  -3.530   7.544  1.00  0.00     0.100 A 
ATOM      5  O   UNL     1      -0.123  -3.300   7.196  1.00  0.00    -0.456 OA
ATOM      6  C   UNL     1      -2.279  -4.893   7.787  1.00  0.00     0.197 A 
ATOM      7  C   UNL     1       0.089  -4.593   7.420  1.00  0.00     0.146 A 
ATOM      8  O   UNL     1      -3.292  -5.598   8.049  1.00  0.00    -0.289 OA
ATOM      9  C   UNL     1      -0.988  -5.455   7.732  1.00  0.00     0.107 A 
ATOM     10  C   UNL     1       1.392  -5.093   7.343  1.00  0.00     0.094 A 
ATOM     11  C   UNL     1      -0.729  -6.825   7.964  1.00  0.00     0.134 A 
ATOM     12  C   UNL     1       0.585  -7.307   7.883  1.00  0.00     0.093 A 
BRANCH   3  13
ATOM     13  C   UNL     1      -1.447  -1.281   6.981  1.00  0.00     0.021 A 
ATOM     14  C   UNL     1      -2.662  -0.592   7.158  1.00  0.00     0.016 A 
ATOM     15  C   UNL     1      -2.742   0.779   6.907  1.00  0.00     0.051 A 
ATOM     16  C   UNL     1      -1.611   1.489   6.483  1.00  0.00     0.157 A 
ATOM     17  C   UNL     1      -0.313  -0.559   6.568  1.00  0.00     0.062 A 
ATOM     18  C   UNL     1      -0.391   0.815   6.314  1.00  0.00     0.158 A 
BRANCH  16  19
ATOM     19  O   UNL     1      -1.695   2.858   6.233  1.00  0.00    -0.504 OA
ATOM     20  H   UNL     1      -1.154   3.297   5.497  1.00  0.00     0.293 HD
ENDBRANCH  16  19
BRANCH  18  21
ATOM     21  O   UNL     1       0.754   1.493   5.897  1.00  0.00    -0.504 OA
ATOM     22  H   UNL     1       1.655   1.035   5.827  1.00  0.00     0.293 HD
ENDBRANCH  18  21
ENDBRANCH   3  13
BRANCH  11  23
ATOM     23  O   UNL     1      -1.764  -7.709   8.274  1.00  0.00    -0.507 OA
ATOM     24  H   UNL     1      -2.551  -7.848   7.651  1.00  0.00     0.293 HD
ENDBRANCH  11  23
ENDBRANCH   1   2
BRANCH   1  25
ATOM     25  C   UNL     1       3.318  -8.094   6.651  1.00  0.00     0.339 C 
ATOM     26  C   UNL     1       3.314  -7.654   5.176  1.00  0.00     0.214 C 
ATOM     27  O   UNL     1       4.560  -8.663   7.054  1.00  0.00    -0.332 OA
ATOM     28  C   UNL     1       4.484  -6.703   4.901  1.00  0.00     0.180 C 
ATOM     29  C   UNL     1       5.693  -7.826   6.834  1.00  0.00     0.179 C 
ATOM     30  C   UNL     1       5.807  -7.333   5.371  1.00  0.00     0.177 C 
BRANCH  26  31
ATOM     31  O   UNL     1       3.401  -8.778   4.337  1.00  0.00    -0.384 OA
ATOM     32  H   UNL     1       3.612  -9.556   4.918  1.00  0.00     0.211 HD
ENDBRANCH  26  31
BRANCH  28  33
ATOM     33  O   UNL     1       4.535  -6.404   3.530  1.00  0.00    -0.387 OA
ATOM     34  H   UNL     1       3.868  -6.988   3.084  1.00  0.00     0.211 HD
ENDBRANCH  28  33
BRANCH  29  35
ATOM     35  C   UNL     1       5.810  -6.699   7.883  1.00  0.00     0.191 C 
BRANCH  35  36
ATOM     36  O   UNL     1       5.475  -7.178   9.159  1.00  0.00    -0.394 OA
ATOM     37  H   UNL     1       4.557  -6.857   9.358  1.00  0.00     0.210 HD
ENDBRANCH  35  36
ENDBRANCH  29  35
BRANCH  30  38
ATOM     38  O   UNL     1       6.150  -8.422   4.551  1.00  0.00    -0.387 OA
ATOM     39  H   UNL     1       6.701  -9.039   5.100  1.00  0.00     0.211 HD
ENDBRANCH  30  38
ENDBRANCH   1  25
TORSDOF 11
ENDMDL
