MODEL 1
REMARK VINA RESULT:    -5.795      0.000      0.000
REMARK INTER + INTRA:         -19.021
REMARK INTER:                 -15.281
REMARK INTRA:                  -3.740
REMARK UNBOUND:                -3.740
REMARK SMILES CCCCCCCCCCCCCCCCCCCCCCCCCCCCCC(=O)[O-]
REMARK SMILES IDX 16 1 17 2 18 3 19 4 20 5 21 6 22 7 23 8 24 9 25 10 26 11
REMARK SMILES IDX 27 12 28 13 29 14 30 15 31 16 32 17 15 18 14 19 13 20 12 21
REMARK SMILES IDX 11 22 10 23 9 24 8 25 7 26 6 27 5 28 4 29 3 30 2 31 1 32
REMARK H PARENT
REMARK Flexibility Score: inf
ROOT
ATOM      1  C   UNL     1      11.405 -32.320  21.133  1.00  0.00     0.000 C 
ENDROOT
BRANCH   1   2
ATOM      2  C   UNL     1      10.075 -33.014  21.504  1.00  0.00     0.000 C 
BRANCH   2   3
ATOM      3  C   UNL     1       8.861 -32.543  20.679  1.00  0.00     0.000 C 
BRANCH   3   4
ATOM      4  C   UNL     1       7.970 -31.558  21.453  1.00  0.00     0.000 C 
BRANCH   4   5
ATOM      5  C   UNL     1       8.500 -30.115  21.403  1.00  0.00     0.000 C 
BRANCH   5   6
ATOM      6  C   UNL     1       8.171 -29.320  22.679  1.00  0.00     0.000 C 
BRANCH   6   7
ATOM      7  C   UNL     1       6.972 -29.898  23.446  1.00  0.00     0.000 C 
BRANCH   7   8
ATOM      8  C   UNL     1       7.237 -30.047  24.949  1.00  0.00     0.000 C 
BRANCH   8   9
ATOM      9  C   UNL     1       5.910 -30.120  25.720  1.00  0.00     0.000 C 
BRANCH   9  10
ATOM     10  C   UNL     1       5.102 -28.817  25.640  1.00  0.00     0.000 C 
BRANCH  10  11
ATOM     11  C   UNL     1       3.585 -29.061  25.615  1.00  0.00     0.000 C 
BRANCH  11  12
ATOM     12  C   UNL     1       3.084 -29.257  24.177  1.00  0.00     0.000 C 
BRANCH  12  13
ATOM     13  C   UNL     1       1.940 -28.296  23.816  1.00  0.00     0.006 C 
BRANCH  13  14
ATOM     14  C   UNL     1       0.880 -28.954  22.918  1.00  0.00     0.053 C 
BRANCH  14  15
ATOM     15  C   UNL     1       0.353 -30.238  23.495  1.00  0.00     0.041 C 
ATOM     16  O   UNL     1       0.059 -30.292  24.720  1.00  0.00    -0.550 OA
ATOM     17  O   UNL     1       0.172 -31.364  22.699  1.00  0.00    -0.550 OA
ENDBRANCH  14  15
ENDBRANCH  13  14
ENDBRANCH  12  13
ENDBRANCH  11  12
ENDBRANCH  10  11
ENDBRANCH   9  10
ENDBRANCH   8   9
ENDBRANCH   7   8
ENDBRANCH   6   7
ENDBRANCH   5   6
ENDBRANCH   4   5
ENDBRANCH   3   4
ENDBRANCH   2   3
ENDBRANCH   1   2
BRANCH   1  18
ATOM     18  C   UNL     1      12.643 -32.990  21.755  1.00  0.00     0.000 C 
BRANCH  18  19
ATOM     19  C   UNL     1      13.321 -32.113  22.824  1.00  0.00     0.000 C 
BRANCH  19  20
ATOM     20  C   UNL     1      12.884 -30.641  22.735  1.00  0.00     0.000 C 
BRANCH  20  21
ATOM     21  C   UNL     1      13.382 -29.826  23.945  1.00  0.00     0.000 C 
BRANCH  21  22
ATOM     22  C   UNL     1      12.411 -29.865  25.137  1.00  0.00     0.000 C 
BRANCH  22  23
ATOM     23  C   UNL     1      11.003 -30.393  24.799  1.00  0.00     0.000 C 
BRANCH  23  24
ATOM     24  C   UNL     1      10.449 -31.397  25.837  1.00  0.00    -0.000 C 
BRANCH  24  25
ATOM     25  C   UNL     1      10.199 -32.797  25.251  1.00  0.00    -0.000 C 
BRANCH  25  26
ATOM     26  C   UNL     1      11.097 -33.873  25.892  1.00  0.00    -0.000 C 
BRANCH  26  27
ATOM     27  C   UNL     1      10.392 -35.233  26.008  1.00  0.00    -0.000 C 
BRANCH  27  28
ATOM     28  C   UNL     1      11.082 -36.334  25.183  1.00  0.00    -0.000 C 
BRANCH  28  29
ATOM     29  C   UNL     1      12.306 -35.815  24.414  1.00  0.00    -0.000 C 
BRANCH  29  30
ATOM     30  C   UNL     1      13.561 -36.680  24.626  1.00  0.00    -0.000 C 
BRANCH  30  31
ATOM     31  C   UNL     1      14.813 -35.832  24.906  1.00  0.00    -0.003 C 
ATOM     32  C   UNL     1      14.476 -34.397  25.315  1.00  0.00     0.004 C 
ENDBRANCH  30  31
ENDBRANCH  29  30
ENDBRANCH  28  29
ENDBRANCH  27  28
ENDBRANCH  26  27
ENDBRANCH  25  26
ENDBRANCH  24  25
ENDBRANCH  23  24
ENDBRANCH  22  23
ENDBRANCH  21  22
ENDBRANCH  20  21
ENDBRANCH  19  20
ENDBRANCH  18  19
ENDBRANCH   1  18
TORSDOF 28
ENDMDL
MODEL 2
REMARK VINA RESULT:    -5.313      4.418      9.975
REMARK INTER + INTRA:         -17.750
REMARK INTER:                 -14.130
REMARK INTRA:                  -3.620
REMARK UNBOUND:                -3.740
REMARK SMILES CCCCCCCCCCCCCCCCCCCCCCCCCCCCCC(=O)[O-]
REMARK SMILES IDX 16 1 17 2 18 3 19 4 20 5 21 6 22 7 23 8 24 9 25 10 26 11
REMARK SMILES IDX 27 12 28 13 29 14 30 15 31 16 32 17 15 18 14 19 13 20 12 21
REMARK SMILES IDX 11 22 10 23 9 24 8 25 7 26 6 27 5 28 4 29 3 30 2 31 1 32
REMARK H PARENT
REMARK Flexibility Score: inf
ROOT
ATOM      1  C   UNL     1      11.102 -29.854  21.328  1.00  0.00     0.000 C 
ENDROOT
BRANCH   1   2
ATOM      2  C   UNL     1      12.073 -29.034  22.207  1.00  0.00     0.000 C 
BRANCH   2   3
ATOM      3  C   UNL     1      12.986 -29.887  23.110  1.00  0.00     0.000 C 
BRANCH   3   4
ATOM      4  C   UNL     1      13.031 -29.372  24.557  1.00  0.00     0.000 C 
BRANCH   4   5
ATOM      5  C   UNL     1      12.746 -30.477  25.588  1.00  0.00     0.000 C 
BRANCH   5   6
ATOM      6  C   UNL     1      11.352 -31.105  25.410  1.00  0.00     0.000 C 
BRANCH   6   7
ATOM      7  C   UNL     1      11.252 -32.512  26.019  1.00  0.00     0.000 C 
BRANCH   7   8
ATOM      8  C   UNL     1      10.805 -33.574  25.006  1.00  0.00     0.000 C 
BRANCH   8   9
ATOM      9  C   UNL     1      11.832 -34.714  24.942  1.00  0.00     0.000 C 
BRANCH   9  10
ATOM     10  C   UNL     1      13.172 -34.348  25.598  1.00  0.00     0.000 C 
BRANCH  10  11
ATOM     11  C   UNL     1      14.252 -33.977  24.571  1.00  0.00     0.000 C 
BRANCH  11  12
ATOM     12  C   UNL     1      13.627 -33.333  23.325  1.00  0.00     0.000 C 
BRANCH  12  13
ATOM     13  C   UNL     1      14.685 -32.799  22.345  1.00  0.00     0.006 C 
BRANCH  13  14
ATOM     14  C   UNL     1      14.730 -33.600  21.034  1.00  0.00     0.053 C 
BRANCH  14  15
ATOM     15  C   UNL     1      16.039 -33.450  20.312  1.00  0.00     0.041 C 
ATOM     16  O   UNL     1      16.086 -33.645  19.067  1.00  0.00    -0.550 OA
ATOM     17  O   UNL     1      17.198 -33.089  20.991  1.00  0.00    -0.550 OA
ENDBRANCH  14  15
ENDBRANCH  13  14
ENDBRANCH  12  13
ENDBRANCH  11  12
ENDBRANCH  10  11
ENDBRANCH   9  10
ENDBRANCH   8   9
ENDBRANCH   7   8
ENDBRANCH   6   7
ENDBRANCH   5   6
ENDBRANCH   4   5
ENDBRANCH   3   4
ENDBRANCH   2   3
ENDBRANCH   1   2
BRANCH   1  18
ATOM     18  C   UNL     1      11.415 -31.360  21.304  1.00  0.00     0.000 C 
BRANCH  18  19
ATOM     19  C   UNL     1      10.182 -32.228  21.616  1.00  0.00     0.000 C 
BRANCH  19  20
ATOM     20  C   UNL     1       8.942 -31.791  20.819  1.00  0.00     0.000 C 
BRANCH  20  21
ATOM     21  C   UNL     1       7.690 -31.707  21.715  1.00  0.00     0.000 C 
BRANCH  21  22
ATOM     22  C   UNL     1       7.657 -30.438  22.584  1.00  0.00     0.000 C 
BRANCH  22  23
ATOM     23  C   UNL     1       8.034 -30.663  24.061  1.00  0.00     0.000 C 
BRANCH  23  24
ATOM     24  C   UNL     1       6.815 -30.734  25.011  1.00  0.00    -0.000 C 
BRANCH  24  25
ATOM     25  C   UNL     1       5.583 -29.989  24.469  1.00  0.00    -0.000 C 
BRANCH  25  26
ATOM     26  C   UNL     1       4.881 -29.146  25.551  1.00  0.00    -0.000 C 
BRANCH  26  27
ATOM     27  C   UNL     1       3.379 -28.976  25.279  1.00  0.00    -0.000 C 
BRANCH  27  28
ATOM     28  C   UNL     1       2.997 -29.292  23.821  1.00  0.00    -0.000 C 
BRANCH  28  29
ATOM     29  C   UNL     1       1.586 -28.804  23.462  1.00  0.00    -0.000 C 
BRANCH  29  30
ATOM     30  C   UNL     1       0.670 -29.933  22.957  1.00  0.00    -0.000 C 
BRANCH  30  31
ATOM     31  C   UNL     1      -0.104 -30.612  24.099  1.00  0.00    -0.003 C 
ATOM     32  C   UNL     1      -0.076 -29.800  25.396  1.00  0.00     0.004 C 
ENDBRANCH  30  31
ENDBRANCH  29  30
ENDBRANCH  28  29
ENDBRANCH  27  28
ENDBRANCH  26  27
ENDBRANCH  25  26
ENDBRANCH  24  25
ENDBRANCH  23  24
ENDBRANCH  22  23
ENDBRANCH  21  22
ENDBRANCH  20  21
ENDBRANCH  19  20
ENDBRANCH  18  19
ENDBRANCH   1  18
TORSDOF 28
ENDMDL
MODEL 3
REMARK VINA RESULT:    -5.228      1.810      3.174
REMARK INTER + INTRA:         -17.524
REMARK INTER:                 -13.706
REMARK INTRA:                  -3.818
REMARK UNBOUND:                -3.740
REMARK SMILES CCCCCCCCCCCCCCCCCCCCCCCCCCCCCC(=O)[O-]
REMARK SMILES IDX 16 1 17 2 18 3 19 4 20 5 21 6 22 7 23 8 24 9 25 10 26 11
REMARK SMILES IDX 27 12 28 13 29 14 30 15 31 16 32 17 15 18 14 19 13 20 12 21
REMARK SMILES IDX 11 22 10 23 9 24 8 25 7 26 6 27 5 28 4 29 3 30 2 31 1 32
REMARK H PARENT
REMARK Flexibility Score: inf
ROOT
ATOM      1  C   UNL     1       9.421 -32.140  20.746  1.00  0.00     0.000 C 
ENDROOT
BRANCH   1   2
ATOM      2  C   UNL     1       8.035 -31.758  21.314  1.00  0.00     0.000 C 
BRANCH   2   3
ATOM      3  C   UNL     1       7.686 -30.262  21.183  1.00  0.00     0.000 C 
BRANCH   3   4
ATOM      4  C   UNL     1       7.166 -29.662  22.500  1.00  0.00     0.000 C 
BRANCH   4   5
ATOM      5  C   UNL     1       8.282 -29.013  23.336  1.00  0.00     0.000 C 
BRANCH   5   6
ATOM      6  C   UNL     1       8.260 -29.470  24.805  1.00  0.00     0.000 C 
BRANCH   6   7
ATOM      7  C   UNL     1       7.532 -30.808  25.001  1.00  0.00     0.000 C 
BRANCH   7   8
ATOM      8  C   UNL     1       6.420 -30.738  26.056  1.00  0.00     0.000 C 
BRANCH   8   9
ATOM      9  C   UNL     1       5.720 -29.372  26.001  1.00  0.00     0.000 C 
BRANCH   9  10
ATOM     10  C   UNL     1       4.193 -29.489  25.891  1.00  0.00     0.000 C 
BRANCH  10  11
ATOM     11  C   UNL     1       3.557 -28.289  25.172  1.00  0.00     0.000 C 
BRANCH  11  12
ATOM     12  C   UNL     1       2.234 -28.688  24.503  1.00  0.00     0.000 C 
BRANCH  12  13
ATOM     13  C   UNL     1       1.309 -29.473  25.448  1.00  0.00     0.006 C 
BRANCH  13  14
ATOM     14  C   UNL     1       0.024 -29.949  24.751  1.00  0.00     0.053 C 
BRANCH  14  15
ATOM     15  C   UNL     1       0.199 -30.111  23.267  1.00  0.00     0.041 C 
ATOM     16  O   UNL     1      -0.098 -29.155  22.501  1.00  0.00    -0.550 OA
ATOM     17  O   UNL     1       0.694 -31.292  22.725  1.00  0.00    -0.550 OA
ENDBRANCH  14  15
ENDBRANCH  13  14
ENDBRANCH  12  13
ENDBRANCH  11  12
ENDBRANCH  10  11
ENDBRANCH   9  10
ENDBRANCH   8   9
ENDBRANCH   7   8
ENDBRANCH   6   7
ENDBRANCH   5   6
ENDBRANCH   4   5
ENDBRANCH   3   4
ENDBRANCH   2   3
ENDBRANCH   1   2
BRANCH   1  18
ATOM     18  C   UNL     1      10.317 -32.878  21.755  1.00  0.00     0.000 C 
BRANCH  18  19
ATOM     19  C   UNL     1      10.400 -32.157  23.114  1.00  0.00     0.000 C 
BRANCH  19  20
ATOM     20  C   UNL     1      11.362 -30.958  23.082  1.00  0.00     0.000 C 
BRANCH  20  21
ATOM     21  C   UNL     1      11.756 -30.506  24.502  1.00  0.00     0.000 C 
BRANCH  21  22
ATOM     22  C   UNL     1      11.376 -31.530  25.585  1.00  0.00     0.000 C 
BRANCH  22  23
ATOM     23  C   UNL     1      12.543 -32.411  26.072  1.00  0.00     0.000 C 
BRANCH  23  24
ATOM     24  C   UNL     1      12.319 -33.924  25.840  1.00  0.00    -0.000 C 
BRANCH  24  25
ATOM     25  C   UNL     1      13.574 -34.650  25.326  1.00  0.00    -0.000 C 
BRANCH  25  26
ATOM     26  C   UNL     1      14.376 -33.800  24.321  1.00  0.00    -0.000 C 
BRANCH  26  27
ATOM     27  C   UNL     1      13.757 -33.814  22.916  1.00  0.00    -0.000 C 
BRANCH  27  28
ATOM     28  C   UNL     1      14.169 -32.595  22.071  1.00  0.00    -0.000 C 
BRANCH  28  29
ATOM     29  C   UNL     1      15.601 -32.712  21.526  1.00  0.00    -0.000 C 
BRANCH  29  30
ATOM     30  C   UNL     1      15.650 -33.203  20.068  1.00  0.00    -0.000 C 
BRANCH  30  31
ATOM     31  C   UNL     1      16.563 -34.428  19.896  1.00  0.00    -0.003 C 
ATOM     32  C   UNL     1      15.914 -35.537  19.066  1.00  0.00     0.004 C 
ENDBRANCH  30  31
ENDBRANCH  29  30
ENDBRANCH  28  29
ENDBRANCH  27  28
ENDBRANCH  26  27
ENDBRANCH  25  26
ENDBRANCH  24  25
ENDBRANCH  23  24
ENDBRANCH  22  23
ENDBRANCH  21  22
ENDBRANCH  20  21
ENDBRANCH  19  20
ENDBRANCH  18  19
ENDBRANCH   1  18
TORSDOF 28
ENDMDL
MODEL 4
REMARK VINA RESULT:    -5.148      1.201      3.594
REMARK INTER + INTRA:         -17.315
REMARK INTER:                 -13.864
REMARK INTRA:                  -3.451
REMARK UNBOUND:                -3.740
REMARK SMILES CCCCCCCCCCCCCCCCCCCCCCCCCCCCCC(=O)[O-]
REMARK SMILES IDX 16 1 17 2 18 3 19 4 20 5 21 6 22 7 23 8 24 9 25 10 26 11
REMARK SMILES IDX 27 12 28 13 29 14 30 15 31 16 32 17 15 18 14 19 13 20 12 21
REMARK SMILES IDX 11 22 10 23 9 24 8 25 7 26 6 27 5 28 4 29 3 30 2 31 1 32
REMARK H PARENT
REMARK Flexibility Score: inf
ROOT
ATOM      1  C   UNL     1      10.080 -31.982  20.903  1.00  0.00     0.000 C 
ENDROOT
BRANCH   1   2
ATOM      2  C   UNL     1       8.553 -31.759  20.831  1.00  0.00     0.000 C 
BRANCH   2   3
ATOM      3  C   UNL     1       8.136 -30.296  20.580  1.00  0.00     0.000 C 
BRANCH   3   4
ATOM      4  C   UNL     1       7.572 -29.620  21.840  1.00  0.00     0.000 C 
BRANCH   4   5
ATOM      5  C   UNL     1       8.675 -29.181  22.819  1.00  0.00     0.000 C 
BRANCH   5   6
ATOM      6  C   UNL     1       8.420 -29.674  24.255  1.00  0.00     0.000 C 
BRANCH   6   7
ATOM      7  C   UNL     1       7.574 -30.956  24.301  1.00  0.00     0.000 C 
BRANCH   7   8
ATOM      8  C   UNL     1       6.460 -30.901  25.355  1.00  0.00     0.000 C 
BRANCH   8   9
ATOM      9  C   UNL     1       6.020 -29.449  25.590  1.00  0.00     0.000 C 
BRANCH   9  10
ATOM     10  C   UNL     1       4.493 -29.283  25.606  1.00  0.00     0.000 C 
BRANCH  10  11
ATOM     11  C   UNL     1       3.845 -29.641  24.260  1.00  0.00     0.000 C 
BRANCH  11  12
ATOM     12  C   UNL     1       2.497 -28.925  24.093  1.00  0.00     0.000 C 
BRANCH  12  13
ATOM     13  C   UNL     1       1.509 -29.256  25.224  1.00  0.00     0.006 C 
BRANCH  13  14
ATOM     14  C   UNL     1       0.195 -29.857  24.700  1.00  0.00     0.053 C 
BRANCH  14  15
ATOM     15  C   UNL     1       0.240 -30.144  23.225  1.00  0.00     0.041 C 
ATOM     16  O   UNL     1       0.591 -31.288  22.828  1.00  0.00    -0.550 OA
ATOM     17  O   UNL     1      -0.109 -29.174  22.292  1.00  0.00    -0.550 OA
ENDBRANCH  14  15
ENDBRANCH  13  14
ENDBRANCH  12  13
ENDBRANCH  11  12
ENDBRANCH  10  11
ENDBRANCH   9  10
ENDBRANCH   8   9
ENDBRANCH   7   8
ENDBRANCH   6   7
ENDBRANCH   5   6
ENDBRANCH   4   5
ENDBRANCH   3   4
ENDBRANCH   2   3
ENDBRANCH   1   2
BRANCH   1  18
ATOM     18  C   UNL     1      10.476 -33.441  21.185  1.00  0.00     0.000 C 
BRANCH  18  19
ATOM     19  C   UNL     1      10.889 -33.672  22.651  1.00  0.00     0.000 C 
BRANCH  19  20
ATOM     20  C   UNL     1      10.677 -32.424  23.522  1.00  0.00     0.000 C 
BRANCH  20  21
ATOM     21  C   UNL     1      10.656 -32.774  25.024  1.00  0.00     0.000 C 
BRANCH  21  22
ATOM     22  C   UNL     1      10.853 -34.276  25.293  1.00  0.00     0.000 C 
BRANCH  22  23
ATOM     23  C   UNL     1      12.271 -34.663  25.756  1.00  0.00     0.000 C 
BRANCH  23  24
ATOM     24  C   UNL     1      12.953 -35.719  24.854  1.00  0.00    -0.000 C 
BRANCH  24  25
ATOM     25  C   UNL     1      14.152 -35.160  24.068  1.00  0.00    -0.000 C 
BRANCH  25  26
ATOM     26  C   UNL     1      14.238 -33.623  24.140  1.00  0.00    -0.000 C 
BRANCH  26  27
ATOM     27  C   UNL     1      14.148 -32.965  22.755  1.00  0.00    -0.000 C 
BRANCH  27  28
ATOM     28  C   UNL     1      14.373 -31.442  22.803  1.00  0.00    -0.000 C 
BRANCH  28  29
ATOM     29  C   UNL     1      13.114 -30.674  23.234  1.00  0.00    -0.000 C 
BRANCH  29  30
ATOM     30  C   UNL     1      13.401 -29.208  23.600  1.00  0.00    -0.000 C 
BRANCH  30  31
ATOM     31  C   UNL     1      13.632 -29.017  25.108  1.00  0.00    -0.003 C 
ATOM     32  C   UNL     1      13.170 -30.220  25.933  1.00  0.00     0.004 C 
ENDBRANCH  30  31
ENDBRANCH  29  30
ENDBRANCH  28  29
ENDBRANCH  27  28
ENDBRANCH  26  27
ENDBRANCH  25  26
ENDBRANCH  24  25
ENDBRANCH  23  24
ENDBRANCH  22  23
ENDBRANCH  21  22
ENDBRANCH  20  21
ENDBRANCH  19  20
ENDBRANCH  18  19
ENDBRANCH   1  18
TORSDOF 28
ENDMDL
MODEL 5
REMARK VINA RESULT:    -5.090      4.853      9.499
REMARK INTER + INTRA:         -17.162
REMARK INTER:                 -12.939
REMARK INTRA:                  -4.223
REMARK UNBOUND:                -3.740
REMARK SMILES CCCCCCCCCCCCCCCCCCCCCCCCCCCCCC(=O)[O-]
REMARK SMILES IDX 16 1 17 2 18 3 19 4 20 5 21 6 22 7 23 8 24 9 25 10 26 11
REMARK SMILES IDX 27 12 28 13 29 14 30 15 31 16 32 17 15 18 14 19 13 20 12 21
REMARK SMILES IDX 11 22 10 23 9 24 8 25 7 26 6 27 5 28 4 29 3 30 2 31 1 32
REMARK H PARENT
REMARK Flexibility Score: inf
ROOT
ATOM      1  C   UNL     1      10.916 -32.170  24.581  1.00  0.00     0.000 C 
ENDROOT
BRANCH   1   2
ATOM      2  C   UNL     1      10.635 -33.690  24.602  1.00  0.00     0.000 C 
BRANCH   2   3
ATOM      3  C   UNL     1      10.740 -34.336  25.998  1.00  0.00     0.000 C 
BRANCH   3   4
ATOM      4  C   UNL     1      10.692 -35.871  25.942  1.00  0.00     0.000 C 
BRANCH   4   5
ATOM      5  C   UNL     1      11.423 -36.442  24.715  1.00  0.00     0.000 C 
BRANCH   5   6
ATOM      6  C   UNL     1      12.808 -37.013  25.066  1.00  0.00     0.000 C 
BRANCH   6   7
ATOM      7  C   UNL     1      13.958 -36.209  24.442  1.00  0.00     0.000 C 
BRANCH   7   8
ATOM      8  C   UNL     1      14.351 -34.981  25.274  1.00  0.00     0.000 C 
BRANCH   8   9
ATOM      9  C   UNL     1      14.413 -33.732  24.382  1.00  0.00     0.000 C 
BRANCH   9  10
ATOM     10  C   UNL     1      13.495 -33.828  23.155  1.00  0.00     0.000 C 
BRANCH  10  11
ATOM     11  C   UNL     1      13.825 -32.777  22.084  1.00  0.00     0.000 C 
BRANCH  11  12
ATOM     12  C   UNL     1      15.308 -32.842  21.690  1.00  0.00     0.000 C 
BRANCH  12  13
ATOM     13  C   UNL     1      15.507 -33.111  20.189  1.00  0.00     0.006 C 
BRANCH  13  14
ATOM     14  C   UNL     1      16.670 -34.078  19.915  1.00  0.00     0.053 C 
BRANCH  14  15
ATOM     15  C   UNL     1      16.220 -35.342  19.236  1.00  0.00     0.041 C 
ATOM     16  O   UNL     1      16.279 -35.424  17.979  1.00  0.00    -0.550 OA
ATOM     17  O   UNL     1      15.752 -36.426  19.970  1.00  0.00    -0.550 OA
ENDBRANCH  14  15
ENDBRANCH  13  14
ENDBRANCH  12  13
ENDBRANCH  11  12
ENDBRANCH  10  11
ENDBRANCH   9  10
ENDBRANCH   8   9
ENDBRANCH   7   8
ENDBRANCH   6   7
ENDBRANCH   5   6
ENDBRANCH   4   5
ENDBRANCH   3   4
ENDBRANCH   2   3
ENDBRANCH   1   2
BRANCH   1  18
ATOM     18  C   UNL     1      10.099 -31.379  25.618  1.00  0.00     0.000 C 
BRANCH  18  19
ATOM     19  C   UNL     1       8.580 -31.497  25.394  1.00  0.00     0.000 C 
BRANCH  19  20
ATOM     20  C   UNL     1       7.867 -30.139  25.498  1.00  0.00     0.000 C 
BRANCH  20  21
ATOM     21  C   UNL     1       6.905 -29.909  24.315  1.00  0.00     0.000 C 
BRANCH  21  22
ATOM     22  C   UNL     1       6.432 -31.219  23.662  1.00  0.00     0.000 C 
BRANCH  22  23
ATOM     23  C   UNL     1       6.577 -31.258  22.128  1.00  0.00     0.000 C 
BRANCH  23  24
ATOM     24  C   UNL     1       7.532 -32.365  21.622  1.00  0.00    -0.000 C 
BRANCH  24  25
ATOM     25  C   UNL     1       8.792 -31.808  20.936  1.00  0.00    -0.000 C 
BRANCH  25  26
ATOM     26  C   UNL     1       8.826 -30.268  20.926  1.00  0.00    -0.000 C 
BRANCH  26  27
ATOM     27  C   UNL     1       9.796 -29.696  21.971  1.00  0.00    -0.000 C 
BRANCH  27  28
ATOM     28  C   UNL     1      11.267 -30.039  21.668  1.00  0.00    -0.000 C 
BRANCH  28  29
ATOM     29  C   UNL     1      12.248 -29.053  22.321  1.00  0.00    -0.000 C 
BRANCH  29  30
ATOM     30  C   UNL     1      13.100 -29.697  23.428  1.00  0.00    -0.000 C 
BRANCH  30  31
ATOM     31  C   UNL     1      14.075 -28.696  24.070  1.00  0.00    -0.003 C 
ATOM     32  C   UNL     1      13.930 -28.622  25.591  1.00  0.00     0.004 C 
ENDBRANCH  30  31
ENDBRANCH  29  30
ENDBRANCH  28  29
ENDBRANCH  27  28
ENDBRANCH  26  27
ENDBRANCH  25  26
ENDBRANCH  24  25
ENDBRANCH  23  24
ENDBRANCH  22  23
ENDBRANCH  21  22
ENDBRANCH  20  21
ENDBRANCH  19  20
ENDBRANCH  18  19
ENDBRANCH   1  18
TORSDOF 28
ENDMDL
MODEL 6
REMARK VINA RESULT:    -4.925      4.478      9.905
REMARK INTER + INTRA:         -16.725
REMARK INTER:                 -13.016
REMARK INTRA:                  -3.710
REMARK UNBOUND:                -3.740
REMARK SMILES CCCCCCCCCCCCCCCCCCCCCCCCCCCCCC(=O)[O-]
REMARK SMILES IDX 16 1 17 2 18 3 19 4 20 5 21 6 22 7 23 8 24 9 25 10 26 11
REMARK SMILES IDX 27 12 28 13 29 14 30 15 31 16 32 17 15 18 14 19 13 20 12 21
REMARK SMILES IDX 11 22 10 23 9 24 8 25 7 26 6 27 5 28 4 29 3 30 2 31 1 32
REMARK H PARENT
REMARK Flexibility Score: inf
ROOT
ATOM      1  C   UNL     1      10.671 -32.112  20.558  1.00  0.00     0.000 C 
ENDROOT
BRANCH   1   2
ATOM      2  C   UNL     1      10.952 -33.416  21.338  1.00  0.00     0.000 C 
BRANCH   2   3
ATOM      3  C   UNL     1      10.686 -33.320  22.853  1.00  0.00     0.000 C 
BRANCH   3   4
ATOM      4  C   UNL     1      11.473 -34.368  23.657  1.00  0.00     0.000 C 
BRANCH   4   5
ATOM      5  C   UNL     1      11.409 -34.121  25.174  1.00  0.00     0.000 C 
BRANCH   5   6
ATOM      6  C   UNL     1      12.803 -33.943  25.802  1.00  0.00     0.000 C 
BRANCH   6   7
ATOM      7  C   UNL     1      13.173 -32.467  26.018  1.00  0.00     0.000 C 
BRANCH   7   8
ATOM      8  C   UNL     1      11.994 -31.513  25.789  1.00  0.00     0.000 C 
BRANCH   8   9
ATOM      9  C   UNL     1      12.328 -30.513  24.672  1.00  0.00     0.000 C 
BRANCH   9  10
ATOM     10  C   UNL     1      13.717 -30.745  24.059  1.00  0.00     0.000 C 
BRANCH  10  11
ATOM     11  C   UNL     1      13.650 -31.395  22.669  1.00  0.00     0.000 C 
BRANCH  11  12
ATOM     12  C   UNL     1      14.449 -32.706  22.637  1.00  0.00     0.000 C 
BRANCH  12  13
ATOM     13  C   UNL     1      14.513 -33.322  21.230  1.00  0.00     0.006 C 
BRANCH  13  14
ATOM     14  C   UNL     1      15.911 -33.207  20.601  1.00  0.00     0.053 C 
BRANCH  14  15
ATOM     15  C   UNL     1      16.132 -34.207  19.501  1.00  0.00     0.041 C 
ATOM     16  O   UNL     1      16.441 -33.800  18.348  1.00  0.00    -0.550 OA
ATOM     17  O   UNL     1      16.015 -35.572  19.735  1.00  0.00    -0.550 OA
ENDBRANCH  14  15
ENDBRANCH  13  14
ENDBRANCH  12  13
ENDBRANCH  11  12
ENDBRANCH  10  11
ENDBRANCH   9  10
ENDBRANCH   8   9
ENDBRANCH   7   8
ENDBRANCH   6   7
ENDBRANCH   5   6
ENDBRANCH   4   5
ENDBRANCH   3   4
ENDBRANCH   2   3
ENDBRANCH   1   2
BRANCH   1  18
ATOM     18  C   UNL     1       9.198 -31.946  20.146  1.00  0.00     0.000 C 
BRANCH  18  19
ATOM     19  C   UNL     1       8.285 -31.583  21.332  1.00  0.00     0.000 C 
BRANCH  19  20
ATOM     20  C   UNL     1       7.910 -30.092  21.346  1.00  0.00     0.000 C 
BRANCH  20  21
ATOM     21  C   UNL     1       8.076 -29.477  22.751  1.00  0.00     0.000 C 
BRANCH  21  22
ATOM     22  C   UNL     1       9.138 -30.197  23.600  1.00  0.00     0.000 C 
BRANCH  22  23
ATOM     23  C   UNL     1       8.594 -30.855  24.884  1.00  0.00     0.000 C 
BRANCH  23  24
ATOM     24  C   UNL     1       7.073 -31.133  24.842  1.00  0.00    -0.000 C 
BRANCH  24  25
ATOM     25  C   UNL     1       6.291 -30.383  25.934  1.00  0.00    -0.000 C 
BRANCH  25  26
ATOM     26  C   UNL     1       5.688 -29.060  25.424  1.00  0.00    -0.000 C 
BRANCH  26  27
ATOM     27  C   UNL     1       4.185 -28.949  25.717  1.00  0.00    -0.000 C 
BRANCH  27  28
ATOM     28  C   UNL     1       3.316 -29.616  24.635  1.00  0.00    -0.000 C 
BRANCH  28  29
ATOM     29  C   UNL     1       1.928 -28.969  24.511  1.00  0.00    -0.000 C 
BRANCH  29  30
ATOM     30  C   UNL     1       1.536 -28.661  23.055  1.00  0.00    -0.000 C 
BRANCH  30  31
ATOM     31  C   UNL     1       0.249 -29.386  22.632  1.00  0.00    -0.003 C 
ATOM     32  C   UNL     1       0.241 -30.862  23.036  1.00  0.00     0.004 C 
ENDBRANCH  30  31
ENDBRANCH  29  30
ENDBRANCH  28  29
ENDBRANCH  27  28
ENDBRANCH  26  27
ENDBRANCH  25  26
ENDBRANCH  24  25
ENDBRANCH  23  24
ENDBRANCH  22  23
ENDBRANCH  21  22
ENDBRANCH  20  21
ENDBRANCH  19  20
ENDBRANCH  18  19
ENDBRANCH   1  18
TORSDOF 28
ENDMDL
MODEL 7
REMARK VINA RESULT:    -4.883      3.845      9.265
REMARK INTER + INTRA:         -16.616
REMARK INTER:                 -13.331
REMARK INTRA:                  -3.285
REMARK UNBOUND:                -3.740
REMARK SMILES CCCCCCCCCCCCCCCCCCCCCCCCCCCCCC(=O)[O-]
REMARK SMILES IDX 16 1 17 2 18 3 19 4 20 5 21 6 22 7 23 8 24 9 25 10 26 11
REMARK SMILES IDX 27 12 28 13 29 14 30 15 31 16 32 17 15 18 14 19 13 20 12 21
REMARK SMILES IDX 11 22 10 23 9 24 8 25 7 26 6 27 5 28 4 29 3 30 2 31 1 32
REMARK H PARENT
REMARK Flexibility Score: inf
ROOT
ATOM      1  C   UNL     1      10.646 -33.339  24.979  1.00  0.00     0.000 C 
ENDROOT
BRANCH   1   2
ATOM      2  C   UNL     1      10.318 -32.272  26.048  1.00  0.00     0.000 C 
BRANCH   2   3
ATOM      3  C   UNL     1       8.883 -31.714  25.969  1.00  0.00     0.000 C 
BRANCH   3   4
ATOM      4  C   UNL     1       8.845 -30.251  25.499  1.00  0.00     0.000 C 
BRANCH   4   5
ATOM      5  C   UNL     1       9.841 -29.969  24.360  1.00  0.00     0.000 C 
BRANCH   5   6
ATOM      6  C   UNL     1       9.167 -29.335  23.131  1.00  0.00     0.000 C 
BRANCH   6   7
ATOM      7  C   UNL     1      10.164 -29.013  22.007  1.00  0.00     0.000 C 
BRANCH   7   8
ATOM      8  C   UNL     1      11.444 -29.854  22.081  1.00  0.00     0.000 C 
BRANCH   8   9
ATOM      9  C   UNL     1      12.624 -28.990  22.549  1.00  0.00     0.000 C 
BRANCH   9  10
ATOM     10  C   UNL     1      13.418 -29.634  23.694  1.00  0.00     0.000 C 
BRANCH  10  11
ATOM     11  C   UNL     1      13.230 -31.157  23.763  1.00  0.00     0.000 C 
BRANCH  11  12
ATOM     12  C   UNL     1      14.207 -31.874  22.819  1.00  0.00     0.000 C 
BRANCH  12  13
ATOM     13  C   UNL     1      14.195 -33.400  23.008  1.00  0.00     0.006 C 
BRANCH  13  14
ATOM     14  C   UNL     1      14.136 -33.809  24.488  1.00  0.00     0.053 C 
BRANCH  14  15
ATOM     15  C   UNL     1      13.943 -35.288  24.670  1.00  0.00     0.041 C 
ATOM     16  O   UNL     1      14.933 -36.009  24.972  1.00  0.00    -0.550 OA
ATOM     17  O   UNL     1      12.691 -35.874  24.523  1.00  0.00    -0.550 OA
ENDBRANCH  14  15
ENDBRANCH  13  14
ENDBRANCH  12  13
ENDBRANCH  11  12
ENDBRANCH  10  11
ENDBRANCH   9  10
ENDBRANCH   8   9
ENDBRANCH   7   8
ENDBRANCH   6   7
ENDBRANCH   5   6
ENDBRANCH   4   5
ENDBRANCH   3   4
ENDBRANCH   2   3
ENDBRANCH   1   2
BRANCH   1  18
ATOM     18  C   UNL     1      10.279 -32.909  23.548  1.00  0.00     0.000 C 
BRANCH  18  19
ATOM     19  C   UNL     1      11.018 -33.727  22.473  1.00  0.00     0.000 C 
BRANCH  19  20
ATOM     20  C   UNL     1      10.384 -33.573  21.081  1.00  0.00     0.000 C 
BRANCH  20  21
ATOM     21  C   UNL     1       9.436 -32.358  21.018  1.00  0.00     0.000 C 
BRANCH  21  22
ATOM     22  C   UNL     1       7.956 -32.742  21.187  1.00  0.00     0.000 C 
BRANCH  22  23
ATOM     23  C   UNL     1       7.025 -31.565  21.539  1.00  0.00     0.000 C 
BRANCH  23  24
ATOM     24  C   UNL     1       6.590 -31.539  23.023  1.00  0.00    -0.000 C 
BRANCH  24  25
ATOM     25  C   UNL     1       5.513 -30.481  23.320  1.00  0.00    -0.000 C 
BRANCH  25  26
ATOM     26  C   UNL     1       5.764 -29.741  24.648  1.00  0.00    -0.000 C 
BRANCH  26  27
ATOM     27  C   UNL     1       4.501 -29.650  25.517  1.00  0.00    -0.000 C 
BRANCH  27  28
ATOM     28  C   UNL     1       3.711 -28.349  25.285  1.00  0.00    -0.000 C 
BRANCH  28  29
ATOM     29  C   UNL     1       2.248 -28.609  24.894  1.00  0.00    -0.000 C 
BRANCH  29  30
ATOM     30  C   UNL     1       2.087 -29.788  23.918  1.00  0.00    -0.000 C 
BRANCH  30  31
ATOM     31  C   UNL     1       0.674 -30.393  23.962  1.00  0.00    -0.003 C 
ATOM     32  C   UNL     1      -0.114 -30.146  22.674  1.00  0.00     0.004 C 
ENDBRANCH  30  31
ENDBRANCH  29  30
ENDBRANCH  28  29
ENDBRANCH  27  28
ENDBRANCH  26  27
ENDBRANCH  25  26
ENDBRANCH  24  25
ENDBRANCH  23  24
ENDBRANCH  22  23
ENDBRANCH  21  22
ENDBRANCH  20  21
ENDBRANCH  19  20
ENDBRANCH  18  19
ENDBRANCH   1  18
TORSDOF 28
ENDMDL
MODEL 8
REMARK VINA RESULT:    -4.854      2.268      8.265
REMARK INTER + INTRA:         -16.539
REMARK INTER:                 -13.670
REMARK INTRA:                  -2.869
REMARK UNBOUND:                -3.740
REMARK SMILES CCCCCCCCCCCCCCCCCCCCCCCCCCCCCC(=O)[O-]
REMARK SMILES IDX 16 1 17 2 18 3 19 4 20 5 21 6 22 7 23 8 24 9 25 10 26 11
REMARK SMILES IDX 27 12 28 13 29 14 30 15 31 16 32 17 15 18 14 19 13 20 12 21
REMARK SMILES IDX 11 22 10 23 9 24 8 25 7 26 6 27 5 28 4 29 3 30 2 31 1 32
REMARK H PARENT
REMARK Flexibility Score: inf
ROOT
ATOM      1  C   UNL     1      12.196 -35.697  24.006  1.00  0.00     0.000 C 
ENDROOT
BRANCH   1   2
ATOM      2  C   UNL     1      13.666 -35.740  24.480  1.00  0.00     0.000 C 
BRANCH   2   3
ATOM      3  C   UNL     1      14.446 -34.430  24.250  1.00  0.00     0.000 C 
BRANCH   3   4
ATOM      4  C   UNL     1      13.669 -33.427  23.381  1.00  0.00     0.000 C 
BRANCH   4   5
ATOM      5  C   UNL     1      13.976 -31.965  23.747  1.00  0.00     0.000 C 
BRANCH   5   6
ATOM      6  C   UNL     1      13.183 -31.485  24.976  1.00  0.00     0.000 C 
BRANCH   6   7
ATOM      7  C   UNL     1      12.541 -30.105  24.767  1.00  0.00     0.000 C 
BRANCH   7   8
ATOM      8  C   UNL     1      13.493 -29.092  24.119  1.00  0.00     0.000 C 
BRANCH   8   9
ATOM      9  C   UNL     1      13.034 -28.769  22.690  1.00  0.00     0.000 C 
BRANCH   9  10
ATOM     10  C   UNL     1      11.564 -29.133  22.439  1.00  0.00     0.000 C 
BRANCH  10  11
ATOM     11  C   UNL     1      11.391 -30.150  21.300  1.00  0.00     0.000 C 
BRANCH  11  12
ATOM     12  C   UNL     1      11.211 -31.570  21.855  1.00  0.00     0.000 C 
BRANCH  12  13
ATOM     13  C   UNL     1      10.742 -32.567  20.783  1.00  0.00     0.006 C 
BRANCH  13  14
ATOM     14  C   UNL     1       9.351 -33.146  21.086  1.00  0.00     0.053 C 
BRANCH  14  15
ATOM     15  C   UNL     1       8.270 -32.103  21.045  1.00  0.00     0.041 C 
ATOM     16  O   UNL     1       7.078 -32.437  21.281  1.00  0.00    -0.550 OA
ATOM     17  O   UNL     1       8.564 -30.773  20.761  1.00  0.00    -0.550 OA
ENDBRANCH  14  15
ENDBRANCH  13  14
ENDBRANCH  12  13
ENDBRANCH  11  12
ENDBRANCH  10  11
ENDBRANCH   9  10
ENDBRANCH   8   9
ENDBRANCH   7   8
ENDBRANCH   6   7
ENDBRANCH   5   6
ENDBRANCH   4   5
ENDBRANCH   3   4
ENDBRANCH   2   3
ENDBRANCH   1   2
BRANCH   1  18
ATOM     18  C   UNL     1      11.176 -35.767  25.157  1.00  0.00     0.000 C 
BRANCH  18  19
ATOM     19  C   UNL     1      11.254 -34.549  26.095  1.00  0.00     0.000 C 
BRANCH  19  20
ATOM     20  C   UNL     1       9.942 -33.748  26.125  1.00  0.00     0.000 C 
BRANCH  20  21
ATOM     21  C   UNL     1       9.972 -32.569  25.132  1.00  0.00     0.000 C 
BRANCH  21  22
ATOM     22  C   UNL     1       9.236 -31.324  25.656  1.00  0.00     0.000 C 
BRANCH  22  23
ATOM     23  C   UNL     1       8.474 -30.529  24.576  1.00  0.00     0.000 C 
BRANCH  23  24
ATOM     24  C   UNL     1       7.096 -31.132  24.217  1.00  0.00    -0.000 C 
BRANCH  24  25
ATOM     25  C   UNL     1       6.092 -30.085  23.705  1.00  0.00    -0.000 C 
BRANCH  25  26
ATOM     26  C   UNL     1       5.433 -29.291  24.850  1.00  0.00    -0.000 C 
BRANCH  26  27
ATOM     27  C   UNL     1       3.985 -29.729  25.110  1.00  0.00    -0.000 C 
BRANCH  27  28
ATOM     28  C   UNL     1       3.057 -28.548  25.450  1.00  0.00    -0.000 C 
BRANCH  28  29
ATOM     29  C   UNL     1       2.115 -28.186  24.291  1.00  0.00    -0.000 C 
BRANCH  29  30
ATOM     30  C   UNL     1       1.915 -29.342  23.296  1.00  0.00    -0.000 C 
BRANCH  30  31
ATOM     31  C   UNL     1       0.752 -30.264  23.698  1.00  0.00    -0.003 C 
ATOM     32  C   UNL     1      -0.060 -29.712  24.871  1.00  0.00     0.004 C 
ENDBRANCH  30  31
ENDBRANCH  29  30
ENDBRANCH  28  29
ENDBRANCH  27  28
ENDBRANCH  26  27
ENDBRANCH  25  26
ENDBRANCH  24  25
ENDBRANCH  23  24
ENDBRANCH  22  23
ENDBRANCH  21  22
ENDBRANCH  20  21
ENDBRANCH  19  20
ENDBRANCH  18  19
ENDBRANCH   1  18
TORSDOF 28
ENDMDL
MODEL 9
REMARK VINA RESULT:    -4.799      4.461      9.651
REMARK INTER + INTRA:         -16.394
REMARK INTER:                 -12.572
REMARK INTRA:                  -3.822
REMARK UNBOUND:                -3.740
REMARK SMILES CCCCCCCCCCCCCCCCCCCCCCCCCCCCCC(=O)[O-]
REMARK SMILES IDX 16 1 17 2 18 3 19 4 20 5 21 6 22 7 23 8 24 9 25 10 26 11
REMARK SMILES IDX 27 12 28 13 29 14 30 15 31 16 32 17 15 18 14 19 13 20 12 21
REMARK SMILES IDX 11 22 10 23 9 24 8 25 7 26 6 27 5 28 4 29 3 30 2 31 1 32
REMARK H PARENT
REMARK Flexibility Score: inf
ROOT
ATOM      1  C   UNL     1       9.620 -29.408  22.003  1.00  0.00     0.000 C 
ENDROOT
BRANCH   1   2
ATOM      2  C   UNL     1       8.870 -30.231  20.932  1.00  0.00     0.000 C 
BRANCH   2   3
ATOM      3  C   UNL     1       8.103 -31.448  21.488  1.00  0.00     0.000 C 
BRANCH   3   4
ATOM      4  C   UNL     1       8.613 -32.779  20.913  1.00  0.00     0.000 C 
BRANCH   4   5
ATOM      5  C   UNL     1      10.140 -32.796  20.725  1.00  0.00     0.000 C 
BRANCH   5   6
ATOM      6  C   UNL     1      10.898 -32.848  22.063  1.00  0.00     0.000 C 
BRANCH   6   7
ATOM      7  C   UNL     1      11.134 -34.284  22.556  1.00  0.00     0.000 C 
BRANCH   7   8
ATOM      8  C   UNL     1      11.426 -34.361  24.060  1.00  0.00     0.000 C 
BRANCH   8   9
ATOM      9  C   UNL     1      12.618 -35.291  24.325  1.00  0.00     0.000 C 
BRANCH   9  10
ATOM     10  C   UNL     1      13.884 -34.871  23.562  1.00  0.00     0.000 C 
BRANCH  10  11
ATOM     11  C   UNL     1      14.352 -33.454  23.928  1.00  0.00     0.000 C 
BRANCH  11  12
ATOM     12  C   UNL     1      14.396 -32.552  22.686  1.00  0.00     0.000 C 
BRANCH  12  13
ATOM     13  C   UNL     1      14.511 -33.355  21.380  1.00  0.00     0.006 C 
BRANCH  13  14
ATOM     14  C   UNL     1      15.930 -33.318  20.790  1.00  0.00     0.053 C 
BRANCH  14  15
ATOM     15  C   UNL     1      16.091 -34.247  19.619  1.00  0.00     0.041 C 
ATOM     16  O   UNL     1      16.368 -33.771  18.485  1.00  0.00    -0.550 OA
ATOM     17  O   UNL     1      15.953 -35.623  19.767  1.00  0.00    -0.550 OA
ENDBRANCH  14  15
ENDBRANCH  13  14
ENDBRANCH  12  13
ENDBRANCH  11  12
ENDBRANCH  10  11
ENDBRANCH   9  10
ENDBRANCH   8   9
ENDBRANCH   7   8
ENDBRANCH   6   7
ENDBRANCH   5   6
ENDBRANCH   4   5
ENDBRANCH   3   4
ENDBRANCH   2   3
ENDBRANCH   1   2
BRANCH   1  18
ATOM     18  C   UNL     1      11.105 -29.176  21.673  1.00  0.00     0.000 C 
BRANCH  18  19
ATOM     19  C   UNL     1      12.049 -29.745  22.749  1.00  0.00     0.000 C 
BRANCH  19  20
ATOM     20  C   UNL     1      11.371 -29.852  24.125  1.00  0.00     0.000 C 
BRANCH  20  21
ATOM     21  C   UNL     1      11.831 -31.109  24.890  1.00  0.00     0.000 C 
BRANCH  21  22
ATOM     22  C   UNL     1      10.848 -31.534  25.995  1.00  0.00     0.000 C 
BRANCH  22  23
ATOM     23  C   UNL     1       9.451 -30.890  25.891  1.00  0.00     0.000 C 
BRANCH  23  24
ATOM     24  C   UNL     1       8.504 -31.616  24.906  1.00  0.00    -0.000 C 
BRANCH  24  25
ATOM     25  C   UNL     1       7.016 -31.366  25.203  1.00  0.00    -0.000 C 
BRANCH  25  26
ATOM     26  C   UNL     1       6.450 -30.170  24.414  1.00  0.00    -0.000 C 
BRANCH  26  27
ATOM     27  C   UNL     1       5.105 -29.682  24.972  1.00  0.00    -0.000 C 
BRANCH  27  28
ATOM     28  C   UNL     1       3.997 -29.638  23.903  1.00  0.00    -0.000 C 
BRANCH  28  29
ATOM     29  C   UNL     1       2.737 -28.906  24.390  1.00  0.00    -0.000 C 
BRANCH  29  30
ATOM     30  C   UNL     1       1.795 -28.502  23.243  1.00  0.00    -0.000 C 
BRANCH  30  31
ATOM     31  C   UNL     1       0.431 -29.206  23.333  1.00  0.00    -0.003 C 
ATOM     32  C   UNL     1       0.533 -30.719  23.130  1.00  0.00     0.004 C 
ENDBRANCH  30  31
ENDBRANCH  29  30
ENDBRANCH  28  29
ENDBRANCH  27  28
ENDBRANCH  26  27
ENDBRANCH  25  26
ENDBRANCH  24  25
ENDBRANCH  23  24
ENDBRANCH  22  23
ENDBRANCH  21  22
ENDBRANCH  20  21
ENDBRANCH  19  20
ENDBRANCH  18  19
ENDBRANCH   1  18
TORSDOF 28
ENDMDL
