MODEL 1
REMARK VINA RESULT:    -5.164      0.000      0.000
REMARK INTER + INTRA:          -5.466
REMARK INTER:                  -5.466
REMARK INTRA:                   0.000
REMARK UNBOUND:                 0.000
REMARK SMILES O=c1ccc2cc(O)c(O)cc2o1
REMARK SMILES IDX 4 1 3 2 2 3 1 4 13 5 12 6 11 7 9 8 7 9 6 10 5 11 8 12 10 14
REMARK H PARENT 8 13 10 15
REMARK Flexibility Score: inf
ROOT
ATOM      1  C   UNL     1      10.148  -7.359  -9.567  1.00  0.00     0.019 A 
ATOM      2  C   UNL     1       9.370  -8.058 -10.489  1.00  0.00     0.094 A 
ATOM      3  C   UNL     1       7.986  -8.122 -10.296  1.00  0.00     0.336 A 
ATOM      4  O   UNL     1       7.265  -8.747 -11.117  1.00  0.00    -0.246 OA
ATOM      5  O   UNL     1       7.423  -7.524  -9.249  1.00  0.00    -0.423 OA
ATOM      6  C   UNL     1       8.130  -6.848  -8.346  1.00  0.00     0.142 A 
ATOM      7  C   UNL     1       7.484  -6.240  -7.266  1.00  0.00     0.098 A 
ATOM      8  C   UNL     1       8.223  -5.525  -6.311  1.00  0.00     0.161 A 
ATOM      9  C   UNL     1       9.620  -5.419  -6.441  1.00  0.00     0.158 A 
ATOM     10  C   UNL     1      10.269  -6.027  -7.522  1.00  0.00     0.062 A 
ATOM     11  C   UNL     1       9.531  -6.741  -8.476  1.00  0.00     0.022 A 
ENDROOT
BRANCH   9  12
ATOM     12  O   UNL     1      10.379  -4.716  -5.507  1.00  0.00    -0.504 OA
ATOM     13  H   UNL     1       9.952  -4.156  -4.777  1.00  0.00     0.293 HD
ENDBRANCH   9  12
BRANCH   8  14
ATOM     14  O   UNL     1       7.576  -4.920  -5.235  1.00  0.00    -0.504 OA
ATOM     15  H   UNL     1       6.922  -4.157  -5.370  1.00  0.00     0.293 HD
ENDBRANCH   8  14
TORSDOF 2
ENDMDL
MODEL 2
REMARK VINA RESULT:    -5.114      1.841      2.547
REMARK INTER + INTRA:          -5.413
REMARK INTER:                  -5.413
REMARK INTRA:                   0.000
REMARK UNBOUND:                 0.000
REMARK SMILES O=c1ccc2cc(O)c(O)cc2o1
REMARK SMILES IDX 4 1 3 2 2 3 1 4 13 5 12 6 11 7 9 8 7 9 6 10 5 11 8 12 10 14
REMARK H PARENT 8 13 10 15
REMARK Flexibility Score: inf
ROOT
ATOM      1  C   UNL     1       8.009  -8.448  -8.352  1.00  0.00     0.019 A 
ATOM      2  C   UNL     1       8.387  -7.946  -9.596  1.00  0.00     0.094 A 
ATOM      3  C   UNL     1       8.747  -6.598  -9.702  1.00  0.00     0.336 A 
ATOM      4  O   UNL     1       9.092  -6.125 -10.816  1.00  0.00    -0.246 OA
ATOM      5  O   UNL     1       8.728  -5.809  -8.629  1.00  0.00    -0.423 OA
ATOM      6  C   UNL     1       8.373  -6.250  -7.424  1.00  0.00     0.142 A 
ATOM      7  C   UNL     1       8.373  -5.376  -6.334  1.00  0.00     0.098 A 
ATOM      8  C   UNL     1       8.001  -5.833  -5.060  1.00  0.00     0.161 A 
ATOM      9  C   UNL     1       7.626  -7.177  -4.880  1.00  0.00     0.158 A 
ATOM     10  C   UNL     1       7.626  -8.055  -5.971  1.00  0.00     0.062 A 
ATOM     11  C   UNL     1       7.998  -7.598  -7.242  1.00  0.00     0.022 A 
ENDROOT
BRANCH   9  12
ATOM     12  O   UNL     1       7.252  -7.658  -3.626  1.00  0.00    -0.504 OA
ATOM     13  H   UNL     1       6.350  -8.090  -3.462  1.00  0.00     0.293 HD
ENDBRANCH   9  12
BRANCH   8  14
ATOM     14  O   UNL     1       8.001  -4.958  -3.975  1.00  0.00    -0.504 OA
ATOM     15  H   UNL     1       8.067  -5.296  -3.021  1.00  0.00     0.293 HD
ENDBRANCH   8  14
TORSDOF 2
ENDMDL
MODEL 3
REMARK VINA RESULT:    -5.105      1.625      2.056
REMARK INTER + INTRA:          -5.403
REMARK INTER:                  -5.403
REMARK INTRA:                   0.000
REMARK UNBOUND:                 0.000
REMARK SMILES O=c1ccc2cc(O)c(O)cc2o1
REMARK SMILES IDX 4 1 3 2 2 3 1 4 13 5 12 6 11 7 9 8 7 9 6 10 5 11 8 12 10 14
REMARK H PARENT 8 13 10 15
REMARK Flexibility Score: inf
ROOT
ATOM      1  C   UNL     1       8.746  -5.787  -8.696  1.00  0.00     0.019 A 
ATOM      2  C   UNL     1       8.729  -6.688  -9.760  1.00  0.00     0.094 A 
ATOM      3  C   UNL     1       8.342  -8.011  -9.522  1.00  0.00     0.336 A 
ATOM      4  O   UNL     1       8.319  -8.840 -10.469  1.00  0.00    -0.246 OA
ATOM      5  O   UNL     1       7.996  -8.402  -8.297  1.00  0.00    -0.423 OA
ATOM      6  C   UNL     1       7.999  -7.573  -7.254  1.00  0.00     0.142 A 
ATOM      7  C   UNL     1       7.626  -8.040  -5.991  1.00  0.00     0.098 A 
ATOM      8  C   UNL     1       7.626  -7.173  -4.888  1.00  0.00     0.161 A 
ATOM      9  C   UNL     1       8.005  -5.828  -5.054  1.00  0.00     0.158 A 
ATOM     10  C   UNL     1       8.379  -5.358  -6.318  1.00  0.00     0.062 A 
ATOM     11  C   UNL     1       8.379  -6.224  -7.420  1.00  0.00     0.022 A 
ENDROOT
BRANCH   9  12
ATOM     12  O   UNL     1       8.015  -4.945  -3.975  1.00  0.00    -0.504 OA
ATOM     13  H   UNL     1       7.162  -4.563  -3.583  1.00  0.00     0.293 HD
ENDBRANCH   9  12
BRANCH   8  14
ATOM     14  O   UNL     1       7.253  -7.642  -3.629  1.00  0.00    -0.504 OA
ATOM     15  H   UNL     1       6.352  -8.078  -3.472  1.00  0.00     0.293 HD
ENDBRANCH   8  14
TORSDOF 2
ENDMDL
MODEL 4
REMARK VINA RESULT:    -4.993      2.142      3.057
REMARK INTER + INTRA:          -5.285
REMARK INTER:                  -5.285
REMARK INTRA:                   0.000
REMARK UNBOUND:                 0.000
REMARK SMILES O=c1ccc2cc(O)c(O)cc2o1
REMARK SMILES IDX 4 1 3 2 2 3 1 4 13 5 12 6 11 7 9 8 7 9 6 10 5 11 8 12 10 14
REMARK H PARENT 8 13 10 15
REMARK Flexibility Score: inf
ROOT
ATOM      1  C   UNL     1       8.159  -6.937 -11.688  1.00  0.00     0.019 A 
ATOM      2  C   UNL     1       8.897  -7.678 -12.610  1.00  0.00     0.094 A 
ATOM      3  C   UNL     1      10.215  -8.027 -12.299  1.00  0.00     0.336 A 
ATOM      4  O   UNL     1      10.899  -8.696 -13.117  1.00  0.00    -0.246 OA
ATOM      5  O   UNL     1      10.755  -7.657 -11.139  1.00  0.00    -0.423 OA
ATOM      6  C   UNL     1      10.085  -6.949 -10.232  1.00  0.00     0.142 A 
ATOM      7  C   UNL     1      10.703  -6.588  -9.032  1.00  0.00     0.098 A 
ATOM      8  C   UNL     1      10.003  -5.843  -8.071  1.00  0.00     0.161 A 
ATOM      9  C   UNL     1       8.672  -5.457  -8.317  1.00  0.00     0.158 A 
ATOM     10  C   UNL     1       8.051  -5.817  -9.519  1.00  0.00     0.062 A 
ATOM     11  C   UNL     1       8.750  -6.561 -10.478  1.00  0.00     0.022 A 
ENDROOT
BRANCH   9  12
ATOM     12  O   UNL     1       7.953  -4.715  -7.380  1.00  0.00    -0.504 OA
ATOM     13  H   UNL     1       8.053  -3.710  -7.297  1.00  0.00     0.293 HD
ENDBRANCH   9  12
BRANCH   8  14
ATOM     14  O   UNL     1      10.623  -5.485  -6.875  1.00  0.00    -0.504 OA
ATOM     15  H   UNL     1      10.139  -5.553  -5.986  1.00  0.00     0.293 HD
ENDBRANCH   8  14
TORSDOF 2
ENDMDL
MODEL 5
REMARK VINA RESULT:    -4.982     21.578     22.470
REMARK INTER + INTRA:          -5.273
REMARK INTER:                  -5.273
REMARK INTRA:                   0.000
REMARK UNBOUND:                 0.000
REMARK SMILES O=c1ccc2cc(O)c(O)cc2o1
REMARK SMILES IDX 4 1 3 2 2 3 1 4 13 5 12 6 11 7 9 8 7 9 6 10 5 11 8 12 10 14
REMARK H PARENT 8 13 10 15
REMARK Flexibility Score: inf
ROOT
ATOM      1  C   UNL     1      18.147   7.389 -22.839  1.00  0.00     0.019 A 
ATOM      2  C   UNL     1      17.216   8.095 -22.078  1.00  0.00     0.094 A 
ATOM      3  C   UNL     1      17.531   8.420 -20.754  1.00  0.00     0.336 A 
ATOM      4  O   UNL     1      16.705   9.058 -20.050  1.00  0.00    -0.246 OA
ATOM      5  O   UNL     1      18.701   8.060 -20.231  1.00  0.00    -0.423 OA
ATOM      6  C   UNL     1      19.616   7.385 -20.924  1.00  0.00     0.142 A 
ATOM      7  C   UNL     1      20.828   7.034 -20.322  1.00  0.00     0.098 A 
ATOM      8  C   UNL     1      21.797   6.323 -21.045  1.00  0.00     0.161 A 
ATOM      9  C   UNL     1      21.549   5.962 -22.383  1.00  0.00     0.158 A 
ATOM     10  C   UNL     1      20.336   6.313 -22.987  1.00  0.00     0.062 A 
ATOM     11  C   UNL     1      19.368   7.022 -22.265  1.00  0.00     0.022 A 
ENDROOT
BRANCH   9  12
ATOM     12  O   UNL     1      22.494   5.255 -23.124  1.00  0.00    -0.504 OA
ATOM     13  H   UNL     1      23.096   4.556 -22.704  1.00  0.00     0.293 HD
ENDBRANCH   9  12
BRANCH   8  14
ATOM     14  O   UNL     1      23.004   5.974 -20.442  1.00  0.00    -0.504 OA
ATOM     15  H   UNL     1      23.507   6.624 -19.847  1.00  0.00     0.293 HD
ENDBRANCH   8  14
TORSDOF 2
ENDMDL
MODEL 6
REMARK VINA RESULT:    -4.970     21.738     22.591
REMARK INTER + INTRA:          -5.260
REMARK INTER:                  -5.260
REMARK INTRA:                   0.000
REMARK UNBOUND:                 0.000
REMARK SMILES O=c1ccc2cc(O)c(O)cc2o1
REMARK SMILES IDX 4 1 3 2 2 3 1 4 13 5 12 6 11 7 9 8 7 9 6 10 5 11 8 12 10 14
REMARK H PARENT 8 13 10 15
REMARK Flexibility Score: inf
ROOT
ATOM      1  C   UNL     1      21.597   7.250 -20.563  1.00  0.00     0.019 A 
ATOM      2  C   UNL     1      22.665   6.577 -21.156  1.00  0.00     0.094 A 
ATOM      3  C   UNL     1      22.453   5.895 -22.359  1.00  0.00     0.336 A 
ATOM      4  O   UNL     1      23.404   5.283 -22.910  1.00  0.00    -0.246 OA
ATOM      5  O   UNL     1      21.250   5.890 -22.927  1.00  0.00    -0.423 OA
ATOM      6  C   UNL     1      20.204   6.519 -22.394  1.00  0.00     0.142 A 
ATOM      7  C   UNL     1      18.963   6.478 -23.037  1.00  0.00     0.098 A 
ATOM      8  C   UNL     1      17.857   7.139 -22.481  1.00  0.00     0.161 A 
ATOM      9  C   UNL     1      17.997   7.845 -21.272  1.00  0.00     0.158 A 
ATOM     10  C   UNL     1      19.239   7.887 -20.627  1.00  0.00     0.062 A 
ATOM     11  C   UNL     1      20.343   7.227 -21.182  1.00  0.00     0.022 A 
ENDROOT
BRANCH   9  12
ATOM     12  O   UNL     1      16.914   8.510 -20.698  1.00  0.00    -0.504 OA
ATOM     13  H   UNL     1      16.646   9.446 -20.979  1.00  0.00     0.293 HD
ENDBRANCH   9  12
BRANCH   8  14
ATOM     14  O   UNL     1      16.621   7.097 -23.124  1.00  0.00    -0.504 OA
ATOM     15  H   UNL     1      15.803   7.547 -22.730  1.00  0.00     0.293 HD
ENDBRANCH   8  14
TORSDOF 2
ENDMDL
MODEL 7
REMARK VINA RESULT:    -4.930      1.956      2.442
REMARK INTER + INTRA:          -5.219
REMARK INTER:                  -5.219
REMARK INTRA:                   0.000
REMARK UNBOUND:                 0.000
REMARK SMILES O=c1ccc2cc(O)c(O)cc2o1
REMARK SMILES IDX 4 1 3 2 2 3 1 4 13 5 12 6 11 7 9 8 7 9 6 10 5 11 8 12 10 14
REMARK H PARENT 8 13 10 15
REMARK Flexibility Score: inf
ROOT
ATOM      1  C   UNL     1      10.888  -7.184  -8.359  1.00  0.00     0.019 A 
ATOM      2  C   UNL     1      11.398  -7.478  -9.623  1.00  0.00     0.094 A 
ATOM      3  C   UNL     1      10.679  -7.078 -10.754  1.00  0.00     0.336 A 
ATOM      4  O   UNL     1      11.122  -7.333 -11.904  1.00  0.00    -0.246 OA
ATOM      5  O   UNL     1       9.526  -6.425 -10.624  1.00  0.00    -0.423 OA
ATOM      6  C   UNL     1       9.004  -6.125  -9.436  1.00  0.00     0.142 A 
ATOM      7  C   UNL     1       7.790  -5.438  -9.361  1.00  0.00     0.098 A 
ATOM      8  C   UNL     1       7.234  -5.118  -8.113  1.00  0.00     0.161 A 
ATOM      9  C   UNL     1       7.903  -5.490  -6.931  1.00  0.00     0.158 A 
ATOM     10  C   UNL     1       9.120  -6.178  -7.005  1.00  0.00     0.062 A 
ATOM     11  C   UNL     1       9.674  -6.498  -8.251  1.00  0.00     0.022 A 
ENDROOT
BRANCH   9  12
ATOM     12  O   UNL     1       7.374  -5.185  -5.678  1.00  0.00    -0.504 OA
ATOM     13  H   UNL     1       6.377  -5.082  -5.525  1.00  0.00     0.293 HD
ENDBRANCH   9  12
BRANCH   8  14
ATOM     14  O   UNL     1       6.023  -4.433  -8.041  1.00  0.00    -0.504 OA
ATOM     15  H   UNL     1       5.299  -4.561  -8.739  1.00  0.00     0.293 HD
ENDBRANCH   8  14
TORSDOF 2
ENDMDL
MODEL 8
REMARK VINA RESULT:    -4.914     21.536     22.516
REMARK INTER + INTRA:          -5.202
REMARK INTER:                  -5.202
REMARK INTRA:                   0.000
REMARK UNBOUND:                 0.000
REMARK SMILES O=c1ccc2cc(O)c(O)cc2o1
REMARK SMILES IDX 4 1 3 2 2 3 1 4 13 5 12 6 11 7 9 8 7 9 6 10 5 11 8 12 10 14
REMARK H PARENT 8 13 10 15
REMARK Flexibility Score: inf
ROOT
ATOM      1  C   UNL     1      21.313   5.829 -23.011  1.00  0.00     0.019 A 
ATOM      2  C   UNL     1      22.533   5.859 -22.336  1.00  0.00     0.094 A 
ATOM      3  C   UNL     1      22.605   6.500 -21.094  1.00  0.00     0.336 A 
ATOM      4  O   UNL     1      23.696   6.537 -20.468  1.00  0.00    -0.246 OA
ATOM      5  O   UNL     1      21.524   7.071 -20.567  1.00  0.00    -0.423 OA
ATOM      6  C   UNL     1      20.341   7.065 -21.179  1.00  0.00     0.142 A 
ATOM      7  C   UNL     1      19.241   7.682 -20.578  1.00  0.00     0.098 A 
ATOM      8  C   UNL     1      17.992   7.679 -21.216  1.00  0.00     0.161 A 
ATOM      9  C   UNL     1      17.846   7.052 -22.468  1.00  0.00     0.158 A 
ATOM     10  C   UNL     1      18.947   6.435 -23.073  1.00  0.00     0.062 A 
ATOM     11  C   UNL     1      20.194   6.438 -22.435  1.00  0.00     0.022 A 
ENDROOT
BRANCH   9  12
ATOM     12  O   UNL     1      16.616   7.035 -23.125  1.00  0.00    -0.504 OA
ATOM     13  H   UNL     1      16.545   7.022 -24.136  1.00  0.00     0.293 HD
ENDBRANCH   9  12
BRANCH   8  14
ATOM     14  O   UNL     1      16.896   8.294 -20.613  1.00  0.00    -0.504 OA
ATOM     15  H   UNL     1      15.955   7.935 -20.730  1.00  0.00     0.293 HD
ENDBRANCH   8  14
TORSDOF 2
ENDMDL
MODEL 9
REMARK VINA RESULT:    -4.836     21.948     22.843
REMARK INTER + INTRA:          -5.118
REMARK INTER:                  -5.118
REMARK INTRA:                   0.000
REMARK UNBOUND:                 0.000
REMARK SMILES O=c1ccc2cc(O)c(O)cc2o1
REMARK SMILES IDX 4 1 3 2 2 3 1 4 13 5 12 6 11 7 9 8 7 9 6 10 5 11 8 12 10 14
REMARK H PARENT 8 13 10 15
REMARK Flexibility Score: inf
ROOT
ATOM      1  C   UNL     1      19.465   7.685 -20.598  1.00  0.00     0.019 A 
ATOM      2  C   UNL     1      18.236   7.739 -21.255  1.00  0.00     0.094 A 
ATOM      3  C   UNL     1      18.112   7.137 -22.512  1.00  0.00     0.336 A 
ATOM      4  O   UNL     1      17.012   7.174 -23.121  1.00  0.00    -0.246 OA
ATOM      5  O   UNL     1      19.152   6.521 -23.069  1.00  0.00    -0.423 OA
ATOM      6  C   UNL     1      20.342   6.447 -22.476  1.00  0.00     0.142 A 
ATOM      7  C   UNL     1      21.398   5.787 -23.110  1.00  0.00     0.098 A 
ATOM      8  C   UNL     1      22.655   5.704 -22.490  1.00  0.00     0.161 A 
ATOM      9  C   UNL     1      22.852   6.289 -21.225  1.00  0.00     0.158 A 
ATOM     10  C   UNL     1      21.795   6.950 -20.589  1.00  0.00     0.062 A 
ATOM     11  C   UNL     1      20.541   7.033 -21.207  1.00  0.00     0.022 A 
ENDROOT
BRANCH   9  12
ATOM     12  O   UNL     1      24.090   6.222 -20.587  1.00  0.00    -0.504 OA
ATOM     13  H   UNL     1      24.341   5.453 -19.977  1.00  0.00     0.293 HD
ENDBRANCH   9  12
BRANCH   8  14
ATOM     14  O   UNL     1      23.706   5.046 -23.125  1.00  0.00    -0.504 OA
ATOM     15  H   UNL     1      23.623   4.709 -24.078  1.00  0.00     0.293 HD
ENDBRANCH   8  14
TORSDOF 2
ENDMDL
