MODEL 1
REMARK VINA RESULT:    -2.623      0.000      0.000
REMARK INTER + INTRA:          -6.469
REMARK INTER:                  -4.464
REMARK INTRA:                  -2.005
REMARK UNBOUND:                -2.005
REMARK SMILES CCCCCCCCCCCCCC(=O)[O-]
REMARK SMILES IDX 8 1 9 2 10 3 11 4 12 5 13 6 14 7 15 8 16 9 7 10 6 11 5 12
REMARK SMILES IDX 4 13 3 14 2 15 1 16
REMARK H PARENT
REMARK Flexibility Score: inf
ROOT
ATOM      1  C   UNL     1      49.552  37.758 134.320  1.00  0.00     0.000 C 
ENDROOT
BRANCH   1   2
ATOM      2  C   UNL     1      49.692  39.191 134.857  1.00  0.00     0.000 C 
BRANCH   2   3
ATOM      3  C   UNL     1      49.076  39.365 136.253  1.00  0.00     0.000 C 
BRANCH   3   4
ATOM      4  C   UNL     1      48.469  38.048 136.752  1.00  0.00     0.000 C 
BRANCH   4   5
ATOM      5  C   UNL     1      49.155  37.581 138.046  1.00  0.00     0.006 C 
BRANCH   5   6
ATOM      6  C   UNL     1      50.154  36.445 137.795  1.00  0.00     0.053 C 
BRANCH   6   7
ATOM      7  C   UNL     1      51.565  36.946 137.749  1.00  0.00     0.041 C 
ATOM      8  O   UNL     1      52.216  37.111 138.815  1.00  0.00    -0.550 OA
ATOM      9  O   UNL     1      52.174  37.200 136.525  1.00  0.00    -0.550 OA
ENDBRANCH   6   7
ENDBRANCH   5   6
ENDBRANCH   4   5
ENDBRANCH   3   4
ENDBRANCH   2   3
ENDBRANCH   1   2
BRANCH   1  10
ATOM     10  C   UNL     1      48.633  37.675 133.087  1.00  0.00     0.000 C 
BRANCH  10  11
ATOM     11  C   UNL     1      47.539  36.606 133.240  1.00  0.00    -0.000 C 
BRANCH  11  12
ATOM     12  C   UNL     1      46.237  37.174 133.828  1.00  0.00    -0.000 C 
BRANCH  12  13
ATOM     13  C   UNL     1      46.052  38.674 133.534  1.00  0.00    -0.000 C 
BRANCH  13  14
ATOM     14  C   UNL     1      45.289  39.462 134.614  1.00  0.00    -0.000 C 
BRANCH  14  15
ATOM     15  C   UNL     1      45.981  40.779 134.996  1.00  0.00    -0.003 C 
ATOM     16  C   UNL     1      46.857  41.290 133.856  1.00  0.00     0.004 C 
ENDBRANCH  14  15
ENDBRANCH  13  14
ENDBRANCH  12  13
ENDBRANCH  11  12
ENDBRANCH  10  11
ENDBRANCH   1  10
TORSDOF 12
ENDMDL
MODEL 2
REMARK VINA RESULT:    -2.557      3.897      6.773
REMARK INTER + INTRA:          -6.356
REMARK INTER:                  -5.297
REMARK INTRA:                  -1.059
REMARK UNBOUND:                -2.005
REMARK SMILES CCCCCCCCCCCCCC(=O)[O-]
REMARK SMILES IDX 8 1 9 2 10 3 11 4 12 5 13 6 14 7 15 8 16 9 7 10 6 11 5 12
REMARK SMILES IDX 4 13 3 14 2 15 1 16
REMARK H PARENT
REMARK Flexibility Score: inf
ROOT
ATOM      1  C   UNL     1      48.866  37.329 135.905  1.00  0.00     0.000 C 
ENDROOT
BRANCH   1   2
ATOM      2  C   UNL     1      47.670  37.744 135.032  1.00  0.00     0.000 C 
BRANCH   2   3
ATOM      3  C   UNL     1      46.877  38.916 135.629  1.00  0.00     0.000 C 
BRANCH   3   4
ATOM      4  C   UNL     1      45.695  39.294 134.726  1.00  0.00     0.000 C 
BRANCH   4   5
ATOM      5  C   UNL     1      45.097  38.049 134.053  1.00  0.00     0.006 C 
BRANCH   5   6
ATOM      6  C   UNL     1      43.598  38.208 133.768  1.00  0.00     0.053 C 
BRANCH   6   7
ATOM      7  C   UNL     1      42.779  37.216 134.536  1.00  0.00     0.041 C 
ATOM      8  O   UNL     1      41.739  37.584 135.143  1.00  0.00    -0.550 OA
ATOM      9  O   UNL     1      43.147  35.875 134.554  1.00  0.00    -0.550 OA
ENDBRANCH   6   7
ENDBRANCH   5   6
ENDBRANCH   4   5
ENDBRANCH   3   4
ENDBRANCH   2   3
ENDBRANCH   1   2
BRANCH   1  10
ATOM     10  C   UNL     1      48.846  37.998 137.291  1.00  0.00     0.000 C 
BRANCH  10  11
ATOM     11  C   UNL     1      49.463  37.107 138.382  1.00  0.00    -0.000 C 
BRANCH  11  12
ATOM     12  C   UNL     1      50.631  36.256 137.858  1.00  0.00    -0.000 C 
BRANCH  12  13
ATOM     13  C   UNL     1      52.006  36.892 138.133  1.00  0.00    -0.000 C 
BRANCH  13  14
ATOM     14  C   UNL     1      53.034  36.742 136.996  1.00  0.00    -0.000 C 
BRANCH  14  15
ATOM     15  C   UNL     1      52.564  37.372 135.676  1.00  0.00    -0.003 C 
ATOM     16  C   UNL     1      52.339  38.872 135.832  1.00  0.00     0.004 C 
ENDBRANCH  14  15
ENDBRANCH  13  14
ENDBRANCH  12  13
ENDBRANCH  11  12
ENDBRANCH  10  11
ENDBRANCH   1  10
TORSDOF 12
ENDMDL
MODEL 3
REMARK VINA RESULT:    -2.484      1.761      2.689
REMARK INTER + INTRA:          -6.232
REMARK INTER:                  -5.363
REMARK INTRA:                  -0.869
REMARK UNBOUND:                -2.005
REMARK SMILES CCCCCCCCCCCCCC(=O)[O-]
REMARK SMILES IDX 8 1 9 2 10 3 11 4 12 5 13 6 14 7 15 8 16 9 7 10 6 11 5 12
REMARK SMILES IDX 4 13 3 14 2 15 1 16
REMARK H PARENT
REMARK Flexibility Score: inf
ROOT
ATOM      1  C   UNL     1      47.029  38.880 135.733  1.00  0.00     0.000 C 
ENDROOT
BRANCH   1   2
ATOM      2  C   UNL     1      48.322  38.135 136.101  1.00  0.00     0.000 C 
BRANCH   2   3
ATOM      3  C   UNL     1      48.638  38.199 137.602  1.00  0.00     0.000 C 
BRANCH   3   4
ATOM      4  C   UNL     1      49.325  36.911 138.073  1.00  0.00     0.000 C 
BRANCH   4   5
ATOM      5  C   UNL     1      50.708  36.755 137.421  1.00  0.00     0.006 C 
BRANCH   5   6
ATOM      6  C   UNL     1      51.847  36.877 138.441  1.00  0.00     0.053 C 
BRANCH   6   7
ATOM      7  C   UNL     1      53.128  37.304 137.792  1.00  0.00     0.041 C 
ATOM      8  O   UNL     1      53.941  38.038 138.414  1.00  0.00    -0.550 OA
ATOM      9  O   UNL     1      53.440  36.865 136.511  1.00  0.00    -0.550 OA
ENDBRANCH   6   7
ENDBRANCH   5   6
ENDBRANCH   4   5
ENDBRANCH   3   4
ENDBRANCH   2   3
ENDBRANCH   1   2
BRANCH   1  10
ATOM     10  C   UNL     1      46.457  38.438 134.374  1.00  0.00     0.000 C 
BRANCH  10  11
ATOM     11  C   UNL     1      46.943  37.039 133.959  1.00  0.00    -0.000 C 
BRANCH  11  12
ATOM     12  C   UNL     1      45.976  36.345 132.985  1.00  0.00    -0.000 C 
BRANCH  12  13
ATOM     13  C   UNL     1      44.575  36.983 132.975  1.00  0.00    -0.000 C 
BRANCH  13  14
ATOM     14  C   UNL     1      43.499  36.205 133.754  1.00  0.00    -0.000 C 
BRANCH  14  15
ATOM     15  C   UNL     1      42.875  37.025 134.894  1.00  0.00    -0.003 C 
ATOM     16  C   UNL     1      42.651  38.473 134.470  1.00  0.00     0.004 C 
ENDBRANCH  14  15
ENDBRANCH  13  14
ENDBRANCH  12  13
ENDBRANCH  11  12
ENDBRANCH  10  11
ENDBRANCH   1  10
TORSDOF 12
ENDMDL
MODEL 4
REMARK VINA RESULT:    -2.479      1.530      3.226
REMARK INTER + INTRA:          -6.223
REMARK INTER:                  -4.268
REMARK INTRA:                  -1.955
REMARK UNBOUND:                -2.005
REMARK SMILES CCCCCCCCCCCCCC(=O)[O-]
REMARK SMILES IDX 8 1 9 2 10 3 11 4 12 5 13 6 14 7 15 8 16 9 7 10 6 11 5 12
REMARK SMILES IDX 4 13 3 14 2 15 1 16
REMARK H PARENT
REMARK Flexibility Score: inf
ROOT
ATOM      1  C   UNL     1      46.010  37.300 133.719  1.00  0.00     0.000 C 
ENDROOT
BRANCH   1   2
ATOM      2  C   UNL     1      46.445  38.770 133.835  1.00  0.00     0.000 C 
BRANCH   2   3
ATOM      3  C   UNL     1      46.581  39.237 135.292  1.00  0.00     0.000 C 
BRANCH   3   4
ATOM      4  C   UNL     1      48.055  39.323 135.705  1.00  0.00     0.000 C 
BRANCH   4   5
ATOM      5  C   UNL     1      48.375  38.313 136.817  1.00  0.00     0.006 C 
BRANCH   5   6
ATOM      6  C   UNL     1      49.854  37.905 136.823  1.00  0.00     0.053 C 
BRANCH   6   7
ATOM      7  C   UNL     1      50.163  36.951 137.936  1.00  0.00     0.041 C 
ATOM      8  O   UNL     1      51.303  36.946 138.470  1.00  0.00    -0.550 OA
ATOM      9  O   UNL     1      49.179  36.090 138.407  1.00  0.00    -0.550 OA
ENDBRANCH   6   7
ENDBRANCH   5   6
ENDBRANCH   4   5
ENDBRANCH   3   4
ENDBRANCH   2   3
ENDBRANCH   1   2
BRANCH   1  10
ATOM     10  C   UNL     1      47.033  36.438 132.959  1.00  0.00     0.000 C 
BRANCH  10  11
ATOM     11  C   UNL     1      48.202  35.988 133.852  1.00  0.00    -0.000 C 
BRANCH  11  12
ATOM     12  C   UNL     1      49.541  36.617 133.431  1.00  0.00    -0.000 C 
BRANCH  12  13
ATOM     13  C   UNL     1      49.473  37.306 132.056  1.00  0.00    -0.000 C 
BRANCH  13  14
ATOM     14  C   UNL     1      49.959  38.767 132.033  1.00  0.00    -0.000 C 
BRANCH  14  15
ATOM     15  C   UNL     1      50.786  39.142 133.272  1.00  0.00    -0.003 C 
ATOM     16  C   UNL     1      51.115  40.631 133.283  1.00  0.00     0.004 C 
ENDBRANCH  14  15
ENDBRANCH  13  14
ENDBRANCH  12  13
ENDBRANCH  11  12
ENDBRANCH  10  11
ENDBRANCH   1  10
TORSDOF 12
ENDMDL
MODEL 5
REMARK VINA RESULT:    -2.440      1.495      3.254
REMARK INTER + INTRA:          -6.158
REMARK INTER:                  -3.992
REMARK INTRA:                  -2.166
REMARK UNBOUND:                -2.005
REMARK SMILES CCCCCCCCCCCCCC(=O)[O-]
REMARK SMILES IDX 8 1 9 2 10 3 11 4 12 5 13 6 14 7 15 8 16 9 7 10 6 11 5 12
REMARK SMILES IDX 4 13 3 14 2 15 1 16
REMARK H PARENT
REMARK Flexibility Score: inf
ROOT
ATOM      1  C   UNL     1      47.657  36.881 134.142  1.00  0.00     0.000 C 
ENDROOT
BRANCH   1   2
ATOM      2  C   UNL     1      48.537  37.306 132.954  1.00  0.00     0.000 C 
BRANCH   2   3
ATOM      3  C   UNL     1      50.029  37.030 133.192  1.00  0.00     0.000 C 
BRANCH   3   4
ATOM      4  C   UNL     1      50.245  36.291 134.519  1.00  0.00     0.000 C 
BRANCH   4   5
ATOM      5  C   UNL     1      51.518  36.785 135.223  1.00  0.00     0.006 C 
BRANCH   5   6
ATOM      6  C   UNL     1      51.516  36.458 136.722  1.00  0.00     0.053 C 
BRANCH   6   7
ATOM      7  C   UNL     1      52.565  37.232 137.460  1.00  0.00     0.041 C 
ATOM      8  O   UNL     1      52.567  37.258 138.719  1.00  0.00    -0.550 OA
ATOM      9  O   UNL     1      53.562  37.898 136.757  1.00  0.00    -0.550 OA
ENDBRANCH   6   7
ENDBRANCH   5   6
ENDBRANCH   4   5
ENDBRANCH   3   4
ENDBRANCH   2   3
ENDBRANCH   1   2
BRANCH   1  10
ATOM     10  C   UNL     1      46.491  37.854 134.392  1.00  0.00     0.000 C 
BRANCH  10  11
ATOM     11  C   UNL     1      46.818  38.898 135.473  1.00  0.00    -0.000 C 
BRANCH  11  12
ATOM     12  C   UNL     1      47.933  38.433 136.424  1.00  0.00    -0.000 C 
BRANCH  12  13
ATOM     13  C   UNL     1      49.166  39.355 136.399  1.00  0.00    -0.000 C 
BRANCH  13  14
ATOM     14  C   UNL     1      49.146  40.441 135.308  1.00  0.00    -0.000 C 
BRANCH  14  15
ATOM     15  C   UNL     1      50.391  40.410 134.409  1.00  0.00    -0.003 C 
ATOM     16  C   UNL     1      51.669  40.507 135.237  1.00  0.00     0.004 C 
ENDBRANCH  14  15
ENDBRANCH  13  14
ENDBRANCH  12  13
ENDBRANCH  11  12
ENDBRANCH  10  11
ENDBRANCH   1  10
TORSDOF 12
ENDMDL
MODEL 6
REMARK VINA RESULT:    -2.435      1.912      3.268
REMARK INTER + INTRA:          -6.149
REMARK INTER:                  -4.542
REMARK INTRA:                  -1.607
REMARK UNBOUND:                -2.005
REMARK SMILES CCCCCCCCCCCCCC(=O)[O-]
REMARK SMILES IDX 8 1 9 2 10 3 11 4 12 5 13 6 14 7 15 8 16 9 7 10 6 11 5 12
REMARK SMILES IDX 4 13 3 14 2 15 1 16
REMARK H PARENT
REMARK Flexibility Score: inf
ROOT
ATOM      1  C   UNL     1      48.774  36.453 134.915  1.00  0.00     0.000 C 
ENDROOT
BRANCH   1   2
ATOM      2  C   UNL     1      49.940  36.660 133.935  1.00  0.00     0.000 C 
BRANCH   2   3
ATOM      3  C   UNL     1      51.303  36.728 134.639  1.00  0.00     0.000 C 
BRANCH   3   4
ATOM      4  C   UNL     1      51.971  38.090 134.409  1.00  0.00     0.000 C 
BRANCH   4   5
ATOM      5  C   UNL     1      52.860  38.476 135.602  1.00  0.00     0.006 C 
BRANCH   5   6
ATOM      6  C   UNL     1      53.263  37.258 136.442  1.00  0.00     0.053 C 
BRANCH   6   7
ATOM      7  C   UNL     1      53.199  37.550 137.910  1.00  0.00     0.041 C 
ATOM      8  O   UNL     1      54.128  38.189 138.472  1.00  0.00    -0.550 OA
ATOM      9  O   UNL     1      52.096  37.146 138.653  1.00  0.00    -0.550 OA
ENDBRANCH   6   7
ENDBRANCH   5   6
ENDBRANCH   4   5
ENDBRANCH   3   4
ENDBRANCH   2   3
ENDBRANCH   1   2
BRANCH   1  10
ATOM     10  C   UNL     1      49.162  36.767 136.371  1.00  0.00     0.000 C 
BRANCH  10  11
ATOM     11  C   UNL     1      48.629  38.132 136.840  1.00  0.00    -0.000 C 
BRANCH  11  12
ATOM     12  C   UNL     1      47.476  38.647 135.963  1.00  0.00    -0.000 C 
BRANCH  12  13
ATOM     13  C   UNL     1      47.793  39.993 135.286  1.00  0.00    -0.000 C 
BRANCH  13  14
ATOM     14  C   UNL     1      49.271  40.420 135.344  1.00  0.00    -0.000 C 
BRANCH  14  15
ATOM     15  C   UNL     1      49.473  41.795 135.999  1.00  0.00    -0.003 C 
ATOM     16  C   UNL     1      48.357  42.758 135.608  1.00  0.00     0.004 C 
ENDBRANCH  14  15
ENDBRANCH  13  14
ENDBRANCH  12  13
ENDBRANCH  11  12
ENDBRANCH  10  11
ENDBRANCH   1  10
TORSDOF 12
ENDMDL
MODEL 7
REMARK VINA RESULT:    -2.408      3.335      5.337
REMARK INTER + INTRA:          -6.102
REMARK INTER:                  -4.159
REMARK INTRA:                  -1.943
REMARK UNBOUND:                -2.005
REMARK SMILES CCCCCCCCCCCCCC(=O)[O-]
REMARK SMILES IDX 8 1 9 2 10 3 11 4 12 5 13 6 14 7 15 8 16 9 7 10 6 11 5 12
REMARK SMILES IDX 4 13 3 14 2 15 1 16
REMARK H PARENT
REMARK Flexibility Score: inf
ROOT
ATOM      1  C   UNL     1      50.953  38.961 134.220  1.00  0.00     0.000 C 
ENDROOT
BRANCH   1   2
ATOM      2  C   UNL     1      50.933  40.096 135.257  1.00  0.00     0.000 C 
BRANCH   2   3
ATOM      3  C   UNL     1      49.509  40.529 135.637  1.00  0.00     0.000 C 
BRANCH   3   4
ATOM      4  C   UNL     1      48.488  40.008 134.618  1.00  0.00     0.000 C 
BRANCH   4   5
ATOM      5  C   UNL     1      47.087  39.914 135.242  1.00  0.00     0.006 C 
BRANCH   5   6
ATOM      6  C   UNL     1      46.500  38.501 135.139  1.00  0.00     0.053 C 
BRANCH   6   7
ATOM      7  C   UNL     1      45.147  38.508 134.496  1.00  0.00     0.041 C 
ATOM      8  O   UNL     1      44.471  39.570 134.449  1.00  0.00    -0.550 OA
ATOM      9  O   UNL     1      44.645  37.347 133.918  1.00  0.00    -0.550 OA
ENDBRANCH   6   7
ENDBRANCH   5   6
ENDBRANCH   4   5
ENDBRANCH   3   4
ENDBRANCH   2   3
ENDBRANCH   1   2
BRANCH   1  10
ATOM     10  C   UNL     1      51.912  37.822 134.608  1.00  0.00     0.000 C 
BRANCH  10  11
ATOM     11  C   UNL     1      51.217  36.451 134.636  1.00  0.00    -0.000 C 
BRANCH  11  12
ATOM     12  C   UNL     1      49.692  36.566 134.799  1.00  0.00    -0.000 C 
BRANCH  12  13
ATOM     13  C   UNL     1      49.211  36.195 136.214  1.00  0.00    -0.000 C 
BRANCH  13  14
ATOM     14  C   UNL     1      49.236  37.347 137.235  1.00  0.00    -0.000 C 
BRANCH  14  15
ATOM     15  C   UNL     1      50.018  37.000 138.510  1.00  0.00    -0.003 C 
ATOM     16  C   UNL     1      51.521  37.000 138.251  1.00  0.00     0.004 C 
ENDBRANCH  14  15
ENDBRANCH  13  14
ENDBRANCH  12  13
ENDBRANCH  11  12
ENDBRANCH  10  11
ENDBRANCH   1  10
TORSDOF 12
ENDMDL
MODEL 8
REMARK VINA RESULT:    -1.700     12.846     14.586
REMARK INTER + INTRA:          -4.899
REMARK INTER:                  -3.065
REMARK INTRA:                  -1.834
REMARK UNBOUND:                -2.005
REMARK SMILES CCCCCCCCCCCCCC(=O)[O-]
REMARK SMILES IDX 8 1 9 2 10 3 11 4 12 5 13 6 14 7 15 8 16 9 7 10 6 11 5 12
REMARK SMILES IDX 4 13 3 14 2 15 1 16
REMARK H PARENT
REMARK Flexibility Score: inf
ROOT
ATOM      1  C   UNL     1      54.366  40.520 124.224  1.00  0.00     0.000 C 
ENDROOT
BRANCH   1   2
ATOM      2  C   UNL     1      55.379  41.133 123.244  1.00  0.00     0.000 C 
BRANCH   2   3
ATOM      3  C   UNL     1      56.184  42.284 123.865  1.00  0.00     0.000 C 
BRANCH   3   4
ATOM      4  C   UNL     1      57.685  42.106 123.604  1.00  0.00     0.000 C 
BRANCH   4   5
ATOM      5  C   UNL     1      58.053  40.617 123.503  1.00  0.00     0.006 C 
BRANCH   5   6
ATOM      6  C   UNL     1      59.518  40.408 123.098  1.00  0.00     0.053 C 
BRANCH   6   7
ATOM      7  C   UNL     1      60.423  40.371 124.291  1.00  0.00     0.041 C 
ATOM      8  O   UNL     1      61.001  41.419 124.682  1.00  0.00    -0.550 OA
ATOM      9  O   UNL     1      60.603  39.184 124.992  1.00  0.00    -0.550 OA
ENDBRANCH   6   7
ENDBRANCH   5   6
ENDBRANCH   4   5
ENDBRANCH   3   4
ENDBRANCH   2   3
ENDBRANCH   1   2
BRANCH   1  10
ATOM     10  C   UNL     1      53.984  39.076 123.853  1.00  0.00     0.000 C 
BRANCH  10  11
ATOM     11  C   UNL     1      54.983  38.435 122.875  1.00  0.00    -0.000 C 
BRANCH  11  12
ATOM     12  C   UNL     1      55.704  37.220 123.482  1.00  0.00    -0.000 C 
BRANCH  12  13
ATOM     13  C   UNL     1      55.219  36.883 124.903  1.00  0.00    -0.000 C 
BRANCH  13  14
ATOM     14  C   UNL     1      56.307  36.927 125.992  1.00  0.00    -0.000 C 
BRANCH  14  15
ATOM     15  C   UNL     1      57.294  38.088 125.806  1.00  0.00    -0.003 C 
ATOM     16  C   UNL     1      56.961  39.248 126.738  1.00  0.00     0.004 C 
ENDBRANCH  14  15
ENDBRANCH  13  14
ENDBRANCH  12  13
ENDBRANCH  11  12
ENDBRANCH  10  11
ENDBRANCH   1  10
TORSDOF 12
ENDMDL
