MODEL 1
REMARK VINA RESULT:    -5.328      0.000      0.000
REMARK INTER + INTRA:         -11.446
REMARK INTER:                 -10.001
REMARK INTRA:                  -1.445
REMARK UNBOUND:                -1.445
REMARK SMILES CCCCCCCCC=CCCCCCCCC(=O)[O-]
REMARK SMILES IDX 10 1 9 2 11 3 12 4 13 5 14 6 15 7 16 8 17 9 18 10 19 11
REMARK SMILES IDX 20 12 8 13 7 14 6 15 5 16 4 17 3 18 2 19 1 20
REMARK H PARENT
REMARK Flexibility Score: inf
ROOT
ATOM      1  C   UNL     1      81.664  58.717  10.824  1.00  0.00    -0.031 C 
ATOM      2  C   UNL     1      80.695  57.812  10.595  1.00  0.00    -0.031 C 
ENDROOT
BRANCH   1   3
ATOM      3  C   UNL     1      81.546  60.196  10.538  1.00  0.00     0.027 C 
BRANCH   3   4
ATOM      4  C   UNL     1      82.924  60.870  10.435  1.00  0.00     0.004 C 
BRANCH   4   5
ATOM      5  C   UNL     1      84.083  59.986  10.936  1.00  0.00     0.000 C 
BRANCH   5   6
ATOM      6  C   UNL     1      84.983  60.721  11.944  1.00  0.00     0.000 C 
BRANCH   6   7
ATOM      7  C   UNL     1      85.306  59.876  13.190  1.00  0.00     0.000 C 
BRANCH   7   8
ATOM      8  C   UNL     1      84.782  60.449  14.519  1.00  0.00     0.006 C 
BRANCH   8   9
ATOM      9  C   UNL     1      85.408  61.805  14.871  1.00  0.00     0.053 C 
BRANCH   9  10
ATOM     10  C   UNL     1      85.340  62.045  16.346  1.00  0.00     0.041 C 
ATOM     11  O   UNL     1      85.101  63.198  16.791  1.00  0.00    -0.550 OA
ATOM     12  O   UNL     1      85.591  61.004  17.232  1.00  0.00    -0.550 OA
ENDBRANCH   9  10
ENDBRANCH   8   9
ENDBRANCH   7   8
ENDBRANCH   6   7
ENDBRANCH   5   6
ENDBRANCH   4   5
ENDBRANCH   3   4
ENDBRANCH   1   3
BRANCH   2  13
ATOM     13  C   UNL     1      79.305  58.146  10.112  1.00  0.00     0.027 C 
BRANCH  13  14
ATOM     14  C   UNL     1      78.332  56.975  10.306  1.00  0.00     0.004 C 
BRANCH  14  15
ATOM     15  C   UNL     1      77.387  56.802   9.104  1.00  0.00     0.000 C 
BRANCH  15  16
ATOM     16  C   UNL     1      78.042  56.057   7.927  1.00  0.00     0.000 C 
BRANCH  16  17
ATOM     17  C   UNL     1      78.667  54.695   8.281  1.00  0.00    -0.000 C 
BRANCH  17  18
ATOM     18  C   UNL     1      80.070  54.506   7.679  1.00  0.00    -0.000 C 
BRANCH  18  19
ATOM     19  C   UNL     1      81.171  54.492   8.751  1.00  0.00    -0.003 C 
ATOM     20  C   UNL     1      80.646  54.120  10.138  1.00  0.00     0.004 C 
ENDBRANCH  18  19
ENDBRANCH  17  18
ENDBRANCH  16  17
ENDBRANCH  15  16
ENDBRANCH  14  15
ENDBRANCH  13  14
ENDBRANCH   2  13
TORSDOF 15
ENDMDL
MODEL 2
REMARK VINA RESULT:    -5.294      4.310      5.626
REMARK INTER + INTRA:         -11.380
REMARK INTER:                 -10.058
REMARK INTRA:                  -1.322
REMARK UNBOUND:                -1.445
REMARK SMILES CCCCCCCCC=CCCCCCCCC(=O)[O-]
REMARK SMILES IDX 10 1 9 2 11 3 12 4 13 5 14 6 15 7 16 8 17 9 18 10 19 11
REMARK SMILES IDX 20 12 8 13 7 14 6 15 5 16 4 17 3 18 2 19 1 20
REMARK H PARENT
REMARK Flexibility Score: inf
ROOT
ATOM      1  C   UNL     1      84.378  58.575   9.456  1.00  0.00    -0.031 C 
ATOM      2  C   UNL     1      83.387  59.355   9.925  1.00  0.00    -0.031 C 
ENDROOT
BRANCH   1   3
ATOM      3  C   UNL     1      84.542  57.107   9.774  1.00  0.00     0.027 C 
BRANCH   3   4
ATOM      4  C   UNL     1      85.652  56.867  10.811  1.00  0.00     0.004 C 
BRANCH   4   5
ATOM      5  C   UNL     1      86.817  57.871  10.712  1.00  0.00     0.000 C 
BRANCH   5   6
ATOM      6  C   UNL     1      88.177  57.171  10.552  1.00  0.00     0.000 C 
BRANCH   6   7
ATOM      7  C   UNL     1      88.888  57.535   9.235  1.00  0.00     0.000 C 
BRANCH   7   8
ATOM      8  C   UNL     1      88.107  58.492   8.317  1.00  0.00     0.006 C 
BRANCH   8   9
ATOM      9  C   UNL     1      88.947  59.688   7.849  1.00  0.00     0.053 C 
BRANCH   9  10
ATOM     10  C   UNL     1      88.097  60.915   7.744  1.00  0.00     0.041 C 
ATOM     11  O   UNL     1      88.570  61.975   7.258  1.00  0.00    -0.550 OA
ATOM     12  O   UNL     1      86.795  60.902   8.229  1.00  0.00    -0.550 OA
ENDBRANCH   9  10
ENDBRANCH   8   9
ENDBRANCH   7   8
ENDBRANCH   6   7
ENDBRANCH   5   6
ENDBRANCH   4   5
ENDBRANCH   3   4
ENDBRANCH   1   3
BRANCH   2  13
ATOM     13  C   UNL     1      82.229  58.862  10.759  1.00  0.00     0.027 C 
BRANCH  13  14
ATOM     14  C   UNL     1      80.981  59.738  10.582  1.00  0.00     0.004 C 
BRANCH  14  15
ATOM     15  C   UNL     1      79.712  58.899  10.354  1.00  0.00     0.000 C 
BRANCH  15  16
ATOM     16  C   UNL     1      79.972  57.384  10.431  1.00  0.00     0.000 C 
BRANCH  16  17
ATOM     17  C   UNL     1      78.715  56.499  10.343  1.00  0.00    -0.000 C 
BRANCH  17  18
ATOM     18  C   UNL     1      77.736  56.957   9.249  1.00  0.00    -0.000 C 
BRANCH  18  19
ATOM     19  C   UNL     1      77.802  56.074   7.994  1.00  0.00    -0.003 C 
ATOM     20  C   UNL     1      77.771  56.882   6.696  1.00  0.00     0.004 C 
ENDBRANCH  18  19
ENDBRANCH  17  18
ENDBRANCH  16  17
ENDBRANCH  15  16
ENDBRANCH  14  15
ENDBRANCH  13  14
ENDBRANCH   2  13
TORSDOF 15
ENDMDL
MODEL 3
REMARK VINA RESULT:    -5.193      1.473      2.295
REMARK INTER + INTRA:         -11.191
REMARK INTER:                 -10.227
REMARK INTRA:                  -0.965
REMARK UNBOUND:                -1.445
REMARK SMILES CCCCCCCCC=CCCCCCCCC(=O)[O-]
REMARK SMILES IDX 10 1 9 2 11 3 12 4 13 5 14 6 15 7 16 8 17 9 18 10 19 11
REMARK SMILES IDX 20 12 8 13 7 14 6 15 5 16 4 17 3 18 2 19 1 20
REMARK H PARENT
REMARK Flexibility Score: inf
ROOT
ATOM      1  C   UNL     1      83.168  59.360  10.519  1.00  0.00    -0.031 C 
ATOM      2  C   UNL     1      81.934  58.823  10.551  1.00  0.00    -0.031 C 
ENDROOT
BRANCH   1   3
ATOM      3  C   UNL     1      83.460  60.837  10.389  1.00  0.00     0.027 C 
BRANCH   3   4
ATOM      4  C   UNL     1      84.689  61.251  11.214  1.00  0.00     0.004 C 
BRANCH   4   5
ATOM      5  C   UNL     1      85.367  60.075  11.945  1.00  0.00     0.000 C 
BRANCH   5   6
ATOM      6  C   UNL     1      84.893  59.943  13.402  1.00  0.00     0.000 C 
BRANCH   6   7
ATOM      7  C   UNL     1      85.627  60.898  14.361  1.00  0.00     0.000 C 
BRANCH   7   8
ATOM      8  C   UNL     1      84.751  62.005  14.974  1.00  0.00     0.006 C 
BRANCH   8   9
ATOM      9  C   UNL     1      85.509  62.873  15.988  1.00  0.00     0.053 C 
BRANCH   9  10
ATOM     10  C   UNL     1      84.886  64.230  16.082  1.00  0.00     0.041 C 
ATOM     11  O   UNL     1      84.724  64.927  15.047  1.00  0.00    -0.550 OA
ATOM     12  O   UNL     1      84.529  64.747  17.322  1.00  0.00    -0.550 OA
ENDBRANCH   9  10
ENDBRANCH   8   9
ENDBRANCH   7   8
ENDBRANCH   6   7
ENDBRANCH   5   6
ENDBRANCH   4   5
ENDBRANCH   3   4
ENDBRANCH   1   3
BRANCH   2  13
ATOM     13  C   UNL     1      80.652  59.618  10.564  1.00  0.00     0.027 C 
BRANCH  13  14
ATOM     14  C   UNL     1      79.439  58.759  10.180  1.00  0.00     0.004 C 
BRANCH  14  15
ATOM     15  C   UNL     1      79.512  57.349  10.791  1.00  0.00     0.000 C 
BRANCH  15  16
ATOM     16  C   UNL     1      78.399  56.415  10.281  1.00  0.00     0.000 C 
BRANCH  16  17
ATOM     17  C   UNL     1      77.608  56.941   9.068  1.00  0.00    -0.000 C 
BRANCH  17  18
ATOM     18  C   UNL     1      77.755  56.046   7.825  1.00  0.00    -0.000 C 
BRANCH  18  19
ATOM     19  C   UNL     1      78.982  55.125   7.906  1.00  0.00    -0.003 C 
ATOM     20  C   UNL     1      78.632  53.650   7.709  1.00  0.00     0.004 C 
ENDBRANCH  18  19
ENDBRANCH  17  18
ENDBRANCH  16  17
ENDBRANCH  15  16
ENDBRANCH  14  15
ENDBRANCH  13  14
ENDBRANCH   2  13
TORSDOF 15
ENDMDL
MODEL 4
REMARK VINA RESULT:    -5.169      3.721      7.487
REMARK INTER + INTRA:         -11.146
REMARK INTER:                  -9.261
REMARK INTRA:                  -1.885
REMARK UNBOUND:                -1.445
REMARK SMILES CCCCCCCCC=CCCCCCCCC(=O)[O-]
REMARK SMILES IDX 10 1 9 2 11 3 12 4 13 5 14 6 15 7 16 8 17 9 18 10 19 11
REMARK SMILES IDX 20 12 8 13 7 14 6 15 5 16 4 17 3 18 2 19 1 20
REMARK H PARENT
REMARK Flexibility Score: inf
ROOT
ATOM      1  C   UNL     1      78.118  56.469   9.854  1.00  0.00    -0.031 C 
ATOM      2  C   UNL     1      78.945  57.123  10.691  1.00  0.00    -0.031 C 
ENDROOT
BRANCH   1   3
ATOM      3  C   UNL     1      77.690  56.976   8.497  1.00  0.00     0.027 C 
BRANCH   3   4
ATOM      4  C   UNL     1      77.837  55.898   7.411  1.00  0.00     0.004 C 
BRANCH   4   5
ATOM      5  C   UNL     1      78.193  54.505   7.968  1.00  0.00     0.000 C 
BRANCH   5   6
ATOM      6  C   UNL     1      79.672  54.147   7.740  1.00  0.00     0.000 C 
BRANCH   6   7
ATOM      7  C   UNL     1      80.363  53.614   9.008  1.00  0.00     0.000 C 
BRANCH   7   8
ATOM      8  C   UNL     1      81.446  54.536   9.595  1.00  0.00     0.006 C 
BRANCH   8   9
ATOM      9  C   UNL     1      81.831  54.165  11.033  1.00  0.00     0.053 C 
BRANCH   9  10
ATOM     10  C   UNL     1      83.245  53.678  11.087  1.00  0.00     0.041 C 
ATOM     11  O   UNL     1      83.488  52.458  11.278  1.00  0.00    -0.550 OA
ATOM     12  O   UNL     1      84.296  54.580  10.974  1.00  0.00    -0.550 OA
ENDBRANCH   9  10
ENDBRANCH   8   9
ENDBRANCH   7   8
ENDBRANCH   6   7
ENDBRANCH   5   6
ENDBRANCH   4   5
ENDBRANCH   3   4
ENDBRANCH   1   3
BRANCH   2  13
ATOM     13  C   UNL     1      79.650  58.416  10.363  1.00  0.00     0.027 C 
BRANCH  13  14
ATOM     14  C   UNL     1      81.144  58.359  10.712  1.00  0.00     0.004 C 
BRANCH  14  15
ATOM     15  C   UNL     1      81.648  59.680  11.317  1.00  0.00     0.000 C 
BRANCH  15  16
ATOM     16  C   UNL     1      82.497  60.506  10.333  1.00  0.00     0.000 C 
BRANCH  16  17
ATOM     17  C   UNL     1      83.926  60.826  10.810  1.00  0.00    -0.000 C 
BRANCH  17  18
ATOM     18  C   UNL     1      84.957  59.780  10.353  1.00  0.00    -0.000 C 
BRANCH  18  19
ATOM     19  C   UNL     1      84.556  59.096   9.036  1.00  0.00    -0.003 C 
ATOM     20  C   UNL     1      84.426  57.579   9.170  1.00  0.00     0.004 C 
ENDBRANCH  18  19
ENDBRANCH  17  18
ENDBRANCH  16  17
ENDBRANCH  15  16
ENDBRANCH  14  15
ENDBRANCH  13  14
ENDBRANCH   2  13
TORSDOF 15
ENDMDL
MODEL 5
REMARK VINA RESULT:    -5.147      3.636      4.884
REMARK INTER + INTRA:         -11.105
REMARK INTER:                  -9.492
REMARK INTRA:                  -1.613
REMARK UNBOUND:                -1.445
REMARK SMILES CCCCCCCCC=CCCCCCCCC(=O)[O-]
REMARK SMILES IDX 10 1 9 2 11 3 12 4 13 5 14 6 15 7 16 8 17 9 18 10 19 11
REMARK SMILES IDX 20 12 8 13 7 14 6 15 5 16 4 17 3 18 2 19 1 20
REMARK H PARENT
REMARK Flexibility Score: inf
ROOT
ATOM      1  C   UNL     1      80.172  59.300  10.306  1.00  0.00    -0.031 C 
ATOM      2  C   UNL     1      79.385  58.208  10.263  1.00  0.00    -0.031 C 
ENDROOT
BRANCH   1   3
ATOM      3  C   UNL     1      81.434  59.418  11.128  1.00  0.00     0.027 C 
BRANCH   3   4
ATOM      4  C   UNL     1      82.663  59.705  10.250  1.00  0.00     0.004 C 
BRANCH   4   5
ATOM      5  C   UNL     1      83.956  59.941  11.055  1.00  0.00     0.000 C 
BRANCH   5   6
ATOM      6  C   UNL     1      84.463  61.388  10.933  1.00  0.00     0.000 C 
BRANCH   6   7
ATOM      7  C   UNL     1      83.688  62.209   9.886  1.00  0.00     0.000 C 
BRANCH   7   8
ATOM      8  C   UNL     1      84.563  62.906   8.829  1.00  0.00     0.006 C 
BRANCH   8   9
ATOM      9  C   UNL     1      85.875  62.158   8.554  1.00  0.00     0.053 C 
BRANCH   9  10
ATOM     10  C   UNL     1      85.686  61.158   7.457  1.00  0.00     0.041 C 
ATOM     11  O   UNL     1      85.620  61.536   6.258  1.00  0.00    -0.550 OA
ATOM     12  O   UNL     1      85.532  59.811   7.764  1.00  0.00    -0.550 OA
ENDBRANCH   9  10
ENDBRANCH   8   9
ENDBRANCH   7   8
ENDBRANCH   6   7
ENDBRANCH   5   6
ENDBRANCH   4   5
ENDBRANCH   3   4
ENDBRANCH   1   3
BRANCH   2  13
ATOM     13  C   UNL     1      79.695  56.899  10.948  1.00  0.00     0.027 C 
BRANCH  13  14
ATOM     14  C   UNL     1      80.682  56.047  10.138  1.00  0.00     0.004 C 
BRANCH  14  15
ATOM     15  C   UNL     1      80.493  54.543  10.392  1.00  0.00     0.000 C 
BRANCH  15  16
ATOM     16  C   UNL     1      80.187  53.750   9.108  1.00  0.00     0.000 C 
BRANCH  16  17
ATOM     17  C   UNL     1      79.725  54.600   7.909  1.00  0.00    -0.000 C 
BRANCH  17  18
ATOM     18  C   UNL     1      78.194  54.691   7.795  1.00  0.00    -0.000 C 
BRANCH  18  19
ATOM     19  C   UNL     1      77.685  56.139   7.870  1.00  0.00    -0.003 C 
ATOM     20  C   UNL     1      77.839  56.892   6.548  1.00  0.00     0.004 C 
ENDBRANCH  18  19
ENDBRANCH  17  18
ENDBRANCH  16  17
ENDBRANCH  15  16
ENDBRANCH  14  15
ENDBRANCH  13  14
ENDBRANCH   2  13
TORSDOF 15
ENDMDL
MODEL 6
REMARK VINA RESULT:    -5.113      5.796      7.074
REMARK INTER + INTRA:         -11.041
REMARK INTER:                  -8.917
REMARK INTRA:                  -2.124
REMARK UNBOUND:                -1.445
REMARK SMILES CCCCCCCCC=CCCCCCCCC(=O)[O-]
REMARK SMILES IDX 10 1 9 2 11 3 12 4 13 5 14 6 15 7 16 8 17 9 18 10 19 11
REMARK SMILES IDX 20 12 8 13 7 14 6 15 5 16 4 17 3 18 2 19 1 20
REMARK H PARENT
REMARK Flexibility Score: inf
ROOT
ATOM      1  C   UNL     1      78.451  56.681  10.738  1.00  0.00    -0.031 C 
ATOM      2  C   UNL     1      77.665  56.732   9.647  1.00  0.00    -0.031 C 
ENDROOT
BRANCH   1   3
ATOM      3  C   UNL     1      79.958  56.788  10.718  1.00  0.00     0.027 C 
BRANCH   3   4
ATOM      4  C   UNL     1      80.631  55.453  11.077  1.00  0.00     0.004 C 
BRANCH   4   5
ATOM      5  C   UNL     1      81.972  55.222  10.354  1.00  0.00     0.000 C 
BRANCH   5   6
ATOM      6  C   UNL     1      82.699  53.965  10.860  1.00  0.00     0.000 C 
BRANCH   6   7
ATOM      7  C   UNL     1      81.746  52.783  11.119  1.00  0.00     0.000 C 
BRANCH   7   8
ATOM      8  C   UNL     1      82.227  51.428  10.572  1.00  0.00     0.006 C 
BRANCH   8   9
ATOM      9  C   UNL     1      82.154  50.304  11.615  1.00  0.00     0.053 C 
BRANCH   9  10
ATOM     10  C   UNL     1      82.808  50.732  12.891  1.00  0.00     0.041 C 
ATOM     11  O   UNL     1      84.057  50.882  12.945  1.00  0.00    -0.550 OA
ATOM     12  O   UNL     1      82.043  50.919  14.036  1.00  0.00    -0.550 OA
ENDBRANCH   9  10
ENDBRANCH   8   9
ENDBRANCH   7   8
ENDBRANCH   6   7
ENDBRANCH   5   6
ENDBRANCH   4   5
ENDBRANCH   3   4
ENDBRANCH   1   3
BRANCH   2  13
ATOM     13  C   UNL     1      78.156  57.006   8.247  1.00  0.00     0.027 C 
BRANCH  13  14
ATOM     14  C   UNL     1      77.703  55.923   7.257  1.00  0.00     0.004 C 
BRANCH  14  15
ATOM     15  C   UNL     1      77.915  54.505   7.813  1.00  0.00     0.000 C 
BRANCH  15  16
ATOM     16  C   UNL     1      79.401  54.122   7.932  1.00  0.00     0.000 C 
BRANCH  16  17
ATOM     17  C   UNL     1      79.678  52.617   8.103  1.00  0.00    -0.000 C 
BRANCH  17  18
ATOM     18  C   UNL     1      80.448  52.011   6.917  1.00  0.00    -0.000 C 
BRANCH  18  19
ATOM     19  C   UNL     1      80.522  50.478   6.986  1.00  0.00    -0.003 C 
ATOM     20  C   UNL     1      79.838  49.905   8.228  1.00  0.00     0.004 C 
ENDBRANCH  18  19
ENDBRANCH  17  18
ENDBRANCH  16  17
ENDBRANCH  15  16
ENDBRANCH  14  15
ENDBRANCH  13  14
ENDBRANCH   2  13
TORSDOF 15
ENDMDL
MODEL 7
REMARK VINA RESULT:    -5.108      3.702      4.912
REMARK INTER + INTRA:         -11.032
REMARK INTER:                  -9.096
REMARK INTRA:                  -1.936
REMARK UNBOUND:                -1.445
REMARK SMILES CCCCCCCCC=CCCCCCCCC(=O)[O-]
REMARK SMILES IDX 10 1 9 2 11 3 12 4 13 5 14 6 15 7 16 8 17 9 18 10 19 11
REMARK SMILES IDX 20 12 8 13 7 14 6 15 5 16 4 17 3 18 2 19 1 20
REMARK H PARENT
REMARK Flexibility Score: inf
ROOT
ATOM      1  C   UNL     1      78.847  57.278  10.645  1.00  0.00    -0.031 C 
ATOM      2  C   UNL     1      78.059  56.458   9.925  1.00  0.00    -0.031 C 
ENDROOT
BRANCH   1   3
ATOM      3  C   UNL     1      79.458  58.559  10.126  1.00  0.00     0.027 C 
BRANCH   3   4
ATOM      4  C   UNL     1      80.895  58.754  10.636  1.00  0.00     0.004 C 
BRANCH   4   5
ATOM      5  C   UNL     1      81.403  60.204  10.510  1.00  0.00     0.000 C 
BRANCH   5   6
ATOM      6  C   UNL     1      82.829  60.372  11.062  1.00  0.00     0.000 C 
BRANCH   6   7
ATOM      7  C   UNL     1      83.915  60.191   9.986  1.00  0.00     0.000 C 
BRANCH   7   8
ATOM      8  C   UNL     1      84.660  58.845  10.032  1.00  0.00     0.006 C 
BRANCH   8   9
ATOM      9  C   UNL     1      84.663  58.117   8.681  1.00  0.00     0.053 C 
BRANCH   9  10
ATOM     10  C   UNL     1      85.739  58.663   7.797  1.00  0.00     0.041 C 
ATOM     11  O   UNL     1      85.609  58.631   6.545  1.00  0.00    -0.550 OA
ATOM     12  O   UNL     1      86.910  59.162   8.353  1.00  0.00    -0.550 OA
ENDBRANCH   9  10
ENDBRANCH   8   9
ENDBRANCH   7   8
ENDBRANCH   6   7
ENDBRANCH   5   6
ENDBRANCH   4   5
ENDBRANCH   3   4
ENDBRANCH   1   3
BRANCH   2  13
ATOM     13  C   UNL     1      77.579  56.742   8.523  1.00  0.00     0.027 C 
BRANCH  13  14
ATOM     14  C   UNL     1      78.281  55.854   7.486  1.00  0.00     0.004 C 
BRANCH  14  15
ATOM     15  C   UNL     1      77.935  54.366   7.668  1.00  0.00     0.000 C 
BRANCH  15  16
ATOM     16  C   UNL     1      79.167  53.497   7.980  1.00  0.00     0.000 C 
BRANCH  16  17
ATOM     17  C   UNL     1      80.472  54.276   8.230  1.00  0.00    -0.000 C 
BRANCH  17  18
ATOM     18  C   UNL     1      80.918  54.236   9.702  1.00  0.00    -0.000 C 
BRANCH  18  19
ATOM     19  C   UNL     1      81.987  55.294  10.020  1.00  0.00    -0.003 C 
ATOM     20  C   UNL     1      83.405  54.823   9.694  1.00  0.00     0.004 C 
ENDBRANCH  18  19
ENDBRANCH  17  18
ENDBRANCH  16  17
ENDBRANCH  15  16
ENDBRANCH  14  15
ENDBRANCH  13  14
ENDBRANCH   2  13
TORSDOF 15
ENDMDL
MODEL 8
REMARK VINA RESULT:    -5.060      7.471     11.018
REMARK INTER + INTRA:         -10.941
REMARK INTER:                  -8.494
REMARK INTRA:                  -2.447
REMARK UNBOUND:                -1.445
REMARK SMILES CCCCCCCCC=CCCCCCCCC(=O)[O-]
REMARK SMILES IDX 10 1 9 2 11 3 12 4 13 5 14 6 15 7 16 8 17 9 18 10 19 11
REMARK SMILES IDX 20 12 8 13 7 14 6 15 5 16 4 17 3 18 2 19 1 20
REMARK H PARENT
REMARK Flexibility Score: inf
ROOT
ATOM      1  C   UNL     1      89.940  65.790   9.989  1.00  0.00    -0.031 C 
ATOM      2  C   UNL     1      90.644  64.643  10.019  1.00  0.00    -0.031 C 
ENDROOT
BRANCH   1   3
ATOM      3  C   UNL     1      90.366  67.041   9.256  1.00  0.00     0.027 C 
BRANCH   3   4
ATOM      4  C   UNL     1      89.411  67.378   8.098  1.00  0.00     0.004 C 
BRANCH   4   5
ATOM      5  C   UNL     1      88.795  66.136   7.425  1.00  0.00     0.000 C 
BRANCH   5   6
ATOM      6  C   UNL     1      87.258  66.187   7.403  1.00  0.00     0.000 C 
BRANCH   6   7
ATOM      7  C   UNL     1      86.610  64.792   7.469  1.00  0.00     0.000 C 
BRANCH   7   8
ATOM      8  C   UNL     1      87.223  63.839   8.511  1.00  0.00     0.006 C 
BRANCH   8   9
ATOM      9  C   UNL     1      86.314  62.645   8.835  1.00  0.00     0.053 C 
BRANCH   9  10
ATOM     10  C   UNL     1      84.975  63.120   9.304  1.00  0.00     0.041 C 
ATOM     11  O   UNL     1      84.837  63.580  10.468  1.00  0.00    -0.550 OA
ATOM     12  O   UNL     1      83.867  63.010   8.473  1.00  0.00    -0.550 OA
ENDBRANCH   9  10
ENDBRANCH   8   9
ENDBRANCH   7   8
ENDBRANCH   6   7
ENDBRANCH   5   6
ENDBRANCH   4   5
ENDBRANCH   3   4
ENDBRANCH   1   3
BRANCH   2  13
ATOM     13  C   UNL     1      91.915  64.395   9.245  1.00  0.00     0.027 C 
BRANCH  13  14
ATOM     14  C   UNL     1      91.636  63.784   7.865  1.00  0.00     0.004 C 
BRANCH  14  15
ATOM     15  C   UNL     1      92.102  62.321   7.774  1.00  0.00     0.000 C 
BRANCH  15  16
ATOM     16  C   UNL     1      91.284  61.492   6.766  1.00  0.00     0.000 C 
BRANCH  16  17
ATOM     17  C   UNL     1      89.908  61.020   7.271  1.00  0.00    -0.000 C 
BRANCH  17  18
ATOM     18  C   UNL     1      88.762  61.381   6.310  1.00  0.00    -0.000 C 
BRANCH  18  19
ATOM     19  C   UNL     1      89.268  62.025   5.010  1.00  0.00    -0.003 C 
ATOM     20  C   UNL     1      88.803  63.472   4.843  1.00  0.00     0.004 C 
ENDBRANCH  18  19
ENDBRANCH  17  18
ENDBRANCH  16  17
ENDBRANCH  15  16
ENDBRANCH  14  15
ENDBRANCH  13  14
ENDBRANCH   2  13
TORSDOF 15
ENDMDL
MODEL 9
REMARK VINA RESULT:    -5.057      1.219      2.614
REMARK INTER + INTRA:         -10.935
REMARK INTER:                  -9.396
REMARK INTRA:                  -1.539
REMARK UNBOUND:                -1.445
REMARK SMILES CCCCCCCCC=CCCCCCCCC(=O)[O-]
REMARK SMILES IDX 10 1 9 2 11 3 12 4 13 5 14 6 15 7 16 8 17 9 18 10 19 11
REMARK SMILES IDX 20 12 8 13 7 14 6 15 5 16 4 17 3 18 2 19 1 20
REMARK H PARENT
REMARK Flexibility Score: inf
ROOT
ATOM      1  C   UNL     1      79.132  57.355  10.727  1.00  0.00    -0.031 C 
ATOM      2  C   UNL     1      78.422  56.450  10.028  1.00  0.00    -0.031 C 
ENDROOT
BRANCH   1   3
ATOM      3  C   UNL     1      79.603  58.684  10.184  1.00  0.00     0.027 C 
BRANCH   3   4
ATOM      4  C   UNL     1      80.981  59.073  10.744  1.00  0.00     0.004 C 
BRANCH   4   5
ATOM      5  C   UNL     1      81.433  60.491  10.341  1.00  0.00     0.000 C 
BRANCH   5   6
ATOM      6  C   UNL     1      82.963  60.643  10.362  1.00  0.00     0.000 C 
BRANCH   6   7
ATOM      7  C   UNL     1      83.652  59.655  11.321  1.00  0.00     0.000 C 
BRANCH   7   8
ATOM      8  C   UNL     1      83.731  60.119  12.787  1.00  0.00     0.006 C 
BRANCH   8   9
ATOM      9  C   UNL     1      85.172  60.347  13.263  1.00  0.00     0.053 C 
BRANCH   9  10
ATOM     10  C   UNL     1      85.180  61.049  14.584  1.00  0.00     0.041 C 
ATOM     11  O   UNL     1      84.739  60.471  15.612  1.00  0.00    -0.550 OA
ATOM     12  O   UNL     1      85.630  62.361  14.672  1.00  0.00    -0.550 OA
ENDBRANCH   9  10
ENDBRANCH   8   9
ENDBRANCH   7   8
ENDBRANCH   6   7
ENDBRANCH   5   6
ENDBRANCH   4   5
ENDBRANCH   3   4
ENDBRANCH   1   3
BRANCH   2  13
ATOM     13  C   UNL     1      77.901  56.663   8.628  1.00  0.00     0.027 C 
BRANCH  13  14
ATOM     14  C   UNL     1      77.890  55.362   7.814  1.00  0.00     0.004 C 
BRANCH  14  15
ATOM     15  C   UNL     1      79.311  54.872   7.488  1.00  0.00     0.000 C 
BRANCH  15  16
ATOM     16  C   UNL     1      79.563  53.420   7.933  1.00  0.00     0.000 C 
BRANCH  16  17
ATOM     17  C   UNL     1      80.239  53.265   9.308  1.00  0.00    -0.000 C 
BRANCH  17  18
ATOM     18  C   UNL     1      81.756  53.519   9.260  1.00  0.00    -0.000 C 
BRANCH  18  19
ATOM     19  C   UNL     1      82.243  54.388  10.430  1.00  0.00    -0.003 C 
ATOM     20  C   UNL     1      82.466  55.848  10.034  1.00  0.00     0.004 C 
ENDBRANCH  18  19
ENDBRANCH  17  18
ENDBRANCH  16  17
ENDBRANCH  15  16
ENDBRANCH  14  15
ENDBRANCH  13  14
ENDBRANCH   2  13
TORSDOF 15
ENDMDL
