MODEL 1
REMARK VINA RESULT:    -6.032      0.000      0.000
REMARK INTER + INTRA:          -7.555
REMARK INTER:                  -7.266
REMARK INTRA:                  -0.289
REMARK UNBOUND:                -0.289
REMARK SMILES O=c1c(O)c(-c2ccc(O)c(O)c2)oc2cc(O)cc(O)c12
REMARK SMILES IDX 5 1 3 2 2 3 1 4 22 5 20 6 19 7 17 8 16 9 15 10 14 11 6 12
REMARK SMILES IDX 7 13 8 14 9 15 13 16 11 17 10 18 12 20 4 22 21 24 18 26
REMARK H PARENT 10 19 12 21 4 23 21 25 18 27
REMARK Flexibility Score: inf
ROOT
ATOM      1  C   UNL     1       8.499 -52.731 -21.329  1.00  0.00     0.180 A 
ATOM      2  C   UNL     1       8.670 -53.115 -19.988  1.00  0.00     0.208 A 
ATOM      3  C   UNL     1       8.116 -54.327 -19.550  1.00  0.00     0.238 A 
ATOM      4  O   UNL     1       8.226 -54.639 -18.335  1.00  0.00    -0.285 OA
ATOM      5  C   UNL     1       7.410 -55.148 -20.462  1.00  0.00     0.111 A 
ATOM      6  C   UNL     1       6.840 -56.416 -20.137  1.00  0.00     0.134 A 
ATOM      7  C   UNL     1       6.051 -57.083 -21.083  1.00  0.00     0.093 A 
ATOM      8  C   UNL     1       5.865 -56.560 -22.361  1.00  0.00     0.123 A 
ATOM      9  C   UNL     1       6.467 -55.350 -22.709  1.00  0.00     0.094 A 
ATOM     10  C   UNL     1       7.229 -54.644 -21.776  1.00  0.00     0.146 A 
ATOM     11  O   UNL     1       7.775 -53.491 -22.143  1.00  0.00    -0.452 OA
ENDROOT
BRANCH   1  12
ATOM     12  C   UNL     1       9.076 -51.479 -21.871  1.00  0.00     0.025 A 
ATOM     13  C   UNL     1      10.287 -51.528 -22.580  1.00  0.00     0.016 A 
ATOM     14  C   UNL     1      10.861 -50.357 -23.081  1.00  0.00     0.051 A 
ATOM     15  C   UNL     1      10.242 -49.118 -22.868  1.00  0.00     0.157 A 
ATOM     16  C   UNL     1       8.469 -50.232 -21.641  1.00  0.00     0.062 A 
ATOM     17  C   UNL     1       9.042 -49.057 -22.140  1.00  0.00     0.158 A 
BRANCH  15  18
ATOM     18  O   UNL     1      10.816 -47.952 -23.371  1.00  0.00    -0.504 OA
ATOM     19  H   UNL     1      11.285 -47.288 -22.766  1.00  0.00     0.293 HD
ENDBRANCH  15  18
BRANCH  17  20
ATOM     20  O   UNL     1       8.408 -47.839 -21.897  1.00  0.00    -0.504 OA
ATOM     21  H   UNL     1       8.277 -47.146 -22.625  1.00  0.00     0.293 HD
ENDBRANCH  17  20
ENDBRANCH   1  12
BRANCH   2  22
ATOM     22  O   UNL     1       9.353 -52.278 -19.100  1.00  0.00    -0.502 OA
ATOM     23  H   UNL     1      10.309 -52.453 -18.814  1.00  0.00     0.293 HD
ENDBRANCH   2  22
BRANCH   6  24
ATOM     24  O   UNL     1       7.041 -57.073 -18.918  1.00  0.00    -0.507 OA
ATOM     25  H   UNL     1       7.377 -58.019 -18.824  1.00  0.00     0.293 HD
ENDBRANCH   6  24
BRANCH   8  26
ATOM     26  O   UNL     1       5.087 -57.257 -23.283  1.00  0.00    -0.508 OA
ATOM     27  H   UNL     1       4.163 -57.600 -23.045  1.00  0.00     0.293 HD
ENDBRANCH   8  26
TORSDOF 6
ENDMDL
MODEL 2
REMARK VINA RESULT:    -5.753      1.502      1.887
REMARK INTER + INTRA:          -7.219
REMARK INTER:                  -7.185
REMARK INTRA:                  -0.035
REMARK UNBOUND:                -0.289
REMARK SMILES O=c1c(O)c(-c2ccc(O)c(O)c2)oc2cc(O)cc(O)c12
REMARK SMILES IDX 5 1 3 2 2 3 1 4 22 5 20 6 19 7 17 8 16 9 15 10 14 11 6 12
REMARK SMILES IDX 7 13 8 14 9 15 13 16 11 17 10 18 12 20 4 22 21 24 18 26
REMARK H PARENT 10 19 12 21 4 23 21 25 18 27
REMARK Flexibility Score: inf
ROOT
ATOM      1  C   UNL     1       7.796 -53.811 -20.931  1.00  0.00     0.180 A 
ATOM      2  C   UNL     1       7.629 -54.565 -19.756  1.00  0.00     0.208 A 
ATOM      3  C   UNL     1       7.085 -55.856 -19.847  1.00  0.00     0.238 A 
ATOM      4  O   UNL     1       6.887 -56.505 -18.786  1.00  0.00    -0.285 OA
ATOM      5  C   UNL     1       6.729 -56.383 -21.112  1.00  0.00     0.111 A 
ATOM      6  C   UNL     1       6.207 -57.694 -21.326  1.00  0.00     0.134 A 
ATOM      7  C   UNL     1       5.768 -58.063 -22.604  1.00  0.00     0.093 A 
ATOM      8  C   UNL     1       5.892 -57.194 -23.686  1.00  0.00     0.123 A 
ATOM      9  C   UNL     1       6.457 -55.931 -23.500  1.00  0.00     0.094 A 
ATOM     10  C   UNL     1       6.871 -55.521 -22.231  1.00  0.00     0.146 A 
ATOM     11  O   UNL     1       7.392 -54.308 -22.094  1.00  0.00    -0.452 OA
ENDROOT
BRANCH   1  12
ATOM     12  C   UNL     1       8.386 -52.453 -20.918  1.00  0.00     0.025 A 
ATOM     13  C   UNL     1       9.635 -52.249 -20.309  1.00  0.00     0.016 A 
ATOM     14  C   UNL     1      10.201 -50.972 -20.266  1.00  0.00     0.051 A 
ATOM     15  C   UNL     1       9.521 -49.878 -20.817  1.00  0.00     0.157 A 
ATOM     16  C   UNL     1       7.697 -51.349 -21.451  1.00  0.00     0.062 A 
ATOM     17  C   UNL     1       8.261 -50.069 -21.408  1.00  0.00     0.158 A 
BRANCH  15  18
ATOM     18  O   UNL     1      10.089 -48.606 -20.774  1.00  0.00    -0.504 OA
ATOM     19  H   UNL     1      11.039 -48.439 -21.086  1.00  0.00     0.293 HD
ENDBRANCH  15  18
BRANCH  17  20
ATOM     20  O   UNL     1       7.551 -48.998 -21.953  1.00  0.00    -0.504 OA
ATOM     21  H   UNL     1       7.952 -48.071 -22.030  1.00  0.00     0.293 HD
ENDBRANCH  17  20
ENDBRANCH   1  12
BRANCH   2  22
ATOM     22  O   UNL     1       7.966 -54.017 -18.516  1.00  0.00    -0.502 OA
ATOM     23  H   UNL     1       8.798 -54.292 -18.008  1.00  0.00     0.293 HD
ENDBRANCH   2  22
BRANCH   6  24
ATOM     24  O   UNL     1       6.125 -58.673 -20.331  1.00  0.00    -0.507 OA
ATOM     25  H   UNL     1       6.525 -59.597 -20.400  1.00  0.00     0.293 HD
ENDBRANCH   6  24
BRANCH   8  26
ATOM     26  O   UNL     1       5.460 -57.600 -24.947  1.00  0.00    -0.508 OA
ATOM     27  H   UNL     1       4.712 -58.275 -25.059  1.00  0.00     0.293 HD
ENDBRANCH   8  26
TORSDOF 6
ENDMDL
MODEL 3
REMARK VINA RESULT:    -5.512      7.485     11.519
REMARK INTER + INTRA:          -6.928
REMARK INTER:                  -6.705
REMARK INTRA:                  -0.223
REMARK UNBOUND:                -0.289
REMARK SMILES O=c1c(O)c(-c2ccc(O)c(O)c2)oc2cc(O)cc(O)c12
REMARK SMILES IDX 5 1 3 2 2 3 1 4 22 5 20 6 19 7 17 8 16 9 15 10 14 11 6 12
REMARK SMILES IDX 7 13 8 14 9 15 13 16 11 17 10 18 12 20 4 22 21 24 18 26
REMARK H PARENT 10 19 12 21 4 23 21 25 18 27
REMARK Flexibility Score: inf
ROOT
ATOM      1  C   UNL     1       0.626 -59.302 -18.310  1.00  0.00     0.180 A 
ATOM      2  C   UNL     1       1.600 -60.083 -17.662  1.00  0.00     0.208 A 
ATOM      3  C   UNL     1       2.888 -60.160 -18.213  1.00  0.00     0.238 A 
ATOM      4  O   UNL     1       3.739 -60.904 -17.659  1.00  0.00    -0.285 OA
ATOM      5  C   UNL     1       3.192 -59.443 -19.396  1.00  0.00     0.111 A 
ATOM      6  C   UNL     1       4.476 -59.416 -20.020  1.00  0.00     0.134 A 
ATOM      7  C   UNL     1       4.630 -58.779 -21.258  1.00  0.00     0.093 A 
ATOM      8  C   UNL     1       3.564 -58.114 -21.862  1.00  0.00     0.123 A 
ATOM      9  C   UNL     1       2.319 -58.082 -21.231  1.00  0.00     0.094 A 
ATOM     10  C   UNL     1       2.126 -58.739 -20.014  1.00  0.00     0.146 A 
ATOM     11  O   UNL     1       0.924 -58.695 -19.452  1.00  0.00    -0.452 OA
ENDROOT
BRANCH   1  12
ATOM     12  C   UNL     1      -0.746 -59.152 -17.775  1.00  0.00     0.025 A 
ATOM     13  C   UNL     1      -0.953 -58.412 -16.599  1.00  0.00     0.016 A 
ATOM     14  C   UNL     1      -2.236 -58.276 -16.065  1.00  0.00     0.051 A 
ATOM     15  C   UNL     1      -3.331 -58.889 -16.689  1.00  0.00     0.157 A 
ATOM     16  C   UNL     1      -1.844 -59.783 -18.386  1.00  0.00     0.062 A 
ATOM     17  C   UNL     1      -3.131 -59.650 -17.853  1.00  0.00     0.158 A 
BRANCH  15  18
ATOM     18  O   UNL     1      -4.611 -58.749 -16.155  1.00  0.00    -0.504 OA
ATOM     19  H   UNL     1      -4.759 -58.376 -15.223  1.00  0.00     0.293 HD
ENDBRANCH  15  18
BRANCH  17  20
ATOM     20  O   UNL     1      -4.197 -60.285 -18.490  1.00  0.00    -0.504 OA
ATOM     21  H   UNL     1      -4.479 -60.047 -19.434  1.00  0.00     0.293 HD
ENDBRANCH  17  20
ENDBRANCH   1  12
BRANCH   2  22
ATOM     22  O   UNL     1       1.271 -60.800 -16.508  1.00  0.00    -0.502 OA
ATOM     23  H   UNL     1       0.833 -60.365 -15.705  1.00  0.00     0.293 HD
ENDBRANCH   2  22
BRANCH   6  24
ATOM     24  O   UNL     1       5.629 -59.972 -19.457  1.00  0.00    -0.507 OA
ATOM     25  H   UNL     1       6.405 -59.440 -19.093  1.00  0.00     0.293 HD
ENDBRANCH   6  24
BRANCH   8  26
ATOM     26  O   UNL     1       3.757 -57.477 -23.086  1.00  0.00    -0.508 OA
ATOM     27  H   UNL     1       4.682 -57.359 -23.483  1.00  0.00     0.293 HD
ENDBRANCH   8  26
TORSDOF 6
ENDMDL
MODEL 4
REMARK VINA RESULT:    -5.374      1.726      6.558
REMARK INTER + INTRA:          -6.762
REMARK INTER:                  -6.774
REMARK INTRA:                   0.012
REMARK UNBOUND:                -0.289
REMARK SMILES O=c1c(O)c(-c2ccc(O)c(O)c2)oc2cc(O)cc(O)c12
REMARK SMILES IDX 5 1 3 2 2 3 1 4 22 5 20 6 19 7 17 8 16 9 15 10 14 11 6 12
REMARK SMILES IDX 7 13 8 14 9 15 13 16 11 17 10 18 12 20 4 22 21 24 18 26
REMARK H PARENT 10 19 12 21 4 23 21 25 18 27
REMARK Flexibility Score: inf
ROOT
ATOM      1  C   UNL     1       7.971 -54.357 -21.434  1.00  0.00     0.180 A 
ATOM      2  C   UNL     1       9.032 -54.709 -20.581  1.00  0.00     0.208 A 
ATOM      3  C   UNL     1       9.795 -53.691 -19.988  1.00  0.00     0.238 A 
ATOM      4  O   UNL     1      10.777 -54.013 -19.269  1.00  0.00    -0.285 OA
ATOM      5  C   UNL     1       9.480 -52.335 -20.243  1.00  0.00     0.111 A 
ATOM      6  C   UNL     1      10.161 -51.221 -19.665  1.00  0.00     0.134 A 
ATOM      7  C   UNL     1       9.850 -49.923 -20.089  1.00  0.00     0.093 A 
ATOM      8  C   UNL     1       8.839 -49.694 -21.020  1.00  0.00     0.123 A 
ATOM      9  C   UNL     1       8.125 -50.772 -21.548  1.00  0.00     0.094 A 
ATOM     10  C   UNL     1       8.437 -52.079 -21.172  1.00  0.00     0.146 A 
ATOM     11  O   UNL     1       7.743 -53.077 -21.705  1.00  0.00    -0.452 OA
ENDROOT
BRANCH   1  12
ATOM     12  C   UNL     1       7.106 -55.373 -22.076  1.00  0.00     0.025 A 
ATOM     13  C   UNL     1       6.533 -56.387 -21.291  1.00  0.00     0.016 A 
ATOM     14  C   UNL     1       5.732 -57.369 -21.878  1.00  0.00     0.051 A 
ATOM     15  C   UNL     1       5.501 -57.361 -23.260  1.00  0.00     0.157 A 
ATOM     16  C   UNL     1       6.890 -55.380 -23.465  1.00  0.00     0.062 A 
ATOM     17  C   UNL     1       6.088 -56.363 -24.057  1.00  0.00     0.158 A 
BRANCH  15  18
ATOM     18  O   UNL     1       4.698 -58.340 -23.843  1.00  0.00    -0.504 OA
ATOM     19  H   UNL     1       4.460 -59.193 -23.349  1.00  0.00     0.293 HD
ENDBRANCH  15  18
BRANCH  17  20
ATOM     20  O   UNL     1       5.890 -56.335 -25.437  1.00  0.00    -0.504 OA
ATOM     21  H   UNL     1       6.578 -56.698 -26.087  1.00  0.00     0.293 HD
ENDBRANCH  17  20
ENDBRANCH   1  12
BRANCH   2  22
ATOM     22  O   UNL     1       9.339 -56.054 -20.361  1.00  0.00    -0.502 OA
ATOM     23  H   UNL     1       8.634 -56.740 -20.117  1.00  0.00     0.293 HD
ENDBRANCH   2  22
BRANCH   6  24
ATOM     24  O   UNL     1      11.125 -51.334 -18.657  1.00  0.00    -0.507 OA
ATOM     25  H   UNL     1      11.084 -50.861 -17.768  1.00  0.00     0.293 HD
ENDBRANCH   6  24
BRANCH   8  26
ATOM     26  O   UNL     1       8.544 -48.389 -21.408  1.00  0.00    -0.508 OA
ATOM     27  H   UNL     1       8.791 -48.040 -22.327  1.00  0.00     0.293 HD
ENDBRANCH   8  26
TORSDOF 6
ENDMDL
MODEL 5
REMARK VINA RESULT:    -5.360      3.556      6.078
REMARK INTER + INTRA:          -6.745
REMARK INTER:                  -6.439
REMARK INTRA:                  -0.307
REMARK UNBOUND:                -0.289
REMARK SMILES O=c1c(O)c(-c2ccc(O)c(O)c2)oc2cc(O)cc(O)c12
REMARK SMILES IDX 5 1 3 2 2 3 1 4 22 5 20 6 19 7 17 8 16 9 15 10 14 11 6 12
REMARK SMILES IDX 7 13 8 14 9 15 13 16 11 17 10 18 12 20 4 22 21 24 18 26
REMARK H PARENT 10 19 12 21 4 23 21 25 18 27
REMARK Flexibility Score: inf
ROOT
ATOM      1  C   UNL     1       5.999 -57.503 -21.875  1.00  0.00     0.180 A 
ATOM      2  C   UNL     1       5.051 -58.326 -21.243  1.00  0.00     0.208 A 
ATOM      3  C   UNL     1       4.395 -59.312 -21.996  1.00  0.00     0.238 A 
ATOM      4  O   UNL     1       3.508 -60.010 -21.438  1.00  0.00    -0.285 OA
ATOM      5  C   UNL     1       4.705 -59.473 -23.368  1.00  0.00     0.111 A 
ATOM      6  C   UNL     1       4.131 -60.466 -24.218  1.00  0.00     0.134 A 
ATOM      7  C   UNL     1       4.415 -60.450 -25.590  1.00  0.00     0.093 A 
ATOM      8  C   UNL     1       5.301 -59.520 -26.130  1.00  0.00     0.123 A 
ATOM      9  C   UNL     1       5.914 -58.582 -25.298  1.00  0.00     0.094 A 
ATOM     10  C   UNL     1       5.624 -58.550 -23.933  1.00  0.00     0.146 A 
ATOM     11  O   UNL     1       6.220 -57.636 -23.178  1.00  0.00    -0.452 OA
ENDROOT
BRANCH   1  12
ATOM     12  C   UNL     1       6.750 -56.459 -21.141  1.00  0.00     0.025 A 
ATOM     13  C   UNL     1       7.877 -56.821 -20.386  1.00  0.00     0.016 A 
ATOM     14  C   UNL     1       8.587 -55.856 -19.668  1.00  0.00     0.051 A 
ATOM     15  C   UNL     1       8.174 -54.517 -19.682  1.00  0.00     0.157 A 
ATOM     16  C   UNL     1       6.325 -55.118 -21.135  1.00  0.00     0.062 A 
ATOM     17  C   UNL     1       7.034 -54.149 -20.416  1.00  0.00     0.158 A 
BRANCH  15  18
ATOM     18  O   UNL     1       8.886 -53.556 -18.966  1.00  0.00    -0.504 OA
ATOM     19  H   UNL     1       9.798 -53.235 -19.272  1.00  0.00     0.293 HD
ENDBRANCH  15  18
BRANCH  17  20
ATOM     20  O   UNL     1       6.587 -52.828 -20.438  1.00  0.00    -0.504 OA
ATOM     21  H   UNL     1       5.993 -52.448 -19.711  1.00  0.00     0.293 HD
ENDBRANCH  17  20
ENDBRANCH   1  12
BRANCH   2  22
ATOM     22  O   UNL     1       4.744 -58.136 -19.893  1.00  0.00    -0.502 OA
ATOM     23  H   UNL     1       4.959 -58.827 -19.184  1.00  0.00     0.293 HD
ENDBRANCH   2  22
BRANCH   6  24
ATOM     24  O   UNL     1       3.305 -61.499 -23.764  1.00  0.00    -0.507 OA
ATOM     25  H   UNL     1       3.148 -62.367 -24.254  1.00  0.00     0.293 HD
ENDBRANCH   6  24
BRANCH   8  26
ATOM     26  O   UNL     1       5.572 -59.543 -27.497  1.00  0.00    -0.508 OA
ATOM     27  H   UNL     1       6.257 -60.178 -27.891  1.00  0.00     0.293 HD
ENDBRANCH   8  26
TORSDOF 6
ENDMDL
MODEL 6
REMARK VINA RESULT:    -5.272      2.100      4.139
REMARK INTER + INTRA:          -6.640
REMARK INTER:                  -6.345
REMARK INTRA:                  -0.294
REMARK UNBOUND:                -0.289
REMARK SMILES O=c1c(O)c(-c2ccc(O)c(O)c2)oc2cc(O)cc(O)c12
REMARK SMILES IDX 5 1 3 2 2 3 1 4 22 5 20 6 19 7 17 8 16 9 15 10 14 11 6 12
REMARK SMILES IDX 7 13 8 14 9 15 13 16 11 17 10 18 12 20 4 22 21 24 18 26
REMARK H PARENT 10 19 12 21 4 23 21 25 18 27
REMARK Flexibility Score: inf
ROOT
ATOM      1  C   UNL     1       7.599 -55.280 -21.376  1.00  0.00     0.180 A 
ATOM      2  C   UNL     1       6.621 -55.903 -22.171  1.00  0.00     0.208 A 
ATOM      3  C   UNL     1       6.095 -57.137 -21.761  1.00  0.00     0.238 A 
ATOM      4  O   UNL     1       5.260 -57.716 -22.505  1.00  0.00    -0.285 OA
ATOM      5  C   UNL     1       6.542 -57.728 -20.555  1.00  0.00     0.111 A 
ATOM      6  C   UNL     1       6.049 -58.957 -20.022  1.00  0.00     0.134 A 
ATOM      7  C   UNL     1       6.656 -59.512 -18.888  1.00  0.00     0.093 A 
ATOM      8  C   UNL     1       7.692 -58.852 -18.231  1.00  0.00     0.123 A 
ATOM      9  C   UNL     1       8.141 -57.619 -18.708  1.00  0.00     0.094 A 
ATOM     10  C   UNL     1       7.581 -57.058 -19.857  1.00  0.00     0.146 A 
ATOM     11  O   UNL     1       8.044 -55.890 -20.284  1.00  0.00    -0.452 OA
ENDROOT
BRANCH   1  12
ATOM     12  C   UNL     1       8.181 -53.965 -21.730  1.00  0.00     0.025 A 
ATOM     13  C   UNL     1       7.664 -52.800 -21.141  1.00  0.00     0.016 A 
ATOM     14  C   UNL     1       8.184 -51.547 -21.476  1.00  0.00     0.051 A 
ATOM     15  C   UNL     1       9.218 -51.439 -22.415  1.00  0.00     0.157 A 
ATOM     16  C   UNL     1       9.205 -53.851 -22.688  1.00  0.00     0.062 A 
ATOM     17  C   UNL     1       9.726 -52.597 -23.027  1.00  0.00     0.158 A 
BRANCH  15  18
ATOM     18  O   UNL     1       9.736 -50.187 -22.746  1.00  0.00    -0.504 OA
ATOM     19  H   UNL     1      10.517 -50.089 -23.385  1.00  0.00     0.293 HD
ENDBRANCH  15  18
BRANCH  17  20
ATOM     20  O   UNL     1      10.745 -52.522 -23.976  1.00  0.00    -0.504 OA
ATOM     21  H   UNL     1      11.058 -51.639 -24.362  1.00  0.00     0.293 HD
ENDBRANCH  17  20
ENDBRANCH   1  12
BRANCH   2  22
ATOM     22  O   UNL     1       6.210 -55.313 -23.370  1.00  0.00    -0.502 OA
ATOM     23  H   UNL     1       6.559 -55.614 -24.272  1.00  0.00     0.293 HD
ENDBRANCH   2  22
BRANCH   6  24
ATOM     24  O   UNL     1       4.956 -59.653 -20.549  1.00  0.00    -0.507 OA
ATOM     25  H   UNL     1       4.922 -60.054 -21.474  1.00  0.00     0.293 HD
ENDBRANCH   6  24
BRANCH   8  26
ATOM     26  O   UNL     1       8.261 -59.425 -17.096  1.00  0.00    -0.508 OA
ATOM     27  H   UNL     1       8.263 -60.429 -16.953  1.00  0.00     0.293 HD
ENDBRANCH   8  26
TORSDOF 6
ENDMDL
MODEL 7
REMARK VINA RESULT:    -5.240     10.571     11.720
REMARK INTER + INTRA:          -6.601
REMARK INTER:                  -6.363
REMARK INTRA:                  -0.238
REMARK UNBOUND:                -0.289
REMARK SMILES O=c1c(O)c(-c2ccc(O)c(O)c2)oc2cc(O)cc(O)c12
REMARK SMILES IDX 5 1 3 2 2 3 1 4 22 5 20 6 19 7 17 8 16 9 15 10 14 11 6 12
REMARK SMILES IDX 7 13 8 14 9 15 13 16 11 17 10 18 12 20 4 22 21 24 18 26
REMARK H PARENT 10 19 12 21 4 23 21 25 18 27
REMARK Flexibility Score: inf
ROOT
ATOM      1  C   UNL     1       1.927 -59.659 -28.144  1.00  0.00     0.180 A 
ATOM      2  C   UNL     1       2.849 -60.163 -27.209  1.00  0.00     0.208 A 
ATOM      3  C   UNL     1       2.370 -60.736 -26.021  1.00  0.00     0.238 A 
ATOM      4  O   UNL     1       3.201 -61.136 -25.164  1.00  0.00    -0.285 OA
ATOM      5  C   UNL     1       0.975 -60.812 -25.788  1.00  0.00     0.111 A 
ATOM      6  C   UNL     1       0.377 -61.408 -24.637  1.00  0.00     0.134 A 
ATOM      7  C   UNL     1      -1.008 -61.311 -24.448  1.00  0.00     0.093 A 
ATOM      8  C   UNL     1      -1.822 -60.698 -25.400  1.00  0.00     0.123 A 
ATOM      9  C   UNL     1      -1.254 -60.165 -26.558  1.00  0.00     0.094 A 
ATOM     10  C   UNL     1       0.127 -60.215 -26.756  1.00  0.00     0.146 A 
ATOM     11  O   UNL     1       0.629 -59.686 -27.866  1.00  0.00    -0.452 OA
ENDROOT
BRANCH   1  12
ATOM     12  C   UNL     1       2.355 -59.064 -29.430  1.00  0.00     0.025 A 
ATOM     13  C   UNL     1       2.197 -59.798 -30.617  1.00  0.00     0.016 A 
ATOM     14  C   UNL     1       2.614 -59.265 -31.839  1.00  0.00     0.051 A 
ATOM     15  C   UNL     1       3.209 -57.998 -31.892  1.00  0.00     0.157 A 
ATOM     16  C   UNL     1       2.972 -57.801 -29.485  1.00  0.00     0.062 A 
ATOM     17  C   UNL     1       3.392 -57.265 -30.707  1.00  0.00     0.158 A 
BRANCH  15  18
ATOM     18  O   UNL     1       3.621 -57.467 -33.114  1.00  0.00    -0.504 OA
ATOM     19  H   UNL     1       4.602 -57.412 -33.364  1.00  0.00     0.293 HD
ENDBRANCH  15  18
BRANCH  17  20
ATOM     20  O   UNL     1       3.993 -56.007 -30.724  1.00  0.00    -0.504 OA
ATOM     21  H   UNL     1       4.596 -55.688 -29.974  1.00  0.00     0.293 HD
ENDBRANCH  17  20
ENDBRANCH   1  12
BRANCH   2  22
ATOM     22  O   UNL     1       4.221 -60.058 -27.450  1.00  0.00    -0.502 OA
ATOM     23  H   UNL     1       4.723 -60.719 -28.031  1.00  0.00     0.293 HD
ENDBRANCH   2  22
BRANCH   6  24
ATOM     24  O   UNL     1       1.089 -62.125 -23.670  1.00  0.00    -0.507 OA
ATOM     25  H   UNL     1       1.430 -63.067 -23.789  1.00  0.00     0.293 HD
ENDBRANCH   6  24
BRANCH   8  26
ATOM     26  O   UNL     1      -3.197 -60.633 -25.188  1.00  0.00    -0.508 OA
ATOM     27  H   UNL     1      -3.720 -61.433 -24.848  1.00  0.00     0.293 HD
ENDBRANCH   8  26
TORSDOF 6
ENDMDL
MODEL 8
REMARK VINA RESULT:    -5.226     11.228     13.260
REMARK INTER + INTRA:          -6.584
REMARK INTER:                  -6.333
REMARK INTRA:                  -0.250
REMARK UNBOUND:                -0.289
REMARK SMILES O=c1c(O)c(-c2ccc(O)c(O)c2)oc2cc(O)cc(O)c12
REMARK SMILES IDX 5 1 3 2 2 3 1 4 22 5 20 6 19 7 17 8 16 9 15 10 14 11 6 12
REMARK SMILES IDX 7 13 8 14 9 15 13 16 11 17 10 18 12 20 4 22 21 24 18 26
REMARK H PARENT 10 19 12 21 4 23 21 25 18 27
REMARK Flexibility Score: inf
ROOT
ATOM      1  C   UNL     1       0.243 -59.538 -26.749  1.00  0.00     0.180 A 
ATOM      2  C   UNL     1      -0.029 -58.264 -27.279  1.00  0.00     0.208 A 
ATOM      3  C   UNL     1       0.857 -57.713 -28.217  1.00  0.00     0.238 A 
ATOM      4  O   UNL     1       0.637 -56.550 -28.647  1.00  0.00    -0.285 OA
ATOM      5  C   UNL     1       1.997 -58.447 -28.625  1.00  0.00     0.111 A 
ATOM      6  C   UNL     1       2.942 -58.003 -29.599  1.00  0.00     0.134 A 
ATOM      7  C   UNL     1       4.102 -58.753 -29.830  1.00  0.00     0.093 A 
ATOM      8  C   UNL     1       4.319 -59.962 -29.171  1.00  0.00     0.123 A 
ATOM      9  C   UNL     1       3.373 -60.436 -28.261  1.00  0.00     0.094 A 
ATOM     10  C   UNL     1       2.224 -59.692 -27.983  1.00  0.00     0.146 A 
ATOM     11  O   UNL     1       1.355 -60.172 -27.103  1.00  0.00    -0.452 OA
ENDROOT
BRANCH   1  12
ATOM     12  C   UNL     1      -0.658 -60.195 -25.776  1.00  0.00     0.025 A 
ATOM     13  C   UNL     1      -0.226 -60.385 -24.453  1.00  0.00     0.016 A 
ATOM     14  C   UNL     1      -1.052 -61.022 -23.524  1.00  0.00     0.051 A 
ATOM     15  C   UNL     1      -2.315 -61.492 -23.905  1.00  0.00     0.157 A 
ATOM     16  C   UNL     1      -1.919 -60.687 -26.160  1.00  0.00     0.062 A 
ATOM     17  C   UNL     1      -2.747 -61.327 -25.232  1.00  0.00     0.158 A 
BRANCH  15  18
ATOM     18  O   UNL     1      -3.138 -62.125 -22.974  1.00  0.00    -0.504 OA
ATOM     19  H   UNL     1      -3.101 -61.892 -21.988  1.00  0.00     0.293 HD
ENDBRANCH  15  18
BRANCH  17  20
ATOM     20  O   UNL     1      -3.994 -61.796 -25.647  1.00  0.00    -0.504 OA
ATOM     21  H   UNL     1      -4.262 -62.768 -25.552  1.00  0.00     0.293 HD
ENDBRANCH  17  20
ENDBRANCH   1  12
BRANCH   2  22
ATOM     22  O   UNL     1      -1.149 -57.548 -26.846  1.00  0.00    -0.502 OA
ATOM     23  H   UNL     1      -1.249 -57.220 -25.893  1.00  0.00     0.293 HD
ENDBRANCH   2  22
BRANCH   6  24
ATOM     24  O   UNL     1       2.775 -56.855 -30.380  1.00  0.00    -0.507 OA
ATOM     25  H   UNL     1       2.153 -56.093 -30.158  1.00  0.00     0.293 HD
ENDBRANCH   6  24
BRANCH   8  26
ATOM     26  O   UNL     1       5.477 -60.691 -29.437  1.00  0.00    -0.508 OA
ATOM     27  H   UNL     1       6.292 -60.257 -29.854  1.00  0.00     0.293 HD
ENDBRANCH   8  26
TORSDOF 6
ENDMDL
MODEL 9
REMARK VINA RESULT:    -5.218      8.138     11.557
REMARK INTER + INTRA:          -6.574
REMARK INTER:                  -6.300
REMARK INTRA:                  -0.274
REMARK UNBOUND:                -0.289
REMARK SMILES O=c1c(O)c(-c2ccc(O)c(O)c2)oc2cc(O)cc(O)c12
REMARK SMILES IDX 5 1 3 2 2 3 1 4 22 5 20 6 19 7 17 8 16 9 15 10 14 11 6 12
REMARK SMILES IDX 7 13 8 14 9 15 13 16 11 17 10 18 12 20 4 22 21 24 18 26
REMARK H PARENT 10 19 12 21 4 23 21 25 18 27
REMARK Flexibility Score: inf
ROOT
ATOM      1  C   UNL     1       0.003 -59.598 -19.009  1.00  0.00     0.180 A 
ATOM      2  C   UNL     1      -0.243 -58.904 -17.811  1.00  0.00     0.208 A 
ATOM      3  C   UNL     1      -1.500 -59.029 -17.198  1.00  0.00     0.238 A 
ATOM      4  O   UNL     1      -1.733 -58.363 -16.155  1.00  0.00    -0.285 OA
ATOM      5  C   UNL     1      -2.489 -59.857 -17.782  1.00  0.00     0.111 A 
ATOM      6  C   UNL     1      -3.783 -60.089 -17.226  1.00  0.00     0.134 A 
ATOM      7  C   UNL     1      -4.728 -60.823 -17.954  1.00  0.00     0.093 A 
ATOM      8  C   UNL     1      -4.404 -61.387 -19.187  1.00  0.00     0.123 A 
ATOM      9  C   UNL     1      -3.122 -61.218 -19.712  1.00  0.00     0.094 A 
ATOM     10  C   UNL     1      -2.171 -60.461 -19.026  1.00  0.00     0.146 A 
ATOM     11  O   UNL     1      -0.967 -60.314 -19.565  1.00  0.00    -0.452 OA
ENDROOT
BRANCH   1  12
ATOM     12  C   UNL     1       1.312 -59.536 -19.699  1.00  0.00     0.025 A 
ATOM     13  C   UNL     1       2.222 -60.596 -19.551  1.00  0.00     0.016 A 
ATOM     14  C   UNL     1       3.470 -60.548 -20.176  1.00  0.00     0.051 A 
ATOM     15  C   UNL     1       3.834 -59.436 -20.946  1.00  0.00     0.157 A 
ATOM     16  C   UNL     1       1.689 -58.412 -20.456  1.00  0.00     0.062 A 
ATOM     17  C   UNL     1       2.939 -58.361 -21.082  1.00  0.00     0.158 A 
BRANCH  15  18
ATOM     18  O   UNL     1       5.080 -59.393 -21.571  1.00  0.00    -0.504 OA
ATOM     19  H   UNL     1       5.481 -58.520 -21.894  1.00  0.00     0.293 HD
ENDBRANCH  15  18
BRANCH  17  20
ATOM     20  O   UNL     1       3.277 -57.233 -21.829  1.00  0.00    -0.504 OA
ATOM     21  H   UNL     1       4.008 -57.251 -22.531  1.00  0.00     0.293 HD
ENDBRANCH  17  20
ENDBRANCH   1  12
BRANCH   2  22
ATOM     22  O   UNL     1       0.740 -58.075 -17.264  1.00  0.00    -0.502 OA
ATOM     23  H   UNL     1       1.062 -58.171 -16.308  1.00  0.00     0.293 HD
ENDBRANCH   2  22
BRANCH   6  24
ATOM     24  O   UNL     1      -4.179 -59.647 -15.959  1.00  0.00    -0.507 OA
ATOM     25  H   UNL     1      -4.755 -58.837 -15.787  1.00  0.00     0.293 HD
ENDBRANCH   6  24
BRANCH   8  26
ATOM     26  O   UNL     1      -5.363 -62.125 -19.878  1.00  0.00    -0.508 OA
ATOM     27  H   UNL     1      -6.118 -62.599 -19.394  1.00  0.00     0.293 HD
ENDBRANCH   8  26
TORSDOF 6
ENDMDL
