MODEL 1
REMARK VINA RESULT:    -5.416      0.000      0.000
REMARK INTER + INTRA:         -11.698
REMARK INTER:                 -10.482
REMARK INTRA:                  -1.217
REMARK UNBOUND:                -1.217
REMARK SMILES CCCCCCCCCCCCCCCCCC(=O)[O-]
REMARK SMILES IDX 10 1 11 2 12 3 13 4 14 5 15 6 16 7 17 8 18 9 19 10 20 11
REMARK SMILES IDX 9 12 8 13 7 14 6 15 5 16 4 17 3 18 2 19 1 20
REMARK H PARENT
REMARK Flexibility Score: inf
ROOT
ATOM      1  C   UNL     1     -19.422  38.647  85.340  1.00  0.00     0.000 C 
ENDROOT
BRANCH   1   2
ATOM      2  C   UNL     1     -19.281  37.365  84.510  1.00  0.00     0.000 C 
BRANCH   2   3
ATOM      3  C   UNL     1     -17.996  37.394  83.669  1.00  0.00     0.000 C 
BRANCH   3   4
ATOM      4  C   UNL     1     -17.165  36.108  83.811  1.00  0.00     0.000 C 
BRANCH   4   5
ATOM      5  C   UNL     1     -16.645  35.590  82.459  1.00  0.00     0.000 C 
BRANCH   5   6
ATOM      6  C   UNL     1     -17.697  34.777  81.683  1.00  0.00     0.000 C 
BRANCH   6   7
ATOM      7  C   UNL     1     -17.947  35.241  80.233  1.00  0.00     0.006 C 
BRANCH   7   8
ATOM      8  C   UNL     1     -17.859  36.761  80.024  1.00  0.00     0.053 C 
BRANCH   8   9
ATOM      9  C   UNL     1     -18.912  37.260  79.083  1.00  0.00     0.041 C 
ATOM     10  O   UNL     1     -18.640  37.440  77.867  1.00  0.00    -0.550 OA
ATOM     11  O   UNL     1     -20.201  37.494  79.541  1.00  0.00    -0.550 OA
ENDBRANCH   8   9
ENDBRANCH   7   8
ENDBRANCH   6   7
ENDBRANCH   5   6
ENDBRANCH   4   5
ENDBRANCH   3   4
ENDBRANCH   2   3
ENDBRANCH   1   2
BRANCH   1  12
ATOM     12  C   UNL     1     -20.317  38.417  86.563  1.00  0.00     0.000 C 
BRANCH  12  13
ATOM     13  C   UNL     1     -21.083  39.696  86.933  1.00  0.00    -0.000 C 
BRANCH  13  14
ATOM     14  C   UNL     1     -20.354  40.544  87.990  1.00  0.00    -0.000 C 
BRANCH  14  15
ATOM     15  C   UNL     1     -20.027  39.806  89.304  1.00  0.00    -0.000 C 
BRANCH  15  16
ATOM     16  C   UNL     1     -18.524  39.675  89.626  1.00  0.00    -0.000 C 
BRANCH  16  17
ATOM     17  C   UNL     1     -18.065  38.266  90.039  1.00  0.00    -0.000 C 
BRANCH  17  18
ATOM     18  C   UNL     1     -19.011  37.160  89.539  1.00  0.00    -0.000 C 
BRANCH  18  19
ATOM     19  C   UNL     1     -18.362  35.768  89.581  1.00  0.00    -0.003 C 
ATOM     20  C   UNL     1     -17.181  35.635  88.619  1.00  0.00     0.004 C 
ENDBRANCH  18  19
ENDBRANCH  17  18
ENDBRANCH  16  17
ENDBRANCH  15  16
ENDBRANCH  14  15
ENDBRANCH  13  14
ENDBRANCH  12  13
ENDBRANCH   1  12
TORSDOF 16
ENDMDL
MODEL 2
REMARK VINA RESULT:    -5.352      4.097      9.019
REMARK INTER + INTRA:         -11.575
REMARK INTER:                 -10.381
REMARK INTRA:                  -1.195
REMARK UNBOUND:                -1.217
REMARK SMILES CCCCCCCCCCCCCCCCCC(=O)[O-]
REMARK SMILES IDX 10 1 11 2 12 3 13 4 14 5 15 6 16 7 17 8 18 9 19 10 20 11
REMARK SMILES IDX 9 12 8 13 7 14 6 15 5 16 4 17 3 18 2 19 1 20
REMARK H PARENT
REMARK Flexibility Score: inf
ROOT
ATOM      1  C   UNL     1     -19.527  38.657  85.428  1.00  0.00     0.000 C 
ENDROOT
BRANCH   1   2
ATOM      2  C   UNL     1     -20.385  38.377  86.668  1.00  0.00     0.000 C 
BRANCH   2   3
ATOM      3  C   UNL     1     -19.565  38.548  87.955  1.00  0.00     0.000 C 
BRANCH   3   4
ATOM      4  C   UNL     1     -19.445  37.245  88.760  1.00  0.00     0.000 C 
BRANCH   4   5
ATOM      5  C   UNL     1     -18.385  37.333  89.871  1.00  0.00     0.000 C 
BRANCH   5   6
ATOM      6  C   UNL     1     -17.944  38.779  90.167  1.00  0.00     0.000 C 
BRANCH   6   7
ATOM      7  C   UNL     1     -18.381  39.330  91.539  1.00  0.00     0.006 C 
BRANCH   7   8
ATOM      8  C   UNL     1     -19.087  40.695  91.484  1.00  0.00     0.053 C 
BRANCH   8   9
ATOM      9  C   UNL     1     -20.505  40.574  91.017  1.00  0.00     0.041 C 
ATOM     10  O   UNL     1     -21.046  41.520  90.386  1.00  0.00    -0.550 OA
ATOM     11  O   UNL     1     -21.217  39.405  91.247  1.00  0.00    -0.550 OA
ENDBRANCH   8   9
ENDBRANCH   7   8
ENDBRANCH   6   7
ENDBRANCH   5   6
ENDBRANCH   4   5
ENDBRANCH   3   4
ENDBRANCH   2   3
ENDBRANCH   1   2
BRANCH   1  12
ATOM     12  C   UNL     1     -19.425  37.415  84.536  1.00  0.00     0.000 C 
BRANCH  12  13
ATOM     13  C   UNL     1     -18.113  37.417  83.736  1.00  0.00    -0.000 C 
BRANCH  13  14
ATOM     14  C   UNL     1     -17.299  36.125  83.921  1.00  0.00    -0.000 C 
BRANCH  14  15
ATOM     15  C   UNL     1     -16.622  35.594  82.641  1.00  0.00    -0.000 C 
BRANCH  15  16
ATOM     16  C   UNL     1     -17.431  34.537  81.862  1.00  0.00    -0.000 C 
BRANCH  16  17
ATOM     17  C   UNL     1     -17.884  34.967  80.456  1.00  0.00    -0.000 C 
BRANCH  17  18
ATOM     18  C   UNL     1     -17.815  36.489  80.247  1.00  0.00    -0.000 C 
BRANCH  18  19
ATOM     19  C   UNL     1     -19.063  37.044  79.542  1.00  0.00    -0.003 C 
ATOM     20  C   UNL     1     -18.804  37.408  78.079  1.00  0.00     0.004 C 
ENDBRANCH  18  19
ENDBRANCH  17  18
ENDBRANCH  16  17
ENDBRANCH  15  16
ENDBRANCH  14  15
ENDBRANCH  13  14
ENDBRANCH  12  13
ENDBRANCH   1  12
TORSDOF 16
ENDMDL
MODEL 3
REMARK VINA RESULT:    -5.304      1.383      2.320
REMARK INTER + INTRA:         -11.481
REMARK INTER:                 -10.055
REMARK INTRA:                  -1.426
REMARK UNBOUND:                -1.217
REMARK SMILES CCCCCCCCCCCCCCCCCC(=O)[O-]
REMARK SMILES IDX 10 1 11 2 12 3 13 4 14 5 15 6 16 7 17 8 18 9 19 10 20 11
REMARK SMILES IDX 9 12 8 13 7 14 6 15 5 16 4 17 3 18 2 19 1 20
REMARK H PARENT
REMARK Flexibility Score: inf
ROOT
ATOM      1  C   UNL     1     -19.498  40.140  86.764  1.00  0.00     0.000 C 
ENDROOT
BRANCH   1   2
ATOM      2  C   UNL     1     -20.125  38.740  86.789  1.00  0.00     0.000 C 
BRANCH   2   3
ATOM      3  C   UNL     1     -20.190  38.141  85.377  1.00  0.00     0.000 C 
BRANCH   3   4
ATOM      4  C   UNL     1     -18.815  38.082  84.694  1.00  0.00     0.000 C 
BRANCH   4   5
ATOM      5  C   UNL     1     -18.632  36.811  83.845  1.00  0.00     0.000 C 
BRANCH   5   6
ATOM      6  C   UNL     1     -17.156  36.407  83.679  1.00  0.00     0.000 C 
BRANCH   6   7
ATOM      7  C   UNL     1     -16.722  36.083  82.235  1.00  0.00     0.006 C 
BRANCH   7   8
ATOM      8  C   UNL     1     -17.302  37.024  81.167  1.00  0.00     0.053 C 
BRANCH   8   9
ATOM      9  C   UNL     1     -18.080  36.280  80.126  1.00  0.00     0.041 C 
ATOM     10  O   UNL     1     -18.340  35.058  80.283  1.00  0.00    -0.550 OA
ATOM     11  O   UNL     1     -18.548  36.943  79.000  1.00  0.00    -0.550 OA
ENDBRANCH   8   9
ENDBRANCH   7   8
ENDBRANCH   6   7
ENDBRANCH   5   6
ENDBRANCH   4   5
ENDBRANCH   3   4
ENDBRANCH   2   3
ENDBRANCH   1   2
BRANCH   1  12
ATOM     12  C   UNL     1     -20.235  41.093  87.711  1.00  0.00     0.000 C 
BRANCH  12  13
ATOM     13  C   UNL     1     -20.728  40.352  88.963  1.00  0.00    -0.000 C 
BRANCH  13  14
ATOM     14  C   UNL     1     -20.911  41.283  90.175  1.00  0.00    -0.000 C 
BRANCH  14  15
ATOM     15  C   UNL     1     -20.411  40.712  91.517  1.00  0.00    -0.000 C 
BRANCH  15  16
ATOM     16  C   UNL     1     -20.089  39.204  91.508  1.00  0.00    -0.000 C 
BRANCH  16  17
ATOM     17  C   UNL     1     -18.592  38.855  91.571  1.00  0.00    -0.000 C 
BRANCH  17  18
ATOM     18  C   UNL     1     -18.055  38.290  90.245  1.00  0.00    -0.000 C 
BRANCH  18  19
ATOM     19  C   UNL     1     -18.917  37.138  89.704  1.00  0.00    -0.003 C 
ATOM     20  C   UNL     1     -18.084  35.945  89.233  1.00  0.00     0.004 C 
ENDBRANCH  18  19
ENDBRANCH  17  18
ENDBRANCH  16  17
ENDBRANCH  15  16
ENDBRANCH  14  15
ENDBRANCH  13  14
ENDBRANCH  12  13
ENDBRANCH   1  12
TORSDOF 16
ENDMDL
MODEL 4
REMARK VINA RESULT:    -5.254      7.743     11.788
REMARK INTER + INTRA:         -11.384
REMARK INTER:                  -9.206
REMARK INTRA:                  -2.178
REMARK UNBOUND:                -1.217
REMARK SMILES CCCCCCCCCCCCCCCCCC(=O)[O-]
REMARK SMILES IDX 10 1 11 2 12 3 13 4 14 5 15 6 16 7 17 8 18 9 19 10 20 11
REMARK SMILES IDX 9 12 8 13 7 14 6 15 5 16 4 17 3 18 2 19 1 20
REMARK H PARENT
REMARK Flexibility Score: inf
ROOT
ATOM      1  C   UNL     1     -23.275  46.372  86.554  1.00  0.00     0.000 C 
ENDROOT
BRANCH   1   2
ATOM      2  C   UNL     1     -24.715  46.883  86.419  1.00  0.00     0.000 C 
BRANCH   2   3
ATOM      3  C   UNL     1     -25.693  45.983  87.188  1.00  0.00     0.000 C 
BRANCH   3   4
ATOM      4  C   UNL     1     -26.359  46.704  88.371  1.00  0.00     0.000 C 
BRANCH   4   5
ATOM      5  C   UNL     1     -25.698  46.362  89.717  1.00  0.00     0.000 C 
BRANCH   5   6
ATOM      6  C   UNL     1     -26.577  45.461  90.605  1.00  0.00     0.000 C 
BRANCH   6   7
ATOM      7  C   UNL     1     -25.939  44.116  91.010  1.00  0.00     0.006 C 
BRANCH   7   8
ATOM      8  C   UNL     1     -26.924  43.095  91.601  1.00  0.00     0.053 C 
BRANCH   8   9
ATOM      9  C   UNL     1     -28.083  42.839  90.688  1.00  0.00     0.041 C 
ATOM     10  O   UNL     1     -29.251  43.144  91.047  1.00  0.00    -0.550 OA
ATOM     11  O   UNL     1     -27.871  42.295  89.428  1.00  0.00    -0.550 OA
ENDBRANCH   8   9
ENDBRANCH   7   8
ENDBRANCH   6   7
ENDBRANCH   5   6
ENDBRANCH   4   5
ENDBRANCH   3   4
ENDBRANCH   2   3
ENDBRANCH   1   2
BRANCH   1  12
ATOM     12  C   UNL     1     -22.585  46.983  87.779  1.00  0.00     0.000 C 
BRANCH  12  13
ATOM     13  C   UNL     1     -22.054  45.887  88.715  1.00  0.00    -0.000 C 
BRANCH  13  14
ATOM     14  C   UNL     1     -22.665  44.505  88.425  1.00  0.00    -0.000 C 
BRANCH  14  15
ATOM     15  C   UNL     1     -22.204  43.378  89.370  1.00  0.00    -0.000 C 
BRANCH  15  16
ATOM     16  C   UNL     1     -21.176  42.398  88.770  1.00  0.00    -0.000 C 
BRANCH  16  17
ATOM     17  C   UNL     1     -21.326  42.137  87.261  1.00  0.00    -0.000 C 
BRANCH  17  18
ATOM     18  C   UNL     1     -20.035  42.422  86.475  1.00  0.00    -0.000 C 
BRANCH  18  19
ATOM     19  C   UNL     1     -19.794  43.926  86.265  1.00  0.00    -0.003 C 
ATOM     20  C   UNL     1     -20.551  44.484  85.059  1.00  0.00     0.004 C 
ENDBRANCH  18  19
ENDBRANCH  17  18
ENDBRANCH  16  17
ENDBRANCH  15  16
ENDBRANCH  14  15
ENDBRANCH  13  14
ENDBRANCH  12  13
ENDBRANCH   1  12
TORSDOF 16
ENDMDL
MODEL 5
REMARK VINA RESULT:    -5.253      8.228     12.150
REMARK INTER + INTRA:         -11.384
REMARK INTER:                  -9.795
REMARK INTRA:                  -1.588
REMARK UNBOUND:                -1.217
REMARK SMILES CCCCCCCCCCCCCCCCCC(=O)[O-]
REMARK SMILES IDX 10 1 11 2 12 3 13 4 14 5 15 6 16 7 17 8 18 9 19 10 20 11
REMARK SMILES IDX 9 12 8 13 7 14 6 15 5 16 4 17 3 18 2 19 1 20
REMARK H PARENT
REMARK Flexibility Score: inf
ROOT
ATOM      1  C   UNL     1     -23.342  43.492  87.991  1.00  0.00     0.000 C 
ENDROOT
BRANCH   1   2
ATOM      2  C   UNL     1     -23.435  44.949  88.460  1.00  0.00     0.000 C 
BRANCH   2   3
ATOM      3  C   UNL     1     -24.502  45.716  87.664  1.00  0.00     0.000 C 
BRANCH   3   4
ATOM      4  C   UNL     1     -25.929  45.432  88.159  1.00  0.00     0.000 C 
BRANCH   4   5
ATOM      5  C   UNL     1     -26.400  46.450  89.212  1.00  0.00     0.000 C 
BRANCH   5   6
ATOM      6  C   UNL     1     -26.675  45.808  90.585  1.00  0.00     0.000 C 
BRANCH   6   7
ATOM      7  C   UNL     1     -26.077  44.401  90.783  1.00  0.00     0.006 C 
BRANCH   7   8
ATOM      8  C   UNL     1     -26.978  43.427  91.559  1.00  0.00     0.053 C 
BRANCH   8   9
ATOM      9  C   UNL     1     -28.080  42.879  90.704  1.00  0.00     0.041 C 
ATOM     10  O   UNL     1     -29.277  42.970  91.081  1.00  0.00    -0.550 OA
ATOM     11  O   UNL     1     -27.786  42.299  89.477  1.00  0.00    -0.550 OA
ENDBRANCH   8   9
ENDBRANCH   7   8
ENDBRANCH   6   7
ENDBRANCH   5   6
ENDBRANCH   4   5
ENDBRANCH   3   4
ENDBRANCH   2   3
ENDBRANCH   1   2
BRANCH   1  12
ATOM     12  C   UNL     1     -22.041  42.839  88.471  1.00  0.00     0.000 C 
BRANCH  12  13
ATOM     13  C   UNL     1     -20.816  43.564  87.893  1.00  0.00    -0.000 C 
BRANCH  13  14
ATOM     14  C   UNL     1     -20.407  43.033  86.507  1.00  0.00    -0.000 C 
BRANCH  14  15
ATOM     15  C   UNL     1     -20.318  44.103  85.401  1.00  0.00    -0.000 C 
BRANCH  15  16
ATOM     16  C   UNL     1     -21.313  45.273  85.539  1.00  0.00    -0.000 C 
BRANCH  16  17
ATOM     17  C   UNL     1     -21.092  46.437  84.557  1.00  0.00    -0.000 C 
BRANCH  17  18
ATOM     18  C   UNL     1     -20.720  45.961  83.142  1.00  0.00    -0.000 C 
BRANCH  18  19
ATOM     19  C   UNL     1     -19.489  46.690  82.580  1.00  0.00    -0.003 C 
ATOM     20  C   UNL     1     -18.509  47.125  83.671  1.00  0.00     0.004 C 
ENDBRANCH  18  19
ENDBRANCH  17  18
ENDBRANCH  16  17
ENDBRANCH  15  16
ENDBRANCH  14  15
ENDBRANCH  13  14
ENDBRANCH  12  13
ENDBRANCH   1  12
TORSDOF 16
ENDMDL
MODEL 6
REMARK VINA RESULT:    -5.227      8.337     12.139
REMARK INTER + INTRA:         -11.332
REMARK INTER:                  -9.736
REMARK INTRA:                  -1.596
REMARK UNBOUND:                -1.217
REMARK SMILES CCCCCCCCCCCCCCCCCC(=O)[O-]
REMARK SMILES IDX 10 1 11 2 12 3 13 4 14 5 15 6 16 7 17 8 18 9 19 10 20 11
REMARK SMILES IDX 9 12 8 13 7 14 6 15 5 16 4 17 3 18 2 19 1 20
REMARK H PARENT
REMARK Flexibility Score: inf
ROOT
ATOM      1  C   UNL     1     -23.603  46.997  87.208  1.00  0.00     0.000 C 
ENDROOT
BRANCH   1   2
ATOM      2  C   UNL     1     -24.921  46.695  86.485  1.00  0.00     0.000 C 
BRANCH   2   3
ATOM      3  C   UNL     1     -25.875  45.900  87.390  1.00  0.00     0.000 C 
BRANCH   3   4
ATOM      4  C   UNL     1     -26.465  46.753  88.524  1.00  0.00     0.000 C 
BRANCH   4   5
ATOM      5  C   UNL     1     -26.223  46.136  89.913  1.00  0.00     0.000 C 
BRANCH   5   6
ATOM      6  C   UNL     1     -25.201  44.984  89.887  1.00  0.00     0.000 C 
BRANCH   6   7
ATOM      7  C   UNL     1     -25.669  43.677  90.559  1.00  0.00     0.006 C 
BRANCH   7   8
ATOM      8  C   UNL     1     -26.998  43.792  91.323  1.00  0.00     0.053 C 
BRANCH   8   9
ATOM      9  C   UNL     1     -28.086  42.986  90.681  1.00  0.00     0.041 C 
ATOM     10  O   UNL     1     -27.974  42.610  89.485  1.00  0.00    -0.550 OA
ATOM     11  O   UNL     1     -29.207  42.621  91.414  1.00  0.00    -0.550 OA
ENDBRANCH   8   9
ENDBRANCH   7   8
ENDBRANCH   6   7
ENDBRANCH   5   6
ENDBRANCH   4   5
ENDBRANCH   3   4
ENDBRANCH   2   3
ENDBRANCH   1   2
BRANCH   1  12
ATOM     12  C   UNL     1     -22.454  46.161  86.633  1.00  0.00     0.000 C 
BRANCH  12  13
ATOM     13  C   UNL     1     -22.230  44.888  87.463  1.00  0.00    -0.000 C 
BRANCH  13  14
ATOM     14  C   UNL     1     -20.744  44.509  87.586  1.00  0.00    -0.000 C 
BRANCH  14  15
ATOM     15  C   UNL     1     -20.287  43.359  86.666  1.00  0.00    -0.000 C 
BRANCH  15  16
ATOM     16  C   UNL     1     -19.599  43.799  85.358  1.00  0.00    -0.000 C 
BRANCH  16  17
ATOM     17  C   UNL     1     -18.268  44.550  85.540  1.00  0.00    -0.000 C 
BRANCH  17  18
ATOM     18  C   UNL     1     -18.166  45.805  84.656  1.00  0.00    -0.000 C 
BRANCH  18  19
ATOM     19  C   UNL     1     -19.538  46.294  84.168  1.00  0.00    -0.003 C 
ATOM     20  C   UNL     1     -19.512  46.783  82.719  1.00  0.00     0.004 C 
ENDBRANCH  18  19
ENDBRANCH  17  18
ENDBRANCH  16  17
ENDBRANCH  15  16
ENDBRANCH  14  15
ENDBRANCH  13  14
ENDBRANCH  12  13
ENDBRANCH   1  12
TORSDOF 16
ENDMDL
MODEL 7
REMARK VINA RESULT:    -5.213      6.098      9.321
REMARK INTER + INTRA:         -11.306
REMARK INTER:                  -9.824
REMARK INTRA:                  -1.482
REMARK UNBOUND:                -1.217
REMARK SMILES CCCCCCCCCCCCCCCCCC(=O)[O-]
REMARK SMILES IDX 10 1 11 2 12 3 13 4 14 5 15 6 16 7 17 8 18 9 19 10 20 11
REMARK SMILES IDX 9 12 8 13 7 14 6 15 5 16 4 17 3 18 2 19 1 20
REMARK H PARENT
REMARK Flexibility Score: inf
ROOT
ATOM      1  C   UNL     1     -21.293  42.701  88.132  1.00  0.00     0.000 C 
ENDROOT
BRANCH   1   2
ATOM      2  C   UNL     1     -21.356  41.471  87.218  1.00  0.00     0.000 C 
BRANCH   2   3
ATOM      3  C   UNL     1     -21.146  40.178  88.021  1.00  0.00     0.000 C 
BRANCH   3   4
ATOM      4  C   UNL     1     -19.819  39.480  87.682  1.00  0.00     0.000 C 
BRANCH   4   5
ATOM      5  C   UNL     1     -19.795  38.009  88.135  1.00  0.00     0.000 C 
BRANCH   5   6
ATOM      6  C   UNL     1     -19.679  37.853  89.662  1.00  0.00     0.000 C 
BRANCH   6   7
ATOM      7  C   UNL     1     -18.263  38.061  90.238  1.00  0.00     0.006 C 
BRANCH   7   8
ATOM      8  C   UNL     1     -18.220  38.839  91.562  1.00  0.00     0.053 C 
BRANCH   8   9
ATOM      9  C   UNL     1     -17.887  40.285  91.352  1.00  0.00     0.041 C 
ATOM     10  O   UNL     1     -16.794  40.750  91.771  1.00  0.00    -0.550 OA
ATOM     11  O   UNL     1     -18.767  41.110  90.665  1.00  0.00    -0.550 OA
ENDBRANCH   8   9
ENDBRANCH   7   8
ENDBRANCH   6   7
ENDBRANCH   5   6
ENDBRANCH   4   5
ENDBRANCH   3   4
ENDBRANCH   2   3
ENDBRANCH   1   2
BRANCH   1  12
ATOM     12  C   UNL     1     -20.323  43.750  87.579  1.00  0.00     0.000 C 
BRANCH  12  13
ATOM     13  C   UNL     1     -20.451  43.869  86.053  1.00  0.00    -0.000 C 
BRANCH  13  14
ATOM     14  C   UNL     1     -19.113  43.655  85.323  1.00  0.00    -0.000 C 
BRANCH  14  15
ATOM     15  C   UNL     1     -18.020  44.693  85.649  1.00  0.00    -0.000 C 
BRANCH  15  16
ATOM     16  C   UNL     1     -17.614  45.608  84.477  1.00  0.00    -0.000 C 
BRANCH  16  17
ATOM     17  C   UNL     1     -18.671  46.648  84.063  1.00  0.00    -0.000 C 
BRANCH  17  18
ATOM     18  C   UNL     1     -19.295  46.349  82.690  1.00  0.00    -0.000 C 
BRANCH  18  19
ATOM     19  C   UNL     1     -20.832  46.341  82.731  1.00  0.00    -0.003 C 
ATOM     20  C   UNL     1     -21.389  46.695  84.111  1.00  0.00     0.004 C 
ENDBRANCH  18  19
ENDBRANCH  17  18
ENDBRANCH  16  17
ENDBRANCH  15  16
ENDBRANCH  14  15
ENDBRANCH  13  14
ENDBRANCH  12  13
ENDBRANCH   1  12
TORSDOF 16
ENDMDL
MODEL 8
REMARK VINA RESULT:    -5.146      6.926     10.940
REMARK INTER + INTRA:         -11.176
REMARK INTER:                  -9.587
REMARK INTRA:                  -1.589
REMARK UNBOUND:                -1.217
REMARK SMILES CCCCCCCCCCCCCCCCCC(=O)[O-]
REMARK SMILES IDX 10 1 11 2 12 3 13 4 14 5 15 6 16 7 17 8 18 9 19 10 20 11
REMARK SMILES IDX 9 12 8 13 7 14 6 15 5 16 4 17 3 18 2 19 1 20
REMARK H PARENT
REMARK Flexibility Score: inf
ROOT
ATOM      1  C   UNL     1     -23.508  44.078  88.232  1.00  0.00     0.000 C 
ENDROOT
BRANCH   1   2
ATOM      2  C   UNL     1     -23.453  45.403  87.461  1.00  0.00     0.000 C 
BRANCH   2   3
ATOM      3  C   UNL     1     -24.865  45.964  87.232  1.00  0.00     0.000 C 
BRANCH   3   4
ATOM      4  C   UNL     1     -25.907  45.353  88.181  1.00  0.00     0.000 C 
BRANCH   4   5
ATOM      5  C   UNL     1     -26.493  46.388  89.158  1.00  0.00     0.000 C 
BRANCH   5   6
ATOM      6  C   UNL     1     -26.686  45.829  90.580  1.00  0.00     0.000 C 
BRANCH   6   7
ATOM      7  C   UNL     1     -26.013  44.467  90.846  1.00  0.00     0.006 C 
BRANCH   7   8
ATOM      8  C   UNL     1     -26.911  43.436  91.548  1.00  0.00     0.053 C 
BRANCH   8   9
ATOM      9  C   UNL     1     -28.045  42.994  90.675  1.00  0.00     0.041 C 
ATOM     10  O   UNL     1     -29.232  43.277  90.986  1.00  0.00    -0.550 OA
ATOM     11  O   UNL     1     -27.790  42.298  89.501  1.00  0.00    -0.550 OA
ENDBRANCH   8   9
ENDBRANCH   7   8
ENDBRANCH   6   7
ENDBRANCH   5   6
ENDBRANCH   4   5
ENDBRANCH   3   4
ENDBRANCH   2   3
ENDBRANCH   1   2
BRANCH   1  12
ATOM     12  C   UNL     1     -22.177  43.794  88.937  1.00  0.00     0.000 C 
BRANCH  12  13
ATOM     13  C   UNL     1     -21.756  42.329  88.751  1.00  0.00    -0.000 C 
BRANCH  13  14
ATOM     14  C   UNL     1     -20.323  42.182  88.211  1.00  0.00    -0.000 C 
BRANCH  14  15
ATOM     15  C   UNL     1     -20.080  40.934  87.340  1.00  0.00    -0.000 C 
BRANCH  15  16
ATOM     16  C   UNL     1     -21.261  39.946  87.266  1.00  0.00    -0.000 C 
BRANCH  16  17
ATOM     17  C   UNL     1     -20.945  38.514  87.734  1.00  0.00    -0.000 C 
BRANCH  17  18
ATOM     18  C   UNL     1     -19.619  38.419  88.508  1.00  0.00    -0.000 C 
BRANCH  18  19
ATOM     19  C   UNL     1     -19.825  38.046  89.984  1.00  0.00    -0.003 C 
ATOM     20  C   UNL     1     -20.653  39.080  90.747  1.00  0.00     0.004 C 
ENDBRANCH  18  19
ENDBRANCH  17  18
ENDBRANCH  16  17
ENDBRANCH  15  16
ENDBRANCH  14  15
ENDBRANCH  13  14
ENDBRANCH  12  13
ENDBRANCH   1  12
TORSDOF 16
ENDMDL
MODEL 9
REMARK VINA RESULT:    -5.102      7.521     11.214
REMARK INTER + INTRA:         -11.091
REMARK INTER:                  -9.150
REMARK INTRA:                  -1.942
REMARK UNBOUND:                -1.217
REMARK SMILES CCCCCCCCCCCCCCCCCC(=O)[O-]
REMARK SMILES IDX 10 1 11 2 12 3 13 4 14 5 15 6 16 7 17 8 18 9 19 10 20 11
REMARK SMILES IDX 9 12 8 13 7 14 6 15 5 16 4 17 3 18 2 19 1 20
REMARK H PARENT
REMARK Flexibility Score: inf
ROOT
ATOM      1  C   UNL     1     -21.467  41.405  87.801  1.00  0.00     0.000 C 
ENDROOT
BRANCH   1   2
ATOM      2  C   UNL     1     -21.366  41.868  89.260  1.00  0.00     0.000 C 
BRANCH   2   3
ATOM      3  C   UNL     1     -22.098  43.203  89.465  1.00  0.00     0.000 C 
BRANCH   3   4
ATOM      4  C   UNL     1     -23.358  43.329  88.594  1.00  0.00     0.000 C 
BRANCH   4   5
ATOM      5  C   UNL     1     -23.815  44.788  88.426  1.00  0.00     0.000 C 
BRANCH   5   6
ATOM      6  C   UNL     1     -25.316  44.983  88.707  1.00  0.00     0.000 C 
BRANCH   6   7
ATOM      7  C   UNL     1     -25.651  45.630  90.067  1.00  0.00     0.006 C 
BRANCH   7   8
ATOM      8  C   UNL     1     -26.924  45.088  90.736  1.00  0.00     0.053 C 
BRANCH   8   9
ATOM      9  C   UNL     1     -26.693  43.759  91.389  1.00  0.00     0.041 C 
ATOM     10  O   UNL     1     -27.641  42.939  91.510  1.00  0.00    -0.550 OA
ATOM     11  O   UNL     1     -25.423  43.413  91.833  1.00  0.00    -0.550 OA
ENDBRANCH   8   9
ENDBRANCH   7   8
ENDBRANCH   6   7
ENDBRANCH   5   6
ENDBRANCH   4   5
ENDBRANCH   3   4
ENDBRANCH   2   3
ENDBRANCH   1   2
BRANCH   1  12
ATOM     12  C   UNL     1     -20.081  41.106  87.220  1.00  0.00     0.000 C 
BRANCH  12  13
ATOM     13  C   UNL     1     -19.505  42.338  86.506  1.00  0.00    -0.000 C 
BRANCH  13  14
ATOM     14  C   UNL     1     -20.595  43.253  85.920  1.00  0.00    -0.000 C 
BRANCH  14  15
ATOM     15  C   UNL     1     -20.582  44.701  86.448  1.00  0.00    -0.000 C 
BRANCH  15  16
ATOM     16  C   UNL     1     -21.229  45.745  85.515  1.00  0.00    -0.000 C 
BRANCH  16  17
ATOM     17  C   UNL     1     -20.443  46.046  84.227  1.00  0.00    -0.000 C 
BRANCH  17  18
ATOM     18  C   UNL     1     -19.086  46.717  84.499  1.00  0.00    -0.000 C 
BRANCH  18  19
ATOM     19  C   UNL     1     -17.900  45.838  84.075  1.00  0.00    -0.003 C 
ATOM     20  C   UNL     1     -17.165  45.219  85.265  1.00  0.00     0.004 C 
ENDBRANCH  18  19
ENDBRANCH  17  18
ENDBRANCH  16  17
ENDBRANCH  15  16
ENDBRANCH  14  15
ENDBRANCH  13  14
ENDBRANCH  12  13
ENDBRANCH   1  12
TORSDOF 16
ENDMDL
