MODEL 1
REMARK VINA RESULT:     2.363      0.000      0.000
REMARK INTER + INTRA:           2.802
REMARK INTER:                   2.570
REMARK INTRA:                   0.232
REMARK UNBOUND:                 0.232
REMARK SMILES C[C@@H]1[C@H]2C3=CC[C@@H]4[C@]5(C)CC[C@H](O)C(C)(C)[C@H]5CC[C@]4(C)[C@@]3(C)CC[C@]2(C(=O)[O-])CC[C@@H]1C
REMARK SMILES IDX 26 1 30 2 25 3 3 4 31 5 24 6 4 7 2 8 32 9 22 10 5 11 1 12
REMARK SMILES IDX 33 13 23 14 20 15 6 16 7 17 19 18 21 19 8 20 18 21 17 22
REMARK SMILES IDX 10 23 9 24 14 25 11 26 12 27 15 28 16 29 27 30 28 31 29 32
REMARK SMILES IDX 13 33
REMARK H PARENT 13 34
REMARK Flexibility Score: inf
ROOT
ATOM      1  C   UNL     1       9.742  19.611  10.205  1.00  0.00     0.017 C 
ATOM      2  C   UNL     1      11.193  19.163  10.586  1.00  0.00     0.014 C 
ATOM      3  C   UNL     1       9.079  20.423  11.370  1.00  0.00     0.014 C 
ATOM      4  C   UNL     1       9.745  20.571   8.965  1.00  0.00     0.030 C 
ATOM      5  C   UNL     1      12.289  20.010   9.945  1.00  0.00     0.004 C 
ATOM      6  C   UNL     1       7.644  20.945  11.029  1.00  0.00     0.013 C 
ATOM      7  C   UNL     1       8.286  20.919   8.633  1.00  0.00    -0.063 C 
ATOM      8  C   UNL     1      10.719  20.127   7.842  1.00  0.00    -0.003 C 
ATOM      9  C   UNL     1      12.200  20.066   8.390  1.00  0.00    -0.011 C 
ATOM     10  C   UNL     1       7.525  21.747   9.681  1.00  0.00    -0.006 C 
ATOM     11  C   UNL     1       7.631  20.088   7.821  1.00  0.00    -0.027 C 
ATOM     12  C   UNL     1      10.569  21.004   6.574  1.00  0.00     0.008 C 
ATOM     13  C   UNL     1      13.125  21.213   7.912  1.00  0.00     0.008 C 
ATOM     14  C   UNL     1       8.256  23.125   9.885  1.00  0.00     0.017 C 
ATOM     15  C   UNL     1       5.979  21.992   9.249  1.00  0.00    -0.020 C 
ATOM     16  C   UNL     1       6.191  19.715   7.975  1.00  0.00     0.032 C 
ATOM     17  C   UNL     1       5.266  20.631   8.842  1.00  0.00     0.006 C 
ATOM     18  C   UNL     1       5.907  22.981   8.034  1.00  0.00     0.008 C 
ATOM     19  C   UNL     1       5.239  22.652  10.455  1.00  0.00     0.012 C 
ATOM     20  C   UNL     1       3.810  20.779   8.182  1.00  0.00    -0.025 C 
ATOM     21  C   UNL     1       4.534  23.110   7.344  1.00  0.00     0.005 C 
ATOM     22  C   UNL     1       3.963  21.733   6.931  1.00  0.00     0.003 C 
ATOM     23  C   UNL     1       3.243  19.376   7.740  1.00  0.00     0.010 C 
ATOM     24  C   UNL     1       2.772  21.314   9.236  1.00  0.00     0.012 C 
ATOM     25  C   UNL     1       2.734  21.790   5.941  1.00  0.00    -0.006 C 
ATOM     26  C   UNL     1       1.998  19.483   6.828  1.00  0.00     0.033 C 
ATOM     27  C   UNL     1       2.281  20.336   5.584  1.00  0.00     0.120 C 
ATOM     28  C   UNL     1       3.144  22.478   4.607  1.00  0.00     0.014 C 
ATOM     29  C   UNL     1       1.541  22.612   6.498  1.00  0.00     0.014 C 
ENDROOT
BRANCH   1  30
ATOM     30  C   UNL     1       8.943  18.319   9.960  1.00  0.00     0.048 C 
ATOM     31  O   UNL     1       9.195  17.578   8.968  1.00  0.00    -0.550 OA
ATOM     32  O   UNL     1       7.850  18.005  10.756  1.00  0.00    -0.550 OA
ENDBRANCH   1  30
BRANCH  27  33
ATOM     33  O   UNL     1       3.270  19.665   4.825  1.00  0.00    -0.393 OA
ATOM     34  H   UNL     1       3.723  19.023   5.438  1.00  0.00     0.210 HD
ENDBRANCH  27  33
TORSDOF 2
ENDMDL
MODEL 2
REMARK VINA RESULT:     4.849      2.217      3.715
REMARK INTER + INTRA:           5.506
REMARK INTER:                   5.350
REMARK INTRA:                   0.156
REMARK UNBOUND:                 0.232
REMARK SMILES C[C@@H]1[C@H]2C3=CC[C@@H]4[C@]5(C)CC[C@H](O)C(C)(C)[C@H]5CC[C@]4(C)[C@@]3(C)CC[C@]2(C(=O)[O-])CC[C@@H]1C
REMARK SMILES IDX 26 1 30 2 25 3 3 4 31 5 24 6 4 7 2 8 32 9 22 10 5 11 1 12
REMARK SMILES IDX 33 13 23 14 20 15 6 16 7 17 19 18 21 19 8 20 18 21 17 22
REMARK SMILES IDX 10 23 9 24 14 25 11 26 12 27 15 28 16 29 27 30 28 31 29 32
REMARK SMILES IDX 13 33
REMARK H PARENT 13 34
REMARK Flexibility Score: inf
ROOT
ATOM      1  C   UNL     1      11.357  21.034   8.966  1.00  0.00     0.017 C 
ATOM      2  C   UNL     1      12.811  21.441   9.378  1.00  0.00     0.014 C 
ATOM      3  C   UNL     1      11.247  19.486   8.742  1.00  0.00     0.014 C 
ATOM      4  C   UNL     1      10.324  21.374  10.096  1.00  0.00     0.030 C 
ATOM      5  C   UNL     1      12.975  21.721  10.870  1.00  0.00     0.004 C 
ATOM      6  C   UNL     1       9.803  19.009   8.378  1.00  0.00     0.013 C 
ATOM      7  C   UNL     1       8.926  20.988   9.589  1.00  0.00    -0.063 C 
ATOM      8  C   UNL     1      10.564  22.758  10.756  1.00  0.00    -0.003 C 
ATOM      9  C   UNL     1      12.003  22.815  11.405  1.00  0.00    -0.011 C 
ATOM     10  C   UNL     1       8.671  19.490   9.359  1.00  0.00    -0.006 C 
ATOM     11  C   UNL     1       8.258  21.905   8.885  1.00  0.00    -0.027 C 
ATOM     12  C   UNL     1       9.428  23.125  11.743  1.00  0.00     0.008 C 
ATOM     13  C   UNL     1      12.028  22.745  12.952  1.00  0.00     0.008 C 
ATOM     14  C   UNL     1       8.861  18.717  10.715  1.00  0.00     0.017 C 
ATOM     15  C   UNL     1       7.186  19.216   8.762  1.00  0.00    -0.020 C 
ATOM     16  C   UNL     1       7.399  21.600   7.701  1.00  0.00     0.032 C 
ATOM     17  C   UNL     1       6.888  20.135   7.499  1.00  0.00     0.006 C 
ATOM     18  C   UNL     1       6.101  19.499   9.857  1.00  0.00     0.008 C 
ATOM     19  C   UNL     1       7.094  17.708   8.367  1.00  0.00     0.012 C 
ATOM     20  C   UNL     1       5.373  20.115   6.966  1.00  0.00    -0.025 C 
ATOM     21  C   UNL     1       4.638  19.536   9.371  1.00  0.00     0.005 C 
ATOM     22  C   UNL     1       4.448  20.511   8.185  1.00  0.00     0.003 C 
ATOM     23  C   UNL     1       5.179  21.128   5.774  1.00  0.00     0.010 C 
ATOM     24  C   UNL     1       5.016  18.710   6.358  1.00  0.00     0.012 C 
ATOM     25  C   UNL     1       2.947  20.856   7.839  1.00  0.00    -0.006 C 
ATOM     26  C   UNL     1       3.693  21.380   5.427  1.00  0.00     0.033 C 
ATOM     27  C   UNL     1       2.902  21.869   6.648  1.00  0.00     0.120 C 
ATOM     28  C   UNL     1       2.257  21.548   9.050  1.00  0.00     0.014 C 
ATOM     29  C   UNL     1       2.091  19.601   7.519  1.00  0.00     0.014 C 
ENDROOT
BRANCH   1  30
ATOM     30  C   UNL     1      11.064  21.765   7.645  1.00  0.00     0.048 C 
ATOM     31  O   UNL     1      10.636  21.136   6.636  1.00  0.00    -0.550 OA
ATOM     32  O   UNL     1      11.378  23.109   7.498  1.00  0.00    -0.550 OA
ENDBRANCH   1  30
BRANCH  27  33
ATOM     33  O   UNL     1       3.439  23.124   7.026  1.00  0.00    -0.393 OA
ATOM     34  H   UNL     1       3.562  23.653   6.190  1.00  0.00     0.210 HD
ENDBRANCH  27  33
TORSDOF 2
ENDMDL
