MODEL 1
REMARK VINA RESULT:    -4.613      0.000      0.000
REMARK INTER + INTRA:          -8.567
REMARK INTER:                  -7.310
REMARK INTRA:                  -1.257
REMARK UNBOUND:                -1.257
REMARK SMILES CCCCCCCCCCCC(=O)[O-]
REMARK SMILES IDX 7 1 8 2 9 3 10 4 11 5 12 6 13 7 14 8 6 9 5 10 4 11 3 12 2 13
REMARK SMILES IDX 1 14
REMARK H PARENT
REMARK Flexibility Score: inf
ROOT
ATOM      1  C   UNL     1      -9.076  38.913   6.328  1.00  0.00     0.000 C 
ENDROOT
BRANCH   1   2
ATOM      2  C   UNL     1      -8.198  37.682   6.043  1.00  0.00     0.000 C 
BRANCH   2   3
ATOM      3  C   UNL     1      -9.006  36.500   5.485  1.00  0.00     0.000 C 
BRANCH   3   4
ATOM      4  C   UNL     1      -8.611  35.159   6.127  1.00  0.00     0.006 C 
BRANCH   4   5
ATOM      5  C   UNL     1      -7.871  34.242   5.145  1.00  0.00     0.053 C 
BRANCH   5   6
ATOM      6  C   UNL     1      -7.062  33.201   5.857  1.00  0.00     0.041 C 
ATOM      7  O   UNL     1      -5.812  33.324   5.948  1.00  0.00    -0.550 OA
ATOM      8  O   UNL     1      -7.692  32.116   6.452  1.00  0.00    -0.550 OA
ENDBRANCH   5   6
ENDBRANCH   4   5
ENDBRANCH   3   4
ENDBRANCH   2   3
ENDBRANCH   1   2
BRANCH   1   9
ATOM      9  C   UNL     1     -10.416  38.866   5.575  1.00  0.00     0.000 C 
BRANCH   9  10
ATOM     10  C   UNL     1     -11.579  39.440   6.404  1.00  0.00    -0.000 C 
BRANCH  10  11
ATOM     11  C   UNL     1     -11.574  38.939   7.857  1.00  0.00    -0.000 C 
BRANCH  11  12
ATOM     12  C   UNL     1     -12.469  37.707   8.059  1.00  0.00    -0.000 C 
BRANCH  12  13
ATOM     13  C   UNL     1     -11.629  36.430   8.164  1.00  0.00    -0.003 C 
ATOM     14  C   UNL     1     -10.403  36.646   9.047  1.00  0.00     0.004 C 
ENDBRANCH  12  13
ENDBRANCH  11  12
ENDBRANCH  10  11
ENDBRANCH   9  10
ENDBRANCH   1   9
TORSDOF 10
ENDMDL
MODEL 2
REMARK VINA RESULT:    -4.428      2.335      5.231
REMARK INTER + INTRA:          -8.274
REMARK INTER:                  -7.258
REMARK INTRA:                  -1.016
REMARK UNBOUND:                -1.257
REMARK SMILES CCCCCCCCCCCC(=O)[O-]
REMARK SMILES IDX 7 1 8 2 9 3 10 4 11 5 12 6 13 7 14 8 6 9 5 10 4 11 3 12 2 13
REMARK SMILES IDX 1 14
REMARK H PARENT
REMARK Flexibility Score: inf
ROOT
ATOM      1  C   UNL     1      -9.129  38.893   6.223  1.00  0.00     0.000 C 
ENDROOT
BRANCH   1   2
ATOM      2  C   UNL     1     -10.510  38.856   5.546  1.00  0.00     0.000 C 
BRANCH   2   3
ATOM      3  C   UNL     1     -11.634  39.336   6.476  1.00  0.00     0.000 C 
BRANCH   3   4
ATOM      4  C   UNL     1     -11.230  39.299   7.961  1.00  0.00     0.006 C 
BRANCH   4   5
ATOM      5  C   UNL     1     -12.003  38.229   8.743  1.00  0.00     0.053 C 
BRANCH   5   6
ATOM      6  C   UNL     1     -11.409  36.866   8.557  1.00  0.00     0.041 C 
ATOM      7  O   UNL     1     -12.000  36.009   7.848  1.00  0.00    -0.550 OA
ATOM      8  O   UNL     1     -10.186  36.554   9.136  1.00  0.00    -0.550 OA
ENDBRANCH   5   6
ENDBRANCH   4   5
ENDBRANCH   3   4
ENDBRANCH   2   3
ENDBRANCH   1   2
BRANCH   1   9
ATOM      9  C   UNL     1      -8.389  37.550   6.125  1.00  0.00     0.000 C 
BRANCH   9  10
ATOM     10  C   UNL     1      -9.283  36.423   5.577  1.00  0.00    -0.000 C 
BRANCH  10  11
ATOM     11  C   UNL     1      -8.899  35.041   6.130  1.00  0.00    -0.000 C 
BRANCH  11  12
ATOM     12  C   UNL     1      -7.703  34.421   5.391  1.00  0.00    -0.000 C 
BRANCH  12  13
ATOM     13  C   UNL     1      -7.437  32.994   5.881  1.00  0.00    -0.003 C 
ATOM     14  C   UNL     1      -5.951  32.768   6.144  1.00  0.00     0.004 C 
ENDBRANCH  12  13
ENDBRANCH  11  12
ENDBRANCH  10  11
ENDBRANCH   9  10
ENDBRANCH   1   9
TORSDOF 10
ENDMDL
MODEL 3
REMARK VINA RESULT:    -4.388      3.902      5.579
REMARK INTER + INTRA:          -8.210
REMARK INTER:                  -6.706
REMARK INTRA:                  -1.505
REMARK UNBOUND:                -1.257
REMARK SMILES CCCCCCCCCCCC(=O)[O-]
REMARK SMILES IDX 7 1 8 2 9 3 10 4 11 5 12 6 13 7 14 8 6 9 5 10 4 11 3 12 2 13
REMARK SMILES IDX 1 14
REMARK H PARENT
REMARK Flexibility Score: inf
ROOT
ATOM      1  C   UNL     1      -8.174  37.990   6.309  1.00  0.00     0.000 C 
ENDROOT
BRANCH   1   2
ATOM      2  C   UNL     1      -9.274  39.030   6.582  1.00  0.00     0.000 C 
BRANCH   2   3
ATOM      3  C   UNL     1     -10.461  38.899   5.615  1.00  0.00     0.000 C 
BRANCH   3   4
ATOM      4  C   UNL     1     -11.709  39.654   6.104  1.00  0.00     0.006 C 
BRANCH   4   5
ATOM      5  C   UNL     1     -12.256  39.079   7.417  1.00  0.00     0.053 C 
BRANCH   5   6
ATOM      6  C   UNL     1     -12.337  40.121   8.490  1.00  0.00     0.041 C 
ATOM      7  O   UNL     1     -12.615  41.313   8.195  1.00  0.00    -0.550 OA
ATOM      8  O   UNL     1     -12.143  39.768   9.819  1.00  0.00    -0.550 OA
ENDBRANCH   5   6
ENDBRANCH   4   5
ENDBRANCH   3   4
ENDBRANCH   2   3
ENDBRANCH   1   2
BRANCH   1   9
ATOM      9  C   UNL     1      -8.634  36.890   5.338  1.00  0.00     0.000 C 
BRANCH   9  10
ATOM     10  C   UNL     1      -8.958  35.568   6.055  1.00  0.00    -0.000 C 
BRANCH  10  11
ATOM     11  C   UNL     1     -10.433  35.161   5.907  1.00  0.00    -0.000 C 
BRANCH  11  12
ATOM     12  C   UNL     1     -11.285  35.583   7.114  1.00  0.00    -0.000 C 
BRANCH  12  13
ATOM     13  C   UNL     1     -10.542  35.321   8.428  1.00  0.00    -0.003 C 
ATOM     14  C   UNL     1     -10.409  36.598   9.252  1.00  0.00     0.004 C 
ENDBRANCH  12  13
ENDBRANCH  11  12
ENDBRANCH  10  11
ENDBRANCH   9  10
ENDBRANCH   1   9
TORSDOF 10
ENDMDL
MODEL 4
REMARK VINA RESULT:    -4.375      0.746      1.355
REMARK INTER + INTRA:          -8.189
REMARK INTER:                  -7.174
REMARK INTRA:                  -1.016
REMARK UNBOUND:                -1.257
REMARK SMILES CCCCCCCCCCCC(=O)[O-]
REMARK SMILES IDX 7 1 8 2 9 3 10 4 11 5 12 6 13 7 14 8 6 9 5 10 4 11 3 12 2 13
REMARK SMILES IDX 1 14
REMARK H PARENT
REMARK Flexibility Score: inf
ROOT
ATOM      1  C   UNL     1      -8.208  37.666   6.189  1.00  0.00     0.000 C 
ENDROOT
BRANCH   1   2
ATOM      2  C   UNL     1      -8.968  36.585   5.400  1.00  0.00     0.000 C 
BRANCH   2   3
ATOM      3  C   UNL     1      -8.999  35.235   6.132  1.00  0.00     0.000 C 
BRANCH   3   4
ATOM      4  C   UNL     1      -7.817  34.327   5.749  1.00  0.00     0.006 C 
BRANCH   4   5
ATOM      5  C   UNL     1      -7.970  32.909   6.316  1.00  0.00     0.053 C 
BRANCH   5   6
ATOM      6  C   UNL     1      -6.709  32.113   6.170  1.00  0.00     0.041 C 
ATOM      7  O   UNL     1      -5.590  32.693   6.174  1.00  0.00    -0.550 OA
ATOM      8  O   UNL     1      -6.766  30.730   6.066  1.00  0.00    -0.550 OA
ENDBRANCH   5   6
ENDBRANCH   4   5
ENDBRANCH   3   4
ENDBRANCH   2   3
ENDBRANCH   1   2
BRANCH   1   9
ATOM      9  C   UNL     1      -9.015  38.965   6.333  1.00  0.00     0.000 C 
BRANCH   9  10
ATOM     10  C   UNL     1     -10.442  38.839   5.770  1.00  0.00    -0.000 C 
BRANCH  10  11
ATOM     11  C   UNL     1     -11.508  39.388   6.731  1.00  0.00    -0.000 C 
BRANCH  11  12
ATOM     12  C   UNL     1     -11.326  38.879   8.168  1.00  0.00    -0.000 C 
BRANCH  12  13
ATOM     13  C   UNL     1     -11.558  37.366   8.247  1.00  0.00    -0.003 C 
ATOM     14  C   UNL     1     -10.561  36.702   9.194  1.00  0.00     0.004 C 
ENDBRANCH  12  13
ENDBRANCH  11  12
ENDBRANCH  10  11
ENDBRANCH   9  10
ENDBRANCH   1   9
TORSDOF 10
ENDMDL
MODEL 5
REMARK VINA RESULT:    -4.316      1.254      3.051
REMARK INTER + INTRA:          -8.096
REMARK INTER:                  -6.643
REMARK INTRA:                  -1.453
REMARK UNBOUND:                -1.257
REMARK SMILES CCCCCCCCCCCC(=O)[O-]
REMARK SMILES IDX 7 1 8 2 9 3 10 4 11 5 12 6 13 7 14 8 6 9 5 10 4 11 3 12 2 13
REMARK SMILES IDX 1 14
REMARK H PARENT
REMARK Flexibility Score: inf
ROOT
ATOM      1  C   UNL     1     -11.072  37.119   9.443  1.00  0.00     0.000 C 
ENDROOT
BRANCH   1   2
ATOM      2  C   UNL     1     -10.440  35.980   8.623  1.00  0.00     0.000 C 
BRANCH   2   3
ATOM      3  C   UNL     1     -11.249  35.645   7.361  1.00  0.00     0.000 C 
BRANCH   3   4
ATOM      4  C   UNL     1     -10.355  35.264   6.168  1.00  0.00     0.006 C 
BRANCH   4   5
ATOM      5  C   UNL     1      -9.452  34.063   6.482  1.00  0.00     0.053 C 
BRANCH   5   6
ATOM      6  C   UNL     1      -8.479  33.794   5.374  1.00  0.00     0.041 C 
ATOM      7  O   UNL     1      -8.636  32.796   4.623  1.00  0.00    -0.550 OA
ATOM      8  O   UNL     1      -7.423  34.666   5.149  1.00  0.00    -0.550 OA
ENDBRANCH   5   6
ENDBRANCH   4   5
ENDBRANCH   3   4
ENDBRANCH   2   3
ENDBRANCH   1   2
BRANCH   1   9
ATOM      9  C   UNL     1     -12.040  37.974   8.610  1.00  0.00     0.000 C 
BRANCH   9  10
ATOM     10  C   UNL     1     -11.366  39.229   8.027  1.00  0.00    -0.000 C 
BRANCH  10  11
ATOM     11  C   UNL     1     -11.537  39.338   6.504  1.00  0.00    -0.000 C 
BRANCH  11  12
ATOM     12  C   UNL     1     -10.260  38.963   5.738  1.00  0.00    -0.000 C 
BRANCH  12  13
ATOM     13  C   UNL     1      -9.057  38.881   6.685  1.00  0.00    -0.003 C 
ATOM     14  C   UNL     1      -7.912  38.092   6.057  1.00  0.00     0.004 C 
ENDBRANCH  12  13
ENDBRANCH  11  12
ENDBRANCH  10  11
ENDBRANCH   9  10
ENDBRANCH   1   9
TORSDOF 10
ENDMDL
MODEL 6
REMARK VINA RESULT:    -4.276      1.250      2.837
REMARK INTER + INTRA:          -8.033
REMARK INTER:                  -6.664
REMARK INTRA:                  -1.369
REMARK UNBOUND:                -1.257
REMARK SMILES CCCCCCCCCCCC(=O)[O-]
REMARK SMILES IDX 7 1 8 2 9 3 10 4 11 5 12 6 13 7 14 8 6 9 5 10 4 11 3 12 2 13
REMARK SMILES IDX 1 14
REMARK H PARENT
REMARK Flexibility Score: inf
ROOT
ATOM      1  C   UNL     1     -11.106  35.294   6.653  1.00  0.00     0.000 C 
ENDROOT
BRANCH   1   2
ATOM      2  C   UNL     1     -10.105  35.236   5.487  1.00  0.00     0.000 C 
BRANCH   2   3
ATOM      3  C   UNL     1      -8.645  35.199   5.966  1.00  0.00     0.000 C 
BRANCH   3   4
ATOM      4  C   UNL     1      -7.769  34.255   5.123  1.00  0.00     0.006 C 
BRANCH   4   5
ATOM      5  C   UNL     1      -8.250  32.800   5.197  1.00  0.00     0.053 C 
BRANCH   5   6
ATOM      6  C   UNL     1      -8.194  32.266   6.596  1.00  0.00     0.041 C 
ATOM      7  O   UNL     1      -7.082  32.038   7.142  1.00  0.00    -0.550 OA
ATOM      8  O   UNL     1      -9.366  32.055   7.308  1.00  0.00    -0.550 OA
ENDBRANCH   5   6
ENDBRANCH   4   5
ENDBRANCH   3   4
ENDBRANCH   2   3
ENDBRANCH   1   2
BRANCH   1   9
ATOM      9  C   UNL     1     -10.410  35.350   8.023  1.00  0.00     0.000 C 
BRANCH   9  10
ATOM     10  C   UNL     1     -10.479  36.748   8.663  1.00  0.00    -0.000 C 
BRANCH  10  11
ATOM     11  C   UNL     1     -11.375  37.716   7.875  1.00  0.00    -0.000 C 
BRANCH  11  12
ATOM     12  C   UNL     1     -10.643  39.006   7.477  1.00  0.00    -0.000 C 
BRANCH  12  13
ATOM     13  C   UNL     1      -9.868  38.815   6.168  1.00  0.00    -0.003 C 
ATOM     14  C   UNL     1      -8.362  38.863   6.406  1.00  0.00     0.004 C 
ENDBRANCH  12  13
ENDBRANCH  11  12
ENDBRANCH  10  11
ENDBRANCH   9  10
ENDBRANCH   1   9
TORSDOF 10
ENDMDL
MODEL 7
REMARK VINA RESULT:    -4.238      1.686      3.288
REMARK INTER + INTRA:          -7.973
REMARK INTER:                  -7.313
REMARK INTRA:                  -0.659
REMARK UNBOUND:                -1.257
REMARK SMILES CCCCCCCCCCCC(=O)[O-]
REMARK SMILES IDX 7 1 8 2 9 3 10 4 11 5 12 6 13 7 14 8 6 9 5 10 4 11 3 12 2 13
REMARK SMILES IDX 1 14
REMARK H PARENT
REMARK Flexibility Score: inf
ROOT
ATOM      1  C   UNL     1      -9.337  35.322   6.811  1.00  0.00     0.000 C 
ENDROOT
BRANCH   1   2
ATOM      2  C   UNL     1      -9.351  33.876   6.285  1.00  0.00     0.000 C 
BRANCH   2   3
ATOM      3  C   UNL     1      -8.270  33.626   5.222  1.00  0.00     0.000 C 
BRANCH   3   4
ATOM      4  C   UNL     1      -6.909  33.257   5.838  1.00  0.00     0.006 C 
BRANCH   4   5
ATOM      5  C   UNL     1      -7.028  32.128   6.869  1.00  0.00     0.053 C 
BRANCH   5   6
ATOM      6  C   UNL     1      -7.396  30.825   6.228  1.00  0.00     0.041 C 
ATOM      7  O   UNL     1      -6.559  30.213   5.513  1.00  0.00    -0.550 OA
ATOM      8  O   UNL     1      -8.648  30.269   6.450  1.00  0.00    -0.550 OA
ENDBRANCH   5   6
ENDBRANCH   4   5
ENDBRANCH   3   4
ENDBRANCH   2   3
ENDBRANCH   1   2
BRANCH   1   9
ATOM      9  C   UNL     1      -9.438  36.359   5.681  1.00  0.00     0.000 C 
BRANCH   9  10
ATOM     10  C   UNL     1      -8.437  37.516   5.850  1.00  0.00    -0.000 C 
BRANCH  10  11
ATOM     11  C   UNL     1      -9.126  38.850   6.181  1.00  0.00    -0.000 C 
BRANCH  11  12
ATOM     12  C   UNL     1     -10.537  38.950   5.583  1.00  0.00    -0.000 C 
BRANCH  12  13
ATOM     13  C   UNL     1     -11.569  39.278   6.668  1.00  0.00    -0.003 C 
ATOM     14  C   UNL     1     -12.612  40.268   6.157  1.00  0.00     0.004 C 
ENDBRANCH  12  13
ENDBRANCH  11  12
ENDBRANCH  10  11
ENDBRANCH   9  10
ENDBRANCH   1   9
TORSDOF 10
ENDMDL
MODEL 8
REMARK VINA RESULT:    -4.153      3.920      7.895
REMARK INTER + INTRA:          -7.839
REMARK INTER:                  -7.438
REMARK INTRA:                  -0.401
REMARK UNBOUND:                -1.257
REMARK SMILES CCCCCCCCCCCC(=O)[O-]
REMARK SMILES IDX 7 1 8 2 9 3 10 4 11 5 12 6 13 7 14 8 6 9 5 10 4 11 3 12 2 13
REMARK SMILES IDX 1 14
REMARK H PARENT
REMARK Flexibility Score: inf
ROOT
ATOM      1  C   UNL     1      -6.345  33.402   5.813  1.00  0.00     0.000 C 
ENDROOT
BRANCH   1   2
ATOM      2  C   UNL     1      -7.754  33.725   5.286  1.00  0.00     0.000 C 
BRANCH   2   3
ATOM      3  C   UNL     1      -8.720  34.137   6.408  1.00  0.00     0.000 C 
BRANCH   3   4
ATOM      4  C   UNL     1      -9.419  35.478   6.125  1.00  0.00     0.006 C 
BRANCH   4   5
ATOM      5  C   UNL     1      -8.452  36.525   5.557  1.00  0.00     0.053 C 
BRANCH   5   6
ATOM      6  C   UNL     1      -8.912  37.922   5.846  1.00  0.00     0.041 C 
ATOM      7  O   UNL     1      -8.147  38.730   6.437  1.00  0.00    -0.550 OA
ATOM      8  O   UNL     1     -10.168  38.342   5.431  1.00  0.00    -0.550 OA
ENDBRANCH   5   6
ENDBRANCH   4   5
ENDBRANCH   3   4
ENDBRANCH   2   3
ENDBRANCH   1   2
BRANCH   1   9
ATOM      9  C   UNL     1      -6.312  32.115   6.652  1.00  0.00     0.000 C 
BRANCH   9  10
ATOM     10  C   UNL     1      -4.965  31.378   6.552  1.00  0.00    -0.000 C 
BRANCH  10  11
ATOM     11  C   UNL     1      -5.081  30.028   5.828  1.00  0.00    -0.000 C 
BRANCH  11  12
ATOM     12  C   UNL     1      -4.268  28.919   6.512  1.00  0.00    -0.000 C 
BRANCH  12  13
ATOM     13  C   UNL     1      -3.246  29.512   7.489  1.00  0.00    -0.003 C 
ATOM     14  C   UNL     1      -2.224  28.465   7.923  1.00  0.00     0.004 C 
ENDBRANCH  12  13
ENDBRANCH  11  12
ENDBRANCH  10  11
ENDBRANCH   9  10
ENDBRANCH   1   9
TORSDOF 10
ENDMDL
MODEL 9
REMARK VINA RESULT:    -4.029      1.989      4.122
REMARK INTER + INTRA:          -7.642
REMARK INTER:                  -6.256
REMARK INTRA:                  -1.386
REMARK UNBOUND:                -1.257
REMARK SMILES CCCCCCCCCCCC(=O)[O-]
REMARK SMILES IDX 7 1 8 2 9 3 10 4 11 5 12 6 13 7 14 8 6 9 5 10 4 11 3 12 2 13
REMARK SMILES IDX 1 14
REMARK H PARENT
REMARK Flexibility Score: inf
ROOT
ATOM      1  C   UNL     1     -11.126  39.284   8.026  1.00  0.00     0.000 C 
ENDROOT
BRANCH   1   2
ATOM      2  C   UNL     1     -11.551  38.053   8.846  1.00  0.00     0.000 C 
BRANCH   2   3
ATOM      3  C   UNL     1     -12.593  37.192   8.115  1.00  0.00     0.000 C 
BRANCH   3   4
ATOM      4  C   UNL     1     -12.106  35.752   7.873  1.00  0.00     0.006 C 
BRANCH   4   5
ATOM      5  C   UNL     1     -10.951  35.367   8.806  1.00  0.00     0.053 C 
BRANCH   5   6
ATOM      6  C   UNL     1     -10.973  33.908   9.147  1.00  0.00     0.041 C 
ATOM      7  O   UNL     1     -11.288  33.535  10.308  1.00  0.00    -0.550 OA
ATOM      8  O   UNL     1     -10.684  32.961   8.174  1.00  0.00    -0.550 OA
ENDBRANCH   5   6
ENDBRANCH   4   5
ENDBRANCH   3   4
ENDBRANCH   2   3
ENDBRANCH   1   2
BRANCH   1   9
ATOM      9  C   UNL     1     -11.606  39.213   6.568  1.00  0.00     0.000 C 
BRANCH   9  10
ATOM     10  C   UNL     1     -10.479  38.824   5.594  1.00  0.00    -0.000 C 
BRANCH  10  11
ATOM     11  C   UNL     1      -9.091  38.856   6.252  1.00  0.00    -0.000 C 
BRANCH  11  12
ATOM     12  C   UNL     1      -8.270  37.591   5.962  1.00  0.00    -0.000 C 
BRANCH  12  13
ATOM     13  C   UNL     1      -9.187  36.403   5.650  1.00  0.00    -0.003 C 
ATOM     14  C   UNL     1      -8.520  35.080   6.014  1.00  0.00     0.004 C 
ENDBRANCH  12  13
ENDBRANCH  11  12
ENDBRANCH  10  11
ENDBRANCH   9  10
ENDBRANCH   1   9
TORSDOF 10
ENDMDL
