MODEL 1
REMARK VINA RESULT:    -4.999      0.000      0.000
REMARK INTER + INTRA:         -11.623
REMARK INTER:                  -9.675
REMARK INTRA:                  -1.948
REMARK UNBOUND:                -1.948
REMARK SMILES CCCCCCCCCCCCCCCCCC(=O)[O-]
REMARK SMILES IDX 10 1 11 2 12 3 13 4 14 5 15 6 16 7 17 8 18 9 19 10 20 11
REMARK SMILES IDX 9 12 8 13 7 14 6 15 5 16 4 17 3 18 2 19 1 20
REMARK H PARENT
REMARK Flexibility Score: inf
ROOT
ATOM      1  C   UNL     1     -22.954  46.915  85.351  1.00  0.00     0.000 C 
ENDROOT
BRANCH   1   2
ATOM      2  C   UNL     1     -23.867  46.990  86.586  1.00  0.00     0.000 C 
BRANCH   2   3
ATOM      3  C   UNL     1     -25.343  46.729  86.243  1.00  0.00     0.000 C 
BRANCH   3   4
ATOM      4  C   UNL     1     -26.104  46.052  87.395  1.00  0.00     0.000 C 
BRANCH   4   5
ATOM      5  C   UNL     1     -26.292  46.980  88.609  1.00  0.00     0.000 C 
BRANCH   5   6
ATOM      6  C   UNL     1     -26.611  46.211  89.903  1.00  0.00     0.000 C 
BRANCH   6   7
ATOM      7  C   UNL     1     -26.378  44.688  89.830  1.00  0.00     0.006 C 
BRANCH   7   8
ATOM      8  C   UNL     1     -27.054  43.885  90.951  1.00  0.00     0.053 C 
BRANCH   8   9
ATOM      9  C   UNL     1     -28.184  43.046  90.439  1.00  0.00     0.041 C 
ATOM     10  O   UNL     1     -29.112  42.693  91.213  1.00  0.00    -0.550 OA
ATOM     11  O   UNL     1     -28.229  42.681  89.099  1.00  0.00    -0.550 OA
ENDBRANCH   8   9
ENDBRANCH   7   8
ENDBRANCH   6   7
ENDBRANCH   5   6
ENDBRANCH   4   5
ENDBRANCH   3   4
ENDBRANCH   2   3
ENDBRANCH   1   2
BRANCH   1  12
ATOM     12  C   UNL     1     -21.568  46.329  85.672  1.00  0.00     0.000 C 
BRANCH  12  13
ATOM     13  C   UNL     1     -21.080  45.338  84.602  1.00  0.00    -0.000 C 
BRANCH  13  14
ATOM     14  C   UNL     1     -19.561  45.103  84.666  1.00  0.00    -0.000 C 
BRANCH  14  15
ATOM     15  C   UNL     1     -19.164  44.108  85.769  1.00  0.00    -0.000 C 
BRANCH  15  16
ATOM     16  C   UNL     1     -20.025  42.833  85.756  1.00  0.00    -0.000 C 
BRANCH  16  17
ATOM     17  C   UNL     1     -20.750  42.595  87.091  1.00  0.00    -0.000 C 
BRANCH  17  18
ATOM     18  C   UNL     1     -20.728  43.834  88.003  1.00  0.00    -0.000 C 
BRANCH  18  19
ATOM     19  C   UNL     1     -22.091  44.107  88.657  1.00  0.00    -0.003 C 
ATOM     20  C   UNL     1     -23.261  43.554  87.842  1.00  0.00     0.004 C 
ENDBRANCH  18  19
ENDBRANCH  17  18
ENDBRANCH  16  17
ENDBRANCH  15  16
ENDBRANCH  14  15
ENDBRANCH  13  14
ENDBRANCH  12  13
ENDBRANCH   1  12
TORSDOF 16
ENDMDL
MODEL 2
REMARK VINA RESULT:    -4.997      1.057      2.695
REMARK INTER + INTRA:         -11.619
REMARK INTER:                  -9.409
REMARK INTRA:                  -2.211
REMARK UNBOUND:                -1.948
REMARK SMILES CCCCCCCCCCCCCCCCCC(=O)[O-]
REMARK SMILES IDX 10 1 11 2 12 3 13 4 14 5 15 6 16 7 17 8 18 9 19 10 20 11
REMARK SMILES IDX 9 12 8 13 7 14 6 15 5 16 4 17 3 18 2 19 1 20
REMARK H PARENT
REMARK Flexibility Score: inf
ROOT
ATOM      1  C   UNL     1     -23.179  46.514  86.044  1.00  0.00     0.000 C 
ENDROOT
BRANCH   1   2
ATOM      2  C   UNL     1     -24.602  47.096  86.074  1.00  0.00     0.000 C 
BRANCH   2   3
ATOM      3  C   UNL     1     -25.569  46.243  86.912  1.00  0.00     0.000 C 
BRANCH   3   4
ATOM      4  C   UNL     1     -26.052  46.971  88.177  1.00  0.00     0.000 C 
BRANCH   4   5
ATOM      5  C   UNL     1     -25.382  46.444  89.458  1.00  0.00     0.000 C 
BRANCH   5   6
ATOM      6  C   UNL     1     -25.473  44.913  89.592  1.00  0.00     0.000 C 
BRANCH   6   7
ATOM      7  C   UNL     1     -26.280  44.413  90.807  1.00  0.00     0.006 C 
BRANCH   7   8
ATOM      8  C   UNL     1     -27.805  44.517  90.647  1.00  0.00     0.053 C 
BRANCH   8   9
ATOM      9  C   UNL     1     -28.428  43.191  90.339  1.00  0.00     0.041 C 
ATOM     10  O   UNL     1     -28.246  42.651  89.216  1.00  0.00    -0.550 OA
ATOM     11  O   UNL     1     -29.183  42.535  91.303  1.00  0.00    -0.550 OA
ENDBRANCH   8   9
ENDBRANCH   7   8
ENDBRANCH   6   7
ENDBRANCH   5   6
ENDBRANCH   4   5
ENDBRANCH   3   4
ENDBRANCH   2   3
ENDBRANCH   1   2
BRANCH   1  12
ATOM     12  C   UNL     1     -22.281  47.085  87.156  1.00  0.00     0.000 C 
BRANCH  12  13
ATOM     13  C   UNL     1     -21.832  46.016  88.164  1.00  0.00    -0.000 C 
BRANCH  13  14
ATOM     14  C   UNL     1     -22.065  44.585  87.650  1.00  0.00    -0.000 C 
BRANCH  14  15
ATOM     15  C   UNL     1     -20.753  43.847  87.340  1.00  0.00    -0.000 C 
BRANCH  15  16
ATOM     16  C   UNL     1     -20.603  43.503  85.847  1.00  0.00    -0.000 C 
BRANCH  16  17
ATOM     17  C   UNL     1     -19.138  43.506  85.382  1.00  0.00    -0.000 C 
BRANCH  17  18
ATOM     18  C   UNL     1     -18.763  44.792  84.624  1.00  0.00    -0.000 C 
BRANCH  18  19
ATOM     19  C   UNL     1     -19.996  45.612  84.212  1.00  0.00    -0.003 C 
ATOM     20  C   UNL     1     -19.791  47.117  84.384  1.00  0.00     0.004 C 
ENDBRANCH  18  19
ENDBRANCH  17  18
ENDBRANCH  16  17
ENDBRANCH  15  16
ENDBRANCH  14  15
ENDBRANCH  13  14
ENDBRANCH  12  13
ENDBRANCH   1  12
TORSDOF 16
ENDMDL
MODEL 3
REMARK VINA RESULT:    -4.958      1.541      3.747
REMARK INTER + INTRA:         -11.543
REMARK INTER:                  -9.983
REMARK INTRA:                  -1.560
REMARK UNBOUND:                -1.948
REMARK SMILES CCCCCCCCCCCCCCCCCC(=O)[O-]
REMARK SMILES IDX 10 1 11 2 12 3 13 4 14 5 15 6 16 7 17 8 18 9 19 10 20 11
REMARK SMILES IDX 9 12 8 13 7 14 6 15 5 16 4 17 3 18 2 19 1 20
REMARK H PARENT
REMARK Flexibility Score: inf
ROOT
ATOM      1  C   UNL     1     -20.133  42.623  86.265  1.00  0.00     0.000 C 
ENDROOT
BRANCH   1   2
ATOM      2  C   UNL     1     -20.748  43.333  87.483  1.00  0.00     0.000 C 
BRANCH   2   3
ATOM      3  C   UNL     1     -21.939  42.559  88.075  1.00  0.00     0.000 C 
BRANCH   3   4
ATOM      4  C   UNL     1     -23.267  43.318  87.925  1.00  0.00     0.000 C 
BRANCH   4   5
ATOM      5  C   UNL     1     -23.632  44.130  89.180  1.00  0.00     0.000 C 
BRANCH   5   6
ATOM      6  C   UNL     1     -25.123  44.512  89.230  1.00  0.00     0.000 C 
BRANCH   6   7
ATOM      7  C   UNL     1     -25.875  44.030  90.487  1.00  0.00     0.006 C 
BRANCH   7   8
ATOM      8  C   UNL     1     -27.373  44.373  90.505  1.00  0.00     0.053 C 
BRANCH   8   9
ATOM      9  C   UNL     1     -28.228  43.166  90.275  1.00  0.00     0.041 C 
ATOM     10  O   UNL     1     -28.893  42.671  91.223  1.00  0.00    -0.550 OA
ATOM     11  O   UNL     1     -28.318  42.606  89.007  1.00  0.00    -0.550 OA
ENDBRANCH   8   9
ENDBRANCH   7   8
ENDBRANCH   6   7
ENDBRANCH   5   6
ENDBRANCH   4   5
ENDBRANCH   3   4
ENDBRANCH   2   3
ENDBRANCH   1   2
BRANCH   1  12
ATOM     12  C   UNL     1     -19.514  43.607  85.256  1.00  0.00     0.000 C 
BRANCH  12  13
ATOM     13  C   UNL     1     -18.187  44.205  85.747  1.00  0.00    -0.000 C 
BRANCH  13  14
ATOM     14  C   UNL     1     -17.660  45.314  84.819  1.00  0.00    -0.000 C 
BRANCH  14  15
ATOM     15  C   UNL     1     -18.359  45.317  83.449  1.00  0.00    -0.000 C 
BRANCH  15  16
ATOM     16  C   UNL     1     -19.068  46.650  83.148  1.00  0.00    -0.000 C 
BRANCH  16  17
ATOM     17  C   UNL     1     -20.394  46.458  82.395  1.00  0.00    -0.000 C 
BRANCH  17  18
ATOM     18  C   UNL     1     -21.603  46.365  83.343  1.00  0.00    -0.000 C 
BRANCH  18  19
ATOM     19  C   UNL     1     -21.299  46.927  84.740  1.00  0.00    -0.003 C 
ATOM     20  C   UNL     1     -22.101  46.238  85.844  1.00  0.00     0.004 C 
ENDBRANCH  18  19
ENDBRANCH  17  18
ENDBRANCH  16  17
ENDBRANCH  15  16
ENDBRANCH  14  15
ENDBRANCH  13  14
ENDBRANCH  12  13
ENDBRANCH   1  12
TORSDOF 16
ENDMDL
MODEL 4
REMARK VINA RESULT:    -4.954      4.881      7.261
REMARK INTER + INTRA:         -11.536
REMARK INTER:                  -9.636
REMARK INTRA:                  -1.899
REMARK UNBOUND:                -1.948
REMARK SMILES CCCCCCCCCCCCCCCCCC(=O)[O-]
REMARK SMILES IDX 10 1 11 2 12 3 13 4 14 5 15 6 16 7 17 8 18 9 19 10 20 11
REMARK SMILES IDX 9 12 8 13 7 14 6 15 5 16 4 17 3 18 2 19 1 20
REMARK H PARENT
REMARK Flexibility Score: inf
ROOT
ATOM      1  C   UNL     1     -19.712  42.457  86.244  1.00  0.00     0.000 C 
ENDROOT
BRANCH   1   2
ATOM      2  C   UNL     1     -20.147  41.132  86.891  1.00  0.00     0.000 C 
BRANCH   2   3
ATOM      3  C   UNL     1     -21.333  41.309  87.854  1.00  0.00     0.000 C 
BRANCH   3   4
ATOM      4  C   UNL     1     -20.929  42.002  89.165  1.00  0.00     0.000 C 
BRANCH   4   5
ATOM      5  C   UNL     1     -20.621  41.002  90.294  1.00  0.00     0.000 C 
BRANCH   5   6
ATOM      6  C   UNL     1     -19.112  40.783  90.502  1.00  0.00     0.000 C 
BRANCH   6   7
ATOM      7  C   UNL     1     -18.666  39.307  90.523  1.00  0.00     0.006 C 
BRANCH   7   8
ATOM      8  C   UNL     1     -19.809  38.293  90.367  1.00  0.00     0.053 C 
BRANCH   8   9
ATOM      9  C   UNL     1     -19.644  37.444  89.145  1.00  0.00     0.041 C 
ATOM     10  O   UNL     1     -20.249  37.742  88.081  1.00  0.00    -0.550 OA
ATOM     11  O   UNL     1     -18.798  36.342  89.170  1.00  0.00    -0.550 OA
ENDBRANCH   8   9
ENDBRANCH   7   8
ENDBRANCH   6   7
ENDBRANCH   5   6
ENDBRANCH   4   5
ENDBRANCH   3   4
ENDBRANCH   2   3
ENDBRANCH   1   2
BRANCH   1  12
ATOM     12  C   UNL     1     -20.903  43.363  85.888  1.00  0.00     0.000 C 
BRANCH  12  13
ATOM     13  C   UNL     1     -20.717  44.808  86.378  1.00  0.00    -0.000 C 
BRANCH  13  14
ATOM     14  C   UNL     1     -21.858  45.736  85.924  1.00  0.00    -0.000 C 
BRANCH  14  15
ATOM     15  C   UNL     1     -21.421  46.713  84.822  1.00  0.00    -0.000 C 
BRANCH  15  16
ATOM     16  C   UNL     1     -21.247  46.028  83.455  1.00  0.00    -0.000 C 
BRANCH  16  17
ATOM     17  C   UNL     1     -20.024  46.549  82.682  1.00  0.00    -0.000 C 
BRANCH  17  18
ATOM     18  C   UNL     1     -18.754  46.594  83.550  1.00  0.00    -0.000 C 
BRANCH  18  19
ATOM     19  C   UNL     1     -18.186  45.194  83.833  1.00  0.00    -0.003 C 
ATOM     20  C   UNL     1     -17.257  45.166  85.047  1.00  0.00     0.004 C 
ENDBRANCH  18  19
ENDBRANCH  17  18
ENDBRANCH  16  17
ENDBRANCH  15  16
ENDBRANCH  14  15
ENDBRANCH  13  14
ENDBRANCH  12  13
ENDBRANCH   1  12
TORSDOF 16
ENDMDL
MODEL 5
REMARK VINA RESULT:    -4.942      1.332      3.041
REMARK INTER + INTRA:         -11.514
REMARK INTER:                  -9.970
REMARK INTRA:                  -1.543
REMARK UNBOUND:                -1.948
REMARK SMILES CCCCCCCCCCCCCCCCCC(=O)[O-]
REMARK SMILES IDX 10 1 11 2 12 3 13 4 14 5 15 6 16 7 17 8 18 9 19 10 20 11
REMARK SMILES IDX 9 12 8 13 7 14 6 15 5 16 4 17 3 18 2 19 1 20
REMARK H PARENT
REMARK Flexibility Score: inf
ROOT
ATOM      1  C   UNL     1     -21.956  46.402  87.441  1.00  0.00     0.000 C 
ENDROOT
BRANCH   1   2
ATOM      2  C   UNL     1     -22.766  46.374  86.134  1.00  0.00     0.000 C 
BRANCH   2   3
ATOM      3  C   UNL     1     -24.164  46.994  86.295  1.00  0.00     0.000 C 
BRANCH   3   4
ATOM      4  C   UNL     1     -25.185  46.003  86.876  1.00  0.00     0.000 C 
BRANCH   4   5
ATOM      5  C   UNL     1     -25.710  46.433  88.258  1.00  0.00     0.000 C 
BRANCH   5   6
ATOM      6  C   UNL     1     -25.737  45.275  89.272  1.00  0.00     0.000 C 
BRANCH   6   7
ATOM      7  C   UNL     1     -26.986  45.232  90.176  1.00  0.00     0.006 C 
BRANCH   7   8
ATOM      8  C   UNL     1     -27.122  43.952  91.016  1.00  0.00     0.053 C 
BRANCH   8   9
ATOM      9  C   UNL     1     -28.211  43.060  90.507  1.00  0.00     0.041 C 
ATOM     10  O   UNL     1     -29.116  42.658  91.285  1.00  0.00    -0.550 OA
ATOM     11  O   UNL     1     -28.247  42.698  89.166  1.00  0.00    -0.550 OA
ENDBRANCH   8   9
ENDBRANCH   7   8
ENDBRANCH   6   7
ENDBRANCH   5   6
ENDBRANCH   4   5
ENDBRANCH   3   4
ENDBRANCH   2   3
ENDBRANCH   1   2
BRANCH   1  12
ATOM     12  C   UNL     1     -21.209  45.083  87.705  1.00  0.00     0.000 C 
BRANCH  12  13
ATOM     13  C   UNL     1     -21.594  43.974  86.711  1.00  0.00    -0.000 C 
BRANCH  13  14
ATOM     14  C   UNL     1     -20.412  43.539  85.827  1.00  0.00    -0.000 C 
BRANCH  14  15
ATOM     15  C   UNL     1     -19.290  44.588  85.783  1.00  0.00    -0.000 C 
BRANCH  15  16
ATOM     16  C   UNL     1     -18.392  44.446  84.541  1.00  0.00    -0.000 C 
BRANCH  16  17
ATOM     17  C   UNL     1     -17.952  45.803  83.970  1.00  0.00    -0.000 C 
BRANCH  17  18
ATOM     18  C   UNL     1     -19.108  46.817  83.902  1.00  0.00    -0.000 C 
BRANCH  18  19
ATOM     19  C   UNL     1     -19.764  46.868  82.514  1.00  0.00    -0.003 C 
ATOM     20  C   UNL     1     -21.208  46.367  82.523  1.00  0.00     0.004 C 
ENDBRANCH  18  19
ENDBRANCH  17  18
ENDBRANCH  16  17
ENDBRANCH  15  16
ENDBRANCH  14  15
ENDBRANCH  13  14
ENDBRANCH  12  13
ENDBRANCH   1  12
TORSDOF 16
ENDMDL
MODEL 6
REMARK VINA RESULT:    -4.850      4.445      6.721
REMARK INTER + INTRA:         -11.336
REMARK INTER:                  -9.230
REMARK INTRA:                  -2.106
REMARK UNBOUND:                -1.948
REMARK SMILES CCCCCCCCCCCCCCCCCC(=O)[O-]
REMARK SMILES IDX 10 1 11 2 12 3 13 4 14 5 15 6 16 7 17 8 18 9 19 10 20 11
REMARK SMILES IDX 9 12 8 13 7 14 6 15 5 16 4 17 3 18 2 19 1 20
REMARK H PARENT
REMARK Flexibility Score: inf
ROOT
ATOM      1  C   UNL     1     -19.808  43.015  85.609  1.00  0.00     0.000 C 
ENDROOT
BRANCH   1   2
ATOM      2  C   UNL     1     -19.863  42.196  86.909  1.00  0.00     0.000 C 
BRANCH   2   3
ATOM      3  C   UNL     1     -21.036  42.608  87.815  1.00  0.00     0.000 C 
BRANCH   3   4
ATOM      4  C   UNL     1     -21.097  41.783  89.111  1.00  0.00     0.000 C 
BRANCH   4   5
ATOM      5  C   UNL     1     -19.724  41.224  89.525  1.00  0.00     0.000 C 
BRANCH   5   6
ATOM      6  C   UNL     1     -19.797  39.766  90.014  1.00  0.00     0.000 C 
BRANCH   6   7
ATOM      7  C   UNL     1     -20.779  38.867  89.236  1.00  0.00     0.006 C 
BRANCH   7   8
ATOM      8  C   UNL     1     -20.132  38.029  88.123  1.00  0.00     0.053 C 
BRANCH   8   9
ATOM      9  C   UNL     1     -20.560  38.478  86.760  1.00  0.00     0.041 C 
ATOM     10  O   UNL     1     -19.934  38.088  85.740  1.00  0.00    -0.550 OA
ATOM     11  O   UNL     1     -21.669  39.301  86.613  1.00  0.00    -0.550 OA
ENDBRANCH   8   9
ENDBRANCH   7   8
ENDBRANCH   6   7
ENDBRANCH   5   6
ENDBRANCH   4   5
ENDBRANCH   3   4
ENDBRANCH   2   3
ENDBRANCH   1   2
BRANCH   1  12
ATOM     12  C   UNL     1     -18.772  44.151  85.667  1.00  0.00     0.000 C 
BRANCH  12  13
ATOM     13  C   UNL     1     -18.289  44.585  84.274  1.00  0.00    -0.000 C 
BRANCH  13  14
ATOM     14  C   UNL     1     -17.766  46.032  84.255  1.00  0.00    -0.000 C 
BRANCH  14  15
ATOM     15  C   UNL     1     -18.736  47.001  83.559  1.00  0.00    -0.000 C 
BRANCH  15  16
ATOM     16  C   UNL     1     -19.743  46.279  82.646  1.00  0.00    -0.000 C 
BRANCH  16  17
ATOM     17  C   UNL     1     -21.195  46.714  82.905  1.00  0.00    -0.000 C 
BRANCH  17  18
ATOM     18  C   UNL     1     -21.435  47.125  84.368  1.00  0.00    -0.000 C 
BRANCH  18  19
ATOM     19  C   UNL     1     -21.899  45.949  85.241  1.00  0.00    -0.003 C 
ATOM     20  C   UNL     1     -21.715  46.211  86.735  1.00  0.00     0.004 C 
ENDBRANCH  18  19
ENDBRANCH  17  18
ENDBRANCH  16  17
ENDBRANCH  15  16
ENDBRANCH  14  15
ENDBRANCH  13  14
ENDBRANCH  12  13
ENDBRANCH   1  12
TORSDOF 16
ENDMDL
MODEL 7
REMARK VINA RESULT:    -4.769      4.055      7.559
REMARK INTER + INTRA:         -11.179
REMARK INTER:                  -8.940
REMARK INTRA:                  -2.238
REMARK UNBOUND:                -1.948
REMARK SMILES CCCCCCCCCCCCCCCCCC(=O)[O-]
REMARK SMILES IDX 10 1 11 2 12 3 13 4 14 5 15 6 16 7 17 8 18 9 19 10 20 11
REMARK SMILES IDX 9 12 8 13 7 14 6 15 5 16 4 17 3 18 2 19 1 20
REMARK H PARENT
REMARK Flexibility Score: inf
ROOT
ATOM      1  C   UNL     1     -22.138  45.146  88.720  1.00  0.00     0.000 C 
ENDROOT
BRANCH   1   2
ATOM      2  C   UNL     1     -23.012  43.902  88.487  1.00  0.00     0.000 C 
BRANCH   2   3
ATOM      3  C   UNL     1     -22.213  42.723  87.905  1.00  0.00     0.000 C 
BRANCH   3   4
ATOM      4  C   UNL     1     -20.726  43.059  87.708  1.00  0.00     0.000 C 
BRANCH   4   5
ATOM      5  C   UNL     1     -20.126  42.386  86.461  1.00  0.00     0.000 C 
BRANCH   5   6
ATOM      6  C   UNL     1     -19.668  43.401  85.398  1.00  0.00     0.000 C 
BRANCH   6   7
ATOM      7  C   UNL     1     -20.032  44.868  85.701  1.00  0.00     0.006 C 
BRANCH   7   8
ATOM      8  C   UNL     1     -20.560  45.657  84.492  1.00  0.00     0.053 C 
BRANCH   8   9
ATOM      9  C   UNL     1     -19.450  46.186  83.638  1.00  0.00     0.041 C 
ATOM     10  O   UNL     1     -18.308  46.379  84.132  1.00  0.00    -0.550 OA
ATOM     11  O   UNL     1     -19.667  46.435  82.289  1.00  0.00    -0.550 OA
ENDBRANCH   8   9
ENDBRANCH   7   8
ENDBRANCH   6   7
ENDBRANCH   5   6
ENDBRANCH   4   5
ENDBRANCH   3   4
ENDBRANCH   2   3
ENDBRANCH   1   2
BRANCH   1  12
ATOM     12  C   UNL     1     -22.659  46.385  87.971  1.00  0.00     0.000 C 
BRANCH  12  13
ATOM     13  C   UNL     1     -23.508  46.022  86.741  1.00  0.00    -0.000 C 
BRANCH  13  14
ATOM     14  C   UNL     1     -24.828  46.810  86.683  1.00  0.00    -0.000 C 
BRANCH  14  15
ATOM     15  C   UNL     1     -26.003  46.038  87.306  1.00  0.00    -0.000 C 
BRANCH  15  16
ATOM     16  C   UNL     1     -26.449  46.625  88.657  1.00  0.00    -0.000 C 
BRANCH  16  17
ATOM     17  C   UNL     1     -25.900  45.835  89.856  1.00  0.00    -0.000 C 
BRANCH  17  18
ATOM     18  C   UNL     1     -26.334  44.359  89.839  1.00  0.00    -0.000 C 
BRANCH  18  19
ATOM     19  C   UNL     1     -27.443  44.060  90.860  1.00  0.00    -0.003 C 
ATOM     20  C   UNL     1     -28.489  43.080  90.329  1.00  0.00     0.004 C 
ENDBRANCH  18  19
ENDBRANCH  17  18
ENDBRANCH  16  17
ENDBRANCH  15  16
ENDBRANCH  14  15
ENDBRANCH  13  14
ENDBRANCH  12  13
ENDBRANCH   1  12
TORSDOF 16
ENDMDL
MODEL 8
REMARK VINA RESULT:    -4.763      2.953      6.766
REMARK INTER + INTRA:         -11.167
REMARK INTER:                  -9.639
REMARK INTRA:                  -1.528
REMARK UNBOUND:                -1.948
REMARK SMILES CCCCCCCCCCCCCCCCCC(=O)[O-]
REMARK SMILES IDX 10 1 11 2 12 3 13 4 14 5 15 6 16 7 17 8 18 9 19 10 20 11
REMARK SMILES IDX 9 12 8 13 7 14 6 15 5 16 4 17 3 18 2 19 1 20
REMARK H PARENT
REMARK Flexibility Score: inf
ROOT
ATOM      1  C   UNL     1     -23.403  45.751  87.056  1.00  0.00     0.000 C 
ENDROOT
BRANCH   1   2
ATOM      2  C   UNL     1     -21.890  46.011  87.140  1.00  0.00     0.000 C 
BRANCH   2   3
ATOM      3  C   UNL     1     -21.268  46.319  85.768  1.00  0.00     0.000 C 
BRANCH   3   4
ATOM      4  C   UNL     1     -20.880  45.047  84.997  1.00  0.00     0.000 C 
BRANCH   4   5
ATOM      5  C   UNL     1     -19.575  44.415  85.513  1.00  0.00     0.000 C 
BRANCH   5   6
ATOM      6  C   UNL     1     -19.703  42.901  85.762  1.00  0.00     0.000 C 
BRANCH   6   7
ATOM      7  C   UNL     1     -20.458  42.515  87.050  1.00  0.00     0.006 C 
BRANCH   7   8
ATOM      8  C   UNL     1     -21.436  41.342  86.888  1.00  0.00     0.053 C 
BRANCH   8   9
ATOM      9  C   UNL     1     -20.931  40.095  87.547  1.00  0.00     0.041 C 
ATOM     10  O   UNL     1     -21.368  38.969  87.189  1.00  0.00    -0.550 OA
ATOM     11  O   UNL     1     -19.955  40.173  88.532  1.00  0.00    -0.550 OA
ENDBRANCH   8   9
ENDBRANCH   7   8
ENDBRANCH   6   7
ENDBRANCH   5   6
ENDBRANCH   4   5
ENDBRANCH   3   4
ENDBRANCH   2   3
ENDBRANCH   1   2
BRANCH   1  12
ATOM     12  C   UNL     1     -24.110  46.686  86.059  1.00  0.00     0.000 C 
BRANCH  12  13
ATOM     13  C   UNL     1     -25.609  46.848  86.359  1.00  0.00    -0.000 C 
BRANCH  13  14
ATOM     14  C   UNL     1     -26.047  46.071  87.614  1.00  0.00    -0.000 C 
BRANCH  14  15
ATOM     15  C   UNL     1     -26.560  46.995  88.730  1.00  0.00    -0.000 C 
BRANCH  15  16
ATOM     16  C   UNL     1     -26.689  46.274  90.084  1.00  0.00    -0.000 C 
BRANCH  16  17
ATOM     17  C   UNL     1     -25.896  44.958  90.133  1.00  0.00    -0.000 C 
BRANCH  17  18
ATOM     18  C   UNL     1     -26.551  43.908  91.047  1.00  0.00    -0.000 C 
BRANCH  18  19
ATOM     19  C   UNL     1     -28.001  43.600  90.644  1.00  0.00    -0.003 C 
ATOM     20  C   UNL     1     -28.096  42.769  89.364  1.00  0.00     0.004 C 
ENDBRANCH  18  19
ENDBRANCH  17  18
ENDBRANCH  16  17
ENDBRANCH  15  16
ENDBRANCH  14  15
ENDBRANCH  13  14
ENDBRANCH  12  13
ENDBRANCH   1  12
TORSDOF 16
ENDMDL
MODEL 9
REMARK VINA RESULT:    -4.701      1.280      2.084
REMARK INTER + INTRA:         -11.046
REMARK INTER:                  -9.311
REMARK INTRA:                  -1.735
REMARK UNBOUND:                -1.948
REMARK SMILES CCCCCCCCCCCCCCCCCC(=O)[O-]
REMARK SMILES IDX 10 1 11 2 12 3 13 4 14 5 15 6 16 7 17 8 18 9 19 10 20 11
REMARK SMILES IDX 9 12 8 13 7 14 6 15 5 16 4 17 3 18 2 19 1 20
REMARK H PARENT
REMARK Flexibility Score: inf
ROOT
ATOM      1  C   UNL     1     -21.224  47.123  84.661  1.00  0.00     0.000 C 
ENDROOT
BRANCH   1   2
ATOM      2  C   UNL     1     -22.487  46.360  85.091  1.00  0.00     0.000 C 
BRANCH   2   3
ATOM      3  C   UNL     1     -23.268  47.090  86.197  1.00  0.00     0.000 C 
BRANCH   3   4
ATOM      4  C   UNL     1     -24.571  46.366  86.574  1.00  0.00     0.000 C 
BRANCH   4   5
ATOM      5  C   UNL     1     -24.689  46.107  88.087  1.00  0.00     0.000 C 
BRANCH   5   6
ATOM      6  C   UNL     1     -26.121  45.743  88.519  1.00  0.00     0.000 C 
BRANCH   6   7
ATOM      7  C   UNL     1     -26.213  44.784  89.723  1.00  0.00     0.006 C 
BRANCH   7   8
ATOM      8  C   UNL     1     -27.615  44.668  90.340  1.00  0.00     0.053 C 
BRANCH   8   9
ATOM      9  C   UNL     1     -28.201  43.303  90.150  1.00  0.00     0.041 C 
ATOM     10  O   UNL     1     -28.194  42.764  89.012  1.00  0.00    -0.550 OA
ATOM     11  O   UNL     1     -28.727  42.612  91.235  1.00  0.00    -0.550 OA
ENDBRANCH   8   9
ENDBRANCH   7   8
ENDBRANCH   6   7
ENDBRANCH   5   6
ENDBRANCH   4   5
ENDBRANCH   3   4
ENDBRANCH   2   3
ENDBRANCH   1   2
BRANCH   1  12
ATOM     12  C   UNL     1     -20.958  47.026  83.148  1.00  0.00     0.000 C 
BRANCH  12  13
ATOM     13  C   UNL     1     -19.478  46.768  82.820  1.00  0.00    -0.000 C 
BRANCH  13  14
ATOM     14  C   UNL     1     -18.569  46.907  84.054  1.00  0.00    -0.000 C 
BRANCH  14  15
ATOM     15  C   UNL     1     -17.748  45.637  84.328  1.00  0.00    -0.000 C 
BRANCH  15  16
ATOM     16  C   UNL     1     -18.370  44.754  85.425  1.00  0.00    -0.000 C 
BRANCH  16  17
ATOM     17  C   UNL     1     -19.511  43.870  84.898  1.00  0.00    -0.000 C 
BRANCH  17  18
ATOM     18  C   UNL     1     -20.426  43.354  86.023  1.00  0.00    -0.000 C 
BRANCH  18  19
ATOM     19  C   UNL     1     -20.278  44.166  87.319  1.00  0.00    -0.003 C 
ATOM     20  C   UNL     1     -21.605  44.359  88.053  1.00  0.00     0.004 C 
ENDBRANCH  18  19
ENDBRANCH  17  18
ENDBRANCH  16  17
ENDBRANCH  15  16
ENDBRANCH  14  15
ENDBRANCH  13  14
ENDBRANCH  12  13
ENDBRANCH   1  12
TORSDOF 16
ENDMDL
