MODEL 1
REMARK VINA RESULT:    -4.296      0.000      0.000
REMARK INTER + INTRA:         -13.321
REMARK INTER:                 -10.825
REMARK INTRA:                  -2.497
REMARK UNBOUND:                -2.497
REMARK SMILES CCCCCCCCCCCCCCCCCCCCCCCCCCCC(=O)[O-]
REMARK SMILES IDX 15 1 16 2 17 3 18 4 19 5 20 6 21 7 22 8 23 9 24 10 25 11
REMARK SMILES IDX 26 12 27 13 28 14 29 15 30 16 14 17 13 18 12 19 11 20 10 21
REMARK SMILES IDX 9 22 8 23 7 24 6 25 5 26 4 27 3 28 2 29 1 30
REMARK H PARENT
REMARK Flexibility Score: inf
ROOT
ATOM      1  C   UNL     1      14.086  24.897  33.770  1.00  0.00     0.000 C 
ENDROOT
BRANCH   1   2
ATOM      2  C   UNL     1      14.677  26.204  33.209  1.00  0.00     0.000 C 
BRANCH   2   3
ATOM      3  C   UNL     1      15.544  26.957  34.228  1.00  0.00     0.000 C 
BRANCH   3   4
ATOM      4  C   UNL     1      16.895  27.347  33.618  1.00  0.00     0.000 C 
BRANCH   4   5
ATOM      5  C   UNL     1      16.726  27.863  32.182  1.00  0.00     0.000 C 
BRANCH   5   6
ATOM      6  C   UNL     1      16.872  29.393  32.067  1.00  0.00     0.000 C 
BRANCH   6   7
ATOM      7  C   UNL     1      17.027  30.131  33.409  1.00  0.00     0.000 C 
BRANCH   7   8
ATOM      8  C   UNL     1      16.250  31.458  33.455  1.00  0.00     0.000 C 
BRANCH   8   9
ATOM      9  C   UNL     1      15.523  31.681  34.794  1.00  0.00     0.000 C 
BRANCH   9  10
ATOM     10  C   UNL     1      15.008  30.401  35.480  1.00  0.00     0.000 C 
BRANCH  10  11
ATOM     11  C   UNL     1      13.850  30.664  36.457  1.00  0.00     0.000 C 
BRANCH  11  12
ATOM     12  C   UNL     1      13.040  29.398  36.787  1.00  0.00     0.006 C 
BRANCH  12  13
ATOM     13  C   UNL     1      11.835  29.165  35.856  1.00  0.00     0.053 C 
BRANCH  13  14
ATOM     14  C   UNL     1      11.715  27.738  35.412  1.00  0.00     0.041 C 
ATOM     15  O   UNL     1      11.855  26.801  36.241  1.00  0.00    -0.550 OA
ATOM     16  O   UNL     1      11.491  27.441  34.073  1.00  0.00    -0.550 OA
ENDBRANCH  13  14
ENDBRANCH  12  13
ENDBRANCH  11  12
ENDBRANCH  10  11
ENDBRANCH   9  10
ENDBRANCH   8   9
ENDBRANCH   7   8
ENDBRANCH   6   7
ENDBRANCH   5   6
ENDBRANCH   4   5
ENDBRANCH   3   4
ENDBRANCH   2   3
ENDBRANCH   1   2
BRANCH   1  17
ATOM     17  C   UNL     1      14.471  24.575  35.225  1.00  0.00     0.000 C 
BRANCH  17  18
ATOM     18  C   UNL     1      15.339  23.310  35.347  1.00  0.00     0.000 C 
BRANCH  18  19
ATOM     19  C   UNL     1      16.393  23.196  34.228  1.00  0.00     0.000 C 
BRANCH  19  20
ATOM     20  C   UNL     1      16.322  21.905  33.388  1.00  0.00     0.000 C 
BRANCH  20  21
ATOM     21  C   UNL     1      16.520  20.596  34.175  1.00  0.00     0.000 C 
BRANCH  21  22
ATOM     22  C   UNL     1      15.257  19.711  34.248  1.00  0.00    -0.000 C 
BRANCH  22  23
ATOM     23  C   UNL     1      15.579  18.240  34.573  1.00  0.00    -0.000 C 
BRANCH  23  24
ATOM     24  C   UNL     1      15.908  18.019  36.057  1.00  0.00    -0.000 C 
BRANCH  24  25
ATOM     25  C   UNL     1      15.939  16.532  36.445  1.00  0.00    -0.000 C 
BRANCH  25  26
ATOM     26  C   UNL     1      15.754  15.640  35.212  1.00  0.00    -0.000 C 
BRANCH  26  27
ATOM     27  C   UNL     1      15.687  14.157  35.609  1.00  0.00    -0.000 C 
BRANCH  27  28
ATOM     28  C   UNL     1      14.702  13.355  34.745  1.00  0.00    -0.000 C 
BRANCH  28  29
ATOM     29  C   UNL     1      14.332  14.080  33.442  1.00  0.00    -0.003 C 
ATOM     30  C   UNL     1      15.148  13.549  32.267  1.00  0.00     0.004 C 
ENDBRANCH  28  29
ENDBRANCH  27  28
ENDBRANCH  26  27
ENDBRANCH  25  26
ENDBRANCH  24  25
ENDBRANCH  23  24
ENDBRANCH  22  23
ENDBRANCH  21  22
ENDBRANCH  20  21
ENDBRANCH  19  20
ENDBRANCH  18  19
ENDBRANCH  17  18
ENDBRANCH   1  17
TORSDOF 26
ENDMDL
MODEL 2
REMARK VINA RESULT:    -4.250      2.323      3.848
REMARK INTER + INTRA:         -13.206
REMARK INTER:                 -11.154
REMARK INTRA:                  -2.052
REMARK UNBOUND:                -2.497
REMARK SMILES CCCCCCCCCCCCCCCCCCCCCCCCCCCC(=O)[O-]
REMARK SMILES IDX 15 1 16 2 17 3 18 4 19 5 20 6 21 7 22 8 23 9 24 10 25 11
REMARK SMILES IDX 26 12 27 13 28 14 29 15 30 16 14 17 13 18 12 19 11 20 10 21
REMARK SMILES IDX 9 22 8 23 7 24 6 25 5 26 4 27 3 28 2 29 1 30
REMARK H PARENT
REMARK Flexibility Score: inf
ROOT
ATOM      1  C   UNL     1      12.253  26.015  33.715  1.00  0.00     0.000 C 
ENDROOT
BRANCH   1   2
ATOM      2  C   UNL     1      11.851  27.301  34.460  1.00  0.00     0.000 C 
BRANCH   2   3
ATOM      3  C   UNL     1      12.436  27.382  35.877  1.00  0.00     0.000 C 
BRANCH   3   4
ATOM      4  C   UNL     1      13.249  28.669  36.063  1.00  0.00     0.000 C 
BRANCH   4   5
ATOM      5  C   UNL     1      14.755  28.396  35.940  1.00  0.00     0.000 C 
BRANCH   5   6
ATOM      6  C   UNL     1      15.493  29.443  35.085  1.00  0.00     0.000 C 
BRANCH   6   7
ATOM      7  C   UNL     1      15.824  30.758  35.814  1.00  0.00     0.000 C 
BRANCH   7   8
ATOM      8  C   UNL     1      14.838  31.891  35.482  1.00  0.00     0.000 C 
BRANCH   8   9
ATOM      9  C   UNL     1      15.527  33.125  34.869  1.00  0.00     0.000 C 
BRANCH   9  10
ATOM     10  C   UNL     1      16.488  32.826  33.702  1.00  0.00     0.000 C 
BRANCH  10  11
ATOM     11  C   UNL     1      15.824  32.969  32.323  1.00  0.00     0.000 C 
BRANCH  11  12
ATOM     12  C   UNL     1      16.431  32.031  31.263  1.00  0.00     0.006 C 
BRANCH  12  13
ATOM     13  C   UNL     1      16.828  30.645  31.806  1.00  0.00     0.053 C 
BRANCH  13  14
ATOM     14  C   UNL     1      16.831  29.588  30.744  1.00  0.00     0.041 C 
ATOM     15  O   UNL     1      17.124  28.398  31.033  1.00  0.00    -0.550 OA
ATOM     16  O   UNL     1      16.550  29.923  29.425  1.00  0.00    -0.550 OA
ENDBRANCH  13  14
ENDBRANCH  12  13
ENDBRANCH  11  12
ENDBRANCH  10  11
ENDBRANCH   9  10
ENDBRANCH   8   9
ENDBRANCH   7   8
ENDBRANCH   6   7
ENDBRANCH   5   6
ENDBRANCH   4   5
ENDBRANCH   3   4
ENDBRANCH   2   3
ENDBRANCH   1   2
BRANCH   1  17
ATOM     17  C   UNL     1      13.601  25.404  34.142  1.00  0.00     0.000 C 
BRANCH  17  18
ATOM     18  C   UNL     1      14.332  24.706  32.983  1.00  0.00     0.000 C 
BRANCH  18  19
ATOM     19  C   UNL     1      15.706  24.139  33.395  1.00  0.00     0.000 C 
BRANCH  19  20
ATOM     20  C   UNL     1      15.682  22.706  33.963  1.00  0.00     0.000 C 
BRANCH  20  21
ATOM     21  C   UNL     1      15.719  22.606  35.500  1.00  0.00     0.000 C 
BRANCH  21  22
ATOM     22  C   UNL     1      16.659  21.504  36.035  1.00  0.00    -0.000 C 
BRANCH  22  23
ATOM     23  C   UNL     1      16.626  20.227  35.176  1.00  0.00    -0.000 C 
BRANCH  23  24
ATOM     24  C   UNL     1      15.544  19.235  35.629  1.00  0.00    -0.000 C 
BRANCH  24  25
ATOM     25  C   UNL     1      15.325  18.092  34.626  1.00  0.00    -0.000 C 
BRANCH  25  26
ATOM     26  C   UNL     1      16.609  17.276  34.436  1.00  0.00    -0.000 C 
BRANCH  26  27
ATOM     27  C   UNL     1      16.296  15.873  33.893  1.00  0.00    -0.000 C 
BRANCH  27  28
ATOM     28  C   UNL     1      14.860  15.424  34.203  1.00  0.00    -0.000 C 
BRANCH  28  29
ATOM     29  C   UNL     1      14.487  14.109  33.501  1.00  0.00    -0.003 C 
ATOM     30  C   UNL     1      15.544  13.715  32.473  1.00  0.00     0.004 C 
ENDBRANCH  28  29
ENDBRANCH  27  28
ENDBRANCH  26  27
ENDBRANCH  25  26
ENDBRANCH  24  25
ENDBRANCH  23  24
ENDBRANCH  22  23
ENDBRANCH  21  22
ENDBRANCH  20  21
ENDBRANCH  19  20
ENDBRANCH  18  19
ENDBRANCH  17  18
ENDBRANCH   1  17
TORSDOF 26
ENDMDL
MODEL 3
REMARK VINA RESULT:    -4.242      1.917      3.640
REMARK INTER + INTRA:         -13.186
REMARK INTER:                 -11.243
REMARK INTRA:                  -1.943
REMARK UNBOUND:                -2.497
REMARK SMILES CCCCCCCCCCCCCCCCCCCCCCCCCCCC(=O)[O-]
REMARK SMILES IDX 15 1 16 2 17 3 18 4 19 5 20 6 21 7 22 8 23 9 24 10 25 11
REMARK SMILES IDX 26 12 27 13 28 14 29 15 30 16 14 17 13 18 12 19 11 20 10 21
REMARK SMILES IDX 9 22 8 23 7 24 6 25 5 26 4 27 3 28 2 29 1 30
REMARK H PARENT
REMARK Flexibility Score: inf
ROOT
ATOM      1  C   UNL     1      14.338  25.036  32.973  1.00  0.00     0.000 C 
ENDROOT
BRANCH   1   2
ATOM      2  C   UNL     1      12.859  25.262  33.341  1.00  0.00     0.000 C 
BRANCH   2   3
ATOM      3  C   UNL     1      12.627  26.567  34.115  1.00  0.00     0.000 C 
BRANCH   3   4
ATOM      4  C   UNL     1      12.777  26.345  35.625  1.00  0.00     0.000 C 
BRANCH   4   5
ATOM      5  C   UNL     1      11.802  27.229  36.415  1.00  0.00     0.000 C 
BRANCH   5   6
ATOM      6  C   UNL     1      11.378  28.497  35.651  1.00  0.00     0.000 C 
BRANCH   6   7
ATOM      7  C   UNL     1      11.976  29.809  36.190  1.00  0.00     0.000 C 
BRANCH   7   8
ATOM      8  C   UNL     1      13.509  29.858  36.077  1.00  0.00     0.000 C 
BRANCH   8   9
ATOM      9  C   UNL     1      14.106  31.179  36.596  1.00  0.00     0.000 C 
BRANCH   9  10
ATOM     10  C   UNL     1      14.657  32.121  35.507  1.00  0.00     0.000 C 
BRANCH  10  11
ATOM     11  C   UNL     1      16.135  31.859  35.174  1.00  0.00     0.000 C 
BRANCH  11  12
ATOM     12  C   UNL     1      16.345  31.333  33.743  1.00  0.00     0.006 C 
BRANCH  12  13
ATOM     13  C   UNL     1      16.773  29.854  33.675  1.00  0.00     0.053 C 
BRANCH  13  14
ATOM     14  C   UNL     1      16.662  29.283  32.294  1.00  0.00     0.041 C 
ATOM     15  O   UNL     1      16.584  30.047  31.296  1.00  0.00    -0.550 OA
ATOM     16  O   UNL     1      16.602  27.908  32.111  1.00  0.00    -0.550 OA
ENDBRANCH  13  14
ENDBRANCH  12  13
ENDBRANCH  11  12
ENDBRANCH  10  11
ENDBRANCH   9  10
ENDBRANCH   8   9
ENDBRANCH   7   8
ENDBRANCH   6   7
ENDBRANCH   5   6
ENDBRANCH   4   5
ENDBRANCH   3   4
ENDBRANCH   2   3
ENDBRANCH   1   2
BRANCH   1  17
ATOM     17  C   UNL     1      14.904  23.655  33.353  1.00  0.00     0.000 C 
BRANCH  17  18
ATOM     18  C   UNL     1      15.715  23.683  34.660  1.00  0.00     0.000 C 
BRANCH  18  19
ATOM     19  C   UNL     1      15.587  22.380  35.474  1.00  0.00     0.000 C 
BRANCH  19  20
ATOM     20  C   UNL     1      16.421  21.194  34.952  1.00  0.00     0.000 C 
BRANCH  20  21
ATOM     21  C   UNL     1      15.647  20.166  34.105  1.00  0.00     0.000 C 
BRANCH  21  22
ATOM     22  C   UNL     1      15.245  18.891  34.877  1.00  0.00    -0.000 C 
BRANCH  22  23
ATOM     23  C   UNL     1      15.925  18.792  36.255  1.00  0.00    -0.000 C 
BRANCH  23  24
ATOM     24  C   UNL     1      15.938  17.359  36.809  1.00  0.00    -0.000 C 
BRANCH  24  25
ATOM     25  C   UNL     1      16.264  16.308  35.736  1.00  0.00    -0.000 C 
BRANCH  25  26
ATOM     26  C   UNL     1      15.172  15.234  35.671  1.00  0.00    -0.000 C 
BRANCH  26  27
ATOM     27  C   UNL     1      15.498  14.179  34.603  1.00  0.00    -0.000 C 
BRANCH  27  28
ATOM     28  C   UNL     1      16.163  14.782  33.356  1.00  0.00    -0.000 C 
BRANCH  28  29
ATOM     29  C   UNL     1      15.924  13.943  32.092  1.00  0.00    -0.003 C 
ATOM     30  C   UNL     1      14.581  13.220  32.158  1.00  0.00     0.004 C 
ENDBRANCH  28  29
ENDBRANCH  27  28
ENDBRANCH  26  27
ENDBRANCH  25  26
ENDBRANCH  24  25
ENDBRANCH  23  24
ENDBRANCH  22  23
ENDBRANCH  21  22
ENDBRANCH  20  21
ENDBRANCH  19  20
ENDBRANCH  18  19
ENDBRANCH  17  18
ENDBRANCH   1  17
TORSDOF 26
ENDMDL
MODEL 4
REMARK VINA RESULT:    -3.697      3.302     10.199
REMARK INTER + INTRA:         -11.813
REMARK INTER:                  -8.530
REMARK INTRA:                  -3.283
REMARK UNBOUND:                -2.497
REMARK SMILES CCCCCCCCCCCCCCCCCCCCCCCCCCCC(=O)[O-]
REMARK SMILES IDX 15 1 16 2 17 3 18 4 19 5 20 6 21 7 22 8 23 9 24 10 25 11
REMARK SMILES IDX 26 12 27 13 28 14 29 15 30 16 14 17 13 18 12 19 11 20 10 21
REMARK SMILES IDX 9 22 8 23 7 24 6 25 5 26 4 27 3 28 2 29 1 30
REMARK H PARENT
REMARK Flexibility Score: inf
ROOT
ATOM      1  C   UNL     1      15.229  24.855  33.373  1.00  0.00     0.000 C 
ENDROOT
BRANCH   1   2
ATOM      2  C   UNL     1      15.391  23.479  32.701  1.00  0.00     0.000 C 
BRANCH   2   3
ATOM      3  C   UNL     1      16.592  22.686  33.238  1.00  0.00     0.000 C 
BRANCH   3   4
ATOM      4  C   UNL     1      16.172  21.275  33.666  1.00  0.00     0.000 C 
BRANCH   4   5
ATOM      5  C   UNL     1      17.081  20.741  34.782  1.00  0.00     0.000 C 
BRANCH   5   6
ATOM      6  C   UNL     1      16.505  20.967  36.192  1.00  0.00     0.000 C 
BRANCH   6   7
ATOM      7  C   UNL     1      14.986  20.750  36.314  1.00  0.00     0.000 C 
BRANCH   7   8
ATOM      8  C   UNL     1      14.286  21.856  37.122  1.00  0.00     0.000 C 
BRANCH   8   9
ATOM      9  C   UNL     1      14.545  23.265  36.558  1.00  0.00     0.000 C 
BRANCH   9  10
ATOM     10  C   UNL     1      13.591  24.362  37.072  1.00  0.00     0.000 C 
BRANCH  10  11
ATOM     11  C   UNL     1      14.172  25.779  36.936  1.00  0.00     0.000 C 
BRANCH  11  12
ATOM     12  C   UNL     1      13.257  26.732  36.146  1.00  0.00     0.006 C 
BRANCH  12  13
ATOM     13  C   UNL     1      12.755  27.938  36.962  1.00  0.00     0.053 C 
BRANCH  13  14
ATOM     14  C   UNL     1      11.890  28.860  36.157  1.00  0.00     0.041 C 
ATOM     15  O   UNL     1      10.985  28.395  35.415  1.00  0.00    -0.550 OA
ATOM     16  O   UNL     1      12.109  30.231  36.192  1.00  0.00    -0.550 OA
ENDBRANCH  13  14
ENDBRANCH  12  13
ENDBRANCH  11  12
ENDBRANCH  10  11
ENDBRANCH   9  10
ENDBRANCH   8   9
ENDBRANCH   7   8
ENDBRANCH   6   7
ENDBRANCH   5   6
ENDBRANCH   4   5
ENDBRANCH   3   4
ENDBRANCH   2   3
ENDBRANCH   1   2
BRANCH   1  17
ATOM     17  C   UNL     1      16.544  25.539  33.791  1.00  0.00     0.000 C 
BRANCH  17  18
ATOM     18  C   UNL     1      17.084  26.499  32.717  1.00  0.00     0.000 C 
BRANCH  18  19
ATOM     19  C   UNL     1      17.015  27.978  33.144  1.00  0.00     0.000 C 
BRANCH  19  20
ATOM     20  C   UNL     1      16.760  28.218  34.645  1.00  0.00     0.000 C 
BRANCH  20  21
ATOM     21  C   UNL     1      15.608  29.187  34.971  1.00  0.00     0.000 C 
BRANCH  21  22
ATOM     22  C   UNL     1      15.953  30.230  36.056  1.00  0.00    -0.000 C 
BRANCH  22  23
ATOM     23  C   UNL     1      16.604  31.499  35.474  1.00  0.00    -0.000 C 
BRANCH  23  24
ATOM     24  C   UNL     1      15.586  32.618  35.203  1.00  0.00    -0.000 C 
BRANCH  24  25
ATOM     25  C   UNL     1      15.523  33.019  33.721  1.00  0.00    -0.000 C 
BRANCH  25  26
ATOM     26  C   UNL     1      16.879  32.807  33.038  1.00  0.00    -0.000 C 
BRANCH  26  27
ATOM     27  C   UNL     1      16.870  31.532  32.180  1.00  0.00    -0.000 C 
BRANCH  27  28
ATOM     28  C   UNL     1      16.580  31.816  30.698  1.00  0.00    -0.000 C 
BRANCH  28  29
ATOM     29  C   UNL     1      16.983  30.651  29.782  1.00  0.00    -0.003 C 
ATOM     30  C   UNL     1      16.023  30.520  28.603  1.00  0.00     0.004 C 
ENDBRANCH  28  29
ENDBRANCH  27  28
ENDBRANCH  26  27
ENDBRANCH  25  26
ENDBRANCH  24  25
ENDBRANCH  23  24
ENDBRANCH  22  23
ENDBRANCH  21  22
ENDBRANCH  20  21
ENDBRANCH  19  20
ENDBRANCH  18  19
ENDBRANCH  17  18
ENDBRANCH   1  17
TORSDOF 26
ENDMDL
MODEL 5
REMARK VINA RESULT:    -3.530      3.961     11.880
REMARK INTER + INTRA:         -11.392
REMARK INTER:                  -9.132
REMARK INTRA:                  -2.260
REMARK UNBOUND:                -2.497
REMARK SMILES CCCCCCCCCCCCCCCCCCCCCCCCCCCC(=O)[O-]
REMARK SMILES IDX 15 1 16 2 17 3 18 4 19 5 20 6 21 7 22 8 23 9 24 10 25 11
REMARK SMILES IDX 26 12 27 13 28 14 29 15 30 16 14 17 13 18 12 19 11 20 10 21
REMARK SMILES IDX 9 22 8 23 7 24 6 25 5 26 4 27 3 28 2 29 1 30
REMARK H PARENT
REMARK Flexibility Score: inf
ROOT
ATOM      1  C   UNL     1      15.178  24.275  33.567  1.00  0.00     0.000 C 
ENDROOT
BRANCH   1   2
ATOM      2  C   UNL     1      14.839  23.882  35.017  1.00  0.00     0.000 C 
BRANCH   2   3
ATOM      3  C   UNL     1      15.556  22.604  35.475  1.00  0.00     0.000 C 
BRANCH   3   4
ATOM      4  C   UNL     1      14.934  22.058  36.766  1.00  0.00     0.000 C 
BRANCH   4   5
ATOM      5  C   UNL     1      15.063  20.530  36.841  1.00  0.00     0.000 C 
BRANCH   5   6
ATOM      6  C   UNL     1      16.091  19.960  35.845  1.00  0.00     0.000 C 
BRANCH   6   7
ATOM      7  C   UNL     1      15.512  18.985  34.804  1.00  0.00     0.000 C 
BRANCH   7   8
ATOM      8  C   UNL     1      16.473  17.832  34.465  1.00  0.00     0.000 C 
BRANCH   8   9
ATOM      9  C   UNL     1      15.839  16.444  34.670  1.00  0.00     0.000 C 
BRANCH   9  10
ATOM     10  C   UNL     1      15.442  16.112  36.122  1.00  0.00     0.000 C 
BRANCH  10  11
ATOM     11  C   UNL     1      14.906  14.682  36.289  1.00  0.00     0.000 C 
BRANCH  11  12
ATOM     12  C   UNL     1      15.523  13.686  35.290  1.00  0.00     0.006 C 
BRANCH  12  13
ATOM     13  C   UNL     1      14.531  13.164  34.233  1.00  0.00     0.053 C 
BRANCH  13  14
ATOM     14  C   UNL     1      15.067  13.270  32.837  1.00  0.00     0.041 C 
ATOM     15  O   UNL     1      14.301  13.115  31.850  1.00  0.00    -0.550 OA
ATOM     16  O   UNL     1      16.420  13.498  32.624  1.00  0.00    -0.550 OA
ENDBRANCH  13  14
ENDBRANCH  12  13
ENDBRANCH  11  12
ENDBRANCH  10  11
ENDBRANCH   9  10
ENDBRANCH   8   9
ENDBRANCH   7   8
ENDBRANCH   6   7
ENDBRANCH   5   6
ENDBRANCH   4   5
ENDBRANCH   3   4
ENDBRANCH   2   3
ENDBRANCH   1   2
BRANCH   1  17
ATOM     17  C   UNL     1      16.435  25.149  33.401  1.00  0.00     0.000 C 
BRANCH  17  18
ATOM     18  C   UNL     1      16.951  25.710  34.737  1.00  0.00     0.000 C 
BRANCH  18  19
ATOM     19  C   UNL     1      16.606  27.199  34.936  1.00  0.00     0.000 C 
BRANCH  19  20
ATOM     20  C   UNL     1      16.997  28.127  33.769  1.00  0.00     0.000 C 
BRANCH  20  21
ATOM     21  C   UNL     1      15.981  29.237  33.440  1.00  0.00     0.000 C 
BRANCH  21  22
ATOM     22  C   UNL     1      16.473  30.660  33.781  1.00  0.00    -0.000 C 
BRANCH  22  23
ATOM     23  C   UNL     1      16.245  31.029  35.259  1.00  0.00    -0.000 C 
BRANCH  23  24
ATOM     24  C   UNL     1      14.757  31.175  35.611  1.00  0.00    -0.000 C 
BRANCH  24  25
ATOM     25  C   UNL     1      14.187  29.935  36.318  1.00  0.00    -0.000 C 
BRANCH  25  26
ATOM     26  C   UNL     1      12.654  29.943  36.287  1.00  0.00    -0.000 C 
BRANCH  26  27
ATOM     27  C   UNL     1      12.088  28.566  36.668  1.00  0.00    -0.000 C 
BRANCH  27  28
ATOM     28  C   UNL     1      11.612  27.762  35.449  1.00  0.00    -0.000 C 
BRANCH  28  29
ATOM     29  C   UNL     1      12.772  27.119  34.673  1.00  0.00    -0.003 C 
ATOM     30  C   UNL     1      12.255  26.152  33.612  1.00  0.00     0.004 C 
ENDBRANCH  28  29
ENDBRANCH  27  28
ENDBRANCH  26  27
ENDBRANCH  25  26
ENDBRANCH  24  25
ENDBRANCH  23  24
ENDBRANCH  22  23
ENDBRANCH  21  22
ENDBRANCH  20  21
ENDBRANCH  19  20
ENDBRANCH  18  19
ENDBRANCH  17  18
ENDBRANCH   1  17
TORSDOF 26
ENDMDL
MODEL 6
REMARK VINA RESULT:    -3.423      1.708      3.704
REMARK INTER + INTRA:         -11.124
REMARK INTER:                  -9.843
REMARK INTRA:                  -1.280
REMARK UNBOUND:                -2.497
REMARK SMILES CCCCCCCCCCCCCCCCCCCCCCCCCCCC(=O)[O-]
REMARK SMILES IDX 15 1 16 2 17 3 18 4 19 5 20 6 21 7 22 8 23 9 24 10 25 11
REMARK SMILES IDX 26 12 27 13 28 14 29 15 30 16 14 17 13 18 12 19 11 20 10 21
REMARK SMILES IDX 9 22 8 23 7 24 6 25 5 26 4 27 3 28 2 29 1 30
REMARK H PARENT
REMARK Flexibility Score: inf
ROOT
ATOM      1  C   UNL     1      14.278  25.644  35.699  1.00  0.00     0.000 C 
ENDROOT
BRANCH   1   2
ATOM      2  C   UNL     1      12.986  25.769  34.870  1.00  0.00     0.000 C 
BRANCH   2   3
ATOM      3  C   UNL     1      12.614  27.225  34.556  1.00  0.00     0.000 C 
BRANCH   3   4
ATOM      4  C   UNL     1      11.584  27.758  35.559  1.00  0.00     0.000 C 
BRANCH   4   5
ATOM      5  C   UNL     1      12.122  28.987  36.305  1.00  0.00     0.000 C 
BRANCH   5   6
ATOM      6  C   UNL     1      13.636  29.196  36.115  1.00  0.00     0.000 C 
BRANCH   6   7
ATOM      7  C   UNL     1      14.079  30.668  36.022  1.00  0.00     0.000 C 
BRANCH   7   8
ATOM      8  C   UNL     1      15.383  30.851  35.226  1.00  0.00     0.000 C 
BRANCH   8   9
ATOM      9  C   UNL     1      15.451  32.201  34.489  1.00  0.00     0.000 C 
BRANCH   9  10
ATOM     10  C   UNL     1      16.294  32.201  33.198  1.00  0.00     0.000 C 
BRANCH  10  11
ATOM     11  C   UNL     1      17.023  30.871  32.954  1.00  0.00     0.000 C 
BRANCH  11  12
ATOM     12  C   UNL     1      16.657  30.221  31.607  1.00  0.00     0.006 C 
BRANCH  12  13
ATOM     13  C   UNL     1      16.916  28.703  31.553  1.00  0.00     0.053 C 
BRANCH  13  14
ATOM     14  C   UNL     1      16.502  28.002  32.811  1.00  0.00     0.041 C 
ATOM     15  O   UNL     1      15.566  27.160  32.790  1.00  0.00    -0.550 OA
ATOM     16  O   UNL     1      17.121  28.308  34.016  1.00  0.00    -0.550 OA
ENDBRANCH  13  14
ENDBRANCH  12  13
ENDBRANCH  11  12
ENDBRANCH  10  11
ENDBRANCH   9  10
ENDBRANCH   8   9
ENDBRANCH   7   8
ENDBRANCH   6   7
ENDBRANCH   5   6
ENDBRANCH   4   5
ENDBRANCH   3   4
ENDBRANCH   2   3
ENDBRANCH   1   2
BRANCH   1  17
ATOM     17  C   UNL     1      14.928  24.248  35.694  1.00  0.00     0.000 C 
BRANCH  17  18
ATOM     18  C   UNL     1      15.929  24.060  34.540  1.00  0.00     0.000 C 
BRANCH  18  19
ATOM     19  C   UNL     1      16.624  22.685  34.567  1.00  0.00     0.000 C 
BRANCH  19  20
ATOM     20  C   UNL     1      15.969  21.634  35.484  1.00  0.00     0.000 C 
BRANCH  20  21
ATOM     21  C   UNL     1      16.673  20.264  35.524  1.00  0.00     0.000 C 
BRANCH  21  22
ATOM     22  C   UNL     1      15.924  19.151  34.758  1.00  0.00    -0.000 C 
BRANCH  22  23
ATOM     23  C   UNL     1      16.866  18.049  34.241  1.00  0.00    -0.000 C 
BRANCH  23  24
ATOM     24  C   UNL     1      16.294  16.637  34.442  1.00  0.00    -0.000 C 
BRANCH  24  25
ATOM     25  C   UNL     1      16.983  15.583  33.560  1.00  0.00    -0.000 C 
BRANCH  25  26
ATOM     26  C   UNL     1      15.950  14.671  32.888  1.00  0.00    -0.000 C 
BRANCH  26  27
ATOM     27  C   UNL     1      14.628  14.666  33.672  1.00  0.00    -0.000 C 
BRANCH  27  28
ATOM     28  C   UNL     1      14.396  13.353  34.435  1.00  0.00    -0.000 C 
BRANCH  28  29
ATOM     29  C   UNL     1      15.023  13.366  35.838  1.00  0.00    -0.003 C 
ATOM     30  C   UNL     1      14.010  13.810  36.889  1.00  0.00     0.004 C 
ENDBRANCH  28  29
ENDBRANCH  27  28
ENDBRANCH  26  27
ENDBRANCH  25  26
ENDBRANCH  24  25
ENDBRANCH  23  24
ENDBRANCH  22  23
ENDBRANCH  21  22
ENDBRANCH  20  21
ENDBRANCH  19  20
ENDBRANCH  18  19
ENDBRANCH  17  18
ENDBRANCH   1  17
TORSDOF 26
ENDMDL
MODEL 7
REMARK VINA RESULT:    -3.199      4.120     12.491
REMARK INTER + INTRA:         -10.558
REMARK INTER:                  -8.714
REMARK INTRA:                  -1.844
REMARK UNBOUND:                -2.497
REMARK SMILES CCCCCCCCCCCCCCCCCCCCCCCCCCCC(=O)[O-]
REMARK SMILES IDX 15 1 16 2 17 3 18 4 19 5 20 6 21 7 22 8 23 9 24 10 25 11
REMARK SMILES IDX 26 12 27 13 28 14 29 15 30 16 14 17 13 18 12 19 11 20 10 21
REMARK SMILES IDX 9 22 8 23 7 24 6 25 5 26 4 27 3 28 2 29 1 30
REMARK H PARENT
REMARK Flexibility Score: inf
ROOT
ATOM      1  C   UNL     1      14.943  23.602  32.821  1.00  0.00     0.000 C 
ENDROOT
BRANCH   1   2
ATOM      2  C   UNL     1      15.659  22.352  33.365  1.00  0.00     0.000 C 
BRANCH   2   3
ATOM      3  C   UNL     1      16.844  22.690  34.281  1.00  0.00     0.000 C 
BRANCH   3   4
ATOM      4  C   UNL     1      16.456  22.546  35.757  1.00  0.00     0.000 C 
BRANCH   4   5
ATOM      5  C   UNL     1      15.611  21.285  35.987  1.00  0.00     0.000 C 
BRANCH   5   6
ATOM      6  C   UNL     1      16.404  19.980  35.787  1.00  0.00     0.000 C 
BRANCH   6   7
ATOM      7  C   UNL     1      15.821  19.023  34.731  1.00  0.00     0.000 C 
BRANCH   7   8
ATOM      8  C   UNL     1      15.556  17.612  35.284  1.00  0.00     0.000 C 
BRANCH   8   9
ATOM      9  C   UNL     1      16.801  16.708  35.241  1.00  0.00     0.000 C 
BRANCH   9  10
ATOM     10  C   UNL     1      16.584  15.269  35.747  1.00  0.00     0.000 C 
BRANCH  10  11
ATOM     11  C   UNL     1      15.729  14.417  34.795  1.00  0.00     0.000 C 
BRANCH  11  12
ATOM     12  C   UNL     1      15.637  15.007  33.377  1.00  0.00     0.006 C 
BRANCH  12  13
ATOM     13  C   UNL     1      16.582  14.342  32.358  1.00  0.00     0.053 C 
BRANCH  13  14
ATOM     14  C   UNL     1      15.879  13.352  31.479  1.00  0.00     0.041 C 
ATOM     15  O   UNL     1      16.460  12.876  30.468  1.00  0.00    -0.550 OA
ATOM     16  O   UNL     1      14.566  12.988  31.750  1.00  0.00    -0.550 OA
ENDBRANCH  13  14
ENDBRANCH  12  13
ENDBRANCH  11  12
ENDBRANCH  10  11
ENDBRANCH   9  10
ENDBRANCH   8   9
ENDBRANCH   7   8
ENDBRANCH   6   7
ENDBRANCH   5   6
ENDBRANCH   4   5
ENDBRANCH   3   4
ENDBRANCH   2   3
ENDBRANCH   1   2
BRANCH   1  17
ATOM     17  C   UNL     1      14.866  24.790  33.797  1.00  0.00     0.000 C 
BRANCH  17  18
ATOM     18  C   UNL     1      15.862  25.911  33.452  1.00  0.00     0.000 C 
BRANCH  18  19
ATOM     19  C   UNL     1      15.335  27.314  33.812  1.00  0.00     0.000 C 
BRANCH  19  20
ATOM     20  C   UNL     1      14.485  27.389  35.095  1.00  0.00     0.000 C 
BRANCH  20  21
ATOM     21  C   UNL     1      13.077  27.990  34.918  1.00  0.00     0.000 C 
BRANCH  21  22
ATOM     22  C   UNL     1      12.098  27.642  36.061  1.00  0.00    -0.000 C 
BRANCH  22  23
ATOM     23  C   UNL     1      12.005  28.755  37.122  1.00  0.00    -0.000 C 
BRANCH  23  24
ATOM     24  C   UNL     1      12.049  30.164  36.510  1.00  0.00    -0.000 C 
BRANCH  24  25
ATOM     25  C   UNL     1      13.157  31.041  37.113  1.00  0.00    -0.000 C 
BRANCH  25  26
ATOM     26  C   UNL     1      14.158  31.477  36.037  1.00  0.00    -0.000 C 
BRANCH  26  27
ATOM     27  C   UNL     1      15.550  30.884  36.306  1.00  0.00    -0.000 C 
BRANCH  27  28
ATOM     28  C   UNL     1      16.444  30.879  35.057  1.00  0.00    -0.000 C 
BRANCH  28  29
ATOM     29  C   UNL     1      16.021  31.931  34.021  1.00  0.00    -0.003 C 
ATOM     30  C   UNL     1      16.311  31.453  32.601  1.00  0.00     0.004 C 
ENDBRANCH  28  29
ENDBRANCH  27  28
ENDBRANCH  26  27
ENDBRANCH  25  26
ENDBRANCH  24  25
ENDBRANCH  23  24
ENDBRANCH  22  23
ENDBRANCH  21  22
ENDBRANCH  20  21
ENDBRANCH  19  20
ENDBRANCH  18  19
ENDBRANCH  17  18
ENDBRANCH   1  17
TORSDOF 26
ENDMDL
MODEL 8
REMARK VINA RESULT:    -3.040      3.878     11.481
REMARK INTER + INTRA:         -10.157
REMARK INTER:                  -7.672
REMARK INTRA:                  -2.485
REMARK UNBOUND:                -2.497
REMARK SMILES CCCCCCCCCCCCCCCCCCCCCCCCCCCC(=O)[O-]
REMARK SMILES IDX 15 1 16 2 17 3 18 4 19 5 20 6 21 7 22 8 23 9 24 10 25 11
REMARK SMILES IDX 26 12 27 13 28 14 29 15 30 16 14 17 13 18 12 19 11 20 10 21
REMARK SMILES IDX 9 22 8 23 7 24 6 25 5 26 4 27 3 28 2 29 1 30
REMARK H PARENT
REMARK Flexibility Score: inf
ROOT
ATOM      1  C   UNL     1      15.096  24.042  36.341  1.00  0.00     0.000 C 
ENDROOT
BRANCH   1   2
ATOM      2  C   UNL     1      15.357  23.194  35.082  1.00  0.00     0.000 C 
BRANCH   2   3
ATOM      3  C   UNL     1      16.666  22.395  35.157  1.00  0.00     0.000 C 
BRANCH   3   4
ATOM      4  C   UNL     1      16.636  21.200  34.196  1.00  0.00     0.000 C 
BRANCH   4   5
ATOM      5  C   UNL     1      16.827  19.877  34.951  1.00  0.00     0.000 C 
BRANCH   5   6
ATOM      6  C   UNL     1      16.096  18.692  34.292  1.00  0.00     0.000 C 
BRANCH   6   7
ATOM      7  C   UNL     1      15.512  17.662  35.276  1.00  0.00     0.000 C 
BRANCH   7   8
ATOM      8  C   UNL     1      16.102  17.786  36.691  1.00  0.00     0.000 C 
BRANCH   8   9
ATOM      9  C   UNL     1      17.111  16.670  37.021  1.00  0.00     0.000 C 
BRANCH   9  10
ATOM     10  C   UNL     1      16.878  15.338  36.282  1.00  0.00     0.000 C 
BRANCH  10  11
ATOM     11  C   UNL     1      15.824  14.448  36.960  1.00  0.00     0.000 C 
BRANCH  11  12
ATOM     12  C   UNL     1      15.645  13.088  36.262  1.00  0.00     0.006 C 
BRANCH  12  13
ATOM     13  C   UNL     1      14.528  13.070  35.201  1.00  0.00     0.053 C 
BRANCH  13  14
ATOM     14  C   UNL     1      14.998  13.544  33.859  1.00  0.00     0.041 C 
ATOM     15  O   UNL     1      14.166  13.908  32.987  1.00  0.00    -0.550 OA
ATOM     16  O   UNL     1      16.353  13.545  33.556  1.00  0.00    -0.550 OA
ENDBRANCH  13  14
ENDBRANCH  12  13
ENDBRANCH  11  12
ENDBRANCH  10  11
ENDBRANCH   9  10
ENDBRANCH   8   9
ENDBRANCH   7   8
ENDBRANCH   6   7
ENDBRANCH   5   6
ENDBRANCH   4   5
ENDBRANCH   3   4
ENDBRANCH   2   3
ENDBRANCH   1   2
BRANCH   1  17
ATOM     17  C   UNL     1      16.358  24.501  37.095  1.00  0.00     0.000 C 
BRANCH  17  18
ATOM     18  C   UNL     1      17.121  25.615  36.357  1.00  0.00     0.000 C 
BRANCH  18  19
ATOM     19  C   UNL     1      17.120  26.952  37.125  1.00  0.00     0.000 C 
BRANCH  19  20
ATOM     20  C   UNL     1      16.102  27.996  36.626  1.00  0.00     0.000 C 
BRANCH  20  21
ATOM     21  C   UNL     1      14.625  27.669  36.919  1.00  0.00     0.000 C 
BRANCH  21  22
ATOM     22  C   UNL     1      13.629  28.713  36.369  1.00  0.00    -0.000 C 
BRANCH  22  23
ATOM     23  C   UNL     1      12.162  28.274  36.524  1.00  0.00    -0.000 C 
BRANCH  23  24
ATOM     24  C   UNL     1      11.335  28.507  35.250  1.00  0.00    -0.000 C 
BRANCH  24  25
ATOM     25  C   UNL     1      11.572  27.429  34.180  1.00  0.00    -0.000 C 
BRANCH  25  26
ATOM     26  C   UNL     1      12.359  26.247  34.759  1.00  0.00    -0.000 C 
BRANCH  26  27
ATOM     27  C   UNL     1      13.464  25.795  33.792  1.00  0.00    -0.000 C 
BRANCH  27  28
ATOM     28  C   UNL     1      14.379  26.949  33.354  1.00  0.00    -0.000 C 
BRANCH  28  29
ATOM     29  C   UNL     1      15.790  26.475  32.975  1.00  0.00    -0.003 C 
ATOM     30  C   UNL     1      16.836  27.530  33.322  1.00  0.00     0.004 C 
ENDBRANCH  28  29
ENDBRANCH  27  28
ENDBRANCH  26  27
ENDBRANCH  25  26
ENDBRANCH  24  25
ENDBRANCH  23  24
ENDBRANCH  22  23
ENDBRANCH  21  22
ENDBRANCH  20  21
ENDBRANCH  19  20
ENDBRANCH  18  19
ENDBRANCH  17  18
ENDBRANCH   1  17
TORSDOF 26
ENDMDL
