MODEL 1
REMARK VINA RESULT:    -6.153      0.000      0.000
REMARK INTER + INTRA:         -14.942
REMARK INTER:                 -13.347
REMARK INTRA:                  -1.595
REMARK UNBOUND:                -1.595
REMARK SMILES CCCCCCCCCCCCCCCCCCCCCC(=O)[O-]
REMARK SMILES IDX 12 1 11 2 10 3 9 4 8 5 7 6 6 7 5 8 4 9 3 10 2 11 1 12 13 13
REMARK SMILES IDX 14 14 15 15 16 16 17 17 18 18 19 19 20 20 21 21 22 22 23 23
REMARK SMILES IDX 24 24
REMARK H PARENT
REMARK Flexibility Score: inf
ROOT
ATOM      1  C   UNL     1      -7.795  13.327   4.010  1.00  0.00     0.000 C 
ENDROOT
BRANCH   1   2
ATOM      2  C   UNL     1      -7.525  12.716   2.627  1.00  0.00     0.000 C 
BRANCH   2   3
ATOM      3  C   UNL     1      -6.077  12.223   2.472  1.00  0.00     0.000 C 
BRANCH   3   4
ATOM      4  C   UNL     1      -5.682  11.205   3.557  1.00  0.00    -0.000 C 
BRANCH   4   5
ATOM      5  C   UNL     1      -6.013   9.759   3.152  1.00  0.00    -0.000 C 
BRANCH   5   6
ATOM      6  C   UNL     1      -4.970   8.752   3.667  1.00  0.00    -0.000 C 
BRANCH   6   7
ATOM      7  C   UNL     1      -5.612   7.491   4.265  1.00  0.00    -0.000 C 
BRANCH   7   8
ATOM      8  C   UNL     1      -5.442   7.408   5.789  1.00  0.00    -0.000 C 
BRANCH   8   9
ATOM      9  C   UNL     1      -4.324   8.343   6.268  1.00  0.00    -0.000 C 
BRANCH   9  10
ATOM     10  C   UNL     1      -4.577   8.808   7.711  1.00  0.00    -0.000 C 
BRANCH  10  11
ATOM     11  C   UNL     1      -3.797  10.082   8.066  1.00  0.00    -0.003 C 
ATOM     12  C   UNL     1      -3.627  11.023   6.873  1.00  0.00     0.004 C 
ENDBRANCH  10  11
ENDBRANCH   9  10
ENDBRANCH   8   9
ENDBRANCH   7   8
ENDBRANCH   6   7
ENDBRANCH   5   6
ENDBRANCH   4   5
ENDBRANCH   3   4
ENDBRANCH   2   3
ENDBRANCH   1   2
BRANCH   1  13
ATOM     13  C   UNL     1      -9.277  13.207   4.384  1.00  0.00     0.000 C 
BRANCH  13  14
ATOM     14  C   UNL     1     -10.030  12.327   3.375  1.00  0.00     0.000 C 
BRANCH  14  15
ATOM     15  C   UNL     1     -10.790  11.175   4.050  1.00  0.00     0.000 C 
BRANCH  15  16
ATOM     16  C   UNL     1     -11.217  11.511   5.490  1.00  0.00     0.000 C 
BRANCH  16  17
ATOM     17  C   UNL     1     -12.260  10.525   6.041  1.00  0.00     0.000 C 
BRANCH  17  18
ATOM     18  C   UNL     1     -12.309  10.521   7.578  1.00  0.00     0.000 C 
BRANCH  18  19
ATOM     19  C   UNL     1     -12.766   9.172   8.161  1.00  0.00     0.000 C 
BRANCH  19  20
ATOM     20  C   UNL     1     -13.473   8.234   7.166  1.00  0.00     0.006 C 
BRANCH  20  21
ATOM     21  C   UNL     1     -14.624   7.444   7.799  1.00  0.00     0.053 C 
BRANCH  21  22
ATOM     22  C   UNL     1     -14.313   5.981   7.806  1.00  0.00     0.041 C 
ATOM     23  O   UNL     1     -15.070   5.170   7.210  1.00  0.00    -0.550 OA
ATOM     24  O   UNL     1     -13.209   5.508   8.503  1.00  0.00    -0.550 OA
ENDBRANCH  21  22
ENDBRANCH  20  21
ENDBRANCH  19  20
ENDBRANCH  18  19
ENDBRANCH  17  18
ENDBRANCH  16  17
ENDBRANCH  15  16
ENDBRANCH  14  15
ENDBRANCH  13  14
ENDBRANCH   1  13
TORSDOF 20
ENDMDL
MODEL 2
REMARK VINA RESULT:    -6.035      5.585      8.210
REMARK INTER + INTRA:         -14.687
REMARK INTER:                 -12.785
REMARK INTRA:                  -1.902
REMARK UNBOUND:                -1.595
REMARK SMILES CCCCCCCCCCCCCCCCCCCCCC(=O)[O-]
REMARK SMILES IDX 12 1 11 2 10 3 9 4 8 5 7 6 6 7 5 8 4 9 3 10 2 11 1 12 13 13
REMARK SMILES IDX 14 14 15 15 16 16 17 17 18 18 19 19 20 20 21 21 22 22 23 23
REMARK SMILES IDX 24 24
REMARK H PARENT
REMARK Flexibility Score: inf
ROOT
ATOM      1  C   UNL     1     -10.871  12.561   9.191  1.00  0.00     0.000 C 
ENDROOT
BRANCH   1   2
ATOM      2  C   UNL     1      -9.928  13.752   8.963  1.00  0.00     0.000 C 
BRANCH   2   3
ATOM      3  C   UNL     1     -10.557  15.091   9.383  1.00  0.00     0.000 C 
BRANCH   3   4
ATOM      4  C   UNL     1      -9.574  15.988  10.154  1.00  0.00    -0.000 C 
BRANCH   4   5
ATOM      5  C   UNL     1      -8.171  15.367  10.257  1.00  0.00    -0.000 C 
BRANCH   5   6
ATOM      6  C   UNL     1      -7.564  15.519  11.664  1.00  0.00    -0.000 C 
BRANCH   6   7
ATOM      7  C   UNL     1      -7.642  14.223  12.483  1.00  0.00    -0.000 C 
BRANCH   7   8
ATOM      8  C   UNL     1      -7.752  12.971  11.599  1.00  0.00    -0.000 C 
BRANCH   8   9
ATOM      9  C   UNL     1      -7.189  11.739  12.319  1.00  0.00    -0.000 C 
BRANCH   9  10
ATOM     10  C   UNL     1      -8.073  11.348  13.513  1.00  0.00    -0.000 C 
BRANCH  10  11
ATOM     11  C   UNL     1      -9.493  10.944  13.088  1.00  0.00    -0.003 C 
ATOM     12  C   UNL     1      -9.543   9.567  12.426  1.00  0.00     0.004 C 
ENDBRANCH  10  11
ENDBRANCH   9  10
ENDBRANCH   8   9
ENDBRANCH   7   8
ENDBRANCH   6   7
ENDBRANCH   5   6
ENDBRANCH   4   5
ENDBRANCH   3   4
ENDBRANCH   2   3
ENDBRANCH   1   2
BRANCH   1  13
ATOM     13  C   UNL     1     -12.318  12.930   8.842  1.00  0.00     0.000 C 
BRANCH  13  14
ATOM     14  C   UNL     1     -13.055  11.734   8.221  1.00  0.00     0.000 C 
BRANCH  14  15
ATOM     15  C   UNL     1     -12.093  10.665   7.679  1.00  0.00     0.000 C 
BRANCH  15  16
ATOM     16  C   UNL     1     -12.089  10.597   6.141  1.00  0.00     0.000 C 
BRANCH  16  17
ATOM     17  C   UNL     1     -11.102  11.591   5.509  1.00  0.00     0.000 C 
BRANCH  17  18
ATOM     18  C   UNL     1     -10.769  11.240   4.049  1.00  0.00     0.000 C 
BRANCH  18  19
ATOM     19  C   UNL     1     -10.228  12.440   3.251  1.00  0.00     0.000 C 
BRANCH  19  20
ATOM     20  C   UNL     1      -9.301  13.385   4.038  1.00  0.00     0.006 C 
BRANCH  20  21
ATOM     21  C   UNL     1      -7.814  13.137   3.758  1.00  0.00     0.053 C 
BRANCH  21  22
ATOM     22  C   UNL     1      -7.411  13.775   2.467  1.00  0.00     0.041 C 
ATOM     23  O   UNL     1      -6.476  13.284   1.782  1.00  0.00    -0.550 OA
ATOM     24  O   UNL     1      -8.042  14.936   2.038  1.00  0.00    -0.550 OA
ENDBRANCH  21  22
ENDBRANCH  20  21
ENDBRANCH  19  20
ENDBRANCH  18  19
ENDBRANCH  17  18
ENDBRANCH  16  17
ENDBRANCH  15  16
ENDBRANCH  14  15
ENDBRANCH  13  14
ENDBRANCH   1  13
TORSDOF 20
ENDMDL
MODEL 3
REMARK VINA RESULT:    -5.863      3.910      7.688
REMARK INTER + INTRA:         -14.312
REMARK INTER:                 -12.392
REMARK INTRA:                  -1.921
REMARK UNBOUND:                -1.595
REMARK SMILES CCCCCCCCCCCCCCCCCCCCCC(=O)[O-]
REMARK SMILES IDX 12 1 11 2 10 3 9 4 8 5 7 6 6 7 5 8 4 9 3 10 2 11 1 12 13 13
REMARK SMILES IDX 14 14 15 15 16 16 17 17 18 18 19 19 20 20 21 21 22 22 23 23
REMARK SMILES IDX 24 24
REMARK H PARENT
REMARK Flexibility Score: inf
ROOT
ATOM      1  C   UNL     1      -9.528  12.925   4.524  1.00  0.00     0.000 C 
ENDROOT
BRANCH   1   2
ATOM      2  C   UNL     1     -10.476  11.990   3.759  1.00  0.00     0.000 C 
BRANCH   2   3
ATOM      3  C   UNL     1     -11.216  11.012   4.686  1.00  0.00     0.000 C 
BRANCH   3   4
ATOM      4  C   UNL     1     -11.211  11.473   6.154  1.00  0.00    -0.000 C 
BRANCH   4   5
ATOM      5  C   UNL     1     -12.619  11.481   6.771  1.00  0.00    -0.000 C 
BRANCH   5   6
ATOM      6  C   UNL     1     -12.627  12.030   8.209  1.00  0.00    -0.000 C 
BRANCH   6   7
ATOM      7  C   UNL     1     -11.230  12.029   8.849  1.00  0.00    -0.000 C 
BRANCH   7   8
ATOM      8  C   UNL     1     -10.762  13.438   9.245  1.00  0.00    -0.000 C 
BRANCH   8   9
ATOM      9  C   UNL     1      -9.508  13.841   8.459  1.00  0.00    -0.000 C 
BRANCH   9  10
ATOM     10  C   UNL     1      -8.564  14.687   9.327  1.00  0.00    -0.000 C 
BRANCH  10  11
ATOM     11  C   UNL     1      -8.697  14.372  10.824  1.00  0.00    -0.003 C 
ATOM     12  C   UNL     1      -7.674  13.343  11.305  1.00  0.00     0.004 C 
ENDBRANCH  10  11
ENDBRANCH   9  10
ENDBRANCH   8   9
ENDBRANCH   7   8
ENDBRANCH   6   7
ENDBRANCH   5   6
ENDBRANCH   4   5
ENDBRANCH   3   4
ENDBRANCH   2   3
ENDBRANCH   1   2
BRANCH   1  13
ATOM     13  C   UNL     1      -8.437  13.478   3.600  1.00  0.00     0.000 C 
BRANCH  13  14
ATOM     14  C   UNL     1      -7.187  12.585   3.628  1.00  0.00     0.000 C 
BRANCH  14  15
ATOM     15  C   UNL     1      -6.463  12.543   2.274  1.00  0.00     0.000 C 
BRANCH  15  16
ATOM     16  C   UNL     1      -6.659  11.205   1.540  1.00  0.00     0.000 C 
BRANCH  16  17
ATOM     17  C   UNL     1      -7.282  10.125   2.438  1.00  0.00     0.000 C 
BRANCH  17  18
ATOM     18  C   UNL     1      -6.321   8.953   2.703  1.00  0.00     0.000 C 
BRANCH  18  19
ATOM     19  C   UNL     1      -5.091   9.361   3.534  1.00  0.00     0.000 C 
BRANCH  19  20
ATOM     20  C   UNL     1      -5.052   8.797   4.966  1.00  0.00     0.006 C 
BRANCH  20  21
ATOM     21  C   UNL     1      -3.700   9.007   5.657  1.00  0.00     0.053 C 
BRANCH  21  22
ATOM     22  C   UNL     1      -3.893   9.615   7.010  1.00  0.00     0.041 C 
ATOM     23  O   UNL     1      -3.362  10.722   7.289  1.00  0.00    -0.550 OA
ATOM     24  O   UNL     1      -4.626   8.939   7.978  1.00  0.00    -0.550 OA
ENDBRANCH  21  22
ENDBRANCH  20  21
ENDBRANCH  19  20
ENDBRANCH  18  19
ENDBRANCH  17  18
ENDBRANCH  16  17
ENDBRANCH  15  16
ENDBRANCH  14  15
ENDBRANCH  13  14
ENDBRANCH   1  13
TORSDOF 20
ENDMDL
MODEL 4
REMARK VINA RESULT:    -5.853      4.983      7.925
REMARK INTER + INTRA:         -14.292
REMARK INTER:                 -12.398
REMARK INTRA:                  -1.893
REMARK UNBOUND:                -1.595
REMARK SMILES CCCCCCCCCCCCCCCCCCCCCC(=O)[O-]
REMARK SMILES IDX 12 1 11 2 10 3 9 4 8 5 7 6 6 7 5 8 4 9 3 10 2 11 1 12 13 13
REMARK SMILES IDX 14 14 15 15 16 16 17 17 18 18 19 19 20 20 21 21 22 22 23 23
REMARK SMILES IDX 24 24
REMARK H PARENT
REMARK Flexibility Score: inf
ROOT
ATOM      1  C   UNL     1     -12.006  10.763   7.089  1.00  0.00     0.000 C 
ENDROOT
BRANCH   1   2
ATOM      2  C   UNL     1     -11.035  11.844   7.588  1.00  0.00     0.000 C 
BRANCH   2   3
ATOM      3  C   UNL     1     -11.492  12.482   8.910  1.00  0.00     0.000 C 
BRANCH   3   4
ATOM      4  C   UNL     1     -10.324  13.090   9.706  1.00  0.00    -0.000 C 
BRANCH   4   5
ATOM      5  C   UNL     1     -10.073  14.563   9.345  1.00  0.00    -0.000 C 
BRANCH   5   6
ATOM      6  C   UNL     1      -8.787  15.114   9.988  1.00  0.00    -0.000 C 
BRANCH   6   7
ATOM      7  C   UNL     1      -7.953  14.020  10.671  1.00  0.00    -0.000 C 
BRANCH   7   8
ATOM      8  C   UNL     1      -7.102  14.564  11.828  1.00  0.00    -0.000 C 
BRANCH   8   9
ATOM      9  C   UNL     1      -7.036  13.555  12.982  1.00  0.00    -0.000 C 
BRANCH   9  10
ATOM     10  C   UNL     1      -6.849  12.125  12.453  1.00  0.00    -0.000 C 
BRANCH  10  11
ATOM     11  C   UNL     1      -7.769  11.112  13.150  1.00  0.00    -0.003 C 
ATOM     12  C   UNL     1      -9.200  11.147  12.614  1.00  0.00     0.004 C 
ENDBRANCH  10  11
ENDBRANCH   9  10
ENDBRANCH   8   9
ENDBRANCH   7   8
ENDBRANCH   6   7
ENDBRANCH   5   6
ENDBRANCH   4   5
ENDBRANCH   3   4
ENDBRANCH   2   3
ENDBRANCH   1   2
BRANCH   1  13
ATOM     13  C   UNL     1     -11.984  10.669   5.558  1.00  0.00     0.000 C 
BRANCH  13  14
ATOM     14  C   UNL     1     -10.868  11.545   4.969  1.00  0.00     0.000 C 
BRANCH  14  15
ATOM     15  C   UNL     1     -10.577  11.216   3.496  1.00  0.00     0.000 C 
BRANCH  15  16
ATOM     16  C   UNL     1     -10.584  12.467   2.599  1.00  0.00     0.000 C 
BRANCH  16  17
ATOM     17  C   UNL     1      -9.788  13.634   3.207  1.00  0.00     0.000 C 
BRANCH  17  18
ATOM     18  C   UNL     1      -8.312  13.628   2.773  1.00  0.00     0.000 C 
BRANCH  18  19
ATOM     19  C   UNL     1      -7.397  12.886   3.765  1.00  0.00     0.000 C 
BRANCH  19  20
ATOM     20  C   UNL     1      -6.383  11.922   3.123  1.00  0.00     0.006 C 
BRANCH  20  21
ATOM     21  C   UNL     1      -7.030  10.637   2.592  1.00  0.00     0.053 C 
BRANCH  21  22
ATOM     22  C   UNL     1      -7.236  10.727   1.113  1.00  0.00     0.041 C 
ATOM     23  O   UNL     1      -6.294  11.096   0.363  1.00  0.00    -0.550 OA
ATOM     24  O   UNL     1      -8.481  10.441   0.566  1.00  0.00    -0.550 OA
ENDBRANCH  21  22
ENDBRANCH  20  21
ENDBRANCH  19  20
ENDBRANCH  18  19
ENDBRANCH  17  18
ENDBRANCH  16  17
ENDBRANCH  15  16
ENDBRANCH  14  15
ENDBRANCH  13  14
ENDBRANCH   1  13
TORSDOF 20
ENDMDL
MODEL 5
REMARK VINA RESULT:    -5.833      4.874      7.464
REMARK INTER + INTRA:         -14.249
REMARK INTER:                 -12.180
REMARK INTRA:                  -2.069
REMARK UNBOUND:                -1.595
REMARK SMILES CCCCCCCCCCCCCCCCCCCCCC(=O)[O-]
REMARK SMILES IDX 12 1 11 2 10 3 9 4 8 5 7 6 6 7 5 8 4 9 3 10 2 11 1 12 13 13
REMARK SMILES IDX 14 14 15 15 16 16 17 17 18 18 19 19 20 20 21 21 22 22 23 23
REMARK SMILES IDX 24 24
REMARK H PARENT
REMARK Flexibility Score: inf
ROOT
ATOM      1  C   UNL     1     -11.410  12.629   8.906  1.00  0.00     0.000 C 
ENDROOT
BRANCH   1   2
ATOM      2  C   UNL     1     -10.929  12.133   7.534  1.00  0.00     0.000 C 
BRANCH   2   3
ATOM      3  C   UNL     1     -11.662  10.860   7.078  1.00  0.00     0.000 C 
BRANCH   3   4
ATOM      4  C   UNL     1     -12.048  10.904   5.589  1.00  0.00    -0.000 C 
BRANCH   4   5
ATOM      5  C   UNL     1     -10.831  11.109   4.673  1.00  0.00    -0.000 C 
BRANCH   5   6
ATOM      6  C   UNL     1     -11.101  12.134   3.558  1.00  0.00    -0.000 C 
BRANCH   6   7
ATOM      7  C   UNL     1      -9.852  12.952   3.193  1.00  0.00    -0.000 C 
BRANCH   7   8
ATOM      8  C   UNL     1      -9.021  13.340   4.425  1.00  0.00    -0.000 C 
BRANCH   8   9
ATOM      9  C   UNL     1      -7.520  13.273   4.118  1.00  0.00    -0.000 C 
BRANCH   9  10
ATOM     10  C   UNL     1      -7.219  12.185   3.077  1.00  0.00    -0.000 C 
BRANCH  10  11
ATOM     11  C   UNL     1      -6.248  12.662   1.987  1.00  0.00    -0.003 C 
ATOM     12  C   UNL     1      -6.941  13.474   0.892  1.00  0.00     0.004 C 
ENDBRANCH  10  11
ENDBRANCH   9  10
ENDBRANCH   8   9
ENDBRANCH   7   8
ENDBRANCH   6   7
ENDBRANCH   5   6
ENDBRANCH   4   5
ENDBRANCH   3   4
ENDBRANCH   2   3
ENDBRANCH   1   2
BRANCH   1  13
ATOM     13  C   UNL     1     -10.316  13.439   9.612  1.00  0.00     0.000 C 
BRANCH  13  14
ATOM     14  C   UNL     1      -9.344  14.054   8.594  1.00  0.00     0.000 C 
BRANCH  14  15
ATOM     15  C   UNL     1      -8.073  14.610   9.256  1.00  0.00     0.000 C 
BRANCH  15  16
ATOM     16  C   UNL     1      -8.375  15.726  10.272  1.00  0.00     0.000 C 
BRANCH  16  17
ATOM     17  C   UNL     1      -7.881  15.384  11.688  1.00  0.00     0.000 C 
BRANCH  17  18
ATOM     18  C   UNL     1      -7.182  14.015  11.751  1.00  0.00     0.000 C 
BRANCH  18  19
ATOM     19  C   UNL     1      -7.774  13.088  12.829  1.00  0.00     0.000 C 
BRANCH  19  20
ATOM     20  C   UNL     1      -8.564  11.882  12.292  1.00  0.00     0.006 C 
BRANCH  20  21
ATOM     21  C   UNL     1      -8.636  10.719  13.289  1.00  0.00     0.053 C 
BRANCH  21  22
ATOM     22  C   UNL     1      -7.289  10.093  13.461  1.00  0.00     0.041 C 
ATOM     23  O   UNL     1      -6.860   9.818  14.613  1.00  0.00    -0.550 OA
ATOM     24  O   UNL     1      -6.490   9.847  12.352  1.00  0.00    -0.550 OA
ENDBRANCH  21  22
ENDBRANCH  20  21
ENDBRANCH  19  20
ENDBRANCH  18  19
ENDBRANCH  17  18
ENDBRANCH  16  17
ENDBRANCH  15  16
ENDBRANCH  14  15
ENDBRANCH  13  14
ENDBRANCH   1  13
TORSDOF 20
ENDMDL
MODEL 6
REMARK VINA RESULT:    -5.807      3.422      4.567
REMARK INTER + INTRA:         -14.192
REMARK INTER:                 -12.894
REMARK INTRA:                  -1.298
REMARK UNBOUND:                -1.595
REMARK SMILES CCCCCCCCCCCCCCCCCCCCCC(=O)[O-]
REMARK SMILES IDX 12 1 11 2 10 3 9 4 8 5 7 6 6 7 5 8 4 9 3 10 2 11 1 12 13 13
REMARK SMILES IDX 14 14 15 15 16 16 17 17 18 18 19 19 20 20 21 21 22 22 23 23
REMARK SMILES IDX 24 24
REMARK H PARENT
REMARK Flexibility Score: inf
ROOT
ATOM      1  C   UNL     1      -8.378  13.052   4.063  1.00  0.00     0.000 C 
ENDROOT
BRANCH   1   2
ATOM      2  C   UNL     1      -7.703  13.630   2.810  1.00  0.00     0.000 C 
BRANCH   2   3
ATOM      3  C   UNL     1      -6.528  12.767   2.322  1.00  0.00     0.000 C 
BRANCH   3   4
ATOM      4  C   UNL     1      -6.438  11.421   3.062  1.00  0.00    -0.000 C 
BRANCH   4   5
ATOM      5  C   UNL     1      -4.999  11.076   3.477  1.00  0.00    -0.000 C 
BRANCH   5   6
ATOM      6  C   UNL     1      -4.870   9.638   4.012  1.00  0.00    -0.000 C 
BRANCH   6   7
ATOM      7  C   UNL     1      -4.492   9.594   5.500  1.00  0.00    -0.000 C 
BRANCH   7   8
ATOM      8  C   UNL     1      -3.260   8.716   5.770  1.00  0.00    -0.000 C 
BRANCH   8   9
ATOM      9  C   UNL     1      -3.382   8.000   7.121  1.00  0.00    -0.000 C 
BRANCH   9  10
ATOM     10  C   UNL     1      -4.364   6.822   7.033  1.00  0.00    -0.000 C 
BRANCH  10  11
ATOM     11  C   UNL     1      -5.644   7.059   7.847  1.00  0.00    -0.003 C 
ATOM     12  C   UNL     1      -6.491   5.795   7.999  1.00  0.00     0.004 C 
ENDBRANCH  10  11
ENDBRANCH   9  10
ENDBRANCH   8   9
ENDBRANCH   7   8
ENDBRANCH   6   7
ENDBRANCH   5   6
ENDBRANCH   4   5
ENDBRANCH   3   4
ENDBRANCH   2   3
ENDBRANCH   1   2
BRANCH   1  13
ATOM     13  C   UNL     1      -9.887  12.883   3.847  1.00  0.00     0.000 C 
BRANCH  13  14
ATOM     14  C   UNL     1     -10.227  11.437   3.454  1.00  0.00     0.000 C 
BRANCH  14  15
ATOM     15  C   UNL     1     -11.237  10.788   4.413  1.00  0.00     0.000 C 
BRANCH  15  16
ATOM     16  C   UNL     1     -11.481  11.634   5.676  1.00  0.00     0.000 C 
BRANCH  16  17
ATOM     17  C   UNL     1     -11.804  10.774   6.909  1.00  0.00     0.000 C 
BRANCH  17  18
ATOM     18  C   UNL     1     -12.886  11.408   7.800  1.00  0.00     0.000 C 
BRANCH  18  19
ATOM     19  C   UNL     1     -12.367  12.608   8.613  1.00  0.00     0.000 C 
BRANCH  19  20
ATOM     20  C   UNL     1     -10.941  12.453   9.172  1.00  0.00     0.006 C 
BRANCH  20  21
ATOM     21  C   UNL     1     -10.162  13.773   9.205  1.00  0.00     0.053 C 
BRANCH  21  22
ATOM     22  C   UNL     1      -9.215  13.793  10.363  1.00  0.00     0.041 C 
ATOM     23  O   UNL     1      -9.131  12.798  11.130  1.00  0.00    -0.550 OA
ATOM     24  O   UNL     1      -8.452  14.926  10.618  1.00  0.00    -0.550 OA
ENDBRANCH  21  22
ENDBRANCH  20  21
ENDBRANCH  19  20
ENDBRANCH  18  19
ENDBRANCH  17  18
ENDBRANCH  16  17
ENDBRANCH  15  16
ENDBRANCH  14  15
ENDBRANCH  13  14
ENDBRANCH   1  13
TORSDOF 20
ENDMDL
MODEL 7
REMARK VINA RESULT:    -5.781      4.618      7.853
REMARK INTER + INTRA:         -14.135
REMARK INTER:                 -12.348
REMARK INTRA:                  -1.787
REMARK UNBOUND:                -1.595
REMARK SMILES CCCCCCCCCCCCCCCCCCCCCC(=O)[O-]
REMARK SMILES IDX 12 1 11 2 10 3 9 4 8 5 7 6 6 7 5 8 4 9 3 10 2 11 1 12 13 13
REMARK SMILES IDX 14 14 15 15 16 16 17 17 18 18 19 19 20 20 21 21 22 22 23 23
REMARK SMILES IDX 24 24
REMARK H PARENT
REMARK Flexibility Score: inf
ROOT
ATOM      1  C   UNL     1     -10.894  11.078   4.502  1.00  0.00     0.000 C 
ENDROOT
BRANCH   1   2
ATOM      2  C   UNL     1     -11.756  11.351   5.743  1.00  0.00     0.000 C 
BRANCH   2   3
ATOM      3  C   UNL     1     -10.928  11.849   6.938  1.00  0.00     0.000 C 
BRANCH   3   4
ATOM      4  C   UNL     1     -11.718  11.816   8.258  1.00  0.00    -0.000 C 
BRANCH   4   5
ATOM      5  C   UNL     1     -11.259  12.902   9.244  1.00  0.00    -0.000 C 
BRANCH   5   6
ATOM      6  C   UNL     1      -9.946  13.576   8.806  1.00  0.00    -0.000 C 
BRANCH   6   7
ATOM      7  C   UNL     1      -9.708  14.919   9.513  1.00  0.00    -0.000 C 
BRANCH   7   8
ATOM      8  C   UNL     1      -8.253  15.092   9.976  1.00  0.00    -0.000 C 
BRANCH   8   9
ATOM      9  C   UNL     1      -8.194  15.575  11.431  1.00  0.00    -0.000 C 
BRANCH   9  10
ATOM     10  C   UNL     1      -7.627  14.483  12.351  1.00  0.00    -0.000 C 
BRANCH  10  11
ATOM     11  C   UNL     1      -7.536  13.116  11.657  1.00  0.00    -0.003 C 
ATOM     12  C   UNL     1      -8.585  12.125  12.164  1.00  0.00     0.004 C 
ENDBRANCH  10  11
ENDBRANCH   9  10
ENDBRANCH   8   9
ENDBRANCH   7   8
ENDBRANCH   6   7
ENDBRANCH   5   6
ENDBRANCH   4   5
ENDBRANCH   3   4
ENDBRANCH   2   3
ENDBRANCH   1   2
BRANCH   1  13
ATOM     13  C   UNL     1     -11.132  12.140   3.422  1.00  0.00     0.000 C 
BRANCH  13  14
ATOM     14  C   UNL     1      -9.815  12.822   3.021  1.00  0.00     0.000 C 
BRANCH  14  15
ATOM     15  C   UNL     1      -9.037  13.359   4.233  1.00  0.00     0.000 C 
BRANCH  15  16
ATOM     16  C   UNL     1      -7.514  13.334   4.017  1.00  0.00     0.000 C 
BRANCH  16  17
ATOM     17  C   UNL     1      -7.113  12.608   2.722  1.00  0.00     0.000 C 
BRANCH  17  18
ATOM     18  C   UNL     1      -6.069  11.506   2.965  1.00  0.00     0.000 C 
BRANCH  18  19
ATOM     19  C   UNL     1      -6.675  10.090   2.947  1.00  0.00     0.000 C 
BRANCH  19  20
ATOM     20  C   UNL     1      -5.651   8.941   2.902  1.00  0.00     0.006 C 
BRANCH  20  21
ATOM     21  C   UNL     1      -5.511   8.210   4.243  1.00  0.00     0.053 C 
BRANCH  21  22
ATOM     22  C   UNL     1      -4.291   8.679   4.970  1.00  0.00     0.041 C 
ATOM     23  O   UNL     1      -4.321   9.748   5.634  1.00  0.00    -0.550 OA
ATOM     24  O   UNL     1      -3.108   7.955   4.883  1.00  0.00    -0.550 OA
ENDBRANCH  21  22
ENDBRANCH  20  21
ENDBRANCH  19  20
ENDBRANCH  18  19
ENDBRANCH  17  18
ENDBRANCH  16  17
ENDBRANCH  15  16
ENDBRANCH  14  15
ENDBRANCH  13  14
ENDBRANCH   1  13
TORSDOF 20
ENDMDL
MODEL 8
REMARK VINA RESULT:    -5.779      1.725      3.311
REMARK INTER + INTRA:         -14.130
REMARK INTER:                 -11.930
REMARK INTRA:                  -2.201
REMARK UNBOUND:                -1.595
REMARK SMILES CCCCCCCCCCCCCCCCCCCCCC(=O)[O-]
REMARK SMILES IDX 12 1 11 2 10 3 9 4 8 5 7 6 6 7 5 8 4 9 3 10 2 11 1 12 13 13
REMARK SMILES IDX 14 14 15 15 16 16 17 17 18 18 19 19 20 20 21 21 22 22 23 23
REMARK SMILES IDX 24 24
REMARK H PARENT
REMARK Flexibility Score: inf
ROOT
ATOM      1  C   UNL     1      -6.587  11.049   1.625  1.00  0.00     0.000 C 
ENDROOT
BRANCH   1   2
ATOM      2  C   UNL     1      -6.226   9.868   2.539  1.00  0.00     0.000 C 
BRANCH   2   3
ATOM      3  C   UNL     1      -5.053  10.187   3.480  1.00  0.00     0.000 C 
BRANCH   3   4
ATOM      4  C   UNL     1      -4.828   9.091   4.535  1.00  0.00    -0.000 C 
BRANCH   4   5
ATOM      5  C   UNL     1      -3.472   8.385   4.368  1.00  0.00    -0.000 C 
BRANCH   5   6
ATOM      6  C   UNL     1      -3.620   6.865   4.181  1.00  0.00    -0.000 C 
BRANCH   6   7
ATOM      7  C   UNL     1      -5.087   6.427   4.048  1.00  0.00    -0.000 C 
BRANCH   7   8
ATOM      8  C   UNL     1      -5.553   5.562   5.228  1.00  0.00    -0.000 C 
BRANCH   8   9
ATOM      9  C   UNL     1      -4.378   5.208   6.148  1.00  0.00    -0.000 C 
BRANCH   9  10
ATOM     10  C   UNL     1      -4.528   5.888   7.518  1.00  0.00    -0.000 C 
BRANCH  10  11
ATOM     11  C   UNL     1      -5.538   7.044   7.496  1.00  0.00    -0.003 C 
ATOM     12  C   UNL     1      -5.023   8.293   8.211  1.00  0.00     0.004 C 
ENDBRANCH  10  11
ENDBRANCH   9  10
ENDBRANCH   8   9
ENDBRANCH   7   8
ENDBRANCH   6   7
ENDBRANCH   5   6
ENDBRANCH   4   5
ENDBRANCH   3   4
ENDBRANCH   2   3
ENDBRANCH   1   2
BRANCH   1  13
ATOM     13  C   UNL     1      -5.985  12.357   2.153  1.00  0.00     0.000 C 
BRANCH  13  14
ATOM     14  C   UNL     1      -7.089  13.363   2.516  1.00  0.00     0.000 C 
BRANCH  14  15
ATOM     15  C   UNL     1      -7.803  13.005   3.829  1.00  0.00     0.000 C 
BRANCH  15  16
ATOM     16  C   UNL     1      -9.332  12.928   3.668  1.00  0.00     0.000 C 
BRANCH  16  17
ATOM     17  C   UNL     1      -9.812  11.526   3.258  1.00  0.00     0.000 C 
BRANCH  17  18
ATOM     18  C   UNL     1     -10.926  10.994   4.176  1.00  0.00     0.000 C 
BRANCH  18  19
ATOM     19  C   UNL     1     -11.056  11.793   5.486  1.00  0.00     0.000 C 
BRANCH  19  20
ATOM     20  C   UNL     1     -11.564  10.987   6.695  1.00  0.00     0.006 C 
BRANCH  20  21
ATOM     21  C   UNL     1     -12.602   9.924   6.315  1.00  0.00     0.053 C 
BRANCH  21  22
ATOM     22  C   UNL     1     -13.093   9.212   7.536  1.00  0.00     0.041 C 
ATOM     23  O   UNL     1     -12.541   9.411   8.650  1.00  0.00    -0.550 OA
ATOM     24  O   UNL     1     -14.136   8.300   7.436  1.00  0.00    -0.550 OA
ENDBRANCH  21  22
ENDBRANCH  20  21
ENDBRANCH  19  20
ENDBRANCH  18  19
ENDBRANCH  17  18
ENDBRANCH  16  17
ENDBRANCH  15  16
ENDBRANCH  14  15
ENDBRANCH  13  14
ENDBRANCH   1  13
TORSDOF 20
ENDMDL
MODEL 9
REMARK VINA RESULT:    -5.755      4.315      5.668
REMARK INTER + INTRA:         -14.078
REMARK INTER:                 -12.561
REMARK INTRA:                  -1.517
REMARK UNBOUND:                -1.595
REMARK SMILES CCCCCCCCCCCCCCCCCCCCCC(=O)[O-]
REMARK SMILES IDX 12 1 11 2 10 3 9 4 8 5 7 6 6 7 5 8 4 9 3 10 2 11 1 12 13 13
REMARK SMILES IDX 14 14 15 15 16 16 17 17 18 18 19 19 20 20 21 21 22 22 23 23
REMARK SMILES IDX 24 24
REMARK H PARENT
REMARK Flexibility Score: inf
ROOT
ATOM      1  C   UNL     1     -10.243  12.542   3.436  1.00  0.00     0.000 C 
ENDROOT
BRANCH   1   2
ATOM      2  C   UNL     1      -9.411  13.353   4.441  1.00  0.00     0.000 C 
BRANCH   2   3
ATOM      3  C   UNL     1      -7.899  13.225   4.195  1.00  0.00     0.000 C 
BRANCH   3   4
ATOM      4  C   UNL     1      -7.537  13.293   2.701  1.00  0.00    -0.000 C 
BRANCH   4   5
ATOM      5  C   UNL     1      -6.419  12.308   2.323  1.00  0.00    -0.000 C 
BRANCH   5   6
ATOM      6  C   UNL     1      -6.769  10.854   2.687  1.00  0.00    -0.000 C 
BRANCH   6   7
ATOM      7  C   UNL     1      -5.524   9.998   2.962  1.00  0.00    -0.000 C 
BRANCH   7   8
ATOM      8  C   UNL     1      -4.793  10.415   4.247  1.00  0.00    -0.000 C 
BRANCH   8   9
ATOM      9  C   UNL     1      -4.394   9.186   5.075  1.00  0.00    -0.000 C 
BRANCH   9  10
ATOM     10  C   UNL     1      -3.890   9.600   6.466  1.00  0.00    -0.000 C 
BRANCH  10  11
ATOM     11  C   UNL     1      -3.778   8.411   7.431  1.00  0.00    -0.003 C 
ATOM     12  C   UNL     1      -5.102   8.084   8.122  1.00  0.00     0.004 C 
ENDBRANCH  10  11
ENDBRANCH   9  10
ENDBRANCH   8   9
ENDBRANCH   7   8
ENDBRANCH   6   7
ENDBRANCH   5   6
ENDBRANCH   4   5
ENDBRANCH   3   4
ENDBRANCH   2   3
ENDBRANCH   1   2
BRANCH   1  13
ATOM     13  C   UNL     1     -10.968  11.383   4.131  1.00  0.00     0.000 C 
BRANCH  13  14
ATOM     14  C   UNL     1     -10.891  11.523   5.659  1.00  0.00     0.000 C 
BRANCH  14  15
ATOM     15  C   UNL     1     -12.278  11.527   6.321  1.00  0.00     0.000 C 
BRANCH  15  16
ATOM     16  C   UNL     1     -12.273  10.862   7.709  1.00  0.00     0.000 C 
BRANCH  16  17
ATOM     17  C   UNL     1     -11.290  11.533   8.682  1.00  0.00     0.000 C 
BRANCH  17  18
ATOM     18  C   UNL     1     -11.584  13.031   8.873  1.00  0.00     0.000 C 
BRANCH  18  19
ATOM     19  C   UNL     1     -10.312  13.871   9.086  1.00  0.00     0.000 C 
BRANCH  19  20
ATOM     20  C   UNL     1      -9.463  13.475  10.307  1.00  0.00     0.006 C 
BRANCH  20  21
ATOM     21  C   UNL     1      -8.128  14.227  10.379  1.00  0.00     0.053 C 
BRANCH  21  22
ATOM     22  C   UNL     1      -8.268  15.463  11.210  1.00  0.00     0.041 C 
ATOM     23  O   UNL     1      -8.716  16.522  10.700  1.00  0.00    -0.550 OA
ATOM     24  O   UNL     1      -7.866  15.455  12.540  1.00  0.00    -0.550 OA
ENDBRANCH  21  22
ENDBRANCH  20  21
ENDBRANCH  19  20
ENDBRANCH  18  19
ENDBRANCH  17  18
ENDBRANCH  16  17
ENDBRANCH  15  16
ENDBRANCH  14  15
ENDBRANCH  13  14
ENDBRANCH   1  13
TORSDOF 20
ENDMDL
