MODEL 1
REMARK VINA RESULT:    -0.491      0.000      0.000
REMARK INTER + INTRA:          -0.871
REMARK INTER:                  -0.592
REMARK INTRA:                  -0.279
REMARK UNBOUND:                -0.279
REMARK SMILES O=c1c(O)c(-c2ccc(O)c(O)c2)oc2cc(O)cc(O)c12
REMARK SMILES IDX 5 1 3 2 2 3 1 4 22 5 20 6 19 7 17 8 16 9 15 10 14 11 6 12
REMARK SMILES IDX 7 13 8 14 9 15 13 16 11 17 10 18 12 20 4 22 21 24 18 26
REMARK H PARENT 10 19 12 21 4 23 21 25 18 27
REMARK Flexibility Score: inf
ROOT
ATOM      1  C   UNL     1      13.143  -9.932 -28.106  1.00  0.00     0.180 A 
ATOM      2  C   UNL     1      13.807 -10.718 -27.144  1.00  0.00     0.208 A 
ATOM      3  C   UNL     1      13.347 -12.021 -26.899  1.00  0.00     0.238 A 
ATOM      4  O   UNL     1      13.926 -12.731 -26.033  1.00  0.00    -0.285 OA
ATOM      5  C   UNL     1      12.250 -12.522 -27.630  1.00  0.00     0.111 A 
ATOM      6  C   UNL     1      11.727 -13.825 -27.447  1.00  0.00     0.134 A 
ATOM      7  C   UNL     1      10.638 -14.254 -28.221  1.00  0.00     0.093 A 
ATOM      8  C   UNL     1      10.063 -13.405 -29.173  1.00  0.00     0.123 A 
ATOM      9  C   UNL     1      10.574 -12.119 -29.356  1.00  0.00     0.094 A 
ATOM     10  C   UNL     1      11.658 -11.673 -28.594  1.00  0.00     0.146 A 
ATOM     11  O   UNL     1      12.121 -10.443 -28.787  1.00  0.00    -0.452 OA
ENDROOT
BRANCH   1  12
ATOM     12  C   UNL     1      13.556  -8.542 -28.408  1.00  0.00     0.025 A 
ATOM     13  C   UNL     1      12.822  -7.441 -27.933  1.00  0.00     0.016 A 
ATOM     14  C   UNL     1      13.217  -6.138 -28.250  1.00  0.00     0.051 A 
ATOM     15  C   UNL     1      14.341  -5.918 -29.055  1.00  0.00     0.157 A 
ATOM     16  C   UNL     1      14.670  -8.316 -29.232  1.00  0.00     0.062 A 
ATOM     17  C   UNL     1      15.068  -7.008 -29.550  1.00  0.00     0.158 A 
BRANCH  15  18
ATOM     18  O   UNL     1      14.740  -4.621 -29.373  1.00  0.00    -0.504 OA
ATOM     19  H   UNL     1      15.601  -4.438 -29.874  1.00  0.00     0.293 HD
ENDBRANCH  15  18
BRANCH  17  20
ATOM     20  O   UNL     1      16.182  -6.786 -30.358  1.00  0.00    -0.504 OA
ATOM     21  H   UNL     1      16.094  -6.668 -31.362  1.00  0.00     0.293 HD
ENDBRANCH  17  20
ENDBRANCH   1  12
BRANCH   2  22
ATOM     22  O   UNL     1      14.922 -10.215 -26.470  1.00  0.00    -0.502 OA
ATOM     23  H   UNL     1      14.848  -9.494 -25.761  1.00  0.00     0.293 HD
ENDBRANCH   2  22
BRANCH   6  24
ATOM     24  O   UNL     1      12.281 -14.695 -26.505  1.00  0.00    -0.507 OA
ATOM     25  H   UNL     1      11.844 -15.580 -26.277  1.00  0.00     0.293 HD
ENDBRANCH   6  24
BRANCH   8  26
ATOM     26  O   UNL     1       8.982 -13.830 -29.941  1.00  0.00    -0.508 OA
ATOM     27  H   UNL     1       8.027 -13.630 -29.669  1.00  0.00     0.293 HD
ENDBRANCH   8  26
TORSDOF 6
ENDMDL
MODEL 2
REMARK VINA RESULT:     0.728      1.970      2.983
REMARK INTER + INTRA:           0.598
REMARK INTER:                   0.716
REMARK INTRA:                  -0.118
REMARK UNBOUND:                -0.279
REMARK SMILES O=c1c(O)c(-c2ccc(O)c(O)c2)oc2cc(O)cc(O)c12
REMARK SMILES IDX 5 1 3 2 2 3 1 4 22 5 20 6 19 7 17 8 16 9 15 10 14 11 6 12
REMARK SMILES IDX 7 13 8 14 9 15 13 16 11 17 10 18 12 20 4 22 21 24 18 26
REMARK H PARENT 10 19 12 21 4 23 21 25 18 27
REMARK Flexibility Score: inf
ROOT
ATOM      1  C   UNL     1      12.428  -9.783 -27.819  1.00  0.00     0.180 A 
ATOM      2  C   UNL     1      12.089 -10.827 -28.700  1.00  0.00     0.208 A 
ATOM      3  C   UNL     1      11.548 -12.010 -28.173  1.00  0.00     0.238 A 
ATOM      4  O   UNL     1      11.250 -12.957 -28.950  1.00  0.00    -0.285 OA
ATOM      5  C   UNL     1      11.336 -12.121 -26.783  1.00  0.00     0.111 A 
ATOM      6  C   UNL     1      10.791 -13.276 -26.172  1.00  0.00     0.134 A 
ATOM      7  C   UNL     1      10.602 -13.305 -24.782  1.00  0.00     0.093 A 
ATOM      8  C   UNL     1      10.947 -12.202 -23.993  1.00  0.00     0.123 A 
ATOM      9  C   UNL     1      11.485 -11.061 -24.591  1.00  0.00     0.094 A 
ATOM     10  C   UNL     1      11.682 -11.014 -25.974  1.00  0.00     0.146 A 
ATOM     11  O   UNL     1      12.200  -9.917 -26.516  1.00  0.00    -0.452 OA
ENDROOT
BRANCH   1  12
ATOM     12  C   UNL     1      13.022  -8.512 -28.296  1.00  0.00     0.025 A 
ATOM     13  C   UNL     1      12.353  -7.286 -28.135  1.00  0.00     0.016 A 
ATOM     14  C   UNL     1      12.922  -6.103 -28.615  1.00  0.00     0.051 A 
ATOM     15  C   UNL     1      14.158  -6.130 -29.272  1.00  0.00     0.157 A 
ATOM     16  C   UNL     1      14.251  -8.536 -28.974  1.00  0.00     0.062 A 
ATOM     17  C   UNL     1      14.823  -7.348 -29.455  1.00  0.00     0.158 A 
BRANCH  15  18
ATOM     18  O   UNL     1      14.730  -4.952 -29.750  1.00  0.00    -0.504 OA
ATOM     19  H   UNL     1      14.171  -4.236 -30.198  1.00  0.00     0.293 HD
ENDBRANCH  15  18
BRANCH  17  20
ATOM     20  O   UNL     1      16.050  -7.373 -30.116  1.00  0.00    -0.504 OA
ATOM     21  H   UNL     1      16.818  -6.775 -29.832  1.00  0.00     0.293 HD
ENDBRANCH  17  20
ENDBRANCH   1  12
BRANCH   2  22
ATOM     22  O   UNL     1      12.263 -10.674 -30.078  1.00  0.00    -0.502 OA
ATOM     23  H   UNL     1      12.968 -11.185 -30.596  1.00  0.00     0.293 HD
ENDBRANCH   2  22
BRANCH   6  24
ATOM     24  O   UNL     1      10.436 -14.391 -26.933  1.00  0.00    -0.507 OA
ATOM     25  H   UNL     1      10.847 -14.568 -27.842  1.00  0.00     0.293 HD
ENDBRANCH   6  24
BRANCH   8  26
ATOM     26  O   UNL     1      10.759 -12.230 -22.614  1.00  0.00    -0.508 OA
ATOM     27  H   UNL     1      11.014 -13.040 -22.061  1.00  0.00     0.293 HD
ENDBRANCH   8  26
TORSDOF 6
ENDMDL
MODEL 3
REMARK VINA RESULT:     0.997      2.012      2.938
REMARK INTER + INTRA:           0.921
REMARK INTER:                   0.504
REMARK INTRA:                   0.417
REMARK UNBOUND:                -0.279
REMARK SMILES O=c1c(O)c(-c2ccc(O)c(O)c2)oc2cc(O)cc(O)c12
REMARK SMILES IDX 5 1 3 2 2 3 1 4 22 5 20 6 19 7 17 8 16 9 15 10 14 11 6 12
REMARK SMILES IDX 7 13 8 14 9 15 13 16 11 17 10 18 12 20 4 22 21 24 18 26
REMARK H PARENT 10 19 12 21 4 23 21 25 18 27
REMARK Flexibility Score: inf
ROOT
ATOM      1  C   UNL     1      13.260  -9.816 -27.531  1.00  0.00     0.180 A 
ATOM      2  C   UNL     1      12.011 -10.080 -26.935  1.00  0.00     0.208 A 
ATOM      3  C   UNL     1      11.771 -11.354 -26.398  1.00  0.00     0.238 A 
ATOM      4  O   UNL     1      10.654 -11.606 -25.872  1.00  0.00    -0.285 OA
ATOM      5  C   UNL     1      12.786 -12.333 -26.446  1.00  0.00     0.111 A 
ATOM      6  C   UNL     1      12.627 -13.640 -25.924  1.00  0.00     0.134 A 
ATOM      7  C   UNL     1      13.688 -14.554 -26.003  1.00  0.00     0.093 A 
ATOM      8  C   UNL     1      14.902 -14.187 -26.592  1.00  0.00     0.123 A 
ATOM      9  C   UNL     1      15.064 -12.901 -27.109  1.00  0.00     0.094 A 
ATOM     10  C   UNL     1      14.018 -11.975 -27.041  1.00  0.00     0.146 A 
ATOM     11  O   UNL     1      14.197 -10.759 -27.545  1.00  0.00    -0.452 OA
ENDROOT
BRANCH   1  12
ATOM     12  C   UNL     1      13.582  -8.504 -28.137  1.00  0.00     0.025 A 
ATOM     13  C   UNL     1      12.798  -7.366 -27.877  1.00  0.00     0.016 A 
ATOM     14  C   UNL     1      13.108  -6.142 -28.479  1.00  0.00     0.051 A 
ATOM     15  C   UNL     1      14.194  -6.043 -29.356  1.00  0.00     0.157 A 
ATOM     16  C   UNL     1      14.657  -8.402 -29.034  1.00  0.00     0.062 A 
ATOM     17  C   UNL     1      14.969  -7.175 -29.638  1.00  0.00     0.158 A 
BRANCH  15  18
ATOM     18  O   UNL     1      14.506  -4.825 -29.957  1.00  0.00    -0.504 OA
ATOM     19  H   UNL     1      15.155  -4.174 -29.530  1.00  0.00     0.293 HD
ENDBRANCH  15  18
BRANCH  17  20
ATOM     20  O   UNL     1      16.044  -7.074 -30.518  1.00  0.00    -0.504 OA
ATOM     21  H   UNL     1      15.922  -7.178 -31.520  1.00  0.00     0.293 HD
ENDBRANCH  17  20
ENDBRANCH   1  12
BRANCH   2  22
ATOM     22  O   UNL     1      11.042  -9.077 -26.857  1.00  0.00    -0.502 OA
ATOM     23  H   UNL     1      10.695  -8.592 -27.676  1.00  0.00     0.293 HD
ENDBRANCH   2  22
BRANCH   6  24
ATOM     24  O   UNL     1      11.427 -14.034 -25.330  1.00  0.00    -0.507 OA
ATOM     25  H   UNL     1      11.265 -13.928 -24.336  1.00  0.00     0.293 HD
ENDBRANCH   6  24
BRANCH   8  26
ATOM     26  O   UNL     1      15.956 -15.095 -26.669  1.00  0.00    -0.508 OA
ATOM     27  H   UNL     1      15.933 -15.880 -27.309  1.00  0.00     0.293 HD
ENDBRANCH   8  26
TORSDOF 6
ENDMDL
