MODEL 1
REMARK VINA RESULT:    23.686      0.000      0.000
REMARK INTER + INTRA:          25.071
REMARK INTER:                  25.071
REMARK INTRA:                   0.000
REMARK UNBOUND:                 0.000
REMARK SMILES O=c1ccc2cc(O)c(O)cc2o1
REMARK SMILES IDX 4 1 3 2 2 3 1 4 13 5 12 6 11 7 9 8 7 9 6 10 5 11 8 12 10 14
REMARK H PARENT 8 13 10 15
REMARK Flexibility Score: inf
ROOT
ATOM      1  C   UNL     1      69.269   2.447  72.695  1.00  0.00     0.019 A 
ATOM      2  C   UNL     1      68.570   3.227  73.616  1.00  0.00     0.094 A 
ATOM      3  C   UNL     1      68.859   3.089  74.979  1.00  0.00     0.336 A 
ATOM      4  O   UNL     1      68.240   3.784  75.826  1.00  0.00    -0.246 OA
ATOM      5  O   UNL     1      69.786   2.224  75.386  1.00  0.00    -0.423 OA
ATOM      6  C   UNL     1      70.474   1.461  74.540  1.00  0.00     0.142 A 
ATOM      7  C   UNL     1      71.436   0.571  75.027  1.00  0.00     0.098 A 
ATOM      8  C   UNL     1      72.164  -0.236  74.140  1.00  0.00     0.161 A 
ATOM      9  C   UNL     1      71.928  -0.151  72.760  1.00  0.00     0.158 A 
ATOM     10  C   UNL     1      70.965   0.741  72.266  1.00  0.00     0.062 A 
ATOM     11  C   UNL     1      70.236   1.547  73.152  1.00  0.00     0.022 A 
ENDROOT
BRANCH   9  12
ATOM     12  O   UNL     1      72.657  -0.956  71.885  1.00  0.00    -0.504 OA
ATOM     13  H   UNL     1      72.519  -0.910  70.883  1.00  0.00     0.293 HD
ENDBRANCH   9  12
BRANCH   8  14
ATOM     14  O   UNL     1      73.124  -1.125  74.623  1.00  0.00    -0.504 OA
ATOM     15  H   UNL     1      73.350  -1.176  75.609  1.00  0.00     0.293 HD
ENDBRANCH   8  14
TORSDOF 2
ENDMDL
MODEL 2
REMARK VINA RESULT:    24.637      1.253      5.030
REMARK INTER + INTRA:          26.077
REMARK INTER:                  26.077
REMARK INTRA:                   0.000
REMARK UNBOUND:                 0.000
REMARK SMILES O=c1ccc2cc(O)c(O)cc2o1
REMARK SMILES IDX 4 1 3 2 2 3 1 4 13 5 12 6 11 7 9 8 7 9 6 10 5 11 8 12 10 14
REMARK H PARENT 8 13 10 15
REMARK Flexibility Score: inf
ROOT
ATOM      1  C   UNL     1      71.677  -0.171  74.818  1.00  0.00     0.019 A 
ATOM      2  C   UNL     1      72.577  -0.848  73.995  1.00  0.00     0.094 A 
ATOM      3  C   UNL     1      72.627  -0.524  72.635  1.00  0.00     0.336 A 
ATOM      4  O   UNL     1      73.433  -1.123  71.875  1.00  0.00    -0.246 OA
ATOM      5  O   UNL     1      71.826   0.415  72.136  1.00  0.00    -0.423 OA
ATOM      6  C   UNL     1      70.953   1.084  72.887  1.00  0.00     0.142 A 
ATOM      7  C   UNL     1      70.137   2.060  72.307  1.00  0.00     0.098 A 
ATOM      8  C   UNL     1      69.216   2.767  73.093  1.00  0.00     0.161 A 
ATOM      9  C   UNL     1      69.110   2.496  74.465  1.00  0.00     0.158 A 
ATOM     10  C   UNL     1      69.927   1.518  75.052  1.00  0.00     0.062 A 
ATOM     11  C   UNL     1      70.847   0.810  74.267  1.00  0.00     0.022 A 
ENDROOT
BRANCH   9  12
ATOM     12  O   UNL     1      68.192   3.204  75.239  1.00  0.00    -0.504 OA
ATOM     13  H   UNL     1      67.375   2.755  75.635  1.00  0.00     0.293 HD
ENDBRANCH   9  12
BRANCH   8  14
ATOM     14  O   UNL     1      68.401   3.741  72.517  1.00  0.00    -0.504 OA
ATOM     15  H   UNL     1      67.395   3.631  72.471  1.00  0.00     0.293 HD
ENDBRANCH   8  14
TORSDOF 2
ENDMDL
MODEL 3
REMARK VINA RESULT:    24.757      1.705      4.905
REMARK INTER + INTRA:          26.205
REMARK INTER:                  26.205
REMARK INTRA:                   0.000
REMARK UNBOUND:                 0.000
REMARK SMILES O=c1ccc2cc(O)c(O)cc2o1
REMARK SMILES IDX 4 1 3 2 2 3 1 4 13 5 12 6 11 7 9 8 7 9 6 10 5 11 8 12 10 14
REMARK H PARENT 8 13 10 15
REMARK Flexibility Score: inf
ROOT
ATOM      1  C   UNL     1      71.955   2.369  74.166  1.00  0.00     0.019 A 
ATOM      2  C   UNL     1      72.348   1.333  73.318  1.00  0.00     0.094 A 
ATOM      3  C   UNL     1      71.430   0.322  73.012  1.00  0.00     0.336 A 
ATOM      4  O   UNL     1      71.766  -0.621  72.248  1.00  0.00    -0.246 OA
ATOM      5  O   UNL     1      70.203   0.349  73.526  1.00  0.00    -0.423 OA
ATOM      6  C   UNL     1      69.788   1.318  74.339  1.00  0.00     0.142 A 
ATOM      7  C   UNL     1      68.486   1.293  74.848  1.00  0.00     0.098 A 
ATOM      8  C   UNL     1      68.044   2.312  75.705  1.00  0.00     0.161 A 
ATOM      9  C   UNL     1      68.909   3.358  76.055  1.00  0.00     0.158 A 
ATOM     10  C   UNL     1      70.216   3.389  75.547  1.00  0.00     0.062 A 
ATOM     11  C   UNL     1      70.659   2.371  74.691  1.00  0.00     0.022 A 
ENDROOT
BRANCH   9  12
ATOM     12  O   UNL     1      68.461   4.367  76.908  1.00  0.00    -0.504 OA
ATOM     13  H   UNL     1      69.000   5.211  77.060  1.00  0.00     0.293 HD
ENDBRANCH   9  12
BRANCH   8  14
ATOM     14  O   UNL     1      66.746   2.289  76.214  1.00  0.00    -0.504 OA
ATOM     15  H   UNL     1      66.320   1.430  76.543  1.00  0.00     0.293 HD
ENDBRANCH   8  14
TORSDOF 2
ENDMDL
MODEL 4
REMARK VINA RESULT:    25.086      1.419      4.489
REMARK INTER + INTRA:          26.553
REMARK INTER:                  26.553
REMARK INTRA:                   0.000
REMARK UNBOUND:                 0.000
REMARK SMILES O=c1ccc2cc(O)c(O)cc2o1
REMARK SMILES IDX 4 1 3 2 2 3 1 4 13 5 12 6 11 7 9 8 7 9 6 10 5 11 8 12 10 14
REMARK H PARENT 8 13 10 15
REMARK Flexibility Score: inf
ROOT
ATOM      1  C   UNL     1      71.393   0.339  71.911  1.00  0.00     0.019 A 
ATOM      2  C   UNL     1      72.245  -0.487  72.641  1.00  0.00     0.094 A 
ATOM      3  C   UNL     1      72.257  -0.387  74.037  1.00  0.00     0.336 A 
ATOM      4  O   UNL     1      73.019  -1.125  74.714  1.00  0.00    -0.246 OA
ATOM      5  O   UNL     1      71.466   0.488  74.655  1.00  0.00    -0.423 OA
ATOM      6  C   UNL     1      70.639   1.296  73.996  1.00  0.00     0.142 A 
ATOM      7  C   UNL     1      69.831   2.195  74.699  1.00  0.00     0.098 A 
ATOM      8  C   UNL     1      68.957   3.048  74.009  1.00  0.00     0.161 A 
ATOM      9  C   UNL     1      68.892   3.002  72.609  1.00  0.00     0.158 A 
ATOM     10  C   UNL     1      69.700   2.102  71.898  1.00  0.00     0.062 A 
ATOM     11  C   UNL     1      70.573   1.249  72.587  1.00  0.00     0.022 A 
ENDROOT
BRANCH   9  12
ATOM     12  O   UNL     1      68.021   3.853  71.931  1.00  0.00    -0.504 OA
ATOM     13  H   UNL     1      67.031   3.878  72.144  1.00  0.00     0.293 HD
ENDBRANCH   9  12
BRANCH   8  14
ATOM     14  O   UNL     1      68.151   3.945  74.709  1.00  0.00    -0.504 OA
ATOM     15  H   UNL     1      68.119   4.928  74.467  1.00  0.00     0.293 HD
ENDBRANCH   8  14
TORSDOF 2
ENDMDL
MODEL 5
REMARK VINA RESULT:    25.312      1.414      4.537
REMARK INTER + INTRA:          26.792
REMARK INTER:                  26.792
REMARK INTRA:                   0.000
REMARK UNBOUND:                 0.000
REMARK SMILES O=c1ccc2cc(O)c(O)cc2o1
REMARK SMILES IDX 4 1 3 2 2 3 1 4 13 5 12 6 11 7 9 8 7 9 6 10 5 11 8 12 10 14
REMARK H PARENT 8 13 10 15
REMARK Flexibility Score: inf
ROOT
ATOM      1  C   UNL     1      69.741   0.258  72.378  1.00  0.00     0.019 A 
ATOM      2  C   UNL     1      70.952  -0.217  71.876  1.00  0.00     0.094 A 
ATOM      3  C   UNL     1      72.144   0.173  72.497  1.00  0.00     0.336 A 
ATOM      4  O   UNL     1      73.247  -0.245  72.059  1.00  0.00    -0.246 OA
ATOM      5  O   UNL     1      72.118   0.989  73.549  1.00  0.00    -0.423 OA
ATOM      6  C   UNL     1      70.985   1.465  74.059  1.00  0.00     0.142 A 
ATOM      7  C   UNL     1      71.020   2.317  75.166  1.00  0.00     0.098 A 
ATOM      8  C   UNL     1      69.828   2.822  75.707  1.00  0.00     0.161 A 
ATOM      9  C   UNL     1      68.596   2.472  75.136  1.00  0.00     0.158 A 
ATOM     10  C   UNL     1      68.554   1.617  74.026  1.00  0.00     0.062 A 
ATOM     11  C   UNL     1      69.744   1.113  73.484  1.00  0.00     0.022 A 
ENDROOT
BRANCH   9  12
ATOM     12  O   UNL     1      67.416   2.978  75.681  1.00  0.00    -0.504 OA
ATOM     13  H   UNL     1      66.778   3.543  75.132  1.00  0.00     0.293 HD
ENDBRANCH   9  12
BRANCH   8  14
ATOM     14  O   UNL     1      69.862   3.673  76.811  1.00  0.00    -0.504 OA
ATOM     15  H   UNL     1      69.072   3.756  77.440  1.00  0.00     0.293 HD
ENDBRANCH   8  14
TORSDOF 2
ENDMDL
MODEL 6
REMARK VINA RESULT:    25.710      1.688      2.074
REMARK INTER + INTRA:          27.213
REMARK INTER:                  27.213
REMARK INTRA:                   0.000
REMARK UNBOUND:                 0.000
REMARK SMILES O=c1ccc2cc(O)c(O)cc2o1
REMARK SMILES IDX 4 1 3 2 2 3 1 4 13 5 12 6 11 7 9 8 7 9 6 10 5 11 8 12 10 14
REMARK H PARENT 8 13 10 15
REMARK Flexibility Score: inf
ROOT
ATOM      1  C   UNL     1      68.060   1.277  75.251  1.00  0.00     0.019 A 
ATOM      2  C   UNL     1      67.517   2.299  76.030  1.00  0.00     0.094 A 
ATOM      3  C   UNL     1      68.282   3.444  76.276  1.00  0.00     0.336 A 
ATOM      4  O   UNL     1      67.809   4.378  76.975  1.00  0.00    -0.246 OA
ATOM      5  O   UNL     1      69.510   3.553  75.775  1.00  0.00    -0.423 OA
ATOM      6  C   UNL     1      70.067   2.602  75.028  1.00  0.00     0.142 A 
ATOM      7  C   UNL     1      71.361   2.773  74.529  1.00  0.00     0.098 A 
ATOM      8  C   UNL     1      71.952   1.774  73.742  1.00  0.00     0.161 A 
ATOM      9  C   UNL     1      71.244   0.598  73.454  1.00  0.00     0.158 A 
ATOM     10  C   UNL     1      69.945   0.421  73.951  1.00  0.00     0.062 A 
ATOM     11  C   UNL     1      69.354   1.419  74.738  1.00  0.00     0.022 A 
ENDROOT
BRANCH   9  12
ATOM     12  O   UNL     1      71.839  -0.390  72.670  1.00  0.00    -0.504 OA
ATOM     13  H   UNL     1      72.772  -0.733  72.867  1.00  0.00     0.293 HD
ENDBRANCH   9  12
BRANCH   8  14
ATOM     14  O   UNL     1      73.243   1.942  73.244  1.00  0.00    -0.504 OA
ATOM     15  H   UNL     1      74.041   1.488  73.673  1.00  0.00     0.293 HD
ENDBRANCH   8  14
TORSDOF 2
ENDMDL
