MODEL 1
REMARK VINA RESULT:    -3.927      0.000      0.000
REMARK INTER + INTRA:          -7.555
REMARK INTER:                  -6.682
REMARK INTRA:                  -0.873
REMARK UNBOUND:                -0.873
REMARK SMILES CCCCCCCCCCCCCC(=O)[O-]
REMARK SMILES IDX 8 1 9 2 10 3 11 4 12 5 13 6 14 7 15 8 16 9 7 10 6 11 5 12
REMARK SMILES IDX 4 13 3 14 2 15 1 16
REMARK H PARENT
REMARK Flexibility Score: inf
ROOT
ATOM      1  C   UNL     1       4.481 -37.653  20.244  1.00  0.00     0.000 C 
ENDROOT
BRANCH   1   2
ATOM      2  C   UNL     1       5.450 -36.737  19.478  1.00  0.00     0.000 C 
BRANCH   2   3
ATOM      3  C   UNL     1       5.971 -35.573  20.339  1.00  0.00     0.000 C 
BRANCH   3   4
ATOM      4  C   UNL     1       5.133 -35.376  21.619  1.00  0.00     0.000 C 
BRANCH   4   5
ATOM      5  C   UNL     1       5.965 -35.406  22.912  1.00  0.00     0.006 C 
BRANCH   5   6
ATOM      6  C   UNL     1       5.895 -36.756  23.636  1.00  0.00     0.053 C 
BRANCH   6   7
ATOM      7  C   UNL     1       5.648 -36.553  25.098  1.00  0.00     0.041 C 
ATOM      8  O   UNL     1       6.125 -35.547  25.686  1.00  0.00    -0.550 OA
ATOM      9  O   UNL     1       4.850 -37.447  25.798  1.00  0.00    -0.550 OA
ENDBRANCH   6   7
ENDBRANCH   5   6
ENDBRANCH   4   5
ENDBRANCH   3   4
ENDBRANCH   2   3
ENDBRANCH   1   2
BRANCH   1  10
ATOM     10  C   UNL     1       3.092 -37.724  19.592  1.00  0.00     0.000 C 
BRANCH  10  11
ATOM     11  C   UNL     1       3.188 -37.517  18.073  1.00  0.00    -0.000 C 
BRANCH  11  12
ATOM     12  C   UNL     1       1.812 -37.388  17.396  1.00  0.00    -0.000 C 
BRANCH  12  13
ATOM     13  C   UNL     1       1.846 -36.868  15.947  1.00  0.00    -0.000 C 
BRANCH  13  14
ATOM     14  C   UNL     1       3.268 -36.559  15.455  1.00  0.00    -0.000 C 
BRANCH  14  15
ATOM     15  C   UNL     1       3.509 -37.157  14.065  1.00  0.00    -0.003 C 
ATOM     16  C   UNL     1       4.230 -38.499  14.158  1.00  0.00     0.004 C 
ENDBRANCH  14  15
ENDBRANCH  13  14
ENDBRANCH  12  13
ENDBRANCH  11  12
ENDBRANCH  10  11
ENDBRANCH   1  10
TORSDOF 12
ENDMDL
MODEL 2
REMARK VINA RESULT:    -3.756      4.171      8.269
REMARK INTER + INTRA:          -7.264
REMARK INTER:                  -6.957
REMARK INTRA:                  -0.306
REMARK UNBOUND:                -0.873
REMARK SMILES CCCCCCCCCCCCCC(=O)[O-]
REMARK SMILES IDX 8 1 9 2 10 3 11 4 12 5 13 6 14 7 15 8 16 9 7 10 6 11 5 12
REMARK SMILES IDX 4 13 3 14 2 15 1 16
REMARK H PARENT
REMARK Flexibility Score: inf
ROOT
ATOM      1  C   UNL     1       4.600 -37.908  19.795  1.00  0.00     0.000 C 
ENDROOT
BRANCH   1   2
ATOM      2  C   UNL     1       3.164 -37.462  19.478  1.00  0.00     0.000 C 
BRANCH   2   3
ATOM      3  C   UNL     1       2.684 -37.942  18.097  1.00  0.00     0.000 C 
BRANCH   3   4
ATOM      4  C   UNL     1       3.128 -36.993  16.965  1.00  0.00     0.000 C 
BRANCH   4   5
ATOM      5  C   UNL     1       2.050 -36.766  15.892  1.00  0.00     0.006 C 
BRANCH   5   6
ATOM      6  C   UNL     1       2.634 -36.597  14.485  1.00  0.00     0.053 C 
BRANCH   6   7
ATOM      7  C   UNL     1       3.857 -37.444  14.320  1.00  0.00     0.041 C 
ATOM      8  O   UNL     1       4.922 -36.940  13.878  1.00  0.00    -0.550 OA
ATOM      9  O   UNL     1       3.834 -38.779  14.702  1.00  0.00    -0.550 OA
ENDBRANCH   6   7
ENDBRANCH   5   6
ENDBRANCH   4   5
ENDBRANCH   3   4
ENDBRANCH   2   3
ENDBRANCH   1   2
BRANCH   1  10
ATOM     10  C   UNL     1       5.583 -36.730  19.870  1.00  0.00     0.000 C 
BRANCH  10  11
ATOM     11  C   UNL     1       5.096 -35.671  20.870  1.00  0.00    -0.000 C 
BRANCH  11  12
ATOM     12  C   UNL     1       6.069 -35.459  22.043  1.00  0.00    -0.000 C 
BRANCH  12  13
ATOM     13  C   UNL     1       5.448 -34.807  23.293  1.00  0.00    -0.000 C 
BRANCH  13  14
ATOM     14  C   UNL     1       6.125 -35.252  24.599  1.00  0.00    -0.000 C 
BRANCH  14  15
ATOM     15  C   UNL     1       6.050 -36.774  24.763  1.00  0.00    -0.003 C 
ATOM     16  C   UNL     1       4.973 -37.168  25.771  1.00  0.00     0.004 C 
ENDBRANCH  14  15
ENDBRANCH  13  14
ENDBRANCH  12  13
ENDBRANCH  11  12
ENDBRANCH  10  11
ENDBRANCH   1  10
TORSDOF 12
ENDMDL
MODEL 3
REMARK VINA RESULT:    -3.736      0.851      1.088
REMARK INTER + INTRA:          -7.230
REMARK INTER:                  -6.547
REMARK INTRA:                  -0.683
REMARK UNBOUND:                -0.873
REMARK SMILES CCCCCCCCCCCCCC(=O)[O-]
REMARK SMILES IDX 8 1 9 2 10 3 11 4 12 5 13 6 14 7 15 8 16 9 7 10 6 11 5 12
REMARK SMILES IDX 4 13 3 14 2 15 1 16
REMARK H PARENT
REMARK Flexibility Score: inf
ROOT
ATOM      1  C   UNL     1       4.691 -37.816  19.937  1.00  0.00     0.000 C 
ENDROOT
BRANCH   1   2
ATOM      2  C   UNL     1       5.547 -36.553  20.117  1.00  0.00     0.000 C 
BRANCH   2   3
ATOM      3  C   UNL     1       4.941 -35.564  21.129  1.00  0.00     0.000 C 
BRANCH   3   4
ATOM      4  C   UNL     1       5.892 -35.290  22.313  1.00  0.00     0.000 C 
BRANCH   4   5
ATOM      5  C   UNL     1       6.125 -36.515  23.212  1.00  0.00     0.006 C 
BRANCH   5   6
ATOM      6  C   UNL     1       5.754 -36.260  24.678  1.00  0.00     0.053 C 
BRANCH   6   7
ATOM      7  C   UNL     1       5.055 -37.450  25.256  1.00  0.00     0.041 C 
ATOM      8  O   UNL     1       5.366 -38.611  24.880  1.00  0.00    -0.550 OA
ATOM      9  O   UNL     1       4.094 -37.280  26.244  1.00  0.00    -0.550 OA
ENDBRANCH   6   7
ENDBRANCH   5   6
ENDBRANCH   4   5
ENDBRANCH   3   4
ENDBRANCH   2   3
ENDBRANCH   1   2
BRANCH   1  10
ATOM     10  C   UNL     1       3.288 -37.509  19.393  1.00  0.00     0.000 C 
BRANCH  10  11
ATOM     11  C   UNL     1       3.289 -37.480  17.858  1.00  0.00    -0.000 C 
BRANCH  11  12
ATOM     12  C   UNL     1       1.877 -37.352  17.258  1.00  0.00    -0.000 C 
BRANCH  12  13
ATOM     13  C   UNL     1       1.831 -36.818  15.813  1.00  0.00    -0.000 C 
BRANCH  13  14
ATOM     14  C   UNL     1       3.212 -36.406  15.282  1.00  0.00    -0.000 C 
BRANCH  14  15
ATOM     15  C   UNL     1       3.545 -37.153  13.986  1.00  0.00    -0.003 C 
ATOM     16  C   UNL     1       4.230 -38.486  14.279  1.00  0.00     0.004 C 
ENDBRANCH  14  15
ENDBRANCH  13  14
ENDBRANCH  12  13
ENDBRANCH  11  12
ENDBRANCH  10  11
ENDBRANCH   1  10
TORSDOF 12
ENDMDL
MODEL 4
REMARK VINA RESULT:    -3.030      4.076      7.633
REMARK INTER + INTRA:          -6.028
REMARK INTER:                  -4.888
REMARK INTRA:                  -1.140
REMARK UNBOUND:                -0.873
REMARK SMILES CCCCCCCCCCCCCC(=O)[O-]
REMARK SMILES IDX 8 1 9 2 10 3 11 4 12 5 13 6 14 7 15 8 16 9 7 10 6 11 5 12
REMARK SMILES IDX 4 13 3 14 2 15 1 16
REMARK H PARENT
REMARK Flexibility Score: inf
ROOT
ATOM      1  C   UNL     1       4.298 -35.414  21.489  1.00  0.00     0.000 C 
ENDROOT
BRANCH   1   2
ATOM      2  C   UNL     1       5.516 -36.017  20.771  1.00  0.00     0.000 C 
BRANCH   2   3
ATOM      3  C   UNL     1       5.151 -37.239  19.909  1.00  0.00     0.000 C 
BRANCH   3   4
ATOM      4  C   UNL     1       3.685 -37.196  19.431  1.00  0.00     0.000 C 
BRANCH   4   5
ATOM      5  C   UNL     1       3.463 -37.862  18.063  1.00  0.00     0.006 C 
BRANCH   5   6
ATOM      6  C   UNL     1       2.332 -37.209  17.258  1.00  0.00     0.053 C 
BRANCH   6   7
ATOM      7  C   UNL     1       2.642 -37.249  15.794  1.00  0.00     0.041 C 
ATOM      8  O   UNL     1       3.547 -38.008  15.360  1.00  0.00    -0.550 OA
ATOM      9  O   UNL     1       1.897 -36.485  14.905  1.00  0.00    -0.550 OA
ENDBRANCH   6   7
ENDBRANCH   5   6
ENDBRANCH   4   5
ENDBRANCH   3   4
ENDBRANCH   2   3
ENDBRANCH   1   2
BRANCH   1  10
ATOM     10  C   UNL     1       4.685 -34.616  22.742  1.00  0.00     0.000 C 
BRANCH  10  11
ATOM     11  C   UNL     1       6.004 -35.132  23.336  1.00  0.00    -0.000 C 
BRANCH  11  12
ATOM     12  C   UNL     1       5.849 -35.665  24.772  1.00  0.00    -0.000 C 
BRANCH  12  13
ATOM     13  C   UNL     1       5.509 -37.164  24.876  1.00  0.00    -0.000 C 
BRANCH  13  14
ATOM     14  C   UNL     1       5.989 -37.972  23.661  1.00  0.00    -0.000 C 
BRANCH  14  15
ATOM     15  C   UNL     1       5.355 -39.368  23.647  1.00  0.00    -0.003 C 
ATOM     16  C   UNL     1       5.432 -39.995  22.258  1.00  0.00     0.004 C 
ENDBRANCH  14  15
ENDBRANCH  13  14
ENDBRANCH  12  13
ENDBRANCH  11  12
ENDBRANCH  10  11
ENDBRANCH   1  10
TORSDOF 12
ENDMDL
MODEL 5
REMARK VINA RESULT:    -2.942      4.316      8.268
REMARK INTER + INTRA:          -5.878
REMARK INTER:                  -5.158
REMARK INTRA:                  -0.720
REMARK UNBOUND:                -0.873
REMARK SMILES CCCCCCCCCCCCCC(=O)[O-]
REMARK SMILES IDX 8 1 9 2 10 3 11 4 12 5 13 6 14 7 15 8 16 9 7 10 6 11 5 12
REMARK SMILES IDX 4 13 3 14 2 15 1 16
REMARK H PARENT
REMARK Flexibility Score: inf
ROOT
ATOM      1  C   UNL     1       5.023 -37.565  20.034  1.00  0.00     0.000 C 
ENDROOT
BRANCH   1   2
ATOM      2  C   UNL     1       3.570 -37.150  19.755  1.00  0.00     0.000 C 
BRANCH   2   3
ATOM      3  C   UNL     1       2.847 -38.120  18.804  1.00  0.00     0.000 C 
BRANCH   3   4
ATOM      4  C   UNL     1       1.566 -37.501  18.206  1.00  0.00     0.000 C 
BRANCH   4   5
ATOM      5  C   UNL     1       1.673 -37.196  16.702  1.00  0.00     0.006 C 
BRANCH   5   6
ATOM      6  C   UNL     1       3.119 -37.218  16.190  1.00  0.00     0.053 C 
BRANCH   6   7
ATOM      7  C   UNL     1       3.150 -37.044  14.704  1.00  0.00     0.041 C 
ATOM      8  O   UNL     1       2.097 -36.752  14.079  1.00  0.00    -0.550 OA
ATOM      9  O   UNL     1       4.351 -37.156  14.016  1.00  0.00    -0.550 OA
ENDBRANCH   6   7
ENDBRANCH   5   6
ENDBRANCH   4   5
ENDBRANCH   3   4
ENDBRANCH   2   3
ENDBRANCH   1   2
BRANCH   1  10
ATOM     10  C   UNL     1       5.728 -36.627  21.024  1.00  0.00     0.000 C 
BRANCH  10  11
ATOM     11  C   UNL     1       4.872 -35.384  21.308  1.00  0.00    -0.000 C 
BRANCH  11  12
ATOM     12  C   UNL     1       4.962 -34.912  22.770  1.00  0.00    -0.000 C 
BRANCH  12  13
ATOM     13  C   UNL     1       6.124 -35.519  23.579  1.00  0.00    -0.000 C 
BRANCH  13  14
ATOM     14  C   UNL     1       5.708 -35.950  24.993  1.00  0.00    -0.000 C 
BRANCH  14  15
ATOM     15  C   UNL     1       5.453 -37.460  25.052  1.00  0.00    -0.003 C 
ATOM     16  C   UNL     1       4.251 -37.782  25.936  1.00  0.00     0.004 C 
ENDBRANCH  14  15
ENDBRANCH  13  14
ENDBRANCH  12  13
ENDBRANCH  11  12
ENDBRANCH  10  11
ENDBRANCH   1  10
TORSDOF 12
ENDMDL
MODEL 6
REMARK VINA RESULT:    -2.655      4.273      8.029
REMARK INTER + INTRA:          -5.390
REMARK INTER:                  -5.225
REMARK INTRA:                  -0.165
REMARK UNBOUND:                -0.873
REMARK SMILES CCCCCCCCCCCCCC(=O)[O-]
REMARK SMILES IDX 8 1 9 2 10 3 11 4 12 5 13 6 14 7 15 8 16 9 7 10 6 11 5 12
REMARK SMILES IDX 4 13 3 14 2 15 1 16
REMARK H PARENT
REMARK Flexibility Score: inf
ROOT
ATOM      1  C   UNL     1       5.653 -39.145  20.692  1.00  0.00     0.000 C 
ENDROOT
BRANCH   1   2
ATOM      2  C   UNL     1       5.138 -37.701  20.578  1.00  0.00     0.000 C 
BRANCH   2   3
ATOM      3  C   UNL     1       4.666 -37.350  19.156  1.00  0.00     0.000 C 
BRANCH   3   4
ATOM      4  C   UNL     1       3.138 -37.495  18.998  1.00  0.00     0.000 C 
BRANCH   4   5
ATOM      5  C   UNL     1       2.687 -37.715  17.545  1.00  0.00     0.006 C 
BRANCH   5   6
ATOM      6  C   UNL     1       3.347 -36.741  16.561  1.00  0.00     0.053 C 
BRANCH   6   7
ATOM      7  C   UNL     1       3.216 -37.246  15.158  1.00  0.00     0.041 C 
ATOM      8  O   UNL     1       2.518 -36.615  14.322  1.00  0.00    -0.550 OA
ATOM      9  O   UNL     1       3.904 -38.385  14.762  1.00  0.00    -0.550 OA
ENDBRANCH   6   7
ENDBRANCH   5   6
ENDBRANCH   4   5
ENDBRANCH   3   4
ENDBRANCH   2   3
ENDBRANCH   1   2
BRANCH   1  10
ATOM     10  C   UNL     1       5.679 -39.652  22.142  1.00  0.00     0.000 C 
BRANCH  10  11
ATOM     11  C   UNL     1       5.852 -38.488  23.127  1.00  0.00    -0.000 C 
BRANCH  11  12
ATOM     12  C   UNL     1       5.182 -38.747  24.489  1.00  0.00    -0.000 C 
BRANCH  12  13
ATOM     13  C   UNL     1       4.983 -37.496  25.365  1.00  0.00    -0.000 C 
BRANCH  13  14
ATOM     14  C   UNL     1       5.998 -36.384  25.060  1.00  0.00    -0.000 C 
BRANCH  14  15
ATOM     15  C   UNL     1       5.594 -35.605  23.803  1.00  0.00    -0.003 C 
ATOM     16  C   UNL     1       6.125 -34.175  23.846  1.00  0.00     0.004 C 
ENDBRANCH  14  15
ENDBRANCH  13  14
ENDBRANCH  12  13
ENDBRANCH  11  12
ENDBRANCH  10  11
ENDBRANCH   1  10
TORSDOF 12
ENDMDL
MODEL 7
REMARK VINA RESULT:    -2.292      1.755      3.305
REMARK INTER + INTRA:          -4.772
REMARK INTER:                  -4.169
REMARK INTRA:                  -0.603
REMARK UNBOUND:                -0.873
REMARK SMILES CCCCCCCCCCCCCC(=O)[O-]
REMARK SMILES IDX 8 1 9 2 10 3 11 4 12 5 13 6 14 7 15 8 16 9 7 10 6 11 5 12
REMARK SMILES IDX 4 13 3 14 2 15 1 16
REMARK H PARENT
REMARK Flexibility Score: inf
ROOT
ATOM      1  C   UNL     1       4.675 -35.229  21.970  1.00  0.00     0.000 C 
ENDROOT
BRANCH   1   2
ATOM      2  C   UNL     1       5.123 -34.477  23.233  1.00  0.00     0.000 C 
BRANCH   2   3
ATOM      3  C   UNL     1       6.125 -35.282  24.079  1.00  0.00     0.000 C 
BRANCH   3   4
ATOM      4  C   UNL     1       5.443 -35.994  25.266  1.00  0.00     0.000 C 
BRANCH   4   5
ATOM      5  C   UNL     1       5.221 -37.498  25.038  1.00  0.00     0.006 C 
BRANCH   5   6
ATOM      6  C   UNL     1       5.907 -38.017  23.769  1.00  0.00     0.053 C 
BRANCH   6   7
ATOM      7  C   UNL     1       5.415 -39.390  23.433  1.00  0.00     0.041 C 
ATOM      8  O   UNL     1       4.995 -40.152  24.343  1.00  0.00    -0.550 OA
ATOM      9  O   UNL     1       5.373 -39.809  22.109  1.00  0.00    -0.550 OA
ENDBRANCH   6   7
ENDBRANCH   5   6
ENDBRANCH   4   5
ENDBRANCH   3   4
ENDBRANCH   2   3
ENDBRANCH   1   2
BRANCH   1  10
ATOM     10  C   UNL     1       5.842 -35.910  21.240  1.00  0.00     0.000 C 
BRANCH  10  11
ATOM     11  C   UNL     1       5.434 -36.325  19.819  1.00  0.00    -0.000 C 
BRANCH  11  12
ATOM     12  C   UNL     1       3.951 -36.723  19.711  1.00  0.00    -0.000 C 
BRANCH  12  13
ATOM     13  C   UNL     1       3.577 -37.496  18.432  1.00  0.00    -0.000 C 
BRANCH  13  14
ATOM     14  C   UNL     1       3.471 -36.592  17.195  1.00  0.00    -0.000 C 
BRANCH  14  15
ATOM     15  C   UNL     1       2.638 -37.262  16.097  1.00  0.00    -0.003 C 
ATOM     16  C   UNL     1       3.481 -37.532  14.853  1.00  0.00     0.004 C 
ENDBRANCH  14  15
ENDBRANCH  13  14
ENDBRANCH  12  13
ENDBRANCH  11  12
ENDBRANCH  10  11
ENDBRANCH   1  10
TORSDOF 12
ENDMDL
