MODEL 1
REMARK VINA RESULT:    -5.427      0.000      0.000
REMARK INTER + INTRA:          -6.356
REMARK INTER:                  -6.220
REMARK INTRA:                  -0.135
REMARK UNBOUND:                -0.135
REMARK SMILES O=C([O-])C=Cc1ccc(O)cc1
REMARK SMILES IDX 6 1 7 2 12 3 8 4 11 5 9 6 5 7 4 8 2 9 1 10 3 11 10 12
REMARK H PARENT 10 13
REMARK Flexibility Score: inf
ROOT
ATOM      1  C   UNL     1      -6.333  -4.783  15.246  1.00  0.00    -0.025 A 
ATOM      2  C   UNL     1      -5.699  -6.041  15.288  1.00  0.00     0.012 A 
ATOM      3  C   UNL     1      -6.851  -4.245  16.436  1.00  0.00     0.012 A 
ATOM      4  C   UNL     1      -5.610  -6.748  16.491  1.00  0.00     0.047 A 
ATOM      5  C   UNL     1      -6.761  -4.955  17.637  1.00  0.00     0.047 A 
ATOM      6  C   UNL     1      -6.144  -6.208  17.668  1.00  0.00     0.115 A 
ENDROOT
BRANCH   1   7
ATOM      7  C   UNL     1      -6.444  -3.985  14.000  1.00  0.00     0.010 C 
ATOM      8  C   UNL     1      -5.500  -3.135  13.573  1.00  0.00     0.025 C 
BRANCH   8   9
ATOM      9  C   UNL     1      -5.648  -2.372  12.324  1.00  0.00     0.064 C 
ATOM     10  O   UNL     1      -4.634  -2.137  11.615  1.00  0.00    -0.545 OA
ATOM     11  O   UNL     1      -6.890  -1.903  11.912  1.00  0.00    -0.545 OA
ENDBRANCH   8   9
ENDBRANCH   1   7
BRANCH   6  12
ATOM     12  O   UNL     1      -6.061  -6.905  18.871  1.00  0.00    -0.508 OA
ATOM     13  H   UNL     1      -6.400  -7.857  18.956  1.00  0.00     0.293 HD
ENDBRANCH   6  12
TORSDOF 3
ENDMDL
MODEL 2
REMARK VINA RESULT:    -5.310      5.765      8.117
REMARK INTER + INTRA:          -6.222
REMARK INTER:                  -6.084
REMARK INTRA:                  -0.137
REMARK UNBOUND:                -0.135
REMARK SMILES O=C([O-])C=Cc1ccc(O)cc1
REMARK SMILES IDX 6 1 7 2 12 3 8 4 11 5 9 6 5 7 4 8 2 9 1 10 3 11 10 12
REMARK H PARENT 10 13
REMARK Flexibility Score: inf
ROOT
ATOM      1  C   UNL     1      -4.810   0.569   9.351  1.00  0.00    -0.025 A 
ATOM      2  C   UNL     1      -4.218  -0.603   9.863  1.00  0.00     0.012 A 
ATOM      3  C   UNL     1      -6.040   0.995   9.883  1.00  0.00     0.012 A 
ATOM      4  C   UNL     1      -4.858  -1.340  10.865  1.00  0.00     0.047 A 
ATOM      5  C   UNL     1      -6.676   0.256  10.884  1.00  0.00     0.047 A 
ATOM      6  C   UNL     1      -6.091  -0.913  11.375  1.00  0.00     0.115 A 
ENDROOT
BRANCH   1   7
ATOM      7  C   UNL     1      -4.169   1.394   8.297  1.00  0.00     0.010 C 
ATOM      8  C   UNL     1      -2.871   1.726   8.299  1.00  0.00     0.025 C 
BRANCH   8   9
ATOM      9  C   UNL     1      -2.275   2.538   7.226  1.00  0.00     0.064 C 
ATOM     10  O   UNL     1      -2.137   3.779   7.390  1.00  0.00    -0.545 OA
ATOM     11  O   UNL     1      -1.861   1.959   6.032  1.00  0.00    -0.545 OA
ENDBRANCH   8   9
ENDBRANCH   1   7
BRANCH   6  12
ATOM     12  O   UNL     1      -6.736  -1.640  12.373  1.00  0.00    -0.508 OA
ATOM     13  H   UNL     1      -7.740  -1.780  12.361  1.00  0.00     0.293 HD
ENDBRANCH   6  12
TORSDOF 3
ENDMDL
MODEL 3
REMARK VINA RESULT:    -5.286      5.951      8.221
REMARK INTER + INTRA:          -6.194
REMARK INTER:                  -6.058
REMARK INTRA:                  -0.135
REMARK UNBOUND:                -0.135
REMARK SMILES O=C([O-])C=Cc1ccc(O)cc1
REMARK SMILES IDX 6 1 7 2 12 3 8 4 11 5 9 6 5 7 4 8 2 9 1 10 3 11 10 12
REMARK H PARENT 10 13
REMARK Flexibility Score: inf
ROOT
ATOM      1  C   UNL     1      -2.039  -1.333   9.123  1.00  0.00    -0.025 A 
ATOM      2  C   UNL     1      -1.968  -1.264  10.529  1.00  0.00     0.012 A 
ATOM      3  C   UNL     1      -2.720  -2.411   8.531  1.00  0.00     0.012 A 
ATOM      4  C   UNL     1      -2.546  -2.265  11.316  1.00  0.00     0.047 A 
ATOM      5  C   UNL     1      -3.296  -3.409   9.321  1.00  0.00     0.047 A 
ATOM      6  C   UNL     1      -3.209  -3.342  10.714  1.00  0.00     0.115 A 
ENDROOT
BRANCH   1   7
ATOM      7  C   UNL     1      -1.454  -0.293   8.241  1.00  0.00     0.010 C 
ATOM      8  C   UNL     1      -1.774   1.007   8.309  1.00  0.00     0.025 C 
BRANCH   8   9
ATOM      9  C   UNL     1      -1.160   2.006   7.420  1.00  0.00     0.064 C 
ATOM     10  O   UNL     1      -0.282   2.786   7.874  1.00  0.00    -0.545 OA
ATOM     11  O   UNL     1      -1.533   2.104   6.084  1.00  0.00    -0.545 OA
ENDBRANCH   8   9
ENDBRANCH   1   7
BRANCH   6  12
ATOM     12  O   UNL     1      -3.787  -4.344  11.490  1.00  0.00    -0.508 OA
ATOM     13  H   UNL     1      -4.637  -4.181  12.017  1.00  0.00     0.293 HD
ENDBRANCH   6  12
TORSDOF 3
ENDMDL
MODEL 4
REMARK VINA RESULT:    -5.258      5.742      8.109
REMARK INTER + INTRA:          -6.162
REMARK INTER:                  -6.025
REMARK INTRA:                  -0.137
REMARK UNBOUND:                -0.135
REMARK SMILES O=C([O-])C=Cc1ccc(O)cc1
REMARK SMILES IDX 6 1 7 2 12 3 8 4 11 5 9 6 5 7 4 8 2 9 1 10 3 11 10 12
REMARK H PARENT 10 13
REMARK Flexibility Score: inf
ROOT
ATOM      1  C   UNL     1      -2.289   1.138  11.273  1.00  0.00    -0.025 A 
ATOM      2  C   UNL     1      -3.503   0.428  11.174  1.00  0.00     0.012 A 
ATOM      3  C   UNL     1      -1.443   0.885  12.366  1.00  0.00     0.012 A 
ATOM      4  C   UNL     1      -3.865  -0.492  12.163  1.00  0.00     0.047 A 
ATOM      5  C   UNL     1      -1.809  -0.036  13.351  1.00  0.00     0.047 A 
ATOM      6  C   UNL     1      -3.020  -0.724  13.255  1.00  0.00     0.115 A 
ENDROOT
BRANCH   1   7
ATOM      7  C   UNL     1      -1.850   2.117  10.247  1.00  0.00     0.010 C 
ATOM      8  C   UNL     1      -1.845   1.865   8.931  1.00  0.00     0.025 C 
BRANCH   8   9
ATOM      9  C   UNL     1      -1.411   2.871   7.949  1.00  0.00     0.064 C 
ATOM     10  O   UNL     1      -2.250   3.685   7.481  1.00  0.00    -0.545 OA
ATOM     11  O   UNL     1      -0.088   2.938   7.527  1.00  0.00    -0.545 OA
ENDBRANCH   8   9
ENDBRANCH   1   7
BRANCH   6  12
ATOM     12  O   UNL     1      -3.373  -1.639  14.244  1.00  0.00    -0.508 OA
ATOM     13  H   UNL     1      -3.999  -2.412  14.052  1.00  0.00     0.293 HD
ENDBRANCH   6  12
TORSDOF 3
ENDMDL
MODEL 5
REMARK VINA RESULT:    -5.175      6.996      7.602
REMARK INTER + INTRA:          -6.066
REMARK INTER:                  -5.921
REMARK INTRA:                  -0.145
REMARK UNBOUND:                -0.135
REMARK SMILES O=C([O-])C=Cc1ccc(O)cc1
REMARK SMILES IDX 6 1 7 2 12 3 8 4 11 5 9 6 5 7 4 8 2 9 1 10 3 11 10 12
REMARK H PARENT 10 13
REMARK Flexibility Score: inf
ROOT
ATOM      1  C   UNL     1      -5.434   0.291  11.008  1.00  0.00    -0.025 A 
ATOM      2  C   UNL     1      -6.397   1.021  11.734  1.00  0.00     0.012 A 
ATOM      3  C   UNL     1      -4.076   0.610  11.175  1.00  0.00     0.012 A 
ATOM      4  C   UNL     1      -6.005   2.059  12.585  1.00  0.00     0.047 A 
ATOM      5  C   UNL     1      -3.687   1.647  12.027  1.00  0.00     0.047 A 
ATOM      6  C   UNL     1      -4.648   2.376  12.732  1.00  0.00     0.115 A 
ENDROOT
BRANCH   1   7
ATOM      7  C   UNL     1      -5.795  -0.826  10.100  1.00  0.00     0.010 C 
ATOM      8  C   UNL     1      -5.162  -1.082   8.947  1.00  0.00     0.025 C 
BRANCH   8   9
ATOM      9  C   UNL     1      -5.548  -2.209   8.083  1.00  0.00     0.064 C 
ATOM     10  O   UNL     1      -6.372  -2.023   7.150  1.00  0.00    -0.545 OA
ATOM     11  O   UNL     1      -5.016  -3.479   8.278  1.00  0.00    -0.545 OA
ENDBRANCH   8   9
ENDBRANCH   1   7
BRANCH   6  12
ATOM     12  O   UNL     1      -4.247   3.408  13.577  1.00  0.00    -0.508 OA
ATOM     13  H   UNL     1      -4.456   4.377  13.366  1.00  0.00     0.293 HD
ENDBRANCH   6  12
TORSDOF 3
ENDMDL
MODEL 6
REMARK VINA RESULT:    -5.134      5.488      8.006
REMARK INTER + INTRA:          -6.019
REMARK INTER:                  -5.868
REMARK INTRA:                  -0.151
REMARK UNBOUND:                -0.135
REMARK SMILES O=C([O-])C=Cc1ccc(O)cc1
REMARK SMILES IDX 6 1 7 2 12 3 8 4 11 5 9 6 5 7 4 8 2 9 1 10 3 11 10 12
REMARK H PARENT 10 13
REMARK Flexibility Score: inf
ROOT
ATOM      1  C   UNL     1      -4.766  -1.044  10.408  1.00  0.00    -0.025 A 
ATOM      2  C   UNL     1      -5.304  -2.069   9.603  1.00  0.00     0.012 A 
ATOM      3  C   UNL     1      -4.752   0.270   9.912  1.00  0.00     0.012 A 
ATOM      4  C   UNL     1      -5.792  -1.781   8.325  1.00  0.00     0.047 A 
ATOM      5  C   UNL     1      -5.241   0.554   8.633  1.00  0.00     0.047 A 
ATOM      6  C   UNL     1      -5.759  -0.469   7.836  1.00  0.00     0.115 A 
ENDROOT
BRANCH   1   7
ATOM      7  C   UNL     1      -4.245  -1.292  11.776  1.00  0.00     0.010 C 
ATOM      8  C   UNL     1      -3.933  -0.317  12.641  1.00  0.00     0.025 C 
BRANCH   8   9
ATOM      9  C   UNL     1      -3.429  -0.610  13.992  1.00  0.00     0.064 C 
ATOM     10  O   UNL     1      -4.167  -0.398  14.990  1.00  0.00    -0.545 OA
ATOM     11  O   UNL     1      -2.150  -1.117  14.188  1.00  0.00    -0.545 OA
ENDBRANCH   8   9
ENDBRANCH   1   7
BRANCH   6  12
ATOM     12  O   UNL     1      -6.243  -0.173   6.564  1.00  0.00    -0.508 OA
ATOM     13  H   UNL     1      -5.713  -0.398   5.730  1.00  0.00     0.293 HD
ENDBRANCH   6  12
TORSDOF 3
ENDMDL
MODEL 7
REMARK VINA RESULT:    -5.130      5.558      7.665
REMARK INTER + INTRA:          -6.015
REMARK INTER:                  -5.864
REMARK INTRA:                  -0.151
REMARK UNBOUND:                -0.135
REMARK SMILES O=C([O-])C=Cc1ccc(O)cc1
REMARK SMILES IDX 6 1 7 2 12 3 8 4 11 5 9 6 5 7 4 8 2 9 1 10 3 11 10 12
REMARK H PARENT 10 13
REMARK Flexibility Score: inf
ROOT
ATOM      1  C   UNL     1      -3.685  -0.077  11.975  1.00  0.00    -0.025 A 
ATOM      2  C   UNL     1      -4.698   0.747  12.507  1.00  0.00     0.012 A 
ATOM      3  C   UNL     1      -2.435   0.493  11.679  1.00  0.00     0.012 A 
ATOM      4  C   UNL     1      -4.465   2.111  12.712  1.00  0.00     0.047 A 
ATOM      5  C   UNL     1      -2.206   1.856  11.885  1.00  0.00     0.047 A 
ATOM      6  C   UNL     1      -3.220   2.669  12.398  1.00  0.00     0.115 A 
ENDROOT
BRANCH   1   7
ATOM      7  C   UNL     1      -3.874  -1.531  11.749  1.00  0.00     0.010 C 
ATOM      8  C   UNL     1      -2.894  -2.357  11.360  1.00  0.00     0.025 C 
BRANCH   8   9
ATOM      9  C   UNL     1      -3.125  -3.797  11.158  1.00  0.00     0.064 C 
ATOM     10  O   UNL     1      -2.621  -4.626  11.960  1.00  0.00    -0.545 OA
ATOM     11  O   UNL     1      -3.891  -4.258  10.094  1.00  0.00    -0.545 OA
ENDBRANCH   8   9
ENDBRANCH   1   7
BRANCH   6  12
ATOM     12  O   UNL     1      -2.979   4.027  12.598  1.00  0.00    -0.508 OA
ATOM     13  H   UNL     1      -3.102   4.702  11.853  1.00  0.00     0.293 HD
ENDBRANCH   6  12
TORSDOF 3
ENDMDL
MODEL 8
REMARK VINA RESULT:    -5.090      5.661      7.274
REMARK INTER + INTRA:          -5.970
REMARK INTER:                  -5.819
REMARK INTRA:                  -0.150
REMARK UNBOUND:                -0.135
REMARK SMILES O=C([O-])C=Cc1ccc(O)cc1
REMARK SMILES IDX 6 1 7 2 12 3 8 4 11 5 9 6 5 7 4 8 2 9 1 10 3 11 10 12
REMARK H PARENT 10 13
REMARK Flexibility Score: inf
ROOT
ATOM      1  C   UNL     1      -2.892  -1.717  11.201  1.00  0.00    -0.025 A 
ATOM      2  C   UNL     1      -1.809  -1.886  12.088  1.00  0.00     0.012 A 
ATOM      3  C   UNL     1      -2.643  -1.733   9.818  1.00  0.00     0.012 A 
ATOM      4  C   UNL     1      -0.509  -2.042  11.596  1.00  0.00     0.047 A 
ATOM      5  C   UNL     1      -1.342  -1.889   9.330  1.00  0.00     0.047 A 
ATOM      6  C   UNL     1      -0.273  -2.041  10.215  1.00  0.00     0.115 A 
ENDROOT
BRANCH   1   7
ATOM      7  C   UNL     1      -4.291  -1.559  11.669  1.00  0.00     0.010 C 
ATOM      8  C   UNL     1      -5.297  -1.153  10.882  1.00  0.00     0.025 C 
BRANCH   8   9
ATOM      9  C   UNL     1      -6.673  -1.021  11.387  1.00  0.00     0.064 C 
ATOM     10  O   UNL     1      -7.484  -1.972  11.237  1.00  0.00    -0.545 OA
ATOM     11  O   UNL     1      -7.095   0.139  12.028  1.00  0.00    -0.545 OA
ENDBRANCH   8   9
ENDBRANCH   1   7
BRANCH   6  12
ATOM     12  O   UNL     1       1.018  -2.196   9.715  1.00  0.00    -0.508 OA
ATOM     13  H   UNL     1       1.585  -3.001   9.954  1.00  0.00     0.293 HD
ENDBRANCH   6  12
TORSDOF 3
ENDMDL
