MODEL 1
REMARK VINA RESULT:    -2.877      0.000      0.000
REMARK INTER + INTRA:          -6.419
REMARK INTER:                  -4.896
REMARK INTRA:                  -1.523
REMARK UNBOUND:                -1.523
REMARK SMILES CCCCCCCCCCCCCC(=O)[O-]
REMARK SMILES IDX 8 1 9 2 10 3 11 4 12 5 13 6 14 7 15 8 16 9 7 10 6 11 5 12
REMARK SMILES IDX 4 13 3 14 2 15 1 16
REMARK H PARENT
REMARK Flexibility Score: inf
ROOT
ATOM      1  C   UNL     1      21.083   6.596  16.956  1.00  0.00     0.000 C 
ENDROOT
BRANCH   1   2
ATOM      2  C   UNL     1      20.703   7.582  15.838  1.00  0.00     0.000 C 
BRANCH   2   3
ATOM      3  C   UNL     1      19.395   8.335  16.134  1.00  0.00     0.000 C 
BRANCH   3   4
ATOM      4  C   UNL     1      19.468   9.159  17.430  1.00  0.00     0.000 C 
BRANCH   4   5
ATOM      5  C   UNL     1      19.591  10.668  17.169  1.00  0.00     0.006 C 
BRANCH   5   6
ATOM      6  C   UNL     1      21.061  11.089  17.081  1.00  0.00     0.053 C 
BRANCH   6   7
ATOM      7  C   UNL     1      21.183  12.581  17.129  1.00  0.00     0.041 C 
ATOM      8  O   UNL     1      21.691  13.206  16.161  1.00  0.00    -0.550 OA
ATOM      9  O   UNL     1      20.690  13.282  18.221  1.00  0.00    -0.550 OA
ENDBRANCH   6   7
ENDBRANCH   5   6
ENDBRANCH   4   5
ENDBRANCH   3   4
ENDBRANCH   2   3
ENDBRANCH   1   2
BRANCH   1  10
ATOM     10  C   UNL     1      22.358   7.018  17.708  1.00  0.00     0.000 C 
BRANCH  10  11
ATOM     11  C   UNL     1      23.154   8.102  16.961  1.00  0.00    -0.000 C 
BRANCH  11  12
ATOM     12  C   UNL     1      24.676   7.916  17.096  1.00  0.00    -0.000 C 
BRANCH  12  13
ATOM     13  C   UNL     1      25.150   6.545  16.583  1.00  0.00    -0.000 C 
BRANCH  13  14
ATOM     14  C   UNL     1      24.996   6.399  15.059  1.00  0.00    -0.000 C 
BRANCH  14  15
ATOM     15  C   UNL     1      24.121   5.197  14.669  1.00  0.00    -0.003 C 
ATOM     16  C   UNL     1      23.015   5.564  13.679  1.00  0.00     0.004 C 
ENDBRANCH  14  15
ENDBRANCH  13  14
ENDBRANCH  12  13
ENDBRANCH  11  12
ENDBRANCH  10  11
ENDBRANCH   1  10
TORSDOF 12
ENDMDL
MODEL 2
REMARK VINA RESULT:    -2.840      0.947      2.017
REMARK INTER + INTRA:          -6.356
REMARK INTER:                  -5.023
REMARK INTRA:                  -1.332
REMARK UNBOUND:                -1.523
REMARK SMILES CCCCCCCCCCCCCC(=O)[O-]
REMARK SMILES IDX 8 1 9 2 10 3 11 4 12 5 13 6 14 7 15 8 16 9 7 10 6 11 5 12
REMARK SMILES IDX 4 13 3 14 2 15 1 16
REMARK H PARENT
REMARK Flexibility Score: inf
ROOT
ATOM      1  C   UNL     1      19.002   8.042  16.699  1.00  0.00     0.000 C 
ENDROOT
BRANCH   1   2
ATOM      2  C   UNL     1      18.281   9.321  16.242  1.00  0.00     0.000 C 
BRANCH   2   3
ATOM      3  C   UNL     1      18.579  10.525  17.154  1.00  0.00     0.000 C 
BRANCH   3   4
ATOM      4  C   UNL     1      19.469  10.152  18.351  1.00  0.00     0.000 C 
BRANCH   4   5
ATOM      5  C   UNL     1      20.747  11.003  18.428  1.00  0.00     0.006 C 
BRANCH   5   6
ATOM      6  C   UNL     1      21.244  11.371  17.027  1.00  0.00     0.053 C 
BRANCH   6   7
ATOM      7  C   UNL     1      21.312  12.858  16.869  1.00  0.00     0.041 C 
ATOM      8  O   UNL     1      20.983  13.612  17.822  1.00  0.00    -0.550 OA
ATOM      9  O   UNL     1      21.785  13.410  15.685  1.00  0.00    -0.550 OA
ENDBRANCH   6   7
ENDBRANCH   5   6
ENDBRANCH   4   5
ENDBRANCH   3   4
ENDBRANCH   2   3
ENDBRANCH   1   2
BRANCH   1  10
ATOM     10  C   UNL     1      20.131   7.626  15.740  1.00  0.00     0.000 C 
BRANCH  10  11
ATOM     11  C   UNL     1      21.287   6.912  16.461  1.00  0.00    -0.000 C 
BRANCH  11  12
ATOM     12  C   UNL     1      22.388   7.884  16.919  1.00  0.00    -0.000 C 
BRANCH  12  13
ATOM     13  C   UNL     1      23.764   7.205  17.035  1.00  0.00    -0.000 C 
BRANCH  13  14
ATOM     14  C   UNL     1      23.820   5.855  16.298  1.00  0.00    -0.000 C 
BRANCH  14  15
ATOM     15  C   UNL     1      24.480   5.967  14.914  1.00  0.00    -0.003 C 
ATOM     16  C   UNL     1      23.730   5.189  13.833  1.00  0.00     0.004 C 
ENDBRANCH  14  15
ENDBRANCH  13  14
ENDBRANCH  12  13
ENDBRANCH  11  12
ENDBRANCH  10  11
ENDBRANCH   1  10
TORSDOF 12
ENDMDL
MODEL 3
REMARK VINA RESULT:    -2.750      1.517      2.880
REMARK INTER + INTRA:          -6.203
REMARK INTER:                  -4.289
REMARK INTRA:                  -1.913
REMARK UNBOUND:                -1.523
REMARK SMILES CCCCCCCCCCCCCC(=O)[O-]
REMARK SMILES IDX 8 1 9 2 10 3 11 4 12 5 13 6 14 7 15 8 16 9 7 10 6 11 5 12
REMARK SMILES IDX 4 13 3 14 2 15 1 16
REMARK H PARENT
REMARK Flexibility Score: inf
ROOT
ATOM      1  C   UNL     1      21.931   6.433  16.002  1.00  0.00     0.000 C 
ENDROOT
BRANCH   1   2
ATOM      2  C   UNL     1      20.968   7.461  16.620  1.00  0.00     0.000 C 
BRANCH   2   3
ATOM      3  C   UNL     1      21.342   7.825  18.068  1.00  0.00     0.000 C 
BRANCH   3   4
ATOM      4  C   UNL     1      21.816   9.281  18.207  1.00  0.00     0.000 C 
BRANCH   4   5
ATOM      5  C   UNL     1      21.582  10.106  16.932  1.00  0.00     0.006 C 
BRANCH   5   6
ATOM      6  C   UNL     1      20.613  11.261  17.199  1.00  0.00     0.053 C 
BRANCH   6   7
ATOM      7  C   UNL     1      21.346  12.566  17.217  1.00  0.00     0.041 C 
ATOM      8  O   UNL     1      21.612  13.159  16.139  1.00  0.00    -0.550 OA
ATOM      9  O   UNL     1      21.693  13.150  18.429  1.00  0.00    -0.550 OA
ENDBRANCH   6   7
ENDBRANCH   5   6
ENDBRANCH   4   5
ENDBRANCH   3   4
ENDBRANCH   2   3
ENDBRANCH   1   2
BRANCH   1  10
ATOM     10  C   UNL     1      22.750   5.678  17.064  1.00  0.00     0.000 C 
BRANCH  10  11
ATOM     11  C   UNL     1      24.267   5.846  16.870  1.00  0.00    -0.000 C 
BRANCH  11  12
ATOM     12  C   UNL     1      24.626   7.128  16.098  1.00  0.00    -0.000 C 
BRANCH  12  13
ATOM     13  C   UNL     1      25.350   8.162  16.976  1.00  0.00    -0.000 C 
BRANCH  13  14
ATOM     14  C   UNL     1      25.763   7.590  18.344  1.00  0.00    -0.000 C 
BRANCH  14  15
ATOM     15  C   UNL     1      25.117   8.344  19.517  1.00  0.00    -0.003 C 
ATOM     16  C   UNL     1      24.271   7.440  20.411  1.00  0.00     0.004 C 
ENDBRANCH  14  15
ENDBRANCH  13  14
ENDBRANCH  12  13
ENDBRANCH  11  12
ENDBRANCH  10  11
ENDBRANCH   1  10
TORSDOF 12
ENDMDL
MODEL 4
REMARK VINA RESULT:    -2.745      1.737      3.637
REMARK INTER + INTRA:          -6.194
REMARK INTER:                  -4.786
REMARK INTRA:                  -1.408
REMARK UNBOUND:                -1.523
REMARK SMILES CCCCCCCCCCCCCC(=O)[O-]
REMARK SMILES IDX 8 1 9 2 10 3 11 4 12 5 13 6 14 7 15 8 16 9 7 10 6 11 5 12
REMARK SMILES IDX 4 13 3 14 2 15 1 16
REMARK H PARENT
REMARK Flexibility Score: inf
ROOT
ATOM      1  C   UNL     1      23.704   5.602  14.681  1.00  0.00     0.000 C 
ENDROOT
BRANCH   1   2
ATOM      2  C   UNL     1      22.781   5.406  15.896  1.00  0.00     0.000 C 
BRANCH   2   3
ATOM      3  C   UNL     1      21.548   6.326  15.856  1.00  0.00     0.000 C 
BRANCH   3   4
ATOM      4  C   UNL     1      21.523   7.330  17.020  1.00  0.00     0.000 C 
BRANCH   4   5
ATOM      5  C   UNL     1      20.893   8.677  16.630  1.00  0.00     0.006 C 
BRANCH   5   6
ATOM      6  C   UNL     1      21.833   9.837  16.968  1.00  0.00     0.053 C 
BRANCH   6   7
ATOM      7  C   UNL     1      21.048  11.075  17.272  1.00  0.00     0.041 C 
ATOM      8  O   UNL     1      20.095  11.035  18.093  1.00  0.00    -0.550 OA
ATOM      9  O   UNL     1      21.402  12.283  16.684  1.00  0.00    -0.550 OA
ENDBRANCH   6   7
ENDBRANCH   5   6
ENDBRANCH   4   5
ENDBRANCH   3   4
ENDBRANCH   2   3
ENDBRANCH   1   2
BRANCH   1  10
ATOM     10  C   UNL     1      24.970   6.406  15.025  1.00  0.00     0.000 C 
BRANCH  10  11
ATOM     11  C   UNL     1      25.189   6.546  16.541  1.00  0.00    -0.000 C 
BRANCH  11  12
ATOM     12  C   UNL     1      25.144   8.011  17.012  1.00  0.00    -0.000 C 
BRANCH  12  13
ATOM     13  C   UNL     1      26.194   8.315  18.094  1.00  0.00    -0.000 C 
BRANCH  13  14
ATOM     14  C   UNL     1      25.613   8.242  19.517  1.00  0.00    -0.000 C 
BRANCH  14  15
ATOM     15  C   UNL     1      24.087   8.423  19.540  1.00  0.00    -0.003 C 
ATOM     16  C   UNL     1      23.639   9.575  20.440  1.00  0.00     0.004 C 
ENDBRANCH  14  15
ENDBRANCH  13  14
ENDBRANCH  12  13
ENDBRANCH  11  12
ENDBRANCH  10  11
ENDBRANCH   1  10
TORSDOF 12
ENDMDL
MODEL 5
REMARK VINA RESULT:    -2.742      0.973      1.903
REMARK INTER + INTRA:          -6.189
REMARK INTER:                  -4.730
REMARK INTRA:                  -1.459
REMARK UNBOUND:                -1.523
REMARK SMILES CCCCCCCCCCCCCC(=O)[O-]
REMARK SMILES IDX 8 1 9 2 10 3 11 4 12 5 13 6 14 7 15 8 16 9 7 10 6 11 5 12
REMARK SMILES IDX 4 13 3 14 2 15 1 16
REMARK H PARENT
REMARK Flexibility Score: inf
ROOT
ATOM      1  C   UNL     1      20.308   7.862  15.479  1.00  0.00     0.000 C 
ENDROOT
BRANCH   1   2
ATOM      2  C   UNL     1      18.857   7.821  15.988  1.00  0.00     0.000 C 
BRANCH   2   3
ATOM      3  C   UNL     1      18.306   9.221  16.313  1.00  0.00     0.000 C 
BRANCH   3   4
ATOM      4  C   UNL     1      18.823   9.762  17.656  1.00  0.00     0.000 C 
BRANCH   4   5
ATOM      5  C   UNL     1      19.322  11.212  17.560  1.00  0.00     0.006 C 
BRANCH   5   6
ATOM      6  C   UNL     1      20.772  11.260  17.071  1.00  0.00     0.053 C 
BRANCH   6   7
ATOM      7  C   UNL     1      21.288  12.665  17.099  1.00  0.00     0.041 C 
ATOM      8  O   UNL     1      21.641  13.231  16.031  1.00  0.00    -0.550 OA
ATOM      9  O   UNL     1      21.332  13.366  18.297  1.00  0.00    -0.550 OA
ENDBRANCH   6   7
ENDBRANCH   5   6
ENDBRANCH   4   5
ENDBRANCH   3   4
ENDBRANCH   2   3
ENDBRANCH   1   2
BRANCH   1  10
ATOM     10  C   UNL     1      21.121   6.630  15.914  1.00  0.00     0.000 C 
BRANCH  10  11
ATOM     11  C   UNL     1      21.481   6.656  17.409  1.00  0.00    -0.000 C 
BRANCH  11  12
ATOM     12  C   UNL     1      22.155   7.973  17.832  1.00  0.00    -0.000 C 
BRANCH  12  13
ATOM     13  C   UNL     1      23.517   8.185  17.150  1.00  0.00    -0.000 C 
BRANCH  13  14
ATOM     14  C   UNL     1      24.622   7.297  17.750  1.00  0.00    -0.000 C 
BRANCH  14  15
ATOM     15  C   UNL     1      25.554   6.712  16.677  1.00  0.00    -0.003 C 
ATOM     16  C   UNL     1      24.854   6.496  15.335  1.00  0.00     0.004 C 
ENDBRANCH  14  15
ENDBRANCH  13  14
ENDBRANCH  12  13
ENDBRANCH  11  12
ENDBRANCH  10  11
ENDBRANCH   1  10
TORSDOF 12
ENDMDL
MODEL 6
REMARK VINA RESULT:    -2.738      8.911     13.626
REMARK INTER + INTRA:          -6.182
REMARK INTER:                  -4.844
REMARK INTRA:                  -1.338
REMARK UNBOUND:                -1.523
REMARK SMILES CCCCCCCCCCCCCC(=O)[O-]
REMARK SMILES IDX 8 1 9 2 10 3 11 4 12 5 13 6 14 7 15 8 16 9 7 10 6 11 5 12
REMARK SMILES IDX 4 13 3 14 2 15 1 16
REMARK H PARENT
REMARK Flexibility Score: inf
ROOT
ATOM      1  C   UNL     1      22.673  21.140  19.342  1.00  0.00     0.000 C 
ENDROOT
BRANCH   1   2
ATOM      2  C   UNL     1      21.581  20.061  19.254  1.00  0.00     0.000 C 
BRANCH   2   3
ATOM      3  C   UNL     1      20.838  19.862  20.587  1.00  0.00     0.000 C 
BRANCH   3   4
ATOM      4  C   UNL     1      19.452  19.224  20.401  1.00  0.00     0.000 C 
BRANCH   4   5
ATOM      5  C   UNL     1      19.325  17.862  21.102  1.00  0.00     0.006 C 
BRANCH   5   6
ATOM      6  C   UNL     1      20.135  16.791  20.365  1.00  0.00     0.053 C 
BRANCH   6   7
ATOM      7  C   UNL     1      19.286  15.589  20.092  1.00  0.00     0.041 C 
ATOM      8  O   UNL     1      19.329  14.595  20.864  1.00  0.00    -0.550 OA
ATOM      9  O   UNL     1      18.412  15.587  19.013  1.00  0.00    -0.550 OA
ENDBRANCH   6   7
ENDBRANCH   5   6
ENDBRANCH   4   5
ENDBRANCH   3   4
ENDBRANCH   2   3
ENDBRANCH   1   2
BRANCH   1  10
ATOM     10  C   UNL     1      22.673  21.872  20.696  1.00  0.00     0.000 C 
BRANCH  10  11
ATOM     11  C   UNL     1      22.509  23.394  20.546  1.00  0.00    -0.000 C 
BRANCH  11  12
ATOM     12  C   UNL     1      22.883  23.893  19.139  1.00  0.00    -0.000 C 
BRANCH  12  13
ATOM     13  C   UNL     1      21.731  24.650  18.456  1.00  0.00    -0.000 C 
BRANCH  13  14
ATOM     14  C   UNL     1      20.580  23.721  18.036  1.00  0.00    -0.000 C 
BRANCH  14  15
ATOM     15  C   UNL     1      19.312  23.936  18.878  1.00  0.00    -0.003 C 
ATOM     16  C   UNL     1      18.627  22.625  19.265  1.00  0.00     0.004 C 
ENDBRANCH  14  15
ENDBRANCH  13  14
ENDBRANCH  12  13
ENDBRANCH  11  12
ENDBRANCH  10  11
ENDBRANCH   1  10
TORSDOF 12
ENDMDL
MODEL 7
REMARK VINA RESULT:    -2.664      3.152      6.183
REMARK INTER + INTRA:          -6.056
REMARK INTER:                  -4.577
REMARK INTRA:                  -1.479
REMARK UNBOUND:                -1.523
REMARK SMILES CCCCCCCCCCCCCC(=O)[O-]
REMARK SMILES IDX 8 1 9 2 10 3 11 4 12 5 13 6 14 7 15 8 16 9 7 10 6 11 5 12
REMARK SMILES IDX 4 13 3 14 2 15 1 16
REMARK H PARENT
REMARK Flexibility Score: inf
ROOT
ATOM      1  C   UNL     1      19.758   7.571  15.492  1.00  0.00     0.000 C 
ENDROOT
BRANCH   1   2
ATOM      2  C   UNL     1      20.309   6.466  16.410  1.00  0.00     0.000 C 
BRANCH   2   3
ATOM      3  C   UNL     1      21.237   7.018  17.506  1.00  0.00     0.000 C 
BRANCH   3   4
ATOM      4  C   UNL     1      22.245   8.045  16.965  1.00  0.00     0.000 C 
BRANCH   4   5
ATOM      5  C   UNL     1      23.704   7.606  17.161  1.00  0.00     0.006 C 
BRANCH   5   6
ATOM      6  C   UNL     1      23.875   6.118  16.843  1.00  0.00     0.053 C 
BRANCH   6   7
ATOM      7  C   UNL     1      24.063   5.915  15.371  1.00  0.00     0.041 C 
ATOM      8  O   UNL     1      23.159   5.369  14.687  1.00  0.00    -0.550 OA
ATOM      9  O   UNL     1      25.217   6.375  14.750  1.00  0.00    -0.550 OA
ENDBRANCH   6   7
ENDBRANCH   5   6
ENDBRANCH   4   5
ENDBRANCH   3   4
ENDBRANCH   2   3
ENDBRANCH   1   2
BRANCH   1  10
ATOM     10  C   UNL     1      18.307   7.953  15.833  1.00  0.00     0.000 C 
BRANCH  10  11
ATOM     11  C   UNL     1      18.177   9.406  16.322  1.00  0.00    -0.000 C 
BRANCH  11  12
ATOM     12  C   UNL     1      18.194   9.518  17.856  1.00  0.00    -0.000 C 
BRANCH  12  13
ATOM     13  C   UNL     1      19.342  10.404  18.371  1.00  0.00    -0.000 C 
BRANCH  13  14
ATOM     14  C   UNL     1      19.631  11.595  17.440  1.00  0.00    -0.000 C 
BRANCH  14  15
ATOM     15  C   UNL     1      21.097  11.640  16.981  1.00  0.00    -0.003 C 
ATOM     16  C   UNL     1      21.532  13.029  16.516  1.00  0.00     0.004 C 
ENDBRANCH  14  15
ENDBRANCH  13  14
ENDBRANCH  12  13
ENDBRANCH  11  12
ENDBRANCH  10  11
ENDBRANCH   1  10
TORSDOF 12
ENDMDL
MODEL 8
REMARK VINA RESULT:    -2.658      1.260      2.950
REMARK INTER + INTRA:          -6.045
REMARK INTER:                  -4.217
REMARK INTRA:                  -1.828
REMARK UNBOUND:                -1.523
REMARK SMILES CCCCCCCCCCCCCC(=O)[O-]
REMARK SMILES IDX 8 1 9 2 10 3 11 4 12 5 13 6 14 7 15 8 16 9 7 10 6 11 5 12
REMARK SMILES IDX 4 13 3 14 2 15 1 16
REMARK H PARENT
REMARK Flexibility Score: inf
ROOT
ATOM      1  C   UNL     1      24.662   7.596  18.469  1.00  0.00     0.000 C 
ENDROOT
BRANCH   1   2
ATOM      2  C   UNL     1      23.434   8.165  19.199  1.00  0.00     0.000 C 
BRANCH   2   3
ATOM      3  C   UNL     1      22.521   8.984  18.269  1.00  0.00     0.000 C 
BRANCH   3   4
ATOM      4  C   UNL     1      21.170   9.325  18.918  1.00  0.00     0.000 C 
BRANCH   4   5
ATOM      5  C   UNL     1      20.328  10.287  18.066  1.00  0.00     0.006 C 
BRANCH   5   6
ATOM      6  C   UNL     1      21.168  10.900  16.942  1.00  0.00     0.053 C 
BRANCH   6   7
ATOM      7  C   UNL     1      21.291  12.381  17.128  1.00  0.00     0.041 C 
ATOM      8  O   UNL     1      21.155  12.889  18.271  1.00  0.00    -0.550 OA
ATOM      9  O   UNL     1      21.603  13.192  16.045  1.00  0.00    -0.550 OA
ENDBRANCH   6   7
ENDBRANCH   5   6
ENDBRANCH   4   5
ENDBRANCH   3   4
ENDBRANCH   2   3
ENDBRANCH   1   2
BRANCH   1  10
ATOM     10  C   UNL     1      24.642   7.892  16.959  1.00  0.00     0.000 C 
BRANCH  10  11
ATOM     11  C   UNL     1      25.006   6.662  16.110  1.00  0.00    -0.000 C 
BRANCH  11  12
ATOM     12  C   UNL     1      23.782   6.040  15.415  1.00  0.00    -0.000 C 
BRANCH  12  13
ATOM     13  C   UNL     1      22.939   5.175  16.367  1.00  0.00    -0.000 C 
BRANCH  13  14
ATOM     14  C   UNL     1      21.530   5.749  16.596  1.00  0.00    -0.000 C 
BRANCH  14  15
ATOM     15  C   UNL     1      21.193   6.889  15.621  1.00  0.00    -0.003 C 
ATOM     16  C   UNL     1      19.756   7.388  15.763  1.00  0.00     0.004 C 
ENDBRANCH  14  15
ENDBRANCH  13  14
ENDBRANCH  12  13
ENDBRANCH  11  12
ENDBRANCH  10  11
ENDBRANCH   1  10
TORSDOF 12
ENDMDL
MODEL 9
REMARK VINA RESULT:    -2.633      2.907      5.869
REMARK INTER + INTRA:          -6.002
REMARK INTER:                  -4.512
REMARK INTRA:                  -1.491
REMARK UNBOUND:                -1.523
REMARK SMILES CCCCCCCCCCCCCC(=O)[O-]
REMARK SMILES IDX 8 1 9 2 10 3 11 4 12 5 13 6 14 7 15 8 16 9 7 10 6 11 5 12
REMARK SMILES IDX 4 13 3 14 2 15 1 16
REMARK H PARENT
REMARK Flexibility Score: inf
ROOT
ATOM      1  C   UNL     1      19.003   7.643  16.530  1.00  0.00     0.000 C 
ENDROOT
BRANCH   1   2
ATOM      2  C   UNL     1      20.202   7.292  15.633  1.00  0.00     0.000 C 
BRANCH   2   3
ATOM      3  C   UNL     1      21.274   6.474  16.374  1.00  0.00     0.000 C 
BRANCH   3   4
ATOM      4  C   UNL     1      22.514   6.202  15.506  1.00  0.00     0.000 C 
BRANCH   4   5
ATOM      5  C   UNL     1      23.815   6.168  16.322  1.00  0.00     0.006 C 
BRANCH   5   6
ATOM      6  C   UNL     1      24.294   7.587  16.644  1.00  0.00     0.053 C 
BRANCH   6   7
ATOM      7  C   UNL     1      25.550   7.543  17.457  1.00  0.00     0.041 C 
ATOM      8  O   UNL     1      26.203   8.598  17.671  1.00  0.00    -0.550 OA
ATOM      9  O   UNL     1      25.972   6.346  18.020  1.00  0.00    -0.550 OA
ENDBRANCH   6   7
ENDBRANCH   5   6
ENDBRANCH   4   5
ENDBRANCH   3   4
ENDBRANCH   2   3
ENDBRANCH   1   2
BRANCH   1  10
ATOM     10  C   UNL     1      18.275   8.920  16.071  1.00  0.00     0.000 C 
BRANCH  10  11
ATOM     11  C   UNL     1      17.895   9.838  17.244  1.00  0.00    -0.000 C 
BRANCH  11  12
ATOM     12  C   UNL     1      18.369  11.288  17.038  1.00  0.00    -0.000 C 
BRANCH  12  13
ATOM     13  C   UNL     1      19.607  11.631  17.883  1.00  0.00    -0.000 C 
BRANCH  13  14
ATOM     14  C   UNL     1      20.902  11.652  17.052  1.00  0.00    -0.000 C 
BRANCH  14  15
ATOM     15  C   UNL     1      21.624  10.295  17.052  1.00  0.00    -0.003 C 
ATOM     16  C   UNL     1      21.598   9.608  18.417  1.00  0.00     0.004 C 
ENDBRANCH  14  15
ENDBRANCH  13  14
ENDBRANCH  12  13
ENDBRANCH  11  12
ENDBRANCH  10  11
ENDBRANCH   1  10
TORSDOF 12
ENDMDL
