MODEL 1
REMARK VINA RESULT:    -4.477      0.000      0.000
REMARK INTER + INTRA:          -5.341
REMARK INTER:                  -5.131
REMARK INTRA:                  -0.210
REMARK UNBOUND:                -0.210
REMARK SMILES O=C([O-])C=Cc1ccc(O)cc1
REMARK SMILES IDX 6 1 7 2 12 3 8 4 11 5 9 6 5 7 4 8 2 9 1 10 3 11 10 12
REMARK H PARENT 10 13
REMARK Flexibility Score: inf
ROOT
ATOM      1  C   UNL     1       0.080  -7.747 -32.096  1.00  0.00    -0.025 A 
ATOM      2  C   UNL     1      -1.119  -7.018 -32.087  1.00  0.00     0.012 A 
ATOM      3  C   UNL     1       0.922  -7.700 -30.971  1.00  0.00     0.012 A 
ATOM      4  C   UNL     1      -1.497  -6.295 -30.951  1.00  0.00     0.047 A 
ATOM      5  C   UNL     1       0.542  -6.977 -29.836  1.00  0.00     0.047 A 
ATOM      6  C   UNL     1      -0.669  -6.276 -29.821  1.00  0.00     0.115 A 
ENDROOT
BRANCH   1   7
ATOM      7  C   UNL     1       0.484  -8.460 -33.326  1.00  0.00     0.010 C 
ATOM      8  C   UNL     1       1.238  -7.948 -34.310  1.00  0.00     0.025 C 
BRANCH   8   9
ATOM      9  C   UNL     1       1.948  -6.654 -34.269  1.00  0.00     0.064 C 
ATOM     10  O   UNL     1       1.325  -5.560 -34.304  1.00  0.00    -0.545 OA
ATOM     11  O   UNL     1       3.328  -6.644 -34.118  1.00  0.00    -0.545 OA
ENDBRANCH   8   9
ENDBRANCH   1   7
BRANCH   6  12
ATOM     12  O   UNL     1      -1.035  -5.561 -28.683  1.00  0.00    -0.508 OA
ATOM     13  H   UNL     1      -0.974  -4.549 -28.651  1.00  0.00     0.293 HD
ENDBRANCH   6  12
TORSDOF 3
ENDMDL
MODEL 2
REMARK VINA RESULT:    -4.461     11.734     12.649
REMARK INTER + INTRA:          -5.323
REMARK INTER:                  -5.380
REMARK INTRA:                   0.057
REMARK UNBOUND:                -0.210
REMARK SMILES O=C([O-])C=Cc1ccc(O)cc1
REMARK SMILES IDX 6 1 7 2 12 3 8 4 11 5 9 6 5 7 4 8 2 9 1 10 3 11 10 12
REMARK H PARENT 10 13
REMARK Flexibility Score: inf
ROOT
ATOM      1  C   UNL     1      -9.189  -1.355 -39.291  1.00  0.00    -0.025 A 
ATOM      2  C   UNL     1     -10.485  -1.473 -38.768  1.00  0.00     0.012 A 
ATOM      3  C   UNL     1      -8.302  -0.422 -38.725  1.00  0.00     0.012 A 
ATOM      4  C   UNL     1     -10.874  -0.707 -37.663  1.00  0.00     0.047 A 
ATOM      5  C   UNL     1      -8.691   0.341 -37.621  1.00  0.00     0.047 A 
ATOM      6  C   UNL     1      -9.976   0.199 -37.084  1.00  0.00     0.115 A 
ENDROOT
BRANCH   1   7
ATOM      7  C   UNL     1      -8.819  -2.134 -40.490  1.00  0.00     0.010 C 
ATOM      8  C   UNL     1      -7.701  -2.863 -40.631  1.00  0.00     0.025 C 
BRANCH   8   9
ATOM      9  C   UNL     1      -6.729  -3.166 -39.561  1.00  0.00     0.064 C 
ATOM     10  O   UNL     1      -7.075  -3.760 -38.505  1.00  0.00    -0.545 OA
ATOM     11  O   UNL     1      -5.391  -2.852 -39.754  1.00  0.00    -0.545 OA
ENDBRANCH   8   9
ENDBRANCH   1   7
BRANCH   6  12
ATOM     12  O   UNL     1     -10.350   0.965 -35.983  1.00  0.00    -0.508 OA
ATOM     13  H   UNL     1     -10.278   1.977 -35.993  1.00  0.00     0.293 HD
ENDBRANCH   6  12
TORSDOF 3
ENDMDL
MODEL 3
REMARK VINA RESULT:    -4.445      0.090      1.401
REMARK INTER + INTRA:          -5.305
REMARK INTER:                  -5.116
REMARK INTRA:                  -0.188
REMARK UNBOUND:                -0.210
REMARK SMILES O=C([O-])C=Cc1ccc(O)cc1
REMARK SMILES IDX 6 1 7 2 12 3 8 4 11 5 9 6 5 7 4 8 2 9 1 10 3 11 10 12
REMARK H PARENT 10 13
REMARK Flexibility Score: inf
ROOT
ATOM      1  C   UNL     1       0.058  -7.629 -32.080  1.00  0.00    -0.025 A 
ATOM      2  C   UNL     1       0.872  -7.674 -30.938  1.00  0.00     0.012 A 
ATOM      3  C   UNL     1      -1.158  -6.925 -32.029  1.00  0.00     0.012 A 
ATOM      4  C   UNL     1       0.504  -6.983 -29.779  1.00  0.00     0.047 A 
ATOM      5  C   UNL     1      -1.524  -6.234 -30.870  1.00  0.00     0.047 A 
ATOM      6  C   UNL     1      -0.694  -6.257 -29.745  1.00  0.00     0.115 A 
ENDROOT
BRANCH   1   7
ATOM      7  C   UNL     1       0.441  -8.411 -33.274  1.00  0.00     0.010 C 
ATOM      8  C   UNL     1       1.204  -7.964 -34.284  1.00  0.00     0.025 C 
BRANCH   8   9
ATOM      9  C   UNL     1       1.942  -6.686 -34.308  1.00  0.00     0.064 C 
ATOM     10  O   UNL     1       1.342  -5.578 -34.315  1.00  0.00    -0.545 OA
ATOM     11  O   UNL     1       3.329  -6.705 -34.251  1.00  0.00    -0.545 OA
ENDBRANCH   8   9
ENDBRANCH   1   7
BRANCH   6  12
ATOM     12  O   UNL     1      -1.072  -5.563 -28.598  1.00  0.00    -0.508 OA
ATOM     13  H   UNL     1      -1.732  -4.795 -28.637  1.00  0.00     0.293 HD
ENDBRANCH   6  12
TORSDOF 3
ENDMDL
MODEL 4
REMARK VINA RESULT:    -4.403      1.740      4.909
REMARK INTER + INTRA:          -5.257
REMARK INTER:                  -5.019
REMARK INTRA:                  -0.238
REMARK UNBOUND:                -0.210
REMARK SMILES O=C([O-])C=Cc1ccc(O)cc1
REMARK SMILES IDX 6 1 7 2 12 3 8 4 11 5 9 6 5 7 4 8 2 9 1 10 3 11 10 12
REMARK H PARENT 10 13
REMARK Flexibility Score: inf
ROOT
ATOM      1  C   UNL     1      -0.823  -7.898 -30.915  1.00  0.00    -0.025 A 
ATOM      2  C   UNL     1      -1.689  -7.256 -31.812  1.00  0.00     0.012 A 
ATOM      3  C   UNL     1       0.566  -7.739 -31.067  1.00  0.00     0.012 A 
ATOM      4  C   UNL     1      -1.179  -6.425 -32.816  1.00  0.00     0.047 A 
ATOM      5  C   UNL     1       1.074  -6.909 -32.070  1.00  0.00     0.047 A 
ATOM      6  C   UNL     1       0.205  -6.247 -32.944  1.00  0.00     0.115 A 
ENDROOT
BRANCH   1   7
ATOM      7  C   UNL     1      -1.383  -8.811 -29.897  1.00  0.00     0.010 C 
ATOM      8  C   UNL     1      -1.887  -8.439 -28.711  1.00  0.00     0.025 C 
BRANCH   8   9
ATOM      9  C   UNL     1      -2.141  -7.050 -28.279  1.00  0.00     0.064 C 
ATOM     10  O   UNL     1      -1.218  -6.320 -27.829  1.00  0.00    -0.545 OA
ATOM     11  O   UNL     1      -3.412  -6.514 -28.437  1.00  0.00    -0.545 OA
ENDBRANCH   8   9
ENDBRANCH   1   7
BRANCH   6  12
ATOM     12  O   UNL     1       0.726  -5.422 -33.938  1.00  0.00    -0.508 OA
ATOM     13  H   UNL     1       0.139  -4.770 -34.447  1.00  0.00     0.293 HD
ENDBRANCH   6  12
TORSDOF 3
ENDMDL
MODEL 5
REMARK VINA RESULT:    -4.389      7.449      9.456
REMARK INTER + INTRA:          -5.241
REMARK INTER:                  -5.118
REMARK INTRA:                  -0.123
REMARK UNBOUND:                -0.210
REMARK SMILES O=C([O-])C=Cc1ccc(O)cc1
REMARK SMILES IDX 6 1 7 2 12 3 8 4 11 5 9 6 5 7 4 8 2 9 1 10 3 11 10 12
REMARK H PARENT 10 13
REMARK Flexibility Score: inf
ROOT
ATOM      1  C   UNL     1       4.936  -3.116 -39.447  1.00  0.00    -0.025 A 
ATOM      2  C   UNL     1       3.576  -2.949 -39.746  1.00  0.00     0.012 A 
ATOM      3  C   UNL     1       5.721  -1.985 -39.160  1.00  0.00     0.012 A 
ATOM      4  C   UNL     1       2.995  -1.676 -39.706  1.00  0.00     0.047 A 
ATOM      5  C   UNL     1       5.139  -0.715 -39.120  1.00  0.00     0.047 A 
ATOM      6  C   UNL     1       3.775  -0.557 -39.389  1.00  0.00     0.115 A 
ENDROOT
BRANCH   1   7
ATOM      7  C   UNL     1       5.539  -4.461 -39.547  1.00  0.00     0.010 C 
ATOM      8  C   UNL     1       5.731  -5.306 -38.522  1.00  0.00     0.025 C 
BRANCH   8   9
ATOM      9  C   UNL     1       5.220  -5.126 -37.149  1.00  0.00     0.064 C 
ATOM     10  O   UNL     1       4.002  -4.894 -36.924  1.00  0.00    -0.545 OA
ATOM     11  O   UNL     1       6.088  -5.286 -36.077  1.00  0.00    -0.545 OA
ENDBRANCH   8   9
ENDBRANCH   1   7
BRANCH   6  12
ATOM     12  O   UNL     1       3.208   0.715 -39.345  1.00  0.00    -0.508 OA
ATOM     13  H   UNL     1       3.587   1.444 -38.750  1.00  0.00     0.293 HD
ENDBRANCH   6  12
TORSDOF 3
ENDMDL
MODEL 6
REMARK VINA RESULT:    -4.357     14.731     16.368
REMARK INTER + INTRA:          -5.205
REMARK INTER:                  -4.929
REMARK INTRA:                  -0.275
REMARK UNBOUND:                -0.210
REMARK SMILES O=C([O-])C=Cc1ccc(O)cc1
REMARK SMILES IDX 6 1 7 2 12 3 8 4 11 5 9 6 5 7 4 8 2 9 1 10 3 11 10 12
REMARK H PARENT 10 13
REMARK Flexibility Score: inf
ROOT
ATOM      1  C   UNL     1     -11.192   4.964 -32.004  1.00  0.00    -0.025 A 
ATOM      2  C   UNL     1     -11.710   3.703 -31.674  1.00  0.00     0.012 A 
ATOM      3  C   UNL     1     -10.321   5.084 -33.102  1.00  0.00     0.012 A 
ATOM      4  C   UNL     1     -11.405   2.586 -32.459  1.00  0.00     0.047 A 
ATOM      5  C   UNL     1     -10.017   3.966 -33.886  1.00  0.00     0.047 A 
ATOM      6  C   UNL     1     -10.561   2.717 -33.570  1.00  0.00     0.115 A 
ENDROOT
BRANCH   1   7
ATOM      7  C   UNL     1     -11.485   6.119 -31.130  1.00  0.00     0.010 C 
ATOM      8  C   UNL     1     -10.741   6.512 -30.084  1.00  0.00     0.025 C 
BRANCH   8   9
ATOM      9  C   UNL     1      -9.411   5.982 -29.724  1.00  0.00     0.064 C 
ATOM     10  O   UNL     1      -9.283   4.929 -29.043  1.00  0.00    -0.545 OA
ATOM     11  O   UNL     1      -8.276   6.619 -30.206  1.00  0.00    -0.545 OA
ENDBRANCH   8   9
ENDBRANCH   1   7
BRANCH   6  12
ATOM     12  O   UNL     1     -10.251   1.612 -34.361  1.00  0.00    -0.508 OA
ATOM     13  H   UNL     1     -10.870   1.300 -35.100  1.00  0.00     0.293 HD
ENDBRANCH   6  12
TORSDOF 3
ENDMDL
MODEL 7
REMARK VINA RESULT:    -4.340     10.061     11.472
REMARK INTER + INTRA:          -5.184
REMARK INTER:                  -4.956
REMARK INTRA:                  -0.228
REMARK UNBOUND:                -0.210
REMARK SMILES O=C([O-])C=Cc1ccc(O)cc1
REMARK SMILES IDX 6 1 7 2 12 3 8 4 11 5 9 6 5 7 4 8 2 9 1 10 3 11 10 12
REMARK H PARENT 10 13
REMARK Flexibility Score: inf
ROOT
ATOM      1  C   UNL     1      -6.619  -4.480 -40.150  1.00  0.00    -0.025 A 
ATOM      2  C   UNL     1      -5.697  -4.571 -41.203  1.00  0.00     0.012 A 
ATOM      3  C   UNL     1      -6.173  -4.659 -38.828  1.00  0.00     0.012 A 
ATOM      4  C   UNL     1      -4.340  -4.785 -40.938  1.00  0.00     0.047 A 
ATOM      5  C   UNL     1      -4.816  -4.873 -38.565  1.00  0.00     0.047 A 
ATOM      6  C   UNL     1      -3.896  -4.933 -39.618  1.00  0.00     0.115 A 
ENDROOT
BRANCH   1   7
ATOM      7  C   UNL     1      -8.054  -4.306 -40.456  1.00  0.00     0.010 C 
ATOM      8  C   UNL     1      -8.740  -3.158 -40.347  1.00  0.00     0.025 C 
BRANCH   8   9
ATOM      9  C   UNL     1      -8.158  -1.828 -40.076  1.00  0.00     0.064 C 
ATOM     10  O   UNL     1      -8.106  -0.937 -40.965  1.00  0.00    -0.545 OA
ATOM     11  O   UNL     1      -7.720  -1.530 -38.792  1.00  0.00    -0.545 OA
ENDBRANCH   8   9
ENDBRANCH   1   7
BRANCH   6  12
ATOM     12  O   UNL     1      -2.548  -5.145 -39.341  1.00  0.00    -0.508 OA
ATOM     13  H   UNL     1      -2.108  -4.751 -38.516  1.00  0.00     0.293 HD
ENDBRANCH   6  12
TORSDOF 3
ENDMDL
MODEL 8
REMARK VINA RESULT:    -4.335      1.539      4.762
REMARK INTER + INTRA:          -5.179
REMARK INTER:                  -5.085
REMARK INTRA:                  -0.094
REMARK UNBOUND:                -0.210
REMARK SMILES O=C([O-])C=Cc1ccc(O)cc1
REMARK SMILES IDX 6 1 7 2 12 3 8 4 11 5 9 6 5 7 4 8 2 9 1 10 3 11 10 12
REMARK H PARENT 10 13
REMARK Flexibility Score: inf
ROOT
ATOM      1  C   UNL     1      -0.176  -7.752 -30.919  1.00  0.00    -0.025 A 
ATOM      2  C   UNL     1       1.181  -7.645 -31.259  1.00  0.00     0.012 A 
ATOM      3  C   UNL     1      -1.132  -7.053 -31.677  1.00  0.00     0.012 A 
ATOM      4  C   UNL     1       1.573  -6.893 -32.372  1.00  0.00     0.047 A 
ATOM      5  C   UNL     1      -0.739  -6.303 -32.789  1.00  0.00     0.047 A 
ATOM      6  C   UNL     1       0.613  -6.223 -33.142  1.00  0.00     0.115 A 
ENDROOT
BRANCH   1   7
ATOM      7  C   UNL     1      -0.561  -8.508 -29.709  1.00  0.00     0.010 C 
ATOM      8  C   UNL     1      -0.485  -8.051 -28.449  1.00  0.00     0.025 C 
BRANCH   8   9
ATOM      9  C   UNL     1      -0.179  -6.663 -28.052  1.00  0.00     0.064 C 
ATOM     10  O   UNL     1      -0.801  -5.684 -28.544  1.00  0.00    -0.545 OA
ATOM     11  O   UNL     1       0.769  -6.435 -27.063  1.00  0.00    -0.545 OA
ENDBRANCH   8   9
ENDBRANCH   1   7
BRANCH   6  12
ATOM     12  O   UNL     1       0.990  -5.473 -34.253  1.00  0.00    -0.508 OA
ATOM     13  H   UNL     1       0.309  -4.957 -34.800  1.00  0.00     0.293 HD
ENDBRANCH   6  12
TORSDOF 3
ENDMDL
