MODEL 1
REMARK VINA RESULT:    -7.270      0.000      0.000
REMARK INTER + INTRA:          -8.857
REMARK INTER:                  -8.546
REMARK INTRA:                  -0.312
REMARK UNBOUND:                -0.312
REMARK SMILES O=c1cc(-c2ccc(O)c(O)c2)oc2cc(O)cc(O)c12
REMARK SMILES IDX 4 1 3 2 2 3 1 4 21 5 19 6 18 7 16 8 15 9 14 10 13 11 5 12
REMARK SMILES IDX 6 13 7 14 8 15 12 16 10 17 9 18 11 20 20 22 17 24
REMARK H PARENT 9 19 11 21 20 23 17 25
REMARK Flexibility Score: inf
ROOT
ATOM      1  C   UNL     1     -12.617 -34.406  32.862  1.00  0.00     0.138 A 
ATOM      2  C   UNL     1     -12.241 -34.853  31.584  1.00  0.00     0.100 A 
ATOM      3  C   UNL     1     -12.430 -36.193  31.243  1.00  0.00     0.197 A 
ATOM      4  O   UNL     1     -12.091 -36.586  30.094  1.00  0.00    -0.289 OA
ATOM      5  C   UNL     1     -12.997 -37.077  32.182  1.00  0.00     0.107 A 
ATOM      6  C   UNL     1     -13.221 -38.449  31.919  1.00  0.00     0.134 A 
ATOM      7  C   UNL     1     -13.796 -39.262  32.906  1.00  0.00     0.093 A 
ATOM      8  C   UNL     1     -14.150 -38.732  34.149  1.00  0.00     0.123 A 
ATOM      9  C   UNL     1     -13.931 -37.376  34.416  1.00  0.00     0.094 A 
ATOM     10  C   UNL     1     -13.359 -36.549  33.445  1.00  0.00     0.146 A 
ATOM     11  O   UNL     1     -13.159 -35.265  33.723  1.00  0.00    -0.456 OA
ENDROOT
BRANCH   1  12
ATOM     12  C   UNL     1     -12.441 -32.992  33.279  1.00  0.00     0.021 A 
ATOM     13  C   UNL     1     -12.314 -31.954  32.339  1.00  0.00     0.016 A 
ATOM     14  C   UNL     1     -12.139 -30.635  32.762  1.00  0.00     0.051 A 
ATOM     15  C   UNL     1     -12.079 -30.322  34.123  1.00  0.00     0.157 A 
ATOM     16  C   UNL     1     -12.367 -32.678  34.648  1.00  0.00     0.062 A 
ATOM     17  C   UNL     1     -12.192 -31.358  35.079  1.00  0.00     0.158 A 
BRANCH  15  18
ATOM     18  O   UNL     1     -11.906 -28.982  34.478  1.00  0.00    -0.504 OA
ATOM     19  H   UNL     1     -11.006 -28.551  34.635  1.00  0.00     0.293 HD
ENDBRANCH  15  18
BRANCH  17  20
ATOM     20  O   UNL     1     -12.137 -31.124  36.455  1.00  0.00    -0.504 OA
ATOM     21  H   UNL     1     -11.278 -31.051  36.981  1.00  0.00     0.293 HD
ENDBRANCH  17  20
ENDBRANCH   1  12
BRANCH   6  22
ATOM     22  O   UNL     1     -12.878 -39.008  30.687  1.00  0.00    -0.507 OA
ATOM     23  H   UNL     1     -13.563 -39.476  30.104  1.00  0.00     0.293 HD
ENDBRANCH   6  22
BRANCH   8  24
ATOM     24  O   UNL     1     -14.720 -39.561  35.112  1.00  0.00    -0.508 OA
ATOM     25  H   UNL     1     -15.712 -39.764  35.118  1.00  0.00     0.293 HD
ENDBRANCH   8  24
TORSDOF 5
ENDMDL
MODEL 2
REMARK VINA RESULT:    -7.120      1.578      7.008
REMARK INTER + INTRA:          -8.680
REMARK INTER:                  -8.385
REMARK INTRA:                  -0.295
REMARK UNBOUND:                -0.312
REMARK SMILES O=c1cc(-c2ccc(O)c(O)c2)oc2cc(O)cc(O)c12
REMARK SMILES IDX 4 1 3 2 2 3 1 4 21 5 19 6 18 7 16 8 15 9 14 10 13 11 5 12
REMARK SMILES IDX 6 13 7 14 8 15 12 16 10 17 9 18 11 20 20 22 17 24
REMARK H PARENT 9 19 11 21 20 23 17 25
REMARK Flexibility Score: inf
ROOT
ATOM      1  C   UNL     1     -12.470 -33.900  33.795  1.00  0.00     0.138 A 
ATOM      2  C   UNL     1     -12.179 -32.820  32.945  1.00  0.00     0.100 A 
ATOM      3  C   UNL     1     -12.224 -31.519  33.449  1.00  0.00     0.197 A 
ATOM      4  O   UNL     1     -11.961 -30.556  32.679  1.00  0.00    -0.289 OA
ATOM      5  C   UNL     1     -12.558 -31.307  34.802  1.00  0.00     0.107 A 
ATOM      6  C   UNL     1     -12.629 -30.024  35.391  1.00  0.00     0.134 A 
ATOM      7  C   UNL     1     -12.963 -29.898  36.747  1.00  0.00     0.093 A 
ATOM      8  C   UNL     1     -13.227 -31.029  37.523  1.00  0.00     0.123 A 
ATOM      9  C   UNL     1     -13.159 -32.302  36.947  1.00  0.00     0.094 A 
ATOM     10  C   UNL     1     -12.828 -32.448  35.596  1.00  0.00     0.146 A 
ATOM     11  O   UNL     1     -12.772 -33.667  35.070  1.00  0.00    -0.456 OA
ENDROOT
BRANCH   1  12
ATOM     12  C   UNL     1     -12.435 -35.305  33.315  1.00  0.00     0.021 A 
ATOM     13  C   UNL     1     -12.802 -36.380  34.144  1.00  0.00     0.016 A 
ATOM     14  C   UNL     1     -12.750 -37.690  33.667  1.00  0.00     0.051 A 
ATOM     15  C   UNL     1     -12.324 -37.961  32.364  1.00  0.00     0.157 A 
ATOM     16  C   UNL     1     -11.994 -35.579  32.008  1.00  0.00     0.062 A 
ATOM     17  C   UNL     1     -11.939 -36.891  31.523  1.00  0.00     0.158 A 
BRANCH  15  18
ATOM     18  O   UNL     1     -12.297 -39.295  31.949  1.00  0.00    -0.504 OA
ATOM     19  H   UNL     1     -12.819 -39.652  31.161  1.00  0.00     0.293 HD
ENDBRANCH  15  18
BRANCH  17  20
ATOM     20  O   UNL     1     -11.498 -37.083  30.212  1.00  0.00    -0.504 OA
ATOM     21  H   UNL     1     -11.186 -37.970  29.846  1.00  0.00     0.293 HD
ENDBRANCH  17  20
ENDBRANCH   1  12
BRANCH   6  22
ATOM     22  O   UNL     1     -12.370 -28.875  34.641  1.00  0.00    -0.507 OA
ATOM     23  H   UNL     1     -12.737 -27.969  34.909  1.00  0.00     0.293 HD
ENDBRANCH   6  22
BRANCH   8  24
ATOM     24  O   UNL     1     -13.556 -30.877  38.868  1.00  0.00    -0.508 OA
ATOM     25  H   UNL     1     -14.262 -31.454  39.310  1.00  0.00     0.293 HD
ENDBRANCH   8  24
TORSDOF 5
ENDMDL
MODEL 3
REMARK VINA RESULT:    -7.039      1.058      2.653
REMARK INTER + INTRA:          -8.585
REMARK INTER:                  -8.294
REMARK INTRA:                  -0.291
REMARK UNBOUND:                -0.312
REMARK SMILES O=c1cc(-c2ccc(O)c(O)c2)oc2cc(O)cc(O)c12
REMARK SMILES IDX 4 1 3 2 2 3 1 4 21 5 19 6 18 7 16 8 15 9 14 10 13 11 5 12
REMARK SMILES IDX 6 13 7 14 8 15 12 16 10 17 9 18 11 20 20 22 17 24
REMARK H PARENT 9 19 11 21 20 23 17 25
REMARK Flexibility Score: inf
ROOT
ATOM      1  C   UNL     1     -12.793 -34.443  33.757  1.00  0.00     0.138 A 
ATOM      2  C   UNL     1     -13.331 -35.247  34.775  1.00  0.00     0.100 A 
ATOM      3  C   UNL     1     -13.540 -36.606  34.538  1.00  0.00     0.197 A 
ATOM      4  O   UNL     1     -14.023 -37.321  35.458  1.00  0.00    -0.289 OA
ATOM      5  C   UNL     1     -13.204 -37.154  33.284  1.00  0.00     0.107 A 
ATOM      6  C   UNL     1     -13.385 -38.519  32.961  1.00  0.00     0.134 A 
ATOM      7  C   UNL     1     -13.020 -38.987  31.690  1.00  0.00     0.093 A 
ATOM      8  C   UNL     1     -12.480 -38.119  30.739  1.00  0.00     0.123 A 
ATOM      9  C   UNL     1     -12.299 -36.767  31.052  1.00  0.00     0.094 A 
ATOM     10  C   UNL     1     -12.657 -36.281  32.313  1.00  0.00     0.146 A 
ATOM     11  O   UNL     1     -12.478 -34.993  32.586  1.00  0.00    -0.456 OA
ENDROOT
BRANCH   1  12
ATOM     12  C   UNL     1     -12.548 -32.992  33.953  1.00  0.00     0.021 A 
ATOM     13  C   UNL     1     -12.376 -32.116  32.865  1.00  0.00     0.016 A 
ATOM     14  C   UNL     1     -12.137 -30.759  33.081  1.00  0.00     0.051 A 
ATOM     15  C   UNL     1     -12.056 -30.244  34.378  1.00  0.00     0.157 A 
ATOM     16  C   UNL     1     -12.453 -32.475  35.257  1.00  0.00     0.062 A 
ATOM     17  C   UNL     1     -12.214 -31.114  35.482  1.00  0.00     0.158 A 
BRANCH  15  18
ATOM     18  O   UNL     1     -11.817 -28.875  34.524  1.00  0.00    -0.504 OA
ATOM     19  H   UNL     1     -11.332 -28.310  33.841  1.00  0.00     0.293 HD
ENDBRANCH  15  18
BRANCH  17  20
ATOM     20  O   UNL     1     -12.141 -30.675  36.805  1.00  0.00    -0.504 OA
ATOM     21  H   UNL     1     -12.864 -30.137  37.262  1.00  0.00     0.293 HD
ENDBRANCH  17  20
ENDBRANCH   1  12
BRANCH   6  22
ATOM     22  O   UNL     1     -13.922 -39.411  33.890  1.00  0.00    -0.507 OA
ATOM     23  H   UNL     1     -14.189 -40.354  33.632  1.00  0.00     0.293 HD
ENDBRANCH   6  22
BRANCH   8  24
ATOM     24  O   UNL     1     -12.126 -38.609  29.484  1.00  0.00    -0.508 OA
ATOM     25  H   UNL     1     -11.161 -38.804  29.244  1.00  0.00     0.293 HD
ENDBRANCH   8  24
TORSDOF 5
ENDMDL
MODEL 4
REMARK VINA RESULT:    -6.953     13.049     16.542
REMARK INTER + INTRA:          -8.484
REMARK INTER:                  -8.186
REMARK INTRA:                  -0.298
REMARK UNBOUND:                -0.312
REMARK SMILES O=c1cc(-c2ccc(O)c(O)c2)oc2cc(O)cc(O)c12
REMARK SMILES IDX 4 1 3 2 2 3 1 4 21 5 19 6 18 7 16 8 15 9 14 10 13 11 5 12
REMARK SMILES IDX 6 13 7 14 8 15 12 16 10 17 9 18 11 20 20 22 17 24
REMARK H PARENT 9 19 11 21 20 23 17 25
REMARK Flexibility Score: inf
ROOT
ATOM      1  C   UNL     1     -16.712 -41.518  46.715  1.00  0.00     0.138 A 
ATOM      2  C   UNL     1     -15.877 -41.792  47.811  1.00  0.00     0.100 A 
ATOM      3  C   UNL     1     -14.838 -40.912  48.119  1.00  0.00     0.197 A 
ATOM      4  O   UNL     1     -14.093 -41.166  49.104  1.00  0.00    -0.289 OA
ATOM      5  C   UNL     1     -14.645 -39.761  47.330  1.00  0.00     0.107 A 
ATOM      6  C   UNL     1     -13.617 -38.819  47.572  1.00  0.00     0.134 A 
ATOM      7  C   UNL     1     -13.495 -37.695  46.743  1.00  0.00     0.093 A 
ATOM      8  C   UNL     1     -14.378 -37.494  45.680  1.00  0.00     0.123 A 
ATOM      9  C   UNL     1     -15.397 -38.421  45.435  1.00  0.00     0.094 A 
ATOM     10  C   UNL     1     -15.534 -39.549  46.250  1.00  0.00     0.146 A 
ATOM     11  O   UNL     1     -16.508 -40.417  45.996  1.00  0.00    -0.456 OA
ENDROOT
BRANCH   1  12
ATOM     12  C   UNL     1     -17.833 -42.417  46.342  1.00  0.00     0.021 A 
ATOM     13  C   UNL     1     -18.641 -43.036  47.314  1.00  0.00     0.016 A 
ATOM     14  C   UNL     1     -19.681 -43.884  46.932  1.00  0.00     0.051 A 
ATOM     15  C   UNL     1     -19.935 -44.143  45.582  1.00  0.00     0.157 A 
ATOM     16  C   UNL     1     -18.081 -42.689  44.985  1.00  0.00     0.062 A 
ATOM     17  C   UNL     1     -19.123 -43.539  44.595  1.00  0.00     0.158 A 
BRANCH  15  18
ATOM     18  O   UNL     1     -20.993 -45.000  45.269  1.00  0.00    -0.504 OA
ATOM     19  H   UNL     1     -21.611 -45.409  45.956  1.00  0.00     0.293 HD
ENDBRANCH  15  18
BRANCH  17  20
ATOM     20  O   UNL     1     -19.312 -43.753  43.228  1.00  0.00    -0.504 OA
ATOM     21  H   UNL     1     -20.031 -44.349  42.844  1.00  0.00     0.293 HD
ENDBRANCH  17  20
ENDBRANCH   1  12
BRANCH   6  22
ATOM     22  O   UNL     1     -12.719 -38.993  48.627  1.00  0.00    -0.507 OA
ATOM     23  H   UNL     1     -13.029 -39.022  49.591  1.00  0.00     0.293 HD
ENDBRANCH   6  22
BRANCH   8  24
ATOM     24  O   UNL     1     -14.235 -36.369  44.871  1.00  0.00    -0.508 OA
ATOM     25  H   UNL     1     -13.403 -36.219  44.313  1.00  0.00     0.293 HD
ENDBRANCH   8  24
TORSDOF 5
ENDMDL
MODEL 5
REMARK VINA RESULT:    -6.713      1.901      7.141
REMARK INTER + INTRA:          -8.202
REMARK INTER:                  -7.889
REMARK INTRA:                  -0.313
REMARK UNBOUND:                -0.312
REMARK SMILES O=c1cc(-c2ccc(O)c(O)c2)oc2cc(O)cc(O)c12
REMARK SMILES IDX 4 1 3 2 2 3 1 4 21 5 19 6 18 7 16 8 15 9 14 10 13 11 5 12
REMARK SMILES IDX 6 13 7 14 8 15 12 16 10 17 9 18 11 20 20 22 17 24
REMARK H PARENT 9 19 11 21 20 23 17 25
REMARK Flexibility Score: inf
ROOT
ATOM      1  C   UNL     1     -12.553 -34.786  33.712  1.00  0.00     0.138 A 
ATOM      2  C   UNL     1     -12.923 -35.146  35.019  1.00  0.00     0.100 A 
ATOM      3  C   UNL     1     -13.006 -34.162  36.005  1.00  0.00     0.197 A 
ATOM      4  O   UNL     1     -13.339 -34.493  37.174  1.00  0.00    -0.289 OA
ATOM      5  C   UNL     1     -12.720 -32.821  35.675  1.00  0.00     0.107 A 
ATOM      6  C   UNL     1     -12.778 -31.764  36.612  1.00  0.00     0.134 A 
ATOM      7  C   UNL     1     -12.484 -30.455  36.203  1.00  0.00     0.093 A 
ATOM      8  C   UNL     1     -12.136 -30.184  34.878  1.00  0.00     0.123 A 
ATOM      9  C   UNL     1     -12.076 -31.226  33.946  1.00  0.00     0.094 A 
ATOM     10  C   UNL     1     -12.365 -32.537  34.335  1.00  0.00     0.146 A 
ATOM     11  O   UNL     1     -12.300 -33.510  33.432  1.00  0.00    -0.456 OA
ENDROOT
BRANCH   1  12
ATOM     12  C   UNL     1     -12.451 -35.791  32.623  1.00  0.00     0.021 A 
ATOM     13  C   UNL     1     -12.289 -37.161  32.894  1.00  0.00     0.016 A 
ATOM     14  C   UNL     1     -12.186 -38.081  31.849  1.00  0.00     0.051 A 
ATOM     15  C   UNL     1     -12.233 -37.659  30.517  1.00  0.00     0.157 A 
ATOM     16  C   UNL     1     -12.485 -35.366  31.283  1.00  0.00     0.062 A 
ATOM     17  C   UNL     1     -12.383 -36.282  30.230  1.00  0.00     0.158 A 
BRANCH  15  18
ATOM     18  O   UNL     1     -12.126 -38.631  29.519  1.00  0.00    -0.504 OA
ATOM     19  H   UNL     1     -11.548 -38.535  28.697  1.00  0.00     0.293 HD
ENDBRANCH  15  18
BRANCH  17  20
ATOM     20  O   UNL     1     -12.433 -35.784  28.926  1.00  0.00    -0.504 OA
ATOM     21  H   UNL     1     -12.568 -34.810  28.699  1.00  0.00     0.293 HD
ENDBRANCH  17  20
ENDBRANCH   1  12
BRANCH   6  22
ATOM     22  O   UNL     1     -13.124 -32.003  37.943  1.00  0.00    -0.507 OA
ATOM     23  H   UNL     1     -12.781 -31.419  38.697  1.00  0.00     0.293 HD
ENDBRANCH   6  22
BRANCH   8  24
ATOM     24  O   UNL     1     -11.849 -28.875  34.497  1.00  0.00    -0.508 OA
ATOM     25  H   UNL     1     -11.585 -28.645  33.547  1.00  0.00     0.293 HD
ENDBRANCH   8  24
TORSDOF 5
ENDMDL
MODEL 6
REMARK VINA RESULT:    -6.681      3.089      8.598
REMARK INTER + INTRA:          -8.164
REMARK INTER:                  -7.846
REMARK INTRA:                  -0.318
REMARK UNBOUND:                -0.312
REMARK SMILES O=c1cc(-c2ccc(O)c(O)c2)oc2cc(O)cc(O)c12
REMARK SMILES IDX 4 1 3 2 2 3 1 4 21 5 19 6 18 7 16 8 15 9 14 10 13 11 5 12
REMARK SMILES IDX 6 13 7 14 8 15 12 16 10 17 9 18 11 20 20 22 17 24
REMARK H PARENT 9 19 11 21 20 23 17 25
REMARK Flexibility Score: inf
ROOT
ATOM      1  C   UNL     1     -14.865 -39.621  34.445  1.00  0.00     0.138 A 
ATOM      2  C   UNL     1     -15.034 -38.559  35.350  1.00  0.00     0.100 A 
ATOM      3  C   UNL     1     -14.396 -37.342  35.108  1.00  0.00     0.197 A 
ATOM      4  O   UNL     1     -14.553 -36.395  35.924  1.00  0.00    -0.289 OA
ATOM      5  C   UNL     1     -13.594 -37.194  33.958  1.00  0.00     0.107 A 
ATOM      6  C   UNL     1     -12.911 -35.998  33.638  1.00  0.00     0.134 A 
ATOM      7  C   UNL     1     -12.137 -35.929  32.471  1.00  0.00     0.093 A 
ATOM      8  C   UNL     1     -12.032 -37.031  31.620  1.00  0.00     0.123 A 
ATOM      9  C   UNL     1     -12.705 -38.218  31.930  1.00  0.00     0.094 A 
ATOM     10  C   UNL     1     -13.481 -38.306  33.090  1.00  0.00     0.146 A 
ATOM     11  O   UNL     1     -14.109 -39.445  33.364  1.00  0.00    -0.456 OA
ENDROOT
BRANCH   1  12
ATOM     12  C   UNL     1     -15.521 -40.937  34.651  1.00  0.00     0.021 A 
ATOM     13  C   UNL     1     -16.400 -41.165  35.726  1.00  0.00     0.016 A 
ATOM     14  C   UNL     1     -16.994 -42.416  35.899  1.00  0.00     0.051 A 
ATOM     15  C   UNL     1     -16.722 -43.466  35.017  1.00  0.00     0.157 A 
ATOM     16  C   UNL     1     -15.238 -41.997  33.773  1.00  0.00     0.062 A 
ATOM     17  C   UNL     1     -15.830 -43.255  33.941  1.00  0.00     0.158 A 
BRANCH  15  18
ATOM     18  O   UNL     1     -17.352 -44.692  35.247  1.00  0.00    -0.504 OA
ATOM     19  H   UNL     1     -16.968 -45.584  34.972  1.00  0.00     0.293 HD
ENDBRANCH  15  18
BRANCH  17  20
ATOM     20  O   UNL     1     -15.506 -44.255  33.022  1.00  0.00    -0.504 OA
ATOM     21  H   UNL     1     -14.809 -44.967  33.187  1.00  0.00     0.293 HD
ENDBRANCH  17  20
ENDBRANCH   1  12
BRANCH   6  22
ATOM     22  O   UNL     1     -12.996 -34.879  34.469  1.00  0.00    -0.507 OA
ATOM     23  H   UNL     1     -13.574 -34.877  35.302  1.00  0.00     0.293 HD
ENDBRANCH   6  22
BRANCH   8  24
ATOM     24  O   UNL     1     -11.257 -36.937  30.467  1.00  0.00    -0.508 OA
ATOM     25  H   UNL     1     -10.726 -36.101  30.251  1.00  0.00     0.293 HD
ENDBRANCH   8  24
TORSDOF 5
ENDMDL
MODEL 7
REMARK VINA RESULT:    -6.498      3.955      6.250
REMARK INTER + INTRA:          -7.949
REMARK INTER:                  -7.632
REMARK INTRA:                  -0.317
REMARK UNBOUND:                -0.312
REMARK SMILES O=c1cc(-c2ccc(O)c(O)c2)oc2cc(O)cc(O)c12
REMARK SMILES IDX 4 1 3 2 2 3 1 4 21 5 19 6 18 7 16 8 15 9 14 10 13 11 5 12
REMARK SMILES IDX 6 13 7 14 8 15 12 16 10 17 9 18 11 20 20 22 17 24
REMARK H PARENT 9 19 11 21 20 23 17 25
REMARK Flexibility Score: inf
ROOT
ATOM      1  C   UNL     1     -14.206 -38.588  33.347  1.00  0.00     0.138 A 
ATOM      2  C   UNL     1     -14.533 -37.975  34.568  1.00  0.00     0.100 A 
ATOM      3  C   UNL     1     -15.158 -38.725  35.566  1.00  0.00     0.197 A 
ATOM      4  O   UNL     1     -15.448 -38.167  36.659  1.00  0.00    -0.289 OA
ATOM      5  C   UNL     1     -15.449 -40.085  35.336  1.00  0.00     0.107 A 
ATOM      6  C   UNL     1     -16.081 -40.914  36.292  1.00  0.00     0.134 A 
ATOM      7  C   UNL     1     -16.331 -42.260  35.988  1.00  0.00     0.093 A 
ATOM      8  C   UNL     1     -15.961 -42.791  34.751  1.00  0.00     0.123 A 
ATOM      9  C   UNL     1     -15.336 -41.976  33.800  1.00  0.00     0.094 A 
ATOM     10  C   UNL     1     -15.079 -40.632  34.084  1.00  0.00     0.146 A 
ATOM     11  O   UNL     1     -14.486 -39.877  33.165  1.00  0.00    -0.456 OA
ENDROOT
BRANCH   1  12
ATOM     12  C   UNL     1     -13.539 -37.841  32.251  1.00  0.00     0.021 A 
ATOM     13  C   UNL     1     -13.395 -36.442  32.289  1.00  0.00     0.016 A 
ATOM     14  C   UNL     1     -12.772 -35.767  31.239  1.00  0.00     0.051 A 
ATOM     15  C   UNL     1     -12.289 -36.463  30.127  1.00  0.00     0.157 A 
ATOM     16  C   UNL     1     -13.065 -38.539  31.126  1.00  0.00     0.062 A 
ATOM     17  C   UNL     1     -12.439 -37.868  30.068  1.00  0.00     0.158 A 
BRANCH  15  18
ATOM     18  O   UNL     1     -11.674 -35.726  29.112  1.00  0.00    -0.504 OA
ATOM     19  H   UNL     1     -12.176 -35.170  28.434  1.00  0.00     0.293 HD
ENDBRANCH  15  18
BRANCH  17  20
ATOM     20  O   UNL     1     -11.986 -38.630  28.990  1.00  0.00    -0.504 OA
ATOM     21  H   UNL     1     -11.814 -39.624  29.034  1.00  0.00     0.293 HD
ENDBRANCH  17  20
ENDBRANCH   1  12
BRANCH   6  22
ATOM     22  O   UNL     1     -16.462 -40.412  37.537  1.00  0.00    -0.507 OA
ATOM     23  H   UNL     1     -17.022 -40.956  38.183  1.00  0.00     0.293 HD
ENDBRANCH   6  22
BRANCH   8  24
ATOM     24  O   UNL     1     -16.221 -44.132  34.473  1.00  0.00    -0.508 OA
ATOM     25  H   UNL     1     -16.301 -44.820  35.212  1.00  0.00     0.293 HD
ENDBRANCH   8  24
TORSDOF 5
ENDMDL
MODEL 8
REMARK VINA RESULT:    -6.425      2.109      7.353
REMARK INTER + INTRA:          -7.863
REMARK INTER:                  -7.582
REMARK INTRA:                  -0.281
REMARK UNBOUND:                -0.312
REMARK SMILES O=c1cc(-c2ccc(O)c(O)c2)oc2cc(O)cc(O)c12
REMARK SMILES IDX 4 1 3 2 2 3 1 4 21 5 19 6 18 7 16 8 15 9 14 10 13 11 5 12
REMARK SMILES IDX 6 13 7 14 8 15 12 16 10 17 9 18 11 20 20 22 17 24
REMARK H PARENT 9 19 11 21 20 23 17 25
REMARK Flexibility Score: inf
ROOT
ATOM      1  C   UNL     1     -14.048 -38.102  33.689  1.00  0.00     0.138 A 
ATOM      2  C   UNL     1     -13.887 -37.965  32.300  1.00  0.00     0.100 A 
ATOM      3  C   UNL     1     -13.303 -36.805  31.788  1.00  0.00     0.197 A 
ATOM      4  O   UNL     1     -13.162 -36.691  30.541  1.00  0.00    -0.289 OA
ATOM      5  C   UNL     1     -12.881 -35.791  32.670  1.00  0.00     0.107 A 
ATOM      6  C   UNL     1     -12.283 -34.585  32.236  1.00  0.00     0.134 A 
ATOM      7  C   UNL     1     -11.885 -33.627  33.179  1.00  0.00     0.093 A 
ATOM      8  C   UNL     1     -12.073 -33.850  34.544  1.00  0.00     0.123 A 
ATOM      9  C   UNL     1     -12.665 -35.040  34.981  1.00  0.00     0.094 A 
ATOM     10  C   UNL     1     -13.069 -36.008  34.057  1.00  0.00     0.146 A 
ATOM     11  O   UNL     1     -13.630 -37.129  34.496  1.00  0.00    -0.456 OA
ENDROOT
BRANCH   1  12
ATOM     12  C   UNL     1     -14.661 -39.314  34.290  1.00  0.00     0.021 A 
ATOM     13  C   UNL     1     -15.499 -39.238  35.417  1.00  0.00     0.016 A 
ATOM     14  C   UNL     1     -16.052 -40.396  35.965  1.00  0.00     0.051 A 
ATOM     15  C   UNL     1     -15.779 -41.651  35.413  1.00  0.00     0.157 A 
ATOM     16  C   UNL     1     -14.376 -40.577  33.743  1.00  0.00     0.062 A 
ATOM     17  C   UNL     1     -14.928 -41.743  34.287  1.00  0.00     0.158 A 
BRANCH  15  18
ATOM     18  O   UNL     1     -16.367 -42.769  36.008  1.00  0.00    -0.504 OA
ATOM     19  H   UNL     1     -17.136 -43.286  35.605  1.00  0.00     0.293 HD
ENDBRANCH  15  18
BRANCH  17  20
ATOM     20  O   UNL     1     -14.606 -42.960  33.683  1.00  0.00    -0.504 OA
ATOM     21  H   UNL     1     -14.665 -43.854  34.148  1.00  0.00     0.293 HD
ENDBRANCH  17  20
ENDBRANCH   1  12
BRANCH   6  22
ATOM     22  O   UNL     1     -12.081 -34.334  30.878  1.00  0.00    -0.507 OA
ATOM     23  H   UNL     1     -11.932 -35.084  30.213  1.00  0.00     0.293 HD
ENDBRANCH   6  22
BRANCH   8  24
ATOM     24  O   UNL     1     -11.669 -32.882  35.461  1.00  0.00    -0.508 OA
ATOM     25  H   UNL     1     -10.710 -32.557  35.501  1.00  0.00     0.293 HD
ENDBRANCH   8  24
TORSDOF 5
ENDMDL
MODEL 9
REMARK VINA RESULT:    -6.423      1.752      6.518
REMARK INTER + INTRA:          -7.861
REMARK INTER:                  -7.543
REMARK INTRA:                  -0.318
REMARK UNBOUND:                -0.312
REMARK SMILES O=c1cc(-c2ccc(O)c(O)c2)oc2cc(O)cc(O)c12
REMARK SMILES IDX 4 1 3 2 2 3 1 4 21 5 19 6 18 7 16 8 15 9 14 10 13 11 5 12
REMARK SMILES IDX 6 13 7 14 8 15 12 16 10 17 9 18 11 20 20 22 17 24
REMARK H PARENT 9 19 11 21 20 23 17 25
REMARK Flexibility Score: inf
ROOT
ATOM      1  C   UNL     1     -12.490 -34.514  32.387  1.00  0.00     0.138 A 
ATOM      2  C   UNL     1     -12.155 -33.224  31.943  1.00  0.00     0.100 A 
ATOM      3  C   UNL     1     -12.177 -32.160  32.847  1.00  0.00     0.197 A 
ATOM      4  O   UNL     1     -11.874 -31.006  32.441  1.00  0.00    -0.289 OA
ATOM      5  C   UNL     1     -12.532 -32.396  34.190  1.00  0.00     0.107 A 
ATOM      6  C   UNL     1     -12.582 -31.376  35.169  1.00  0.00     0.134 A 
ATOM      7  C   UNL     1     -12.939 -31.694  36.487  1.00  0.00     0.093 A 
ATOM      8  C   UNL     1     -13.248 -33.008  36.845  1.00  0.00     0.123 A 
ATOM      9  C   UNL     1     -13.201 -34.022  35.881  1.00  0.00     0.094 A 
ATOM     10  C   UNL     1     -12.847 -33.725  34.562  1.00  0.00     0.146 A 
ATOM     11  O   UNL     1     -12.812 -34.704  33.664  1.00  0.00    -0.456 OA
ENDROOT
BRANCH   1  12
ATOM     12  C   UNL     1     -12.482 -35.683  31.471  1.00  0.00     0.021 A 
ATOM     13  C   UNL     1     -12.345 -35.531  30.079  1.00  0.00     0.016 A 
ATOM     14  C   UNL     1     -12.351 -36.648  29.243  1.00  0.00     0.051 A 
ATOM     15  C   UNL     1     -12.502 -37.935  29.768  1.00  0.00     0.157 A 
ATOM     16  C   UNL     1     -12.647 -36.976  31.997  1.00  0.00     0.062 A 
ATOM     17  C   UNL     1     -12.654 -38.101  31.164  1.00  0.00     0.158 A 
BRANCH  15  18
ATOM     18  O   UNL     1     -12.496 -39.010  28.875  1.00  0.00    -0.504 OA
ATOM     19  H   UNL     1     -12.559 -38.911  27.872  1.00  0.00     0.293 HD
ENDBRANCH  15  18
BRANCH  17  20
ATOM     20  O   UNL     1     -12.814 -39.353  31.761  1.00  0.00    -0.504 OA
ATOM     21  H   UNL     1     -13.705 -39.731  32.050  1.00  0.00     0.293 HD
ENDBRANCH  17  20
ENDBRANCH   1  12
BRANCH   6  22
ATOM     22  O   UNL     1     -12.278 -30.053  34.842  1.00  0.00    -0.507 OA
ATOM     23  H   UNL     1     -12.853 -29.517  34.202  1.00  0.00     0.293 HD
ENDBRANCH   6  22
BRANCH   8  24
ATOM     24  O   UNL     1     -13.600 -33.297  38.161  1.00  0.00    -0.508 OA
ATOM     25  H   UNL     1     -13.778 -32.563  38.836  1.00  0.00     0.293 HD
ENDBRANCH   8  24
TORSDOF 5
ENDMDL
