MODEL 1
REMARK VINA RESULT:    -4.447      0.000      0.000
REMARK INTER + INTRA:          -8.110
REMARK INTER:                  -7.046
REMARK INTRA:                  -1.064
REMARK UNBOUND:                -1.064
REMARK SMILES CCCCCCCCCCCC(=O)[O-]
REMARK SMILES IDX 7 1 8 2 9 3 10 4 11 5 12 6 13 7 14 8 6 9 5 10 4 11 3 12 2 13
REMARK SMILES IDX 1 14
REMARK H PARENT
REMARK Flexibility Score: inf
ROOT
ATOM      1  C   UNL     1      53.685  23.711  48.963  1.00  0.00     0.000 C 
ENDROOT
BRANCH   1   2
ATOM      2  C   UNL     1      53.474  24.994  49.776  1.00  0.00     0.000 C 
BRANCH   2   3
ATOM      3  C   UNL     1      53.738  24.748  51.269  1.00  0.00     0.000 C 
BRANCH   3   4
ATOM      4  C   UNL     1      53.935  23.261  51.599  1.00  0.00     0.006 C 
BRANCH   4   5
ATOM      5  C   UNL     1      52.853  22.714  52.538  1.00  0.00     0.053 C 
BRANCH   5   6
ATOM      6  C   UNL     1      53.336  21.479  53.230  1.00  0.00     0.041 C 
ATOM      7  O   UNL     1      52.516  20.594  53.591  1.00  0.00    -0.550 OA
ATOM      8  O   UNL     1      54.685  21.327  53.522  1.00  0.00    -0.550 OA
ENDBRANCH   5   6
ENDBRANCH   4   5
ENDBRANCH   3   4
ENDBRANCH   2   3
ENDBRANCH   1   2
BRANCH   1   9
ATOM      9  C   UNL     1      54.216  24.027  47.560  1.00  0.00     0.000 C 
BRANCH   9  10
ATOM     10  C   UNL     1      55.747  23.961  47.522  1.00  0.00    -0.000 C 
BRANCH  10  11
ATOM     11  C   UNL     1      56.275  22.884  48.477  1.00  0.00    -0.000 C 
BRANCH  11  12
ATOM     12  C   UNL     1      56.779  21.661  47.702  1.00  0.00    -0.000 C 
BRANCH  12  13
ATOM     13  C   UNL     1      56.546  20.371  48.497  1.00  0.00    -0.003 C 
ATOM     14  C   UNL     1      55.708  20.635  49.745  1.00  0.00     0.004 C 
ENDBRANCH  12  13
ENDBRANCH  11  12
ENDBRANCH  10  11
ENDBRANCH   9  10
ENDBRANCH   1   9
TORSDOF 10
ENDMDL
MODEL 2
REMARK VINA RESULT:    -4.375      0.670      1.037
REMARK INTER + INTRA:          -7.997
REMARK INTER:                  -7.059
REMARK INTRA:                  -0.937
REMARK UNBOUND:                -1.064
REMARK SMILES CCCCCCCCCCCC(=O)[O-]
REMARK SMILES IDX 7 1 8 2 9 3 10 4 11 5 12 6 13 7 14 8 6 9 5 10 4 11 3 12 2 13
REMARK SMILES IDX 1 14
REMARK H PARENT
REMARK Flexibility Score: inf
ROOT
ATOM      1  C   UNL     1      53.790  23.644  48.730  1.00  0.00     0.000 C 
ENDROOT
BRANCH   1   2
ATOM      2  C   UNL     1      53.454  24.689  49.802  1.00  0.00     0.000 C 
BRANCH   2   3
ATOM      3  C   UNL     1      53.984  24.257  51.176  1.00  0.00     0.000 C 
BRANCH   3   4
ATOM      4  C   UNL     1      53.039  23.284  51.897  1.00  0.00     0.006 C 
BRANCH   4   5
ATOM      5  C   UNL     1      53.764  22.044  52.436  1.00  0.00     0.053 C 
BRANCH   5   6
ATOM      6  C   UNL     1      53.028  21.476  53.608  1.00  0.00     0.041 C 
ATOM      7  O   UNL     1      53.624  21.294  54.702  1.00  0.00    -0.550 OA
ATOM      8  O   UNL     1      51.698  21.099  53.478  1.00  0.00    -0.550 OA
ENDBRANCH   5   6
ENDBRANCH   4   5
ENDBRANCH   3   4
ENDBRANCH   2   3
ENDBRANCH   1   2
BRANCH   1   9
ATOM      9  C   UNL     1      54.457  24.297  47.513  1.00  0.00     0.000 C 
BRANCH   9  10
ATOM     10  C   UNL     1      55.940  23.919  47.429  1.00  0.00    -0.000 C 
BRANCH  10  11
ATOM     11  C   UNL     1      56.283  22.809  48.430  1.00  0.00    -0.000 C 
BRANCH  11  12
ATOM     12  C   UNL     1      56.861  21.582  47.715  1.00  0.00    -0.000 C 
BRANCH  12  13
ATOM     13  C   UNL     1      56.493  20.291  48.454  1.00  0.00    -0.003 C 
ATOM     14  C   UNL     1      55.646  20.583  49.689  1.00  0.00     0.004 C 
ENDBRANCH  12  13
ENDBRANCH  11  12
ENDBRANCH  10  11
ENDBRANCH   9  10
ENDBRANCH   1   9
TORSDOF 10
ENDMDL
MODEL 3
REMARK VINA RESULT:    -4.333      1.573      1.895
REMARK INTER + INTRA:          -7.931
REMARK INTER:                  -6.808
REMARK INTRA:                  -1.123
REMARK UNBOUND:                -1.064
REMARK SMILES CCCCCCCCCCCC(=O)[O-]
REMARK SMILES IDX 7 1 8 2 9 3 10 4 11 5 12 6 13 7 14 8 6 9 5 10 4 11 3 12 2 13
REMARK SMILES IDX 1 14
REMARK H PARENT
REMARK Flexibility Score: inf
ROOT
ATOM      1  C   UNL     1      53.756  23.501  48.867  1.00  0.00     0.000 C 
ENDROOT
BRANCH   1   2
ATOM      2  C   UNL     1      53.394  24.548  49.927  1.00  0.00     0.000 C 
BRANCH   2   3
ATOM      3  C   UNL     1      53.495  23.957  51.341  1.00  0.00     0.000 C 
BRANCH   3   4
ATOM      4  C   UNL     1      54.949  23.744  51.790  1.00  0.00     0.006 C 
BRANCH   4   5
ATOM      5  C   UNL     1      55.101  22.565  52.761  1.00  0.00     0.053 C 
BRANCH   5   6
ATOM      6  C   UNL     1      56.548  22.280  53.014  1.00  0.00     0.041 C 
ATOM      7  O   UNL     1      56.926  21.106  53.269  1.00  0.00    -0.550 OA
ATOM      8  O   UNL     1      57.471  23.317  53.018  1.00  0.00    -0.550 OA
ENDBRANCH   5   6
ENDBRANCH   4   5
ENDBRANCH   3   4
ENDBRANCH   2   3
ENDBRANCH   1   2
BRANCH   1   9
ATOM      9  C   UNL     1      54.316  24.165  47.603  1.00  0.00     0.000 C 
BRANCH   9  10
ATOM     10  C   UNL     1      55.842  24.037  47.544  1.00  0.00    -0.000 C 
BRANCH  10  11
ATOM     11  C   UNL     1      56.337  22.911  48.461  1.00  0.00    -0.000 C 
BRANCH  11  12
ATOM     12  C   UNL     1      56.811  21.704  47.644  1.00  0.00    -0.000 C 
BRANCH  12  13
ATOM     13  C   UNL     1      56.572  20.396  48.406  1.00  0.00    -0.003 C 
ATOM     14  C   UNL     1      55.748  20.634  49.668  1.00  0.00     0.004 C 
ENDBRANCH  12  13
ENDBRANCH  11  12
ENDBRANCH  10  11
ENDBRANCH   9  10
ENDBRANCH   1   9
TORSDOF 10
ENDMDL
MODEL 4
REMARK VINA RESULT:    -4.238      1.524      2.033
REMARK INTER + INTRA:          -7.779
REMARK INTER:                  -6.704
REMARK INTRA:                  -1.075
REMARK UNBOUND:                -1.064
REMARK SMILES CCCCCCCCCCCC(=O)[O-]
REMARK SMILES IDX 7 1 8 2 9 3 10 4 11 5 12 6 13 7 14 8 6 9 5 10 4 11 3 12 2 13
REMARK SMILES IDX 1 14
REMARK H PARENT
REMARK Flexibility Score: inf
ROOT
ATOM      1  C   UNL     1      53.455  25.058  49.368  1.00  0.00     0.000 C 
ENDROOT
BRANCH   1   2
ATOM      2  C   UNL     1      53.834  24.726  50.817  1.00  0.00     0.000 C 
BRANCH   2   3
ATOM      3  C   UNL     1      53.109  23.461  51.299  1.00  0.00     0.000 C 
BRANCH   3   4
ATOM      4  C   UNL     1      53.840  22.763  52.456  1.00  0.00     0.006 C 
BRANCH   4   5
ATOM      5  C   UNL     1      54.831  21.697  51.971  1.00  0.00     0.053 C 
BRANCH   5   6
ATOM      6  C   UNL     1      56.199  21.969  52.512  1.00  0.00     0.041 C 
ATOM      7  O   UNL     1      56.877  21.037  53.018  1.00  0.00    -0.550 OA
ATOM      8  O   UNL     1      56.706  23.262  52.502  1.00  0.00    -0.550 OA
ENDBRANCH   5   6
ENDBRANCH   4   5
ENDBRANCH   3   4
ENDBRANCH   2   3
ENDBRANCH   1   2
BRANCH   1   9
ATOM      9  C   UNL     1      53.770  23.884  48.433  1.00  0.00     0.000 C 
BRANCH   9  10
ATOM     10  C   UNL     1      54.738  24.310  47.322  1.00  0.00    -0.000 C 
BRANCH  10  11
ATOM     11  C   UNL     1      56.149  23.770  47.585  1.00  0.00    -0.000 C 
BRANCH  11  12
ATOM     12  C   UNL     1      56.114  22.594  48.568  1.00  0.00    -0.000 C 
BRANCH  12  13
ATOM     13  C   UNL     1      56.732  21.337  47.944  1.00  0.00    -0.003 C 
ATOM     14  C   UNL     1      56.357  20.087  48.735  1.00  0.00     0.004 C 
ENDBRANCH  12  13
ENDBRANCH  11  12
ENDBRANCH  10  11
ENDBRANCH   9  10
ENDBRANCH   1   9
TORSDOF 10
ENDMDL
MODEL 5
REMARK VINA RESULT:    -4.150      1.138      1.819
REMARK INTER + INTRA:          -7.641
REMARK INTER:                  -6.314
REMARK INTRA:                  -1.327
REMARK UNBOUND:                -1.064
REMARK SMILES CCCCCCCCCCCC(=O)[O-]
REMARK SMILES IDX 7 1 8 2 9 3 10 4 11 5 12 6 13 7 14 8 6 9 5 10 4 11 3 12 2 13
REMARK SMILES IDX 1 14
REMARK H PARENT
REMARK Flexibility Score: inf
ROOT
ATOM      1  C   UNL     1      54.503  24.945  50.256  1.00  0.00     0.000 C 
ENDROOT
BRANCH   1   2
ATOM      2  C   UNL     1      54.607  24.422  51.694  1.00  0.00     0.000 C 
BRANCH   2   3
ATOM      3  C   UNL     1      55.859  23.552  51.874  1.00  0.00     0.000 C 
BRANCH   3   4
ATOM      4  C   UNL     1      55.562  22.229  52.595  1.00  0.00     0.006 C 
BRANCH   4   5
ATOM      5  C   UNL     1      54.180  21.662  52.244  1.00  0.00     0.053 C 
BRANCH   5   6
ATOM      6  C   UNL     1      53.415  21.342  53.490  1.00  0.00     0.041 C 
ATOM      7  O   UNL     1      53.877  21.662  54.617  1.00  0.00    -0.550 OA
ATOM      8  O   UNL     1      52.216  20.646  53.410  1.00  0.00    -0.550 OA
ENDBRANCH   5   6
ENDBRANCH   4   5
ENDBRANCH   3   4
ENDBRANCH   2   3
ENDBRANCH   1   2
BRANCH   1   9
ATOM      9  C   UNL     1      53.543  24.087  49.424  1.00  0.00     0.000 C 
BRANCH   9  10
ATOM     10  C   UNL     1      54.218  23.594  48.139  1.00  0.00    -0.000 C 
BRANCH  10  11
ATOM     11  C   UNL     1      55.742  23.742  48.226  1.00  0.00    -0.000 C 
BRANCH  11  12
ATOM     12  C   UNL     1      56.441  22.402  47.971  1.00  0.00    -0.000 C 
BRANCH  12  13
ATOM     13  C   UNL     1      55.973  21.338  48.971  1.00  0.00    -0.003 C 
ATOM     14  C   UNL     1      56.392  19.940  48.526  1.00  0.00     0.004 C 
ENDBRANCH  12  13
ENDBRANCH  11  12
ENDBRANCH  10  11
ENDBRANCH   9  10
ENDBRANCH   1   9
TORSDOF 10
ENDMDL
MODEL 6
REMARK VINA RESULT:    -4.096      1.850      3.458
REMARK INTER + INTRA:          -7.555
REMARK INTER:                  -6.533
REMARK INTRA:                  -1.021
REMARK UNBOUND:                -1.064
REMARK SMILES CCCCCCCCCCCC(=O)[O-]
REMARK SMILES IDX 7 1 8 2 9 3 10 4 11 5 12 6 13 7 14 8 6 9 5 10 4 11 3 12 2 13
REMARK SMILES IDX 1 14
REMARK H PARENT
REMARK Flexibility Score: inf
ROOT
ATOM      1  C   UNL     1      56.073  21.476  49.976  1.00  0.00     0.000 C 
ENDROOT
BRANCH   1   2
ATOM      2  C   UNL     1      54.794  20.852  50.549  1.00  0.00     0.000 C 
BRANCH   2   3
ATOM      3  C   UNL     1      54.304  21.633  51.778  1.00  0.00     0.000 C 
BRANCH   3   4
ATOM      4  C   UNL     1      55.400  21.814  52.839  1.00  0.00     0.006 C 
BRANCH   4   5
ATOM      5  C   UNL     1      54.944  21.381  54.239  1.00  0.00     0.053 C 
BRANCH   5   6
ATOM      6  C   UNL     1      55.910  21.861  55.276  1.00  0.00     0.041 C 
ATOM      7  O   UNL     1      56.936  21.183  55.546  1.00  0.00    -0.550 OA
ATOM      8  O   UNL     1      55.652  23.030  55.979  1.00  0.00    -0.550 OA
ENDBRANCH   5   6
ENDBRANCH   4   5
ENDBRANCH   3   4
ENDBRANCH   2   3
ENDBRANCH   1   2
BRANCH   1   9
ATOM      9  C   UNL     1      56.317  21.010  48.536  1.00  0.00     0.000 C 
BRANCH   9  10
ATOM     10  C   UNL     1      56.765  22.176  47.648  1.00  0.00    -0.000 C 
BRANCH  10  11
ATOM     11  C   UNL     1      56.318  23.520  48.237  1.00  0.00    -0.000 C 
BRANCH  11  12
ATOM     12  C   UNL     1      55.152  24.111  47.436  1.00  0.00    -0.000 C 
BRANCH  12  13
ATOM     13  C   UNL     1      53.810  23.798  48.106  1.00  0.00    -0.003 C 
ATOM     14  C   UNL     1      53.680  24.516  49.446  1.00  0.00     0.004 C 
ENDBRANCH  12  13
ENDBRANCH  11  12
ENDBRANCH  10  11
ENDBRANCH   9  10
ENDBRANCH   1   9
TORSDOF 10
ENDMDL
MODEL 7
REMARK VINA RESULT:    -4.074      1.369      1.641
REMARK INTER + INTRA:          -7.520
REMARK INTER:                  -6.585
REMARK INTRA:                  -0.935
REMARK UNBOUND:                -1.064
REMARK SMILES CCCCCCCCCCCC(=O)[O-]
REMARK SMILES IDX 7 1 8 2 9 3 10 4 11 5 12 6 13 7 14 8 6 9 5 10 4 11 3 12 2 13
REMARK SMILES IDX 1 14
REMARK H PARENT
REMARK Flexibility Score: inf
ROOT
ATOM      1  C   UNL     1      53.830  24.591  49.747  1.00  0.00     0.000 C 
ENDROOT
BRANCH   1   2
ATOM      2  C   UNL     1      53.266  23.782  50.921  1.00  0.00     0.000 C 
BRANCH   2   3
ATOM      3  C   UNL     1      54.368  23.445  51.936  1.00  0.00     0.000 C 
BRANCH   3   4
ATOM      4  C   UNL     1      53.807  23.001  53.295  1.00  0.00     0.006 C 
BRANCH   4   5
ATOM      5  C   UNL     1      52.817  21.835  53.173  1.00  0.00     0.053 C 
BRANCH   5   6
ATOM      6  C   UNL     1      51.508  22.192  53.806  1.00  0.00     0.041 C 
ATOM      7  O   UNL     1      50.433  21.737  53.334  1.00  0.00    -0.550 OA
ATOM      8  O   UNL     1      51.472  23.066  54.884  1.00  0.00    -0.550 OA
ENDBRANCH   5   6
ENDBRANCH   4   5
ENDBRANCH   3   4
ENDBRANCH   2   3
ENDBRANCH   1   2
BRANCH   1   9
ATOM      9  C   UNL     1      53.735  23.800  48.436  1.00  0.00     0.000 C 
BRANCH   9  10
ATOM     10  C   UNL     1      55.095  23.739  47.731  1.00  0.00    -0.000 C 
BRANCH  10  11
ATOM     11  C   UNL     1      56.128  22.998  48.589  1.00  0.00    -0.000 C 
BRANCH  11  12
ATOM     12  C   UNL     1      56.721  21.806  47.829  1.00  0.00    -0.000 C 
BRANCH  12  13
ATOM     13  C   UNL     1      56.399  20.486  48.538  1.00  0.00    -0.003 C 
ATOM     14  C   UNL     1      55.680  20.731  49.862  1.00  0.00     0.004 C 
ENDBRANCH  12  13
ENDBRANCH  11  12
ENDBRANCH  10  11
ENDBRANCH   9  10
ENDBRANCH   1   9
TORSDOF 10
ENDMDL
MODEL 8
REMARK VINA RESULT:    -4.042      1.676      3.490
REMARK INTER + INTRA:          -7.470
REMARK INTER:                  -6.624
REMARK INTRA:                  -0.845
REMARK UNBOUND:                -1.064
REMARK SMILES CCCCCCCCCCCC(=O)[O-]
REMARK SMILES IDX 7 1 8 2 9 3 10 4 11 5 12 6 13 7 14 8 6 9 5 10 4 11 3 12 2 13
REMARK SMILES IDX 1 14
REMARK H PARENT
REMARK Flexibility Score: inf
ROOT
ATOM      1  C   UNL     1      55.646  21.696  51.226  1.00  0.00     0.000 C 
ENDROOT
BRANCH   1   2
ATOM      2  C   UNL     1      54.344  21.605  52.031  1.00  0.00     0.000 C 
BRANCH   2   3
ATOM      3  C   UNL     1      54.634  21.474  53.533  1.00  0.00     0.000 C 
BRANCH   3   4
ATOM      4  C   UNL     1      53.386  21.098  54.347  1.00  0.00     0.006 C 
BRANCH   4   5
ATOM      5  C   UNL     1      52.144  20.905  53.467  1.00  0.00     0.053 C 
BRANCH   5   6
ATOM      6  C   UNL     1      51.134  21.973  53.746  1.00  0.00     0.041 C 
ATOM      7  O   UNL     1      51.464  23.003  54.392  1.00  0.00    -0.550 OA
ATOM      8  O   UNL     1      49.817  21.810  53.337  1.00  0.00    -0.550 OA
ENDBRANCH   5   6
ENDBRANCH   4   5
ENDBRANCH   3   4
ENDBRANCH   2   3
ENDBRANCH   1   2
BRANCH   1   9
ATOM      9  C   UNL     1      55.634  20.718  50.045  1.00  0.00     0.000 C 
BRANCH   9  10
ATOM     10  C   UNL     1      56.035  21.422  48.743  1.00  0.00    -0.000 C 
BRANCH  10  11
ATOM     11  C   UNL     1      56.009  22.946  48.911  1.00  0.00    -0.000 C 
BRANCH  11  12
ATOM     12  C   UNL     1      55.458  23.629  47.654  1.00  0.00    -0.000 C 
BRANCH  12  13
ATOM     13  C   UNL     1      53.968  23.950  47.810  1.00  0.00    -0.003 C 
ATOM     14  C   UNL     1      53.578  24.063  49.281  1.00  0.00     0.004 C 
ENDBRANCH  12  13
ENDBRANCH  11  12
ENDBRANCH  10  11
ENDBRANCH   9  10
ENDBRANCH   1   9
TORSDOF 10
ENDMDL
MODEL 9
REMARK VINA RESULT:    -3.963      1.935      4.718
REMARK INTER + INTRA:          -7.344
REMARK INTER:                  -6.527
REMARK INTRA:                  -0.817
REMARK UNBOUND:                -1.064
REMARK SMILES CCCCCCCCCCCC(=O)[O-]
REMARK SMILES IDX 7 1 8 2 9 3 10 4 11 5 12 6 13 7 14 8 6 9 5 10 4 11 3 12 2 13
REMARK SMILES IDX 1 14
REMARK H PARENT
REMARK Flexibility Score: inf
ROOT
ATOM      1  C   UNL     1      53.748  23.582  49.005  1.00  0.00     0.000 C 
ENDROOT
BRANCH   1   2
ATOM      2  C   UNL     1      54.220  24.068  47.629  1.00  0.00     0.000 C 
BRANCH   2   3
ATOM      3  C   UNL     1      55.746  23.954  47.500  1.00  0.00     0.000 C 
BRANCH   3   4
ATOM      4  C   UNL     1      56.351  22.953  48.495  1.00  0.00     0.006 C 
BRANCH   4   5
ATOM      5  C   UNL     1      56.706  21.611  47.841  1.00  0.00     0.053 C 
BRANCH   5   6
ATOM      6  C   UNL     1      56.432  20.482  48.783  1.00  0.00     0.041 C 
ATOM      7  O   UNL     1      55.563  20.607  49.686  1.00  0.00    -0.550 OA
ATOM      8  O   UNL     1      57.171  19.309  48.697  1.00  0.00    -0.550 OA
ENDBRANCH   5   6
ENDBRANCH   4   5
ENDBRANCH   3   4
ENDBRANCH   2   3
ENDBRANCH   1   2
BRANCH   1   9
ATOM      9  C   UNL     1      53.378  24.762  49.911  1.00  0.00     0.000 C 
BRANCH   9  10
ATOM     10  C   UNL     1      53.962  24.582  51.317  1.00  0.00    -0.000 C 
BRANCH  10  11
ATOM     11  C   UNL     1      54.060  23.096  51.686  1.00  0.00    -0.000 C 
BRANCH  11  12
ATOM     12  C   UNL     1      53.078  22.741  52.807  1.00  0.00    -0.000 C 
BRANCH  12  13
ATOM     13  C   UNL     1      53.503  21.456  53.525  1.00  0.00    -0.003 C 
ATOM     14  C   UNL     1      52.305  20.548  53.790  1.00  0.00     0.004 C 
ENDBRANCH  12  13
ENDBRANCH  11  12
ENDBRANCH  10  11
ENDBRANCH   9  10
ENDBRANCH   1   9
TORSDOF 10
ENDMDL
