MODEL 1
REMARK VINA RESULT:    -4.908      0.000      0.000
REMARK INTER + INTRA:          -6.045
REMARK INTER:                  -5.769
REMARK INTRA:                  -0.276
REMARK UNBOUND:                -0.276
REMARK SMILES O=c1cc(-c2ccc(O)c(O)c2)oc2cc(O)cc(O)c12
REMARK SMILES IDX 4 1 3 2 2 3 1 4 21 5 19 6 18 7 16 8 15 9 14 10 13 11 5 12
REMARK SMILES IDX 6 13 7 14 8 15 12 16 10 17 9 18 11 20 20 22 17 24
REMARK H PARENT 9 19 11 21 20 23 17 25
REMARK Flexibility Score: inf
ROOT
ATOM      1  C   UNL     1       8.349 -31.568  15.427  1.00  0.00     0.138 A 
ATOM      2  C   UNL     1       7.096 -31.920  14.907  1.00  0.00     0.100 A 
ATOM      3  C   UNL     1       7.012 -32.882  13.900  1.00  0.00     0.197 A 
ATOM      4  O   UNL     1       5.879 -33.135  13.415  1.00  0.00    -0.289 OA
ATOM      5  C   UNL     1       8.187 -33.523  13.439  1.00  0.00     0.107 A 
ATOM      6  C   UNL     1       8.220 -34.543  12.441  1.00  0.00     0.134 A 
ATOM      7  C   UNL     1       9.454 -35.033  11.996  1.00  0.00     0.093 A 
ATOM      8  C   UNL     1      10.654 -34.580  12.551  1.00  0.00     0.123 A 
ATOM      9  C   UNL     1      10.629 -33.622  13.561  1.00  0.00     0.094 A 
ATOM     10  C   UNL     1       9.416 -33.087  14.003  1.00  0.00     0.146 A 
ATOM     11  O   UNL     1       9.440 -32.162  14.955  1.00  0.00    -0.456 OA
ENDROOT
BRANCH   1  12
ATOM     12  C   UNL     1       8.497 -30.553  16.501  1.00  0.00     0.021 A 
ATOM     13  C   UNL     1       7.907 -30.783  17.755  1.00  0.00     0.016 A 
ATOM     14  C   UNL     1       8.037 -29.848  18.784  1.00  0.00     0.051 A 
ATOM     15  C   UNL     1       8.765 -28.672  18.584  1.00  0.00     0.157 A 
ATOM     16  C   UNL     1       9.240 -29.372  16.308  1.00  0.00     0.062 A 
ATOM     17  C   UNL     1       9.372 -28.434  17.341  1.00  0.00     0.158 A 
BRANCH  15  18
ATOM     18  O   UNL     1       8.875 -27.756  19.630  1.00  0.00    -0.504 OA
ATOM     19  H   UNL     1       9.686 -27.159  19.739  1.00  0.00     0.293 HD
ENDBRANCH  15  18
BRANCH  17  20
ATOM     20  O   UNL     1      10.109 -27.267  17.138  1.00  0.00    -0.504 OA
ATOM     21  H   UNL     1       9.657 -26.376  16.969  1.00  0.00     0.293 HD
ENDBRANCH  17  20
ENDBRANCH   1  12
BRANCH   6  22
ATOM     22  O   UNL     1       7.081 -35.124  11.875  1.00  0.00    -0.507 OA
ATOM     23  H   UNL     1       6.923 -35.247  10.887  1.00  0.00     0.293 HD
ENDBRANCH   6  22
BRANCH   8  24
ATOM     24  O   UNL     1      11.876 -35.085  12.112  1.00  0.00    -0.508 OA
ATOM     25  H   UNL     1      12.362 -34.680  11.321  1.00  0.00     0.293 HD
ENDBRANCH   8  24
TORSDOF 5
ENDMDL
MODEL 2
REMARK VINA RESULT:    -4.335      1.550      1.765
REMARK INTER + INTRA:          -5.371
REMARK INTER:                  -5.073
REMARK INTRA:                  -0.299
REMARK UNBOUND:                -0.276
REMARK SMILES O=c1cc(-c2ccc(O)c(O)c2)oc2cc(O)cc(O)c12
REMARK SMILES IDX 4 1 3 2 2 3 1 4 21 5 19 6 18 7 16 8 15 9 14 10 13 11 5 12
REMARK SMILES IDX 6 13 7 14 8 15 12 16 10 17 9 18 11 20 20 22 17 24
REMARK H PARENT 9 19 11 21 20 23 17 25
REMARK Flexibility Score: inf
ROOT
ATOM      1  C   UNL     1       7.988 -31.315  15.346  1.00  0.00     0.138 A 
ATOM      2  C   UNL     1       7.118 -32.316  14.893  1.00  0.00     0.100 A 
ATOM      3  C   UNL     1       7.541 -33.201  13.900  1.00  0.00     0.197 A 
ATOM      4  O   UNL     1       6.717 -34.052  13.475  1.00  0.00    -0.289 OA
ATOM      5  C   UNL     1       8.855 -33.105  13.384  1.00  0.00     0.107 A 
ATOM      6  C   UNL     1       9.408 -33.973  12.395  1.00  0.00     0.134 A 
ATOM      7  C   UNL     1      10.689 -33.718  11.891  1.00  0.00     0.093 A 
ATOM      8  C   UNL     1      11.461 -32.662  12.381  1.00  0.00     0.123 A 
ATOM      9  C   UNL     1      10.950 -31.840  13.382  1.00  0.00     0.094 A 
ATOM     10  C   UNL     1       9.661 -32.046  13.882  1.00  0.00     0.146 A 
ATOM     11  O   UNL     1       9.207 -31.227  14.824  1.00  0.00    -0.456 OA
ENDROOT
BRANCH   1  12
ATOM     12  C   UNL     1       7.592 -30.349  16.402  1.00  0.00     0.021 A 
ATOM     13  C   UNL     1       6.275 -29.861  16.432  1.00  0.00     0.016 A 
ATOM     14  C   UNL     1       5.875 -28.957  17.419  1.00  0.00     0.051 A 
ATOM     15  C   UNL     1       6.778 -28.532  18.398  1.00  0.00     0.157 A 
ATOM     16  C   UNL     1       8.495 -29.929  17.398  1.00  0.00     0.062 A 
ATOM     17  C   UNL     1       8.093 -29.023  18.390  1.00  0.00     0.158 A 
BRANCH  15  18
ATOM     18  O   UNL     1       6.350 -27.628  19.369  1.00  0.00    -0.504 OA
ATOM     19  H   UNL     1       6.920 -26.843  19.661  1.00  0.00     0.293 HD
ENDBRANCH  15  18
BRANCH  17  20
ATOM     20  O   UNL     1       8.996 -28.612  19.371  1.00  0.00    -0.504 OA
ATOM     21  H   UNL     1       9.993 -28.767  19.273  1.00  0.00     0.293 HD
ENDBRANCH  17  20
ENDBRANCH   1  12
BRANCH   6  22
ATOM     22  O   UNL     1       8.756 -35.104  11.893  1.00  0.00    -0.507 OA
ATOM     23  H   UNL     1       9.021 -35.603  11.058  1.00  0.00     0.293 HD
ENDBRANCH   6  22
BRANCH   8  24
ATOM     24  O   UNL     1      12.741 -32.426  11.885  1.00  0.00    -0.508 OA
ATOM     25  H   UNL     1      12.886 -31.993  10.980  1.00  0.00     0.293 HD
ENDBRANCH   8  24
TORSDOF 5
ENDMDL
MODEL 3
REMARK VINA RESULT:    -2.841      1.553      7.141
REMARK INTER + INTRA:          -3.615
REMARK INTER:                  -3.346
REMARK INTRA:                  -0.268
REMARK UNBOUND:                -0.276
REMARK SMILES O=c1cc(-c2ccc(O)c(O)c2)oc2cc(O)cc(O)c12
REMARK SMILES IDX 4 1 3 2 2 3 1 4 21 5 19 6 18 7 16 8 15 9 14 10 13 11 5 12
REMARK SMILES IDX 6 13 7 14 8 15 12 16 10 17 9 18 11 20 20 22 17 24
REMARK H PARENT 9 19 11 21 20 23 17 25
REMARK Flexibility Score: inf
ROOT
ATOM      1  C   UNL     1       8.683 -30.969  14.591  1.00  0.00     0.138 A 
ATOM      2  C   UNL     1       9.585 -30.121  13.935  1.00  0.00     0.100 A 
ATOM      3  C   UNL     1      10.220 -29.104  14.649  1.00  0.00     0.197 A 
ATOM      4  O   UNL     1      10.981 -28.324  14.019  1.00  0.00    -0.289 OA
ATOM      5  C   UNL     1       9.979 -28.960  16.036  1.00  0.00     0.107 A 
ATOM      6  C   UNL     1      10.596 -27.982  16.873  1.00  0.00     0.134 A 
ATOM      7  C   UNL     1      10.203 -27.874  18.213  1.00  0.00     0.093 A 
ATOM      8  C   UNL     1       9.257 -28.744  18.760  1.00  0.00     0.123 A 
ATOM      9  C   UNL     1       8.687 -29.735  17.965  1.00  0.00     0.094 A 
ATOM     10  C   UNL     1       9.032 -29.847  16.615  1.00  0.00     0.146 A 
ATOM     11  O   UNL     1       8.450 -30.794  15.888  1.00  0.00    -0.456 OA
ENDROOT
BRANCH   1  12
ATOM     12  C   UNL     1       7.981 -32.069  13.883  1.00  0.00     0.021 A 
ATOM     13  C   UNL     1       6.576 -32.085  13.851  1.00  0.00     0.016 A 
ATOM     14  C   UNL     1       5.892 -33.104  13.185  1.00  0.00     0.051 A 
ATOM     15  C   UNL     1       6.595 -34.119  12.532  1.00  0.00     0.157 A 
ATOM     16  C   UNL     1       8.686 -33.087  13.211  1.00  0.00     0.062 A 
ATOM     17  C   UNL     1       7.999 -34.110  12.541  1.00  0.00     0.158 A 
BRANCH  15  18
ATOM     18  O   UNL     1       5.883 -35.124  11.877  1.00  0.00    -0.504 OA
ATOM     19  H   UNL     1       6.248 -35.594  11.057  1.00  0.00     0.293 HD
ENDBRANCH  15  18
BRANCH  17  20
ATOM     20  O   UNL     1       8.707 -35.114  11.881  1.00  0.00    -0.504 OA
ATOM     21  H   UNL     1       9.670 -34.985  11.596  1.00  0.00     0.293 HD
ENDBRANCH  17  20
ENDBRANCH   1  12
BRANCH   6  22
ATOM     22  O   UNL     1      11.608 -27.114  16.450  1.00  0.00    -0.507 OA
ATOM     23  H   UNL     1      11.458 -26.214  16.022  1.00  0.00     0.293 HD
ENDBRANCH   6  22
BRANCH   8  24
ATOM     24  O   UNL     1       8.884 -28.639  20.098  1.00  0.00    -0.508 OA
ATOM     25  H   UNL     1       9.509 -28.247  20.793  1.00  0.00     0.293 HD
ENDBRANCH   8  24
TORSDOF 5
ENDMDL
MODEL 4
REMARK VINA RESULT:    -2.588      2.294      6.747
REMARK INTER + INTRA:          -3.318
REMARK INTER:                  -3.032
REMARK INTRA:                  -0.285
REMARK UNBOUND:                -0.276
REMARK SMILES O=c1cc(-c2ccc(O)c(O)c2)oc2cc(O)cc(O)c12
REMARK SMILES IDX 4 1 3 2 2 3 1 4 21 5 19 6 18 7 16 8 15 9 14 10 13 11 5 12
REMARK SMILES IDX 6 13 7 14 8 15 12 16 10 17 9 18 11 20 20 22 17 24
REMARK H PARENT 9 19 11 21 20 23 17 25
REMARK Flexibility Score: inf
ROOT
ATOM      1  C   UNL     1       8.536 -30.941  14.695  1.00  0.00     0.138 A 
ATOM      2  C   UNL     1       8.082 -30.433  15.919  1.00  0.00     0.100 A 
ATOM      3  C   UNL     1       8.783 -29.400  16.541  1.00  0.00     0.197 A 
ATOM      4  O   UNL     1       8.382 -29.005  17.666  1.00  0.00    -0.289 OA
ATOM      5  C   UNL     1       9.925 -28.847  15.914  1.00  0.00     0.107 A 
ATOM      6  C   UNL     1      10.699 -27.767  16.437  1.00  0.00     0.134 A 
ATOM      7  C   UNL     1      11.867 -27.371  15.773  1.00  0.00     0.093 A 
ATOM      8  C   UNL     1      12.257 -27.975  14.576  1.00  0.00     0.123 A 
ATOM      9  C   UNL     1      11.481 -28.995  14.031  1.00  0.00     0.094 A 
ATOM     10  C   UNL     1      10.329 -29.438  14.686  1.00  0.00     0.146 A 
ATOM     11  O   UNL     1       9.628 -30.425  14.141  1.00  0.00    -0.456 OA
ENDROOT
BRANCH   1  12
ATOM     12  C   UNL     1       7.828 -32.038  13.988  1.00  0.00     0.021 A 
ATOM     13  C   UNL     1       7.827 -32.067  12.583  1.00  0.00     0.016 A 
ATOM     14  C   UNL     1       7.174 -33.091  11.893  1.00  0.00     0.051 A 
ATOM     15  C   UNL     1       6.519 -34.109  12.592  1.00  0.00     0.157 A 
ATOM     16  C   UNL     1       7.177 -33.073  14.688  1.00  0.00     0.062 A 
ATOM     17  C   UNL     1       6.523 -34.103  13.996  1.00  0.00     0.158 A 
BRANCH  15  18
ATOM     18  O   UNL     1       5.875 -35.117  11.875  1.00  0.00    -0.504 OA
ATOM     19  H   UNL     1       5.669 -36.021  12.285  1.00  0.00     0.293 HD
ENDBRANCH  15  18
BRANCH  17  20
ATOM     20  O   UNL     1       5.881 -35.122  14.699  1.00  0.00    -0.504 OA
ATOM     21  H   UNL     1       6.262 -35.493  15.561  1.00  0.00     0.293 HD
ENDBRANCH  17  20
ENDBRANCH   1  12
BRANCH   6  22
ATOM     22  O   UNL     1      10.358 -27.041  17.582  1.00  0.00    -0.507 OA
ATOM     23  H   UNL     1       9.582 -26.402  17.653  1.00  0.00     0.293 HD
ENDBRANCH   6  22
BRANCH   8  24
ATOM     24  O   UNL     1      13.412 -27.563  13.914  1.00  0.00    -0.508 OA
ATOM     25  H   UNL     1      13.724 -28.014  13.063  1.00  0.00     0.293 HD
ENDBRANCH   8  24
TORSDOF 5
ENDMDL
MODEL 5
REMARK VINA RESULT:    -2.437      1.515      2.870
REMARK INTER + INTRA:          -3.140
REMARK INTER:                  -2.848
REMARK INTRA:                  -0.293
REMARK UNBOUND:                -0.276
REMARK SMILES O=c1cc(-c2ccc(O)c(O)c2)oc2cc(O)cc(O)c12
REMARK SMILES IDX 4 1 3 2 2 3 1 4 21 5 19 6 18 7 16 8 15 9 14 10 13 11 5 12
REMARK SMILES IDX 6 13 7 14 8 15 12 16 10 17 9 18 11 20 20 22 17 24
REMARK H PARENT 9 19 11 21 20 23 17 25
REMARK Flexibility Score: inf
ROOT
ATOM      1  C   UNL     1       8.267 -30.960  15.471  1.00  0.00     0.138 A 
ATOM      2  C   UNL     1       9.620 -31.074  15.122  1.00  0.00     0.100 A 
ATOM      3  C   UNL     1      10.006 -31.993  14.146  1.00  0.00     0.197 A 
ATOM      4  O   UNL     1      11.234 -32.111  13.896  1.00  0.00    -0.289 OA
ATOM      5  C   UNL     1       9.027 -32.776  13.489  1.00  0.00     0.107 A 
ATOM      6  C   UNL     1       9.300 -33.721  12.454  1.00  0.00     0.134 A 
ATOM      7  C   UNL     1       8.259 -34.509  11.948  1.00  0.00     0.093 A 
ATOM      8  C   UNL     1       6.946 -34.347  12.398  1.00  0.00     0.123 A 
ATOM      9  C   UNL     1       6.662 -33.393  13.371  1.00  0.00     0.094 A 
ATOM     10  C   UNL     1       7.683 -32.615  13.922  1.00  0.00     0.146 A 
ATOM     11  O   UNL     1       7.371 -31.729  14.861  1.00  0.00    -0.456 OA
ENDROOT
BRANCH   1  12
ATOM     12  C   UNL     1       7.800 -29.998  16.500  1.00  0.00     0.021 A 
ATOM     13  C   UNL     1       6.443 -29.632  16.538  1.00  0.00     0.016 A 
ATOM     14  C   UNL     1       5.976 -28.734  17.500  1.00  0.00     0.051 A 
ATOM     15  C   UNL     1       6.850 -28.193  18.447  1.00  0.00     0.157 A 
ATOM     16  C   UNL     1       8.674 -29.460  17.465  1.00  0.00     0.062 A 
ATOM     17  C   UNL     1       8.205 -28.560  18.432  1.00  0.00     0.158 A 
BRANCH  15  18
ATOM     18  O   UNL     1       6.354 -27.297  19.394  1.00  0.00    -0.504 OA
ATOM     19  H   UNL     1       6.842 -27.107  20.261  1.00  0.00     0.293 HD
ENDBRANCH  15  18
BRANCH  17  20
ATOM     20  O   UNL     1       9.080 -28.032  19.381  1.00  0.00    -0.504 OA
ATOM     21  H   UNL     1       9.295 -28.527  20.238  1.00  0.00     0.293 HD
ENDBRANCH  17  20
ENDBRANCH   1  12
BRANCH   6  22
ATOM     22  O   UNL     1      10.559 -33.908  11.875  1.00  0.00    -0.507 OA
ATOM     23  H   UNL     1      10.945 -34.799  11.602  1.00  0.00     0.293 HD
ENDBRANCH   6  22
BRANCH   8  24
ATOM     24  O   UNL     1       5.915 -35.125  11.877  1.00  0.00    -0.508 OA
ATOM     25  H   UNL     1       4.985 -35.109  12.278  1.00  0.00     0.293 HD
ENDBRANCH   8  24
TORSDOF 5
ENDMDL
