MODEL 1
REMARK VINA RESULT:    15.685      0.000      0.000
REMARK INTER + INTRA:          35.212
REMARK INTER:                  35.859
REMARK INTRA:                  -0.646
REMARK UNBOUND:                -0.646
REMARK SMILES CCCCCCCCCCCCCCCCCCCCCCCC(=O)[O-]
REMARK SMILES IDX 13 1 14 2 15 3 16 4 17 5 18 6 19 7 20 8 21 9 22 10 23 11
REMARK SMILES IDX 24 12 25 13 26 14 12 15 11 16 10 17 9 18 8 19 7 20 6 21 5 22
REMARK SMILES IDX 4 23 3 24 2 25 1 26
REMARK H PARENT
REMARK Flexibility Score: inf
ROOT
ATOM      1  C   UNL     1     -13.524  31.339 -21.426  1.00  0.00     0.000 C 
ENDROOT
BRANCH   1   2
ATOM      2  C   UNL     1     -12.988  32.714 -21.005  1.00  0.00     0.000 C 
BRANCH   2   3
ATOM      3  C   UNL     1     -11.747  33.136 -21.809  1.00  0.00     0.000 C 
BRANCH   3   4
ATOM      4  C   UNL     1     -11.054  34.378 -21.221  1.00  0.00     0.000 C 
BRANCH   4   5
ATOM      5  C   UNL     1      -9.643  34.058 -20.687  1.00  0.00     0.000 C 
BRANCH   5   6
ATOM      6  C   UNL     1      -9.586  33.853 -19.162  1.00  0.00     0.000 C 
BRANCH   6   7
ATOM      7  C   UNL     1      -8.158  33.612 -18.645  1.00  0.00     0.000 C 
BRANCH   7   8
ATOM      8  C   UNL     1      -7.851  34.398 -17.360  1.00  0.00     0.000 C 
BRANCH   8   9
ATOM      9  C   UNL     1      -6.747  33.741 -16.515  1.00  0.00     0.000 C 
BRANCH   9  10
ATOM     10  C   UNL     1      -6.962  34.015 -15.019  1.00  0.00     0.006 C 
BRANCH  10  11
ATOM     11  C   UNL     1      -8.158  33.235 -14.451  1.00  0.00     0.053 C 
BRANCH  11  12
ATOM     12  C   UNL     1      -8.450  32.002 -15.250  1.00  0.00     0.041 C 
ATOM     13  O   UNL     1      -9.515  31.916 -15.920  1.00  0.00    -0.550 OA
ATOM     14  O   UNL     1      -7.571  30.926 -15.218  1.00  0.00    -0.550 OA
ENDBRANCH  11  12
ENDBRANCH  10  11
ENDBRANCH   9  10
ENDBRANCH   8   9
ENDBRANCH   7   8
ENDBRANCH   6   7
ENDBRANCH   5   6
ENDBRANCH   4   5
ENDBRANCH   3   4
ENDBRANCH   2   3
ENDBRANCH   1   2
BRANCH   1  15
ATOM     15  C   UNL     1     -13.496  30.355 -20.247  1.00  0.00     0.000 C 
BRANCH  15  16
ATOM     16  C   UNL     1     -14.892  30.115 -19.646  1.00  0.00     0.000 C 
BRANCH  16  17
ATOM     17  C   UNL     1     -15.385  28.675 -19.876  1.00  0.00     0.000 C 
BRANCH  17  18
ATOM     18  C   UNL     1     -16.725  28.389 -19.179  1.00  0.00    -0.000 C 
BRANCH  18  19
ATOM     19  C   UNL     1     -17.178  26.930 -19.339  1.00  0.00    -0.000 C 
BRANCH  19  20
ATOM     20  C   UNL     1     -16.645  26.059 -18.191  1.00  0.00    -0.000 C 
BRANCH  20  21
ATOM     21  C   UNL     1     -16.877  24.559 -18.432  1.00  0.00    -0.000 C 
BRANCH  21  22
ATOM     22  C   UNL     1     -15.783  23.924 -19.311  1.00  0.00    -0.000 C 
BRANCH  22  23
ATOM     23  C   UNL     1     -16.360  22.923 -20.333  1.00  0.00    -0.000 C 
BRANCH  23  24
ATOM     24  C   UNL     1     -15.595  22.876 -21.669  1.00  0.00    -0.000 C 
BRANCH  24  25
ATOM     25  C   UNL     1     -14.245  23.622 -21.652  1.00  0.00    -0.003 C 
ATOM     26  C   UNL     1     -13.239  23.047 -22.650  1.00  0.00     0.004 C 
ENDBRANCH  24  25
ENDBRANCH  23  24
ENDBRANCH  22  23
ENDBRANCH  21  22
ENDBRANCH  20  21
ENDBRANCH  19  20
ENDBRANCH  18  19
ENDBRANCH  17  18
ENDBRANCH  16  17
ENDBRANCH  15  16
ENDBRANCH   1  15
TORSDOF 22
ENDMDL
MODEL 2
REMARK VINA RESULT:    15.849      0.928      1.663
REMARK INTER + INTRA:          35.586
REMARK INTER:                  35.575
REMARK INTRA:                   0.011
REMARK UNBOUND:                -0.646
REMARK SMILES CCCCCCCCCCCCCCCCCCCCCCCC(=O)[O-]
REMARK SMILES IDX 13 1 14 2 15 3 16 4 17 5 18 6 19 7 20 8 21 9 22 10 23 11
REMARK SMILES IDX 24 12 25 13 26 14 12 15 11 16 10 17 9 18 8 19 7 20 6 21 5 22
REMARK SMILES IDX 4 23 3 24 2 25 1 26
REMARK H PARENT
REMARK Flexibility Score: inf
ROOT
ATOM      1  C   UNL     1     -14.250  30.660 -19.454  1.00  0.00     0.000 C 
ENDROOT
BRANCH   1   2
ATOM      2  C   UNL     1     -13.751  31.140 -20.824  1.00  0.00     0.000 C 
BRANCH   2   3
ATOM      3  C   UNL     1     -13.134  32.547 -20.767  1.00  0.00     0.000 C 
BRANCH   3   4
ATOM      4  C   UNL     1     -12.494  32.968 -22.103  1.00  0.00     0.000 C 
BRANCH   4   5
ATOM      5  C   UNL     1     -11.065  33.517 -21.915  1.00  0.00     0.000 C 
BRANCH   5   6
ATOM      6  C   UNL     1     -10.341  32.960 -20.677  1.00  0.00     0.000 C 
BRANCH   6   7
ATOM      7  C   UNL     1      -9.662  34.055 -19.838  1.00  0.00     0.000 C 
BRANCH   7   8
ATOM      8  C   UNL     1      -8.905  33.490 -18.625  1.00  0.00     0.000 C 
BRANCH   8   9
ATOM      9  C   UNL     1      -8.451  34.589 -17.649  1.00  0.00     0.000 C 
BRANCH   9  10
ATOM     10  C   UNL     1      -7.169  34.174 -16.911  1.00  0.00     0.006 C 
BRANCH  10  11
ATOM     11  C   UNL     1      -7.467  33.516 -15.555  1.00  0.00     0.053 C 
BRANCH  11  12
ATOM     12  C   UNL     1      -8.035  32.139 -15.715  1.00  0.00     0.041 C 
ATOM     13  O   UNL     1      -8.038  31.580 -16.846  1.00  0.00    -0.550 OA
ATOM     14  O   UNL     1      -8.605  31.489 -14.627  1.00  0.00    -0.550 OA
ENDBRANCH  11  12
ENDBRANCH  10  11
ENDBRANCH   9  10
ENDBRANCH   8   9
ENDBRANCH   7   8
ENDBRANCH   6   7
ENDBRANCH   5   6
ENDBRANCH   4   5
ENDBRANCH   3   4
ENDBRANCH   2   3
ENDBRANCH   1   2
BRANCH   1  15
ATOM     15  C   UNL     1     -15.120  29.402 -19.597  1.00  0.00     0.000 C 
BRANCH  15  16
ATOM     16  C   UNL     1     -16.173  29.284 -18.483  1.00  0.00     0.000 C 
BRANCH  16  17
ATOM     17  C   UNL     1     -16.841  27.897 -18.458  1.00  0.00     0.000 C 
BRANCH  17  18
ATOM     18  C   UNL     1     -17.159  27.367 -19.865  1.00  0.00    -0.000 C 
BRANCH  18  19
ATOM     19  C   UNL     1     -16.847  25.871 -20.022  1.00  0.00    -0.000 C 
BRANCH  19  20
ATOM     20  C   UNL     1     -16.495  25.237 -18.667  1.00  0.00    -0.000 C 
BRANCH  20  21
ATOM     21  C   UNL     1     -15.623  23.981 -18.813  1.00  0.00    -0.000 C 
BRANCH  21  22
ATOM     22  C   UNL     1     -16.310  22.875 -19.636  1.00  0.00    -0.000 C 
BRANCH  22  23
ATOM     23  C   UNL     1     -16.012  22.997 -21.144  1.00  0.00    -0.000 C 
BRANCH  23  24
ATOM     24  C   UNL     1     -14.511  22.972 -21.494  1.00  0.00    -0.000 C 
BRANCH  24  25
ATOM     25  C   UNL     1     -14.189  23.421 -22.933  1.00  0.00    -0.003 C 
ATOM     26  C   UNL     1     -12.778  23.994 -23.073  1.00  0.00     0.004 C 
ENDBRANCH  24  25
ENDBRANCH  23  24
ENDBRANCH  22  23
ENDBRANCH  21  22
ENDBRANCH  20  21
ENDBRANCH  19  20
ENDBRANCH  18  19
ENDBRANCH  17  18
ENDBRANCH  16  17
ENDBRANCH  15  16
ENDBRANCH   1  15
TORSDOF 22
ENDMDL
MODEL 3
REMARK VINA RESULT:    16.597      3.309     11.173
REMARK INTER + INTRA:          37.296
REMARK INTER:                  38.113
REMARK INTRA:                  -0.817
REMARK UNBOUND:                -0.646
REMARK SMILES CCCCCCCCCCCCCCCCCCCCCCCC(=O)[O-]
REMARK SMILES IDX 13 1 14 2 15 3 16 4 17 5 18 6 19 7 20 8 21 9 22 10 23 11
REMARK SMILES IDX 24 12 25 13 26 14 12 15 11 16 10 17 9 18 8 19 7 20 6 21 5 22
REMARK SMILES IDX 4 23 3 24 2 25 1 26
REMARK H PARENT
REMARK Flexibility Score: inf
ROOT
ATOM      1  C   UNL     1     -13.732  30.685 -20.406  1.00  0.00     0.000 C 
ENDROOT
BRANCH   1   2
ATOM      2  C   UNL     1     -15.102  30.172 -19.939  1.00  0.00     0.000 C 
BRANCH   2   3
ATOM      3  C   UNL     1     -15.259  28.655 -20.127  1.00  0.00     0.000 C 
BRANCH   3   4
ATOM      4  C   UNL     1     -16.366  28.060 -19.238  1.00  0.00     0.000 C 
BRANCH   4   5
ATOM      5  C   UNL     1     -17.194  26.988 -19.978  1.00  0.00     0.000 C 
BRANCH   5   6
ATOM      6  C   UNL     1     -16.603  25.570 -19.883  1.00  0.00     0.000 C 
BRANCH   6   7
ATOM      7  C   UNL     1     -16.409  25.100 -18.432  1.00  0.00     0.000 C 
BRANCH   7   8
ATOM      8  C   UNL     1     -16.247  23.576 -18.318  1.00  0.00     0.000 C 
BRANCH   8   9
ATOM      9  C   UNL     1     -16.039  22.900 -19.683  1.00  0.00     0.000 C 
BRANCH   9  10
ATOM     10  C   UNL     1     -14.676  23.279 -20.283  1.00  0.00     0.006 C 
BRANCH  10  11
ATOM     11  C   UNL     1     -14.561  22.879 -21.762  1.00  0.00     0.053 C 
BRANCH  11  12
ATOM     12  C   UNL     1     -14.354  24.071 -22.647  1.00  0.00     0.041 C 
ATOM     13  O   UNL     1     -13.187  24.459 -22.928  1.00  0.00    -0.550 OA
ATOM     14  O   UNL     1     -15.447  24.782 -23.125  1.00  0.00    -0.550 OA
ENDBRANCH  11  12
ENDBRANCH  10  11
ENDBRANCH   9  10
ENDBRANCH   8   9
ENDBRANCH   7   8
ENDBRANCH   6   7
ENDBRANCH   5   6
ENDBRANCH   4   5
ENDBRANCH   3   4
ENDBRANCH   2   3
ENDBRANCH   1   2
BRANCH   1  15
ATOM     15  C   UNL     1     -13.736  32.215 -20.540  1.00  0.00     0.000 C 
BRANCH  15  16
ATOM     16  C   UNL     1     -12.770  32.714 -21.628  1.00  0.00     0.000 C 
BRANCH  16  17
ATOM     17  C   UNL     1     -11.620  33.555 -21.044  1.00  0.00     0.000 C 
BRANCH  17  18
ATOM     18  C   UNL     1     -10.235  32.971 -21.369  1.00  0.00    -0.000 C 
BRANCH  18  19
ATOM     19  C   UNL     1      -9.262  33.057 -20.184  1.00  0.00    -0.000 C 
BRANCH  19  20
ATOM     20  C   UNL     1      -9.456  34.368 -19.406  1.00  0.00    -0.000 C 
BRANCH  20  21
ATOM     21  C   UNL     1      -9.131  34.220 -17.912  1.00  0.00    -0.000 C 
BRANCH  21  22
ATOM     22  C   UNL     1      -8.440  32.883 -17.585  1.00  0.00    -0.000 C 
BRANCH  22  23
ATOM     23  C   UNL     1      -7.786  32.888 -16.188  1.00  0.00    -0.000 C 
BRANCH  23  24
ATOM     24  C   UNL     1      -7.178  34.245 -15.782  1.00  0.00    -0.000 C 
BRANCH  24  25
ATOM     25  C   UNL     1      -5.876  34.602 -16.526  1.00  0.00    -0.003 C 
ATOM     26  C   UNL     1      -6.075  35.703 -17.569  1.00  0.00     0.004 C 
ENDBRANCH  24  25
ENDBRANCH  23  24
ENDBRANCH  22  23
ENDBRANCH  21  22
ENDBRANCH  20  21
ENDBRANCH  19  20
ENDBRANCH  18  19
ENDBRANCH  17  18
ENDBRANCH  16  17
ENDBRANCH  15  16
ENDBRANCH   1  15
TORSDOF 22
ENDMDL
MODEL 4
REMARK VINA RESULT:    16.769      3.439     10.944
REMARK INTER + INTRA:          37.690
REMARK INTER:                  38.480
REMARK INTRA:                  -0.789
REMARK UNBOUND:                -0.646
REMARK SMILES CCCCCCCCCCCCCCCCCCCCCCCC(=O)[O-]
REMARK SMILES IDX 13 1 14 2 15 3 16 4 17 5 18 6 19 7 20 8 21 9 22 10 23 11
REMARK SMILES IDX 24 12 25 13 26 14 12 15 11 16 10 17 9 18 8 19 7 20 6 21 5 22
REMARK SMILES IDX 4 23 3 24 2 25 1 26
REMARK H PARENT
REMARK Flexibility Score: inf
ROOT
ATOM      1  C   UNL     1     -13.870  31.414 -21.729  1.00  0.00     0.000 C 
ENDROOT
BRANCH   1   2
ATOM      2  C   UNL     1     -13.883  30.346 -20.626  1.00  0.00     0.000 C 
BRANCH   2   3
ATOM      3  C   UNL     1     -14.920  30.642 -19.531  1.00  0.00     0.000 C 
BRANCH   3   4
ATOM      4  C   UNL     1     -15.520  29.361 -18.922  1.00  0.00     0.000 C 
BRANCH   4   5
ATOM      5  C   UNL     1     -16.220  28.486 -19.982  1.00  0.00     0.000 C 
BRANCH   5   6
ATOM      6  C   UNL     1     -17.175  27.435 -19.389  1.00  0.00     0.000 C 
BRANCH   6   7
ATOM      7  C   UNL     1     -16.830  26.001 -19.824  1.00  0.00     0.000 C 
BRANCH   7   8
ATOM      8  C   UNL     1     -16.021  25.237 -18.765  1.00  0.00     0.000 C 
BRANCH   8   9
ATOM      9  C   UNL     1     -16.116  23.711 -18.936  1.00  0.00     0.000 C 
BRANCH   9  10
ATOM     10  C   UNL     1     -15.999  23.314 -20.415  1.00  0.00     0.006 C 
BRANCH  10  11
ATOM     11  C   UNL     1     -14.542  23.080 -20.840  1.00  0.00     0.053 C 
BRANCH  11  12
ATOM     12  C   UNL     1     -14.351  23.281 -22.313  1.00  0.00     0.041 C 
ATOM     13  O   UNL     1     -15.252  22.932 -23.124  1.00  0.00    -0.550 OA
ATOM     14  O   UNL     1     -13.160  23.808 -22.796  1.00  0.00    -0.550 OA
ENDBRANCH  11  12
ENDBRANCH  10  11
ENDBRANCH   9  10
ENDBRANCH   8   9
ENDBRANCH   7   8
ENDBRANCH   6   7
ENDBRANCH   5   6
ENDBRANCH   4   5
ENDBRANCH   3   4
ENDBRANCH   2   3
ENDBRANCH   1   2
BRANCH   1  15
ATOM     15  C   UNL     1     -13.322  32.746 -21.196  1.00  0.00     0.000 C 
BRANCH  15  16
ATOM     16  C   UNL     1     -12.311  33.395 -22.157  1.00  0.00     0.000 C 
BRANCH  16  17
ATOM     17  C   UNL     1     -11.186  34.132 -21.408  1.00  0.00     0.000 C 
BRANCH  17  18
ATOM     18  C   UNL     1      -9.906  33.291 -21.284  1.00  0.00    -0.000 C 
BRANCH  18  19
ATOM     19  C   UNL     1      -9.621  32.853 -19.839  1.00  0.00    -0.000 C 
BRANCH  19  20
ATOM     20  C   UNL     1      -8.947  33.982 -19.045  1.00  0.00    -0.000 C 
BRANCH  20  21
ATOM     21  C   UNL     1      -8.048  33.453 -17.916  1.00  0.00    -0.000 C 
BRANCH  21  22
ATOM     22  C   UNL     1      -6.939  34.448 -17.527  1.00  0.00    -0.000 C 
BRANCH  22  23
ATOM     23  C   UNL     1      -6.626  34.416 -16.017  1.00  0.00    -0.000 C 
BRANCH  23  24
ATOM     24  C   UNL     1      -7.808  33.960 -15.139  1.00  0.00    -0.000 C 
BRANCH  24  25
ATOM     25  C   UNL     1      -7.766  32.470 -14.745  1.00  0.00    -0.003 C 
ATOM     26  C   UNL     1      -8.865  31.649 -15.420  1.00  0.00     0.004 C 
ENDBRANCH  24  25
ENDBRANCH  23  24
ENDBRANCH  22  23
ENDBRANCH  21  22
ENDBRANCH  20  21
ENDBRANCH  19  20
ENDBRANCH  18  19
ENDBRANCH  17  18
ENDBRANCH  16  17
ENDBRANCH  15  16
ENDBRANCH   1  15
TORSDOF 22
ENDMDL
MODEL 5
REMARK VINA RESULT:    17.446      3.382     11.080
REMARK INTER + INTRA:          39.238
REMARK INTER:                  39.060
REMARK INTRA:                   0.178
REMARK UNBOUND:                -0.646
REMARK SMILES CCCCCCCCCCCCCCCCCCCCCCCC(=O)[O-]
REMARK SMILES IDX 13 1 14 2 15 3 16 4 17 5 18 6 19 7 20 8 21 9 22 10 23 11
REMARK SMILES IDX 24 12 25 13 26 14 12 15 11 16 10 17 9 18 8 19 7 20 6 21 5 22
REMARK SMILES IDX 4 23 3 24 2 25 1 26
REMARK H PARENT
REMARK Flexibility Score: inf
ROOT
ATOM      1  C   UNL     1     -12.781  33.057 -21.823  1.00  0.00     0.000 C 
ENDROOT
BRANCH   1   2
ATOM      2  C   UNL     1     -13.660  32.219 -20.884  1.00  0.00     0.000 C 
BRANCH   2   3
ATOM      3  C   UNL     1     -13.357  30.715 -20.978  1.00  0.00     0.000 C 
BRANCH   3   4
ATOM      4  C   UNL     1     -13.956  29.916 -19.806  1.00  0.00     0.000 C 
BRANCH   4   5
ATOM      5  C   UNL     1     -15.252  29.181 -20.206  1.00  0.00     0.000 C 
BRANCH   5   6
ATOM      6  C   UNL     1     -16.042  28.618 -19.011  1.00  0.00     0.000 C 
BRANCH   6   7
ATOM      7  C   UNL     1     -16.888  27.389 -19.380  1.00  0.00     0.000 C 
BRANCH   7   8
ATOM      8  C   UNL     1     -16.032  26.163 -19.735  1.00  0.00     0.000 C 
BRANCH   8   9
ATOM      9  C   UNL     1     -16.383  24.931 -18.884  1.00  0.00     0.000 C 
BRANCH   9  10
ATOM     10  C   UNL     1     -15.862  23.642 -19.537  1.00  0.00     0.006 C 
BRANCH  10  11
ATOM     11  C   UNL     1     -15.842  23.735 -21.070  1.00  0.00     0.053 C 
BRANCH  11  12
ATOM     12  C   UNL     1     -14.519  23.319 -21.638  1.00  0.00     0.041 C 
ATOM     13  O   UNL     1     -13.542  23.093 -20.873  1.00  0.00    -0.550 OA
ATOM     14  O   UNL     1     -14.348  23.229 -23.014  1.00  0.00    -0.550 OA
ENDBRANCH  11  12
ENDBRANCH  10  11
ENDBRANCH   9  10
ENDBRANCH   8   9
ENDBRANCH   7   8
ENDBRANCH   6   7
ENDBRANCH   5   6
ENDBRANCH   4   5
ENDBRANCH   3   4
ENDBRANCH   2   3
ENDBRANCH   1   2
BRANCH   1  15
ATOM     15  C   UNL     1     -11.647  33.742 -21.046  1.00  0.00     0.000 C 
BRANCH  15  16
ATOM     16  C   UNL     1     -10.583  32.745 -20.555  1.00  0.00     0.000 C 
BRANCH  16  17
ATOM     17  C   UNL     1      -9.221  33.420 -20.312  1.00  0.00     0.000 C 
BRANCH  17  18
ATOM     18  C   UNL     1      -9.279  34.493 -19.211  1.00  0.00    -0.000 C 
BRANCH  18  19
ATOM     19  C   UNL     1      -8.093  34.411 -18.239  1.00  0.00    -0.000 C 
BRANCH  19  20
ATOM     20  C   UNL     1      -6.812  34.959 -18.886  1.00  0.00    -0.000 C 
BRANCH  20  21
ATOM     21  C   UNL     1      -5.958  35.776 -17.904  1.00  0.00    -0.000 C 
BRANCH  21  22
ATOM     22  C   UNL     1      -6.439  35.641 -16.447  1.00  0.00    -0.000 C 
BRANCH  22  23
ATOM     23  C   UNL     1      -6.643  34.170 -16.032  1.00  0.00    -0.000 C 
BRANCH  23  24
ATOM     24  C   UNL     1      -7.793  33.952 -15.029  1.00  0.00    -0.000 C 
BRANCH  24  25
ATOM     25  C   UNL     1      -8.794  32.854 -15.444  1.00  0.00    -0.003 C 
ATOM     26  C   UNL     1      -8.107  31.618 -16.025  1.00  0.00     0.004 C 
ENDBRANCH  24  25
ENDBRANCH  23  24
ENDBRANCH  22  23
ENDBRANCH  21  22
ENDBRANCH  20  21
ENDBRANCH  19  20
ENDBRANCH  18  19
ENDBRANCH  17  18
ENDBRANCH  16  17
ENDBRANCH  15  16
ENDBRANCH   1  15
TORSDOF 22
ENDMDL
