MODEL 1
REMARK VINA RESULT:    -4.813      0.000      0.000
REMARK INTER + INTRA:         -10.515
REMARK INTER:                  -8.753
REMARK INTRA:                  -1.762
REMARK UNBOUND:                -1.762
REMARK SMILES CCCCCCCCCCCCCCCC(=O)[O-]
REMARK SMILES IDX 9 1 10 2 11 3 12 4 13 5 14 6 15 7 16 8 17 9 18 10 8 11 7 12
REMARK SMILES IDX 6 13 5 14 4 15 3 16 2 17 1 18
REMARK H PARENT
REMARK Flexibility Score: inf
ROOT
ATOM      1  C   UNL     1      47.835  21.857  51.335  1.00  0.00     0.000 C 
ENDROOT
BRANCH   1   2
ATOM      2  C   UNL     1      48.218  21.739  52.821  1.00  0.00     0.000 C 
BRANCH   2   3
ATOM      3  C   UNL     1      49.308  22.722  53.294  1.00  0.00     0.000 C 
BRANCH   3   4
ATOM      4  C   UNL     1      49.663  23.837  52.295  1.00  0.00     0.000 C 
BRANCH   4   5
ATOM      5  C   UNL     1      51.154  23.860  51.931  1.00  0.00     0.000 C 
BRANCH   5   6
ATOM      6  C   UNL     1      52.029  23.792  53.191  1.00  0.00     0.006 C 
BRANCH   6   7
ATOM      7  C   UNL     1      53.134  22.734  53.074  1.00  0.00     0.053 C 
BRANCH   7   8
ATOM      8  C   UNL     1      53.057  21.727  54.179  1.00  0.00     0.041 C 
ATOM      9  O   UNL     1      53.777  21.853  55.205  1.00  0.00    -0.550 OA
ATOM     10  O   UNL     1      52.164  20.665  54.093  1.00  0.00    -0.550 OA
ENDBRANCH   7   8
ENDBRANCH   6   7
ENDBRANCH   5   6
ENDBRANCH   4   5
ENDBRANCH   3   4
ENDBRANCH   2   3
ENDBRANCH   1   2
BRANCH   1  11
ATOM     11  C   UNL     1      47.813  20.501  50.614  1.00  0.00     0.000 C 
BRANCH  11  12
ATOM     12  C   UNL     1      48.999  20.376  49.645  1.00  0.00    -0.000 C 
BRANCH  12  13
ATOM     13  C   UNL     1      50.189  19.618  50.255  1.00  0.00    -0.000 C 
BRANCH  13  14
ATOM     14  C   UNL     1      51.334  20.556  50.675  1.00  0.00    -0.000 C 
BRANCH  14  15
ATOM     15  C   UNL     1      52.397  20.717  49.576  1.00  0.00    -0.000 C 
BRANCH  15  16
ATOM     16  C   UNL     1      53.831  20.559  50.111  1.00  0.00    -0.000 C 
BRANCH  16  17
ATOM     17  C   UNL     1      54.831  20.179  49.008  1.00  0.00    -0.003 C 
ATOM     18  C   UNL     1      55.063  21.310  48.007  1.00  0.00     0.004 C 
ENDBRANCH  16  17
ENDBRANCH  15  16
ENDBRANCH  14  15
ENDBRANCH  13  14
ENDBRANCH  12  13
ENDBRANCH  11  12
ENDBRANCH   1  11
TORSDOF 14
ENDMDL
MODEL 2
REMARK VINA RESULT:    -4.730      1.230      1.747
REMARK INTER + INTRA:         -10.363
REMARK INTER:                  -8.921
REMARK INTRA:                  -1.443
REMARK UNBOUND:                -1.762
REMARK SMILES CCCCCCCCCCCCCCCC(=O)[O-]
REMARK SMILES IDX 9 1 10 2 11 3 12 4 13 5 14 6 15 7 16 8 17 9 18 10 8 11 7 12
REMARK SMILES IDX 6 13 5 14 4 15 3 16 2 17 1 18
REMARK H PARENT
REMARK Flexibility Score: inf
ROOT
ATOM      1  C   UNL     1      48.197  20.632  50.009  1.00  0.00     0.000 C 
ENDROOT
BRANCH   1   2
ATOM      2  C   UNL     1      47.615  21.339  51.245  1.00  0.00     0.000 C 
BRANCH   2   3
ATOM      3  C   UNL     1      48.501  22.454  51.838  1.00  0.00     0.000 C 
BRANCH   3   4
ATOM      4  C   UNL     1      48.776  22.338  53.347  1.00  0.00     0.000 C 
BRANCH   4   5
ATOM      5  C   UNL     1      50.212  22.728  53.724  1.00  0.00     0.000 C 
BRANCH   5   6
ATOM      6  C   UNL     1      50.789  21.761  54.768  1.00  0.00     0.006 C 
BRANCH   6   7
ATOM      7  C   UNL     1      52.144  22.233  55.311  1.00  0.00     0.053 C 
BRANCH   7   8
ATOM      8  C   UNL     1      53.232  22.085  54.292  1.00  0.00     0.041 C 
ATOM      9  O   UNL     1      53.830  20.985  54.156  1.00  0.00    -0.550 OA
ATOM     10  O   UNL     1      53.564  23.154  53.468  1.00  0.00    -0.550 OA
ENDBRANCH   7   8
ENDBRANCH   6   7
ENDBRANCH   5   6
ENDBRANCH   4   5
ENDBRANCH   3   4
ENDBRANCH   2   3
ENDBRANCH   1   2
BRANCH   1  11
ATOM     11  C   UNL     1      48.834  19.274  50.342  1.00  0.00     0.000 C 
BRANCH  11  12
ATOM     12  C   UNL     1      50.314  19.248  49.932  1.00  0.00    -0.000 C 
BRANCH  12  13
ATOM     13  C   UNL     1      50.941  20.650  49.872  1.00  0.00    -0.000 C 
BRANCH  13  14
ATOM     14  C   UNL     1      51.918  20.910  51.031  1.00  0.00    -0.000 C 
BRANCH  14  15
ATOM     15  C   UNL     1      53.371  21.066  50.553  1.00  0.00    -0.000 C 
BRANCH  15  16
ATOM     16  C   UNL     1      53.672  20.239  49.291  1.00  0.00    -0.000 C 
BRANCH  16  17
ATOM     17  C   UNL     1      55.152  20.306  48.884  1.00  0.00    -0.003 C 
ATOM     18  C   UNL     1      55.436  21.414  47.870  1.00  0.00     0.004 C 
ENDBRANCH  16  17
ENDBRANCH  15  16
ENDBRANCH  14  15
ENDBRANCH  13  14
ENDBRANCH  12  13
ENDBRANCH  11  12
ENDBRANCH   1  11
TORSDOF 14
ENDMDL
MODEL 3
REMARK VINA RESULT:    -4.544      2.519      4.159
REMARK INTER + INTRA:         -10.025
REMARK INTER:                  -8.197
REMARK INTRA:                  -1.828
REMARK UNBOUND:                -1.762
REMARK SMILES CCCCCCCCCCCCCCCC(=O)[O-]
REMARK SMILES IDX 9 1 10 2 11 3 12 4 13 5 14 6 15 7 16 8 17 9 18 10 8 11 7 12
REMARK SMILES IDX 6 13 5 14 4 15 3 16 2 17 1 18
REMARK H PARENT
REMARK Flexibility Score: inf
ROOT
ATOM      1  C   UNL     1      50.634  21.707  54.651  1.00  0.00     0.000 C 
ENDROOT
BRANCH   1   2
ATOM      2  C   UNL     1      51.034  23.187  54.795  1.00  0.00     0.000 C 
BRANCH   2   3
ATOM      3  C   UNL     1      50.068  24.192  54.135  1.00  0.00     0.000 C 
BRANCH   3   4
ATOM      4  C   UNL     1      49.788  23.946  52.643  1.00  0.00     0.000 C 
BRANCH   4   5
ATOM      5  C   UNL     1      48.288  23.906  52.315  1.00  0.00     0.000 C 
BRANCH   5   6
ATOM      6  C   UNL     1      47.768  22.462  52.291  1.00  0.00     0.006 C 
BRANCH   6   7
ATOM      7  C   UNL     1      48.752  21.502  51.608  1.00  0.00     0.053 C 
BRANCH   7   8
ATOM      8  C   UNL     1      48.176  20.915  50.356  1.00  0.00     0.041 C 
ATOM      9  O   UNL     1      46.928  20.818  50.216  1.00  0.00    -0.550 OA
ATOM     10  O   UNL     1      49.017  20.506  49.329  1.00  0.00    -0.550 OA
ENDBRANCH   7   8
ENDBRANCH   6   7
ENDBRANCH   5   6
ENDBRANCH   4   5
ENDBRANCH   3   4
ENDBRANCH   2   3
ENDBRANCH   1   2
BRANCH   1  11
ATOM     11  C   UNL     1      51.635  20.897  53.814  1.00  0.00     0.000 C 
BRANCH  11  12
ATOM     12  C   UNL     1      52.935  21.687  53.597  1.00  0.00    -0.000 C 
BRANCH  12  13
ATOM     13  C   UNL     1      53.362  21.738  52.122  1.00  0.00    -0.000 C 
BRANCH  13  14
ATOM     14  C   UNL     1      52.184  21.513  51.158  1.00  0.00    -0.000 C 
BRANCH  14  15
ATOM     15  C   UNL     1      52.581  20.685  49.925  1.00  0.00    -0.000 C 
BRANCH  15  16
ATOM     16  C   UNL     1      54.079  20.330  49.906  1.00  0.00    -0.000 C 
BRANCH  16  17
ATOM     17  C   UNL     1      54.618  20.133  48.481  1.00  0.00    -0.003 C 
ATOM     18  C   UNL     1      55.236  21.404  47.903  1.00  0.00     0.004 C 
ENDBRANCH  16  17
ENDBRANCH  15  16
ENDBRANCH  14  15
ENDBRANCH  13  14
ENDBRANCH  12  13
ENDBRANCH  11  12
ENDBRANCH   1  11
TORSDOF 14
ENDMDL
MODEL 4
REMARK VINA RESULT:    -4.543      3.728      5.838
REMARK INTER + INTRA:         -10.023
REMARK INTER:                  -9.114
REMARK INTRA:                  -0.909
REMARK UNBOUND:                -1.762
REMARK SMILES CCCCCCCCCCCCCCCC(=O)[O-]
REMARK SMILES IDX 9 1 10 2 11 3 12 4 13 5 14 6 15 7 16 8 17 9 18 10 8 11 7 12
REMARK SMILES IDX 6 13 5 14 4 15 3 16 2 17 1 18
REMARK H PARENT
REMARK Flexibility Score: inf
ROOT
ATOM      1  C   UNL     1      47.765  22.156  51.732  1.00  0.00     0.000 C 
ENDROOT
BRANCH   1   2
ATOM      2  C   UNL     1      47.760  21.128  50.586  1.00  0.00     0.000 C 
BRANCH   2   3
ATOM      3  C   UNL     1      47.350  19.698  50.994  1.00  0.00     0.000 C 
BRANCH   3   4
ATOM      4  C   UNL     1      45.841  19.484  51.199  1.00  0.00     0.000 C 
BRANCH   4   5
ATOM      5  C   UNL     1      45.526  18.295  52.119  1.00  0.00     0.000 C 
BRANCH   5   6
ATOM      6  C   UNL     1      44.064  18.332  52.585  1.00  0.00     0.006 C 
BRANCH   6   7
ATOM      7  C   UNL     1      43.935  18.171  54.106  1.00  0.00     0.053 C 
BRANCH   7   8
ATOM      8  C   UNL     1      43.877  19.496  54.801  1.00  0.00     0.041 C 
ATOM      9  O   UNL     1      42.765  20.010  55.096  1.00  0.00    -0.550 OA
ATOM     10  O   UNL     1      45.052  20.149  55.154  1.00  0.00    -0.550 OA
ENDBRANCH   7   8
ENDBRANCH   6   7
ENDBRANCH   5   6
ENDBRANCH   4   5
ENDBRANCH   3   4
ENDBRANCH   2   3
ENDBRANCH   1   2
BRANCH   1  11
ATOM     11  C   UNL     1      49.036  22.086  52.592  1.00  0.00     0.000 C 
BRANCH  11  12
ATOM     12  C   UNL     1      50.283  22.404  51.754  1.00  0.00    -0.000 C 
BRANCH  12  13
ATOM     13  C   UNL     1      51.377  21.331  51.884  1.00  0.00    -0.000 C 
BRANCH  13  14
ATOM     14  C   UNL     1      51.302  20.274  50.769  1.00  0.00    -0.000 C 
BRANCH  14  15
ATOM     15  C   UNL     1      52.209  20.612  49.574  1.00  0.00    -0.000 C 
BRANCH  15  16
ATOM     16  C   UNL     1      53.697  20.687  49.962  1.00  0.00    -0.000 C 
BRANCH  16  17
ATOM     17  C   UNL     1      54.622  20.197  48.838  1.00  0.00    -0.003 C 
ATOM     18  C   UNL     1      55.312  21.343  48.099  1.00  0.00     0.004 C 
ENDBRANCH  16  17
ENDBRANCH  15  16
ENDBRANCH  14  15
ENDBRANCH  13  14
ENDBRANCH  12  13
ENDBRANCH  11  12
ENDBRANCH   1  11
TORSDOF 14
ENDMDL
MODEL 5
REMARK VINA RESULT:    -4.485      2.402      4.325
REMARK INTER + INTRA:          -9.919
REMARK INTER:                  -8.613
REMARK INTRA:                  -1.305
REMARK UNBOUND:                -1.762
REMARK SMILES CCCCCCCCCCCCCCCC(=O)[O-]
REMARK SMILES IDX 9 1 10 2 11 3 12 4 13 5 14 6 15 7 16 8 17 9 18 10 8 11 7 12
REMARK SMILES IDX 6 13 5 14 4 15 3 16 2 17 1 18
REMARK H PARENT
REMARK Flexibility Score: inf
ROOT
ATOM      1  C   UNL     1      51.766  23.525  53.749  1.00  0.00     0.000 C 
ENDROOT
BRANCH   1   2
ATOM      2  C   UNL     1      51.381  24.513  52.633  1.00  0.00     0.000 C 
BRANCH   2   3
ATOM      3  C   UNL     1      50.104  24.149  51.849  1.00  0.00     0.000 C 
BRANCH   3   4
ATOM      4  C   UNL     1      48.783  24.427  52.586  1.00  0.00     0.000 C 
BRANCH   4   5
ATOM      5  C   UNL     1      47.796  23.253  52.508  1.00  0.00     0.000 C 
BRANCH   5   6
ATOM      6  C   UNL     1      48.480  21.996  51.950  1.00  0.00     0.006 C 
BRANCH   6   7
ATOM      7  C   UNL     1      47.712  21.395  50.766  1.00  0.00     0.053 C 
BRANCH   7   8
ATOM      8  C   UNL     1      47.763  19.898  50.774  1.00  0.00     0.041 C 
ATOM      9  O   UNL     1      46.783  19.231  51.200  1.00  0.00    -0.550 OA
ATOM     10  O   UNL     1      48.881  19.237  50.280  1.00  0.00    -0.550 OA
ENDBRANCH   7   8
ENDBRANCH   6   7
ENDBRANCH   5   6
ENDBRANCH   4   5
ENDBRANCH   3   4
ENDBRANCH   2   3
ENDBRANCH   1   2
BRANCH   1  11
ATOM     11  C   UNL     1      52.907  22.580  53.343  1.00  0.00     0.000 C 
BRANCH  11  12
ATOM     12  C   UNL     1      52.360  21.203  52.938  1.00  0.00    -0.000 C 
BRANCH  12  13
ATOM     13  C   UNL     1      52.067  21.097  51.433  1.00  0.00    -0.000 C 
BRANCH  13  14
ATOM     14  C   UNL     1      53.336  21.226  50.573  1.00  0.00    -0.000 C 
BRANCH  14  15
ATOM     15  C   UNL     1      53.426  20.142  49.487  1.00  0.00    -0.000 C 
BRANCH  15  16
ATOM     16  C   UNL     1      54.764  20.172  48.729  1.00  0.00    -0.000 C 
BRANCH  16  17
ATOM     17  C   UNL     1      55.195  21.598  48.355  1.00  0.00    -0.003 C 
ATOM     18  C   UNL     1      55.933  21.661  47.018  1.00  0.00     0.004 C 
ENDBRANCH  16  17
ENDBRANCH  15  16
ENDBRANCH  14  15
ENDBRANCH  13  14
ENDBRANCH  12  13
ENDBRANCH  11  12
ENDBRANCH   1  11
TORSDOF 14
ENDMDL
MODEL 6
REMARK VINA RESULT:    -4.371      1.709      2.460
REMARK INTER + INTRA:          -9.710
REMARK INTER:                  -8.147
REMARK INTRA:                  -1.563
REMARK UNBOUND:                -1.762
REMARK SMILES CCCCCCCCCCCCCCCC(=O)[O-]
REMARK SMILES IDX 9 1 10 2 11 3 12 4 13 5 14 6 15 7 16 8 17 9 18 10 8 11 7 12
REMARK SMILES IDX 6 13 5 14 4 15 3 16 2 17 1 18
REMARK H PARENT
REMARK Flexibility Score: inf
ROOT
ATOM      1  C   UNL     1      48.341  21.931  53.184  1.00  0.00     0.000 C 
ENDROOT
BRANCH   1   2
ATOM      2  C   UNL     1      49.432  22.599  54.039  1.00  0.00     0.000 C 
BRANCH   2   3
ATOM      3  C   UNL     1      50.879  22.334  53.577  1.00  0.00     0.000 C 
BRANCH   3   4
ATOM      4  C   UNL     1      51.426  20.935  53.910  1.00  0.00     0.000 C 
BRANCH   4   5
ATOM      5  C   UNL     1      52.783  20.980  54.628  1.00  0.00     0.000 C 
BRANCH   5   6
ATOM      6  C   UNL     1      53.684  22.072  54.034  1.00  0.00     0.006 C 
BRANCH   6   7
ATOM      7  C   UNL     1      54.066  23.136  55.071  1.00  0.00     0.053 C 
BRANCH   7   8
ATOM      8  C   UNL     1      55.330  22.780  55.791  1.00  0.00     0.041 C 
ATOM      9  O   UNL     1      56.443  22.875  55.208  1.00  0.00    -0.550 OA
ATOM     10  O   UNL     1      55.283  22.373  57.119  1.00  0.00    -0.550 OA
ENDBRANCH   7   8
ENDBRANCH   6   7
ENDBRANCH   5   6
ENDBRANCH   4   5
ENDBRANCH   3   4
ENDBRANCH   2   3
ENDBRANCH   1   2
BRANCH   1  11
ATOM     11  C   UNL     1      48.528  22.176  51.679  1.00  0.00     0.000 C 
BRANCH  11  12
ATOM     12  C   UNL     1      48.171  20.919  50.870  1.00  0.00    -0.000 C 
BRANCH  12  13
ATOM     13  C   UNL     1      49.273  20.517  49.877  1.00  0.00    -0.000 C 
BRANCH  13  14
ATOM     14  C   UNL     1      50.599  21.253  50.136  1.00  0.00    -0.000 C 
BRANCH  14  15
ATOM     15  C   UNL     1      51.818  20.321  50.046  1.00  0.00    -0.000 C 
BRANCH  15  16
ATOM     16  C   UNL     1      53.110  20.982  50.559  1.00  0.00    -0.000 C 
BRANCH  16  17
ATOM     17  C   UNL     1      54.153  21.174  49.448  1.00  0.00    -0.003 C 
ATOM     18  C   UNL     1      54.558  19.859  48.784  1.00  0.00     0.004 C 
ENDBRANCH  16  17
ENDBRANCH  15  16
ENDBRANCH  14  15
ENDBRANCH  13  14
ENDBRANCH  12  13
ENDBRANCH  11  12
ENDBRANCH   1  11
TORSDOF 14
ENDMDL
MODEL 7
REMARK VINA RESULT:    -4.314      2.718      4.315
REMARK INTER + INTRA:          -9.608
REMARK INTER:                  -7.669
REMARK INTRA:                  -1.939
REMARK UNBOUND:                -1.762
REMARK SMILES CCCCCCCCCCCCCCCC(=O)[O-]
REMARK SMILES IDX 9 1 10 2 11 3 12 4 13 5 14 6 15 7 16 8 17 9 18 10 8 11 7 12
REMARK SMILES IDX 6 13 5 14 4 15 3 16 2 17 1 18
REMARK H PARENT
REMARK Flexibility Score: inf
ROOT
ATOM      1  C   UNL     1      54.071  23.763  53.498  1.00  0.00     0.000 C 
ENDROOT
BRANCH   1   2
ATOM      2  C   UNL     1      53.244  24.629  52.530  1.00  0.00     0.000 C 
BRANCH   2   3
ATOM      3  C   UNL     1      51.754  24.780  52.898  1.00  0.00     0.000 C 
BRANCH   3   4
ATOM      4  C   UNL     1      50.763  24.288  51.830  1.00  0.00     0.000 C 
BRANCH   4   5
ATOM      5  C   UNL     1      49.352  24.050  52.388  1.00  0.00     0.000 C 
BRANCH   5   6
ATOM      6  C   UNL     1      49.398  23.771  53.897  1.00  0.00     0.006 C 
BRANCH   6   7
ATOM      7  C   UNL     1      48.945  22.344  54.237  1.00  0.00     0.053 C 
BRANCH   7   8
ATOM      8  C   UNL     1      47.478  22.285  54.536  1.00  0.00     0.041 C 
ATOM      9  O   UNL     1      46.828  23.344  54.739  1.00  0.00    -0.550 OA
ATOM     10  O   UNL     1      46.822  21.060  54.556  1.00  0.00    -0.550 OA
ENDBRANCH   7   8
ENDBRANCH   6   7
ENDBRANCH   5   6
ENDBRANCH   4   5
ENDBRANCH   3   4
ENDBRANCH   2   3
ENDBRANCH   1   2
BRANCH   1  11
ATOM     11  C   UNL     1      53.208  22.785  54.309  1.00  0.00     0.000 C 
BRANCH  11  12
ATOM     12  C   UNL     1      53.249  21.378  53.693  1.00  0.00    -0.000 C 
BRANCH  12  13
ATOM     13  C   UNL     1      51.887  20.932  53.137  1.00  0.00    -0.000 C 
BRANCH  13  14
ATOM     14  C   UNL     1      51.841  20.954  51.600  1.00  0.00    -0.000 C 
BRANCH  14  15
ATOM     15  C   UNL     1      53.234  21.120  50.970  1.00  0.00    -0.000 C 
BRANCH  15  16
ATOM     16  C   UNL     1      53.304  20.574  49.533  1.00  0.00    -0.000 C 
BRANCH  16  17
ATOM     17  C   UNL     1      54.747  20.310  49.074  1.00  0.00    -0.003 C 
ATOM     18  C   UNL     1      55.209  21.284  47.992  1.00  0.00     0.004 C 
ENDBRANCH  16  17
ENDBRANCH  15  16
ENDBRANCH  14  15
ENDBRANCH  13  14
ENDBRANCH  12  13
ENDBRANCH  11  12
ENDBRANCH   1  11
TORSDOF 14
ENDMDL
MODEL 8
REMARK VINA RESULT:    -4.312      2.294      4.788
REMARK INTER + INTRA:          -9.604
REMARK INTER:                  -7.448
REMARK INTRA:                  -2.156
REMARK UNBOUND:                -1.762
REMARK SMILES CCCCCCCCCCCCCCCC(=O)[O-]
REMARK SMILES IDX 9 1 10 2 11 3 12 4 13 5 14 6 15 7 16 8 17 9 18 10 8 11 7 12
REMARK SMILES IDX 6 13 5 14 4 15 3 16 2 17 1 18
REMARK H PARENT
REMARK Flexibility Score: inf
ROOT
ATOM      1  C   UNL     1      48.457  21.806  52.883  1.00  0.00     0.000 C 
ENDROOT
BRANCH   1   2
ATOM      2  C   UNL     1      48.135  21.752  51.379  1.00  0.00     0.000 C 
BRANCH   2   3
ATOM      3  C   UNL     1      48.735  20.548  50.625  1.00  0.00     0.000 C 
BRANCH   3   4
ATOM      4  C   UNL     1      49.982  20.862  49.779  1.00  0.00     0.000 C 
BRANCH   4   5
ATOM      5  C   UNL     1      51.292  20.696  50.562  1.00  0.00     0.000 C 
BRANCH   5   6
ATOM      6  C   UNL     1      52.434  20.254  49.636  1.00  0.00     0.006 C 
BRANCH   6   7
ATOM      7  C   UNL     1      53.723  21.048  49.884  1.00  0.00     0.053 C 
BRANCH   7   8
ATOM      8  C   UNL     1      54.804  20.667  48.920  1.00  0.00     0.041 C 
ATOM      9  O   UNL     1      55.401  19.564  49.038  1.00  0.00    -0.550 OA
ATOM     10  O   UNL     1      55.131  21.516  47.869  1.00  0.00    -0.550 OA
ENDBRANCH   7   8
ENDBRANCH   6   7
ENDBRANCH   5   6
ENDBRANCH   4   5
ENDBRANCH   3   4
ENDBRANCH   2   3
ENDBRANCH   1   2
BRANCH   1  11
ATOM     11  C   UNL     1      49.141  23.117  53.300  1.00  0.00     0.000 C 
BRANCH  11  12
ATOM     12  C   UNL     1      49.699  23.858  52.076  1.00  0.00    -0.000 C 
BRANCH  12  13
ATOM     13  C   UNL     1      51.185  24.221  52.225  1.00  0.00    -0.000 C 
BRANCH  13  14
ATOM     14  C   UNL     1      51.603  24.404  53.694  1.00  0.00    -0.000 C 
BRANCH  14  15
ATOM     15  C   UNL     1      52.924  23.689  54.024  1.00  0.00    -0.000 C 
BRANCH  15  16
ATOM     16  C   UNL     1      53.167  22.454  53.138  1.00  0.00    -0.000 C 
BRANCH  16  17
ATOM     17  C   UNL     1      53.212  21.150  53.949  1.00  0.00    -0.003 C 
ATOM     18  C   UNL     1      51.825  20.556  54.190  1.00  0.00     0.004 C 
ENDBRANCH  16  17
ENDBRANCH  15  16
ENDBRANCH  14  15
ENDBRANCH  13  14
ENDBRANCH  12  13
ENDBRANCH  11  12
ENDBRANCH   1  11
TORSDOF 14
ENDMDL
MODEL 9
REMARK VINA RESULT:    -4.291      2.190      4.341
REMARK INTER + INTRA:          -9.566
REMARK INTER:                  -7.501
REMARK INTRA:                  -2.065
REMARK UNBOUND:                -1.762
REMARK SMILES CCCCCCCCCCCCCCCC(=O)[O-]
REMARK SMILES IDX 9 1 10 2 11 3 12 4 13 5 14 6 15 7 16 8 17 9 18 10 8 11 7 12
REMARK SMILES IDX 6 13 5 14 4 15 3 16 2 17 1 18
REMARK H PARENT
REMARK Flexibility Score: inf
ROOT
ATOM      1  C   UNL     1      53.818  22.616  55.463  1.00  0.00     0.000 C 
ENDROOT
BRANCH   1   2
ATOM      2  C   UNL     1      53.835  23.983  54.756  1.00  0.00     0.000 C 
BRANCH   2   3
ATOM      3  C   UNL     1      54.182  23.937  53.253  1.00  0.00     0.000 C 
BRANCH   3   4
ATOM      4  C   UNL     1      53.185  24.657  52.330  1.00  0.00     0.000 C 
BRANCH   4   5
ATOM      5  C   UNL     1      51.754  24.668  52.887  1.00  0.00     0.000 C 
BRANCH   5   6
ATOM      6  C   UNL     1      50.729  24.398  51.776  1.00  0.00     0.006 C 
BRANCH   6   7
ATOM      7  C   UNL     1      49.284  24.510  52.281  1.00  0.00     0.053 C 
BRANCH   7   8
ATOM      8  C   UNL     1      48.742  23.182  52.710  1.00  0.00     0.041 C 
ATOM      9  O   UNL     1      48.674  22.888  53.933  1.00  0.00    -0.550 OA
ATOM     10  O   UNL     1      48.281  22.278  51.760  1.00  0.00    -0.550 OA
ENDBRANCH   7   8
ENDBRANCH   6   7
ENDBRANCH   5   6
ENDBRANCH   4   5
ENDBRANCH   3   4
ENDBRANCH   2   3
ENDBRANCH   1   2
BRANCH   1  11
ATOM     11  C   UNL     1      53.743  21.437  54.482  1.00  0.00     0.000 C 
BRANCH  11  12
ATOM     12  C   UNL     1      52.361  20.767  54.535  1.00  0.00    -0.000 C 
BRANCH  12  13
ATOM     13  C   UNL     1      51.569  20.932  53.228  1.00  0.00    -0.000 C 
BRANCH  13  14
ATOM     14  C   UNL     1      52.482  21.074  51.998  1.00  0.00    -0.000 C 
BRANCH  14  15
ATOM     15  C   UNL     1      51.702  21.016  50.674  1.00  0.00    -0.000 C 
BRANCH  15  16
ATOM     16  C   UNL     1      52.554  20.486  49.507  1.00  0.00    -0.000 C 
BRANCH  16  17
ATOM     17  C   UNL     1      54.061  20.591  49.784  1.00  0.00    -0.003 C 
ATOM     18  C   UNL     1      54.872  20.906  48.528  1.00  0.00     0.004 C 
ENDBRANCH  16  17
ENDBRANCH  15  16
ENDBRANCH  14  15
ENDBRANCH  13  14
ENDBRANCH  12  13
ENDBRANCH  11  12
ENDBRANCH   1  11
TORSDOF 14
ENDMDL
