MODEL 1
REMARK VINA RESULT:    -7.870      0.000      0.000
REMARK INTER + INTRA:         -16.542
REMARK INTER:                 -12.931
REMARK INTRA:                  -3.611
REMARK UNBOUND:                -3.611
REMARK SMILES C[C@H]1O[C@H](OC[C@@H]2O[C@@H](Oc3c(-c4ccc(O)c(O)c4)oc4cc(O)cc(O)c4c3=O)[C@@H](O)[C@@H](O)[C@H]2O)[C@@H](O)[C@@H](O)[C@@H]1O
REMARK SMILES IDX 7 1 36 2 34 3 32 4 9 5 8 6 6 7 5 8 4 9 1 10 2 11 42 12 3 13
REMARK SMILES IDX 40 14 38 15 43 16 41 18 39 20 37 22 35 24 10 26 11 27 12 28
REMARK SMILES IDX 30 29 21 30 29 31 31 32 22 33 27 34 23 35 26 36 24 37 13 38
REMARK SMILES IDX 20 39 14 40 18 41 15 42 16 43 19 44 17 46 28 48 25 50 33 52
REMARK H PARENT 43 17 41 19 39 21 37 23 35 25 19 45 17 47 28 49 25 51 33 53
REMARK Flexibility Score: inf
ROOT
ATOM      1  C   UNL     1     -11.986 -12.291  28.398  1.00  0.00     0.180 C 
ATOM      2  C   UNL     1     -12.169 -11.777  29.850  1.00  0.00     0.177 C 
ATOM      3  C   UNL     1     -12.596 -10.296  29.845  1.00  0.00     0.180 C 
ATOM      4  C   UNL     1     -11.633  -9.490  28.956  1.00  0.00     0.214 C 
ATOM      5  C   UNL     1     -11.489 -10.157  27.564  1.00  0.00     0.339 C 
ATOM      6  O   UNL     1     -11.026 -11.492  27.706  1.00  0.00    -0.332 OA
ENDROOT
BRANCH   1   7
ATOM      7  C   UNL     1     -11.539 -13.756  28.369  1.00  0.00     0.198 C 
BRANCH   7   8
ATOM      8  O   UNL     1     -12.683 -14.570  28.139  1.00  0.00    -0.347 OA
BRANCH   8   9
ATOM      9  C   UNL     1     -12.485 -15.912  28.525  1.00  0.00     0.281 C 
ATOM     10  C   UNL     1      -9.926 -18.347  27.655  1.00  0.00     0.041 C 
ATOM     11  C   UNL     1     -10.647 -17.456  28.676  1.00  0.00     0.150 C 
ATOM     12  C   UNL     1     -11.636 -18.282  29.532  1.00  0.00     0.174 C 
ATOM     13  O   UNL     1     -11.243 -16.356  27.997  1.00  0.00    -0.344 OA
ATOM     14  C   UNL     1     -12.197 -17.381  30.634  1.00  0.00     0.179 C 
ATOM     15  C   UNL     1     -12.536 -15.964  30.082  1.00  0.00     0.202 C 
BRANCH  12  16
ATOM     16  O   UNL     1     -10.978 -19.385  30.106  1.00  0.00    -0.388 OA
ATOM     17  H   UNL     1     -10.399 -19.026  30.826  1.00  0.00     0.211 HD
ENDBRANCH  12  16
BRANCH  14  18
ATOM     18  O   UNL     1     -13.301 -18.039  31.212  1.00  0.00    -0.387 OA
ATOM     19  H   UNL     1     -13.469 -17.687  32.144  1.00  0.00     0.211 HD
ENDBRANCH  14  18
BRANCH  15  20
ATOM     20  O   UNL     1     -13.778 -15.495  30.549  1.00  0.00    -0.385 OA
ATOM     21  H   UNL     1     -13.636 -15.124  31.461  1.00  0.00     0.211 HD
ENDBRANCH  15  20
ENDBRANCH   8   9
ENDBRANCH   7   8
ENDBRANCH   1   7
BRANCH   2  22
ATOM     22  O   UNL     1     -13.140 -12.537  30.516  1.00  0.00    -0.387 OA
ATOM     23  H   UNL     1     -13.653 -11.913  31.091  1.00  0.00     0.211 HD
ENDBRANCH   2  22
BRANCH   3  24
ATOM     24  O   UNL     1     -13.909 -10.172  29.358  1.00  0.00    -0.387 OA
ATOM     25  H   UNL     1     -14.326  -9.409  29.834  1.00  0.00     0.211 HD
ENDBRANCH   3  24
BRANCH   5  26
ATOM     26  O   UNL     1     -12.730 -10.141  26.850  1.00  0.00    -0.454 OA
BRANCH  26  27
ATOM     27  C   UNL     1     -12.908  -9.546  25.597  1.00  0.00     0.214 A 
ATOM     28  C   UNL     1     -12.673 -10.263  24.407  1.00  0.00     0.180 A 
ATOM     29  C   UNL     1     -13.441  -8.256  25.511  1.00  0.00     0.239 A 
ATOM     30  O   UNL     1     -12.931  -9.700  23.236  1.00  0.00    -0.452 OA
ATOM     31  C   UNL     1     -13.712  -7.685  24.251  1.00  0.00     0.111 A 
ATOM     32  O   UNL     1     -13.698  -7.627  26.578  1.00  0.00    -0.285 OA
ATOM     33  C   UNL     1     -13.437  -8.476  23.110  1.00  0.00     0.146 A 
ATOM     34  C   UNL     1     -14.234  -6.380  24.075  1.00  0.00     0.134 A 
ATOM     35  C   UNL     1     -13.694  -7.972  21.834  1.00  0.00     0.094 A 
ATOM     36  C   UNL     1     -14.474  -5.887  22.777  1.00  0.00     0.093 A 
ATOM     37  C   UNL     1     -14.209  -6.686  21.662  1.00  0.00     0.123 A 
BRANCH  28  38
ATOM     38  C   UNL     1     -12.197 -11.652  24.416  1.00  0.00     0.025 A 
ATOM     39  C   UNL     1     -13.079 -12.711  24.703  1.00  0.00     0.062 A 
ATOM     40  C   UNL     1     -10.826 -11.915  24.320  1.00  0.00     0.016 A 
ATOM     41  C   UNL     1     -12.596 -14.014  24.891  1.00  0.00     0.158 A 
ATOM     42  C   UNL     1     -10.340 -13.211  24.507  1.00  0.00     0.051 A 
ATOM     43  C   UNL     1     -11.205 -14.271  24.809  1.00  0.00     0.157 A 
BRANCH  41  44
ATOM     44  O   UNL     1     -13.524 -15.014  25.167  1.00  0.00    -0.504 OA
ATOM     45  H   UNL     1     -14.206 -15.359  24.504  1.00  0.00     0.293 HD
ENDBRANCH  41  44
BRANCH  43  46
ATOM     46  O   UNL     1     -10.655 -15.540  25.048  1.00  0.00    -0.504 OA
ATOM     47  H   UNL     1     -11.068 -16.207  25.686  1.00  0.00     0.293 HD
ENDBRANCH  43  46
ENDBRANCH  28  38
BRANCH  34  48
ATOM     48  O   UNL     1     -14.502  -5.566  25.174  1.00  0.00    -0.507 OA
ATOM     49  H   UNL     1     -14.116  -5.787  26.082  1.00  0.00     0.293 HD
ENDBRANCH  34  48
BRANCH  37  50
ATOM     50  O   UNL     1     -14.470  -6.200  20.389  1.00  0.00    -0.508 OA
ATOM     51  H   UNL     1     -13.749  -5.734  19.846  1.00  0.00     0.293 HD
ENDBRANCH  37  50
ENDBRANCH  26  27
ENDBRANCH   5  26
BRANCH   4  52
ATOM     52  O   UNL     1     -12.080  -8.161  28.818  1.00  0.00    -0.384 OA
ATOM     53  H   UNL     1     -11.698  -7.643  29.569  1.00  0.00     0.211 HD
ENDBRANCH   4  52
TORSDOF 16
ENDMDL
MODEL 2
REMARK VINA RESULT:    -7.732      1.535      2.438
REMARK INTER + INTRA:         -16.316
REMARK INTER:                 -13.429
REMARK INTRA:                  -2.887
REMARK UNBOUND:                -3.611
REMARK SMILES C[C@H]1O[C@H](OC[C@@H]2O[C@@H](Oc3c(-c4ccc(O)c(O)c4)oc4cc(O)cc(O)c4c3=O)[C@@H](O)[C@@H](O)[C@H]2O)[C@@H](O)[C@@H](O)[C@@H]1O
REMARK SMILES IDX 7 1 36 2 34 3 32 4 9 5 8 6 6 7 5 8 4 9 1 10 2 11 42 12 3 13
REMARK SMILES IDX 40 14 38 15 43 16 41 18 39 20 37 22 35 24 10 26 11 27 12 28
REMARK SMILES IDX 30 29 21 30 29 31 31 32 22 33 27 34 23 35 26 36 24 37 13 38
REMARK SMILES IDX 20 39 14 40 18 41 15 42 16 43 19 44 17 46 28 48 25 50 33 52
REMARK H PARENT 43 17 41 19 39 21 37 23 35 25 19 45 17 47 28 49 25 51 33 53
REMARK Flexibility Score: inf
ROOT
ATOM      1  C   UNL     1     -12.293 -12.440  28.374  1.00  0.00     0.180 C 
ATOM      2  C   UNL     1     -12.368 -11.878  29.818  1.00  0.00     0.177 C 
ATOM      3  C   UNL     1     -12.650 -10.363  29.789  1.00  0.00     0.180 C 
ATOM      4  C   UNL     1     -11.649  -9.675  28.845  1.00  0.00     0.214 C 
ATOM      5  C   UNL     1     -11.626 -10.384  27.467  1.00  0.00     0.339 C 
ATOM      6  O   UNL     1     -11.289 -11.754  27.626  1.00  0.00    -0.332 OA
ENDROOT
BRANCH   1   7
ATOM      7  C   UNL     1     -11.992 -13.942  28.366  1.00  0.00     0.198 C 
BRANCH   7   8
ATOM      8  O   UNL     1     -11.138 -14.235  29.465  1.00  0.00    -0.347 OA
BRANCH   8   9
ATOM      9  C   UNL     1     -10.078 -15.098  29.118  1.00  0.00     0.281 C 
ATOM     10  C   UNL     1     -10.022 -18.546  27.961  1.00  0.00     0.041 C 
ATOM     11  C   UNL     1      -9.762 -17.049  27.748  1.00  0.00     0.150 C 
ATOM     12  C   UNL     1      -8.262 -16.716  27.921  1.00  0.00     0.174 C 
ATOM     13  O   UNL     1     -10.627 -16.300  28.595  1.00  0.00    -0.344 OA
ATOM     14  C   UNL     1      -8.039 -15.251  27.534  1.00  0.00     0.179 C 
ATOM     15  C   UNL     1      -9.177 -14.345  28.093  1.00  0.00     0.202 C 
BRANCH  12  16
ATOM     16  O   UNL     1      -7.481 -17.549  27.099  1.00  0.00    -0.388 OA
ATOM     17  H   UNL     1      -6.535 -17.367  27.329  1.00  0.00     0.211 HD
ENDBRANCH  12  16
BRANCH  14  18
ATOM     18  O   UNL     1      -6.755 -14.878  27.974  1.00  0.00    -0.387 OA
ATOM     19  H   UNL     1      -6.533 -15.343  28.843  1.00  0.00     0.211 HD
ENDBRANCH  14  18
BRANCH  15  20
ATOM     20  O   UNL     1      -8.680 -13.156  28.658  1.00  0.00    -0.385 OA
ATOM     21  H   UNL     1      -8.488 -13.337  29.617  1.00  0.00     0.211 HD
ENDBRANCH  15  20
ENDBRANCH   8   9
ENDBRANCH   7   8
ENDBRANCH   1   7
BRANCH   2  22
ATOM     22  O   UNL     1     -13.381 -12.524  30.539  1.00  0.00    -0.387 OA
ATOM     23  H   UNL     1     -14.241 -12.292  30.104  1.00  0.00     0.211 HD
ENDBRANCH   2  22
BRANCH   3  24
ATOM     24  O   UNL     1     -13.963 -10.122  29.349  1.00  0.00    -0.387 OA
ATOM     25  H   UNL     1     -13.939 -10.100  28.358  1.00  0.00     0.211 HD
ENDBRANCH   3  24
BRANCH   5  26
ATOM     26  O   UNL     1     -12.887 -10.262  26.798  1.00  0.00    -0.454 OA
BRANCH  26  27
ATOM     27  C   UNL     1     -13.069  -9.609  25.576  1.00  0.00     0.214 A 
ATOM     28  C   UNL     1     -12.837 -10.268  24.352  1.00  0.00     0.180 A 
ATOM     29  C   UNL     1     -13.603  -8.316  25.553  1.00  0.00     0.239 A 
ATOM     30  O   UNL     1     -13.099  -9.650  23.210  1.00  0.00    -0.452 OA
ATOM     31  C   UNL     1     -13.877  -7.687  24.322  1.00  0.00     0.111 A 
ATOM     32  O   UNL     1     -13.856  -7.739  26.649  1.00  0.00    -0.285 OA
ATOM     33  C   UNL     1     -13.605  -8.422  23.144  1.00  0.00     0.146 A 
ATOM     34  C   UNL     1     -14.401  -6.375  24.210  1.00  0.00     0.134 A 
ATOM     35  C   UNL     1     -13.867  -7.858  21.894  1.00  0.00     0.094 A 
ATOM     36  C   UNL     1     -14.645  -5.821  22.938  1.00  0.00     0.093 A 
ATOM     37  C   UNL     1     -14.383  -6.566  21.786  1.00  0.00     0.123 A 
BRANCH  28  38
ATOM     38  C   UNL     1     -12.360 -11.656  24.293  1.00  0.00     0.025 A 
ATOM     39  C   UNL     1     -11.149 -11.971  23.650  1.00  0.00     0.062 A 
ATOM     40  C   UNL     1     -13.196 -12.694  24.717  1.00  0.00     0.016 A 
ATOM     41  C   UNL     1     -10.780 -13.307  23.433  1.00  0.00     0.158 A 
ATOM     42  C   UNL     1     -12.834 -14.026  24.503  1.00  0.00     0.051 A 
ATOM     43  C   UNL     1     -11.639 -14.354  23.849  1.00  0.00     0.157 A 
BRANCH  41  44
ATOM     44  O   UNL     1      -9.566 -13.548  22.794  1.00  0.00    -0.504 OA
ATOM     45  H   UNL     1      -8.825 -12.865  22.704  1.00  0.00     0.293 HD
ENDBRANCH  41  44
BRANCH  43  46
ATOM     46  O   UNL     1     -11.356 -15.707  23.606  1.00  0.00    -0.504 OA
ATOM     47  H   UNL     1     -11.517 -16.150  22.712  1.00  0.00     0.293 HD
ENDBRANCH  43  46
ENDBRANCH  28  38
BRANCH  34  48
ATOM     48  O   UNL     1     -14.666  -5.614  25.348  1.00  0.00    -0.507 OA
ATOM     49  H   UNL     1     -15.195  -4.756  25.279  1.00  0.00     0.293 HD
ENDBRANCH  34  48
BRANCH  37  50
ATOM     50  O   UNL     1     -14.648  -6.020  20.538  1.00  0.00    -0.508 OA
ATOM     51  H   UNL     1     -14.867  -6.612  19.741  1.00  0.00     0.293 HD
ENDBRANCH  37  50
ENDBRANCH  26  27
ENDBRANCH   5  26
BRANCH   4  52
ATOM     52  O   UNL     1     -11.971  -8.312  28.689  1.00  0.00    -0.384 OA
ATOM     53  H   UNL     1     -11.242  -7.897  28.164  1.00  0.00     0.211 HD
ENDBRANCH   4  52
TORSDOF 16
ENDMDL
MODEL 3
REMARK VINA RESULT:    -7.648      1.699      9.803
REMARK INTER + INTRA:         -16.177
REMARK INTER:                 -12.805
REMARK INTRA:                  -3.372
REMARK UNBOUND:                -3.611
REMARK SMILES C[C@H]1O[C@H](OC[C@@H]2O[C@@H](Oc3c(-c4ccc(O)c(O)c4)oc4cc(O)cc(O)c4c3=O)[C@@H](O)[C@@H](O)[C@H]2O)[C@@H](O)[C@@H](O)[C@@H]1O
REMARK SMILES IDX 7 1 36 2 34 3 32 4 9 5 8 6 6 7 5 8 4 9 1 10 2 11 42 12 3 13
REMARK SMILES IDX 40 14 38 15 43 16 41 18 39 20 37 22 35 24 10 26 11 27 12 28
REMARK SMILES IDX 30 29 21 30 29 31 31 32 22 33 27 34 23 35 26 36 24 37 13 38
REMARK SMILES IDX 20 39 14 40 18 41 15 42 16 43 19 44 17 46 28 48 25 50 33 52
REMARK H PARENT 43 17 41 19 39 21 37 23 35 25 19 45 17 47 28 49 25 51 33 53
REMARK Flexibility Score: inf
ROOT
ATOM      1  C   UNL     1     -11.913 -12.211  23.716  1.00  0.00     0.180 C 
ATOM      2  C   UNL     1     -11.534 -12.646  22.276  1.00  0.00     0.177 C 
ATOM      3  C   UNL     1     -11.109 -14.128  22.258  1.00  0.00     0.180 C 
ATOM      4  C   UNL     1     -10.043 -14.367  23.342  1.00  0.00     0.214 C 
ATOM      5  C   UNL     1     -10.525 -13.818  24.709  1.00  0.00     0.339 C 
ATOM      6  O   UNL     1     -10.819 -12.432  24.605  1.00  0.00    -0.332 OA
ENDROOT
BRANCH   1   7
ATOM      7  C   UNL     1     -12.321 -10.735  23.772  1.00  0.00     0.198 C 
BRANCH   7   8
ATOM      8  O   UNL     1     -13.659 -10.619  23.304  1.00  0.00    -0.347 OA
BRANCH   8   9
ATOM      9  C   UNL     1     -13.976  -9.315  22.872  1.00  0.00     0.281 C 
ATOM     10  C   UNL     1     -14.436  -6.192  24.680  1.00  0.00     0.041 C 
ATOM     11  C   UNL     1     -13.679  -7.066  23.671  1.00  0.00     0.150 C 
ATOM     12  C   UNL     1     -14.050  -6.685  22.219  1.00  0.00     0.174 C 
ATOM     13  O   UNL     1     -13.894  -8.437  23.986  1.00  0.00    -0.344 OA
ATOM     14  C   UNL     1     -13.147  -7.468  21.262  1.00  0.00     0.179 C 
ATOM     15  C   UNL     1     -12.979  -8.944  21.732  1.00  0.00     0.202 C 
BRANCH  12  16
ATOM     16  O   UNL     1     -13.873  -5.304  22.018  1.00  0.00    -0.388 OA
ATOM     17  H   UNL     1     -13.216  -5.002  22.695  1.00  0.00     0.211 HD
ENDBRANCH  12  16
BRANCH  14  18
ATOM     18  O   UNL     1     -13.683  -7.348  19.965  1.00  0.00    -0.387 OA
ATOM     19  H   UNL     1     -14.692  -7.311  20.005  1.00  0.00     0.211 HD
ENDBRANCH  14  18
BRANCH  15  20
ATOM     20  O   UNL     1     -13.089  -9.856  20.667  1.00  0.00    -0.385 OA
ATOM     21  H   UNL     1     -13.925 -10.379  20.804  1.00  0.00     0.211 HD
ENDBRANCH  15  20
ENDBRANCH   8   9
ENDBRANCH   7   8
ENDBRANCH   1   7
BRANCH   2  22
ATOM     22  O   UNL     1     -12.622 -12.466  21.411  1.00  0.00    -0.387 OA
ATOM     23  H   UNL     1     -13.152 -11.706  21.765  1.00  0.00     0.211 HD
ENDBRANCH   2  22
BRANCH   3  24
ATOM     24  O   UNL     1     -12.221 -14.954  22.495  1.00  0.00    -0.387 OA
ATOM     25  H   UNL     1     -12.130 -15.744  21.903  1.00  0.00     0.211 HD
ENDBRANCH   3  24
BRANCH   5  26
ATOM     26  O   UNL     1     -11.675 -14.530  25.179  1.00  0.00    -0.454 OA
BRANCH  26  27
ATOM     27  C   UNL     1     -11.818 -15.020  26.480  1.00  0.00     0.214 A 
ATOM     28  C   UNL     1     -12.399 -14.237  27.498  1.00  0.00     0.180 A 
ATOM     29  C   UNL     1     -11.492 -16.351  26.760  1.00  0.00     0.239 A 
ATOM     30  O   UNL     1     -12.598 -14.758  28.699  1.00  0.00    -0.452 OA
ATOM     31  C   UNL     1     -11.722 -16.880  28.047  1.00  0.00     0.111 A 
ATOM     32  O   UNL     1     -11.014 -17.071  25.837  1.00  0.00    -0.285 OA
ATOM     33  C   UNL     1     -12.301 -16.017  29.007  1.00  0.00     0.146 A 
ATOM     34  C   UNL     1     -11.404 -18.210  28.417  1.00  0.00     0.134 A 
ATOM     35  C   UNL     1     -12.565 -16.485  30.295  1.00  0.00     0.094 A 
ATOM     36  C   UNL     1     -11.666 -18.657  29.727  1.00  0.00     0.093 A 
ATOM     37  C   UNL     1     -12.251 -17.796  30.659  1.00  0.00     0.123 A 
BRANCH  28  38
ATOM     38  C   UNL     1     -12.849 -12.859  27.259  1.00  0.00     0.025 A 
ATOM     39  C   UNL     1     -12.131 -11.769  27.784  1.00  0.00     0.062 A 
ATOM     40  C   UNL     1     -14.093 -12.631  26.663  1.00  0.00     0.016 A 
ATOM     41  C   UNL     1     -12.650 -10.468  27.714  1.00  0.00     0.158 A 
ATOM     42  C   UNL     1     -14.617 -11.337  26.591  1.00  0.00     0.051 A 
ATOM     43  C   UNL     1     -13.919 -10.245  27.125  1.00  0.00     0.157 A 
BRANCH  41  44
ATOM     44  O   UNL     1     -11.885  -9.436  28.249  1.00  0.00    -0.504 OA
ATOM     45  H   UNL     1     -11.715  -8.552  27.786  1.00  0.00     0.293 HD
ENDBRANCH  41  44
BRANCH  43  46
ATOM     46  O   UNL     1     -14.520  -8.978  27.079  1.00  0.00    -0.504 OA
ATOM     47  H   UNL     1     -14.373  -8.327  26.319  1.00  0.00     0.293 HD
ENDBRANCH  43  46
ENDBRANCH  28  38
BRANCH  34  48
ATOM     48  O   UNL     1     -10.817 -19.084  27.504  1.00  0.00    -0.507 OA
ATOM     49  H   UNL     1     -11.308 -19.353  26.662  1.00  0.00     0.293 HD
ENDBRANCH  34  48
BRANCH  37  50
ATOM     50  O   UNL     1     -12.527 -18.252  31.941  1.00  0.00    -0.508 OA
ATOM     51  H   UNL     1     -11.878 -18.093  32.706  1.00  0.00     0.293 HD
ENDBRANCH  37  50
ENDBRANCH  26  27
ENDBRANCH   5  26
BRANCH   4  52
ATOM     52  O   UNL     1      -9.738 -15.738  23.445  1.00  0.00    -0.384 OA
ATOM     53  H   UNL     1     -10.212 -16.200  22.710  1.00  0.00     0.211 HD
ENDBRANCH   4  52
TORSDOF 16
ENDMDL
MODEL 4
REMARK VINA RESULT:    -7.444      2.079      3.153
REMARK INTER + INTRA:         -15.842
REMARK INTER:                 -12.802
REMARK INTRA:                  -3.040
REMARK UNBOUND:                -3.611
REMARK SMILES C[C@H]1O[C@H](OC[C@@H]2O[C@@H](Oc3c(-c4ccc(O)c(O)c4)oc4cc(O)cc(O)c4c3=O)[C@@H](O)[C@@H](O)[C@H]2O)[C@@H](O)[C@@H](O)[C@@H]1O
REMARK SMILES IDX 7 1 36 2 34 3 32 4 9 5 8 6 6 7 5 8 4 9 1 10 2 11 42 12 3 13
REMARK SMILES IDX 40 14 38 15 43 16 41 18 39 20 37 22 35 24 10 26 11 27 12 28
REMARK SMILES IDX 30 29 21 30 29 31 31 32 22 33 27 34 23 35 26 36 24 37 13 38
REMARK SMILES IDX 20 39 14 40 18 41 15 42 16 43 19 44 17 46 28 48 25 50 33 52
REMARK H PARENT 43 17 41 19 39 21 37 23 35 25 19 45 17 47 28 49 25 51 33 53
REMARK Flexibility Score: inf
ROOT
ATOM      1  C   UNL     1     -12.523 -11.974  27.577  1.00  0.00     0.180 C 
ATOM      2  C   UNL     1     -12.291 -11.043  28.795  1.00  0.00     0.177 C 
ATOM      3  C   UNL     1     -12.262  -9.568  28.343  1.00  0.00     0.180 C 
ATOM      4  C   UNL     1     -11.278  -9.411  27.171  1.00  0.00     0.214 C 
ATOM      5  C   UNL     1     -11.581 -10.452  26.063  1.00  0.00     0.339 C 
ATOM      6  O   UNL     1     -11.509 -11.768  26.594  1.00  0.00    -0.332 OA
ENDROOT
BRANCH   1   7
ATOM      7  C   UNL     1     -12.534 -13.450  27.989  1.00  0.00     0.198 C 
BRANCH   7   8
ATOM      8  O   UNL     1     -11.627 -13.623  29.070  1.00  0.00    -0.347 OA
BRANCH   8   9
ATOM      9  C   UNL     1     -10.623 -14.575  28.795  1.00  0.00     0.281 C 
ATOM     10  C   UNL     1     -10.779 -17.993  27.561  1.00  0.00     0.041 C 
ATOM     11  C   UNL     1     -10.366 -16.522  27.409  1.00  0.00     0.150 C 
ATOM     12  C   UNL     1      -8.863 -16.333  27.720  1.00  0.00     0.174 C 
ATOM     13  O   UNL     1     -11.231 -15.711  28.196  1.00  0.00    -0.344 OA
ATOM     14  C   UNL     1      -8.474 -14.890  27.392  1.00  0.00     0.179 C 
ATOM     15  C   UNL     1      -9.570 -13.891  27.872  1.00  0.00     0.202 C 
BRANCH  12  16
ATOM     16  O   UNL     1      -8.091 -17.222  26.950  1.00  0.00    -0.388 OA
ATOM     17  H   UNL     1      -7.815 -17.956  27.555  1.00  0.00     0.211 HD
ENDBRANCH  12  16
BRANCH  14  18
ATOM     18  O   UNL     1      -7.205 -14.645  27.951  1.00  0.00    -0.387 OA
ATOM     19  H   UNL     1      -7.104 -13.665  28.175  1.00  0.00     0.211 HD
ENDBRANCH  14  18
BRANCH  15  20
ATOM     20  O   UNL     1      -9.018 -12.764  28.508  1.00  0.00    -0.385 OA
ATOM     21  H   UNL     1      -9.745 -12.326  29.028  1.00  0.00     0.211 HD
ENDBRANCH  15  20
ENDBRANCH   8   9
ENDBRANCH   7   8
ENDBRANCH   1   7
BRANCH   2  22
ATOM     22  O   UNL     1     -13.308 -11.218  29.743  1.00  0.00    -0.387 OA
ATOM     23  H   UNL     1     -12.890 -11.621  30.546  1.00  0.00     0.211 HD
ENDBRANCH   2  22
BRANCH   3  24
ATOM     24  O   UNL     1     -13.547  -9.159  27.945  1.00  0.00    -0.387 OA
ATOM     25  H   UNL     1     -13.471  -8.221  27.635  1.00  0.00     0.211 HD
ENDBRANCH   3  24
BRANCH   5  26
ATOM     26  O   UNL     1     -12.869 -10.228  25.478  1.00  0.00    -0.454 OA
BRANCH  26  27
ATOM     27  C   UNL     1     -13.122 -10.250  24.104  1.00  0.00     0.214 A 
ATOM     28  C   UNL     1     -13.647 -11.397  23.475  1.00  0.00     0.180 A 
ATOM     29  C   UNL     1     -12.968  -9.082  23.351  1.00  0.00     0.239 A 
ATOM     30  O   UNL     1     -13.955 -11.361  22.187  1.00  0.00    -0.452 OA
ATOM     31  C   UNL     1     -13.311  -9.071  21.983  1.00  0.00     0.111 A 
ATOM     32  O   UNL     1     -12.543  -8.037  23.922  1.00  0.00    -0.285 OA
ATOM     33  C   UNL     1     -13.823 -10.272  21.436  1.00  0.00     0.146 A 
ATOM     34  C   UNL     1     -13.170  -7.937  21.147  1.00  0.00     0.134 A 
ATOM     35  C   UNL     1     -14.193 -10.322  20.090  1.00  0.00     0.094 A 
ATOM     36  C   UNL     1     -13.536  -8.015  19.788  1.00  0.00     0.093 A 
ATOM     37  C   UNL     1     -14.052  -9.204  19.267  1.00  0.00     0.123 A 
BRANCH  28  38
ATOM     38  C   UNL     1     -13.920 -12.636  24.216  1.00  0.00     0.025 A 
ATOM     39  C   UNL     1     -13.006 -13.705  24.186  1.00  0.00     0.062 A 
ATOM     40  C   UNL     1     -15.173 -12.827  24.807  1.00  0.00     0.016 A 
ATOM     41  C   UNL     1     -13.342 -14.950  24.740  1.00  0.00     0.158 A 
ATOM     42  C   UNL     1     -15.513 -14.065  25.359  1.00  0.00     0.051 A 
ATOM     43  C   UNL     1     -14.619 -15.144  25.321  1.00  0.00     0.157 A 
BRANCH  41  44
ATOM     44  O   UNL     1     -12.389 -15.963  24.679  1.00  0.00    -0.504 OA
ATOM     45  H   UNL     1     -12.180 -16.596  25.440  1.00  0.00     0.293 HD
ENDBRANCH  41  44
BRANCH  43  46
ATOM     46  O   UNL     1     -15.037 -16.380  25.835  1.00  0.00    -0.504 OA
ATOM     47  H   UNL     1     -15.234 -16.529  26.816  1.00  0.00     0.293 HD
ENDBRANCH  43  46
ENDBRANCH  28  38
BRANCH  34  48
ATOM     48  O   UNL     1     -12.654  -6.743  21.646  1.00  0.00    -0.507 OA
ATOM     49  H   UNL     1     -11.735  -6.717  22.068  1.00  0.00     0.293 HD
ENDBRANCH  34  48
BRANCH  37  50
ATOM     50  O   UNL     1     -14.433  -9.263  17.934  1.00  0.00    -0.508 OA
ATOM     51  H   UNL     1     -14.985  -8.522  17.511  1.00  0.00     0.293 HD
ENDBRANCH  37  50
ENDBRANCH  26  27
ENDBRANCH   5  26
BRANCH   4  52
ATOM     52  O   UNL     1     -11.336  -8.106  26.646  1.00  0.00    -0.384 OA
ATOM     53  H   UNL     1     -10.831  -7.519  27.261  1.00  0.00     0.211 HD
ENDBRANCH   4  52
TORSDOF 16
ENDMDL
MODEL 5
REMARK VINA RESULT:    -7.403      1.624      4.359
REMARK INTER + INTRA:         -15.774
REMARK INTER:                 -12.314
REMARK INTRA:                  -3.460
REMARK UNBOUND:                -3.611
REMARK SMILES C[C@H]1O[C@H](OC[C@@H]2O[C@@H](Oc3c(-c4ccc(O)c(O)c4)oc4cc(O)cc(O)c4c3=O)[C@@H](O)[C@@H](O)[C@H]2O)[C@@H](O)[C@@H](O)[C@@H]1O
REMARK SMILES IDX 7 1 36 2 34 3 32 4 9 5 8 6 6 7 5 8 4 9 1 10 2 11 42 12 3 13
REMARK SMILES IDX 40 14 38 15 43 16 41 18 39 20 37 22 35 24 10 26 11 27 12 28
REMARK SMILES IDX 30 29 21 30 29 31 31 32 22 33 27 34 23 35 26 36 24 37 13 38
REMARK SMILES IDX 20 39 14 40 18 41 15 42 16 43 19 44 17 46 28 48 25 50 33 52
REMARK H PARENT 43 17 41 19 39 21 37 23 35 25 19 45 17 47 28 49 25 51 33 53
REMARK Flexibility Score: inf
ROOT
ATOM      1  C   UNL     1     -11.867 -14.232  25.184  1.00  0.00     0.180 C 
ATOM      2  C   UNL     1     -10.958 -14.923  24.134  1.00  0.00     0.177 C 
ATOM      3  C   UNL     1     -10.742 -13.997  22.920  1.00  0.00     0.180 C 
ATOM      4  C   UNL     1     -12.104 -13.494  22.412  1.00  0.00     0.214 C 
ATOM      5  C   UNL     1     -12.933 -12.897  23.578  1.00  0.00     0.339 C 
ATOM      6  O   UNL     1     -13.117 -13.870  24.597  1.00  0.00    -0.332 OA
ENDROOT
BRANCH   1   7
ATOM      7  C   UNL     1     -12.120 -15.136  26.395  1.00  0.00     0.198 C 
BRANCH   7   8
ATOM      8  O   UNL     1     -10.975 -15.091  27.237  1.00  0.00    -0.347 OA
BRANCH   8   9
ATOM      9  C   UNL     1     -10.962 -16.123  28.198  1.00  0.00     0.281 C 
ATOM     10  C   UNL     1     -12.854 -16.623  31.264  1.00  0.00     0.041 C 
ATOM     11  C   UNL     1     -12.469 -17.033  29.836  1.00  0.00     0.150 C 
ATOM     12  C   UNL     1     -11.469 -18.213  29.849  1.00  0.00     0.174 C 
ATOM     13  O   UNL     1     -12.009 -15.886  29.130  1.00  0.00    -0.344 OA
ATOM     14  C   UNL     1     -11.253 -18.684  28.408  1.00  0.00     0.179 C 
ATOM     15  C   UNL     1     -11.121 -17.474  27.436  1.00  0.00     0.202 C 
BRANCH  12  16
ATOM     16  O   UNL     1     -11.975 -19.271  30.625  1.00  0.00    -0.388 OA
ATOM     17  H   UNL     1     -12.532 -19.825  30.021  1.00  0.00     0.211 HD
ENDBRANCH  12  16
BRANCH  14  18
ATOM     18  O   UNL     1     -10.135 -19.541  28.396  1.00  0.00    -0.387 OA
ATOM     19  H   UNL     1     -10.280 -20.315  29.030  1.00  0.00     0.211 HD
ENDBRANCH  14  18
BRANCH  15  20
ATOM     20  O   UNL     1     -10.071 -17.645  26.516  1.00  0.00    -0.385 OA
ATOM     21  H   UNL     1     -10.287 -18.438  25.956  1.00  0.00     0.211 HD
ENDBRANCH  15  20
ENDBRANCH   8   9
ENDBRANCH   7   8
ENDBRANCH   1   7
BRANCH   2  22
ATOM     22  O   UNL     1      -9.717 -15.243  24.700  1.00  0.00    -0.387 OA
ATOM     23  H   UNL     1      -9.481 -14.505  25.319  1.00  0.00     0.211 HD
ENDBRANCH   2  22
BRANCH   3  24
ATOM     24  O   UNL     1      -9.936 -12.904  23.283  1.00  0.00    -0.387 OA
ATOM     25  H   UNL     1     -10.409 -12.083  22.993  1.00  0.00     0.211 HD
ENDBRANCH   3  24
BRANCH   5  26
ATOM     26  O   UNL     1     -12.303 -11.731  24.121  1.00  0.00    -0.454 OA
BRANCH  26  27
ATOM     27  C   UNL     1     -12.992 -10.590  24.542  1.00  0.00     0.214 A 
ATOM     28  C   UNL     1     -13.120 -10.276  25.910  1.00  0.00     0.180 A 
ATOM     29  C   UNL     1     -13.463  -9.675  23.595  1.00  0.00     0.239 A 
ATOM     30  O   UNL     1     -13.705  -9.145  26.275  1.00  0.00    -0.452 OA
ATOM     31  C   UNL     1     -14.075  -8.476  24.014  1.00  0.00     0.111 A 
ATOM     32  O   UNL     1     -13.308  -9.931  22.367  1.00  0.00    -0.285 OA
ATOM     33  C   UNL     1     -14.167  -8.249  25.408  1.00  0.00     0.146 A 
ATOM     34  C   UNL     1     -14.595  -7.506  23.122  1.00  0.00     0.134 A 
ATOM     35  C   UNL     1     -14.752  -7.075  25.886  1.00  0.00     0.094 A 
ATOM     36  C   UNL     1     -15.193  -6.334  23.627  1.00  0.00     0.093 A 
ATOM     37  C   UNL     1     -15.264  -6.121  25.006  1.00  0.00     0.123 A 
BRANCH  28  38
ATOM     38  C   UNL     1     -12.574 -11.143  26.962  1.00  0.00     0.025 A 
ATOM     39  C   UNL     1     -13.428 -11.919  27.768  1.00  0.00     0.062 A 
ATOM     40  C   UNL     1     -11.216 -11.063  27.290  1.00  0.00     0.016 A 
ATOM     41  C   UNL     1     -12.931 -12.605  28.886  1.00  0.00     0.158 A 
ATOM     42  C   UNL     1     -10.716 -11.743  28.403  1.00  0.00     0.051 A 
ATOM     43  C   UNL     1     -11.558 -12.506  29.223  1.00  0.00     0.157 A 
BRANCH  41  44
ATOM     44  O   UNL     1     -13.831 -13.358  29.636  1.00  0.00    -0.504 OA
ATOM     45  H   UNL     1     -13.584 -13.878  30.468  1.00  0.00     0.293 HD
ENDBRANCH  41  44
BRANCH  43  46
ATOM     46  O   UNL     1     -11.013 -13.118  30.362  1.00  0.00    -0.504 OA
ATOM     47  H   UNL     1     -10.927 -14.121  30.458  1.00  0.00     0.293 HD
ENDBRANCH  43  46
ENDBRANCH  28  38
BRANCH  34  48
ATOM     48  O   UNL     1     -14.537  -7.702  21.743  1.00  0.00    -0.507 OA
ATOM     49  H   UNL     1     -14.019  -8.480  21.357  1.00  0.00     0.293 HD
ENDBRANCH  34  48
BRANCH  37  50
ATOM     50  O   UNL     1     -15.833  -4.952  25.493  1.00  0.00    -0.508 OA
ATOM     51  H   UNL     1     -15.264  -4.135  25.695  1.00  0.00     0.293 HD
ENDBRANCH  37  50
ENDBRANCH  26  27
ENDBRANCH   5  26
BRANCH   4  52
ATOM     52  O   UNL     1     -11.931 -12.535  21.395  1.00  0.00    -0.384 OA
ATOM     53  H   UNL     1     -12.735 -12.568  20.820  1.00  0.00     0.211 HD
ENDBRANCH   4  52
TORSDOF 16
ENDMDL
MODEL 6
REMARK VINA RESULT:    -7.378      1.649      4.535
REMARK INTER + INTRA:         -15.733
REMARK INTER:                 -13.041
REMARK INTRA:                  -2.692
REMARK UNBOUND:                -3.611
REMARK SMILES C[C@H]1O[C@H](OC[C@@H]2O[C@@H](Oc3c(-c4ccc(O)c(O)c4)oc4cc(O)cc(O)c4c3=O)[C@@H](O)[C@@H](O)[C@H]2O)[C@@H](O)[C@@H](O)[C@@H]1O
REMARK SMILES IDX 7 1 36 2 34 3 32 4 9 5 8 6 6 7 5 8 4 9 1 10 2 11 42 12 3 13
REMARK SMILES IDX 40 14 38 15 43 16 41 18 39 20 37 22 35 24 10 26 11 27 12 28
REMARK SMILES IDX 30 29 21 30 29 31 31 32 22 33 27 34 23 35 26 36 24 37 13 38
REMARK SMILES IDX 20 39 14 40 18 41 15 42 16 43 19 44 17 46 28 48 25 50 33 52
REMARK H PARENT 43 17 41 19 39 21 37 23 35 25 19 45 17 47 28 49 25 51 33 53
REMARK Flexibility Score: inf
ROOT
ATOM      1  C   UNL     1     -10.680 -14.455  26.104  1.00  0.00     0.180 C 
ATOM      2  C   UNL     1     -10.834 -15.676  25.160  1.00  0.00     0.177 C 
ATOM      3  C   UNL     1     -11.608 -15.276  23.888  1.00  0.00     0.180 C 
ATOM      4  C   UNL     1     -12.909 -14.557  24.286  1.00  0.00     0.214 C 
ATOM      5  C   UNL     1     -12.613 -13.411  25.286  1.00  0.00     0.339 C 
ATOM      6  O   UNL     1     -11.961 -13.923  26.440  1.00  0.00    -0.332 OA
ENDROOT
BRANCH   1   7
ATOM      7  C   UNL     1      -9.933 -14.825  27.390  1.00  0.00     0.198 C 
BRANCH   7   8
ATOM      8  O   UNL     1      -9.892 -16.243  27.494  1.00  0.00    -0.347 OA
BRANCH   8   9
ATOM      9  C   UNL     1     -10.512 -16.724  28.666  1.00  0.00     0.281 C 
ATOM     10  C   UNL     1     -13.129 -15.343  30.781  1.00  0.00     0.041 C 
ATOM     11  C   UNL     1     -12.600 -16.413  29.816  1.00  0.00     0.150 C 
ATOM     12  C   UNL     1     -12.170 -17.686  30.582  1.00  0.00     0.174 C 
ATOM     13  O   UNL     1     -11.576 -15.847  29.006  1.00  0.00    -0.344 OA
ATOM     14  C   UNL     1     -11.811 -18.771  29.564  1.00  0.00     0.179 C 
ATOM     15  C   UNL     1     -10.991 -18.179  28.379  1.00  0.00     0.202 C 
BRANCH  12  16
ATOM     16  O   UNL     1     -13.217 -18.134  31.408  1.00  0.00    -0.388 OA
ATOM     17  H   UNL     1     -13.884 -18.561  30.813  1.00  0.00     0.211 HD
ENDBRANCH  12  16
BRANCH  14  18
ATOM     18  O   UNL     1     -11.145 -19.805  30.249  1.00  0.00    -0.387 OA
ATOM     19  H   UNL     1     -11.787 -20.556  30.461  1.00  0.00     0.211 HD
ENDBRANCH  14  18
BRANCH  15  20
ATOM     20  O   UNL     1      -9.900 -18.995  28.029  1.00  0.00    -0.385 OA
ATOM     21  H   UNL     1      -9.838 -19.004  27.036  1.00  0.00     0.211 HD
ENDBRANCH  15  20
ENDBRANCH   8   9
ENDBRANCH   7   8
ENDBRANCH   1   7
BRANCH   2  22
ATOM     22  O   UNL     1      -9.575 -16.175  24.799  1.00  0.00    -0.387 OA
ATOM     23  H   UNL     1      -9.608 -17.159  24.917  1.00  0.00     0.211 HD
ENDBRANCH   2  22
BRANCH   3  24
ATOM     24  O   UNL     1     -10.821 -14.428  23.089  1.00  0.00    -0.387 OA
ATOM     25  H   UNL     1     -10.100 -14.069  23.667  1.00  0.00     0.211 HD
ENDBRANCH   3  24
BRANCH   5  26
ATOM     26  O   UNL     1     -11.812 -12.388  24.683  1.00  0.00    -0.454 OA
BRANCH  26  27
ATOM     27  C   UNL     1     -12.290 -11.124  24.325  1.00  0.00     0.214 A 
ATOM     28  C   UNL     1     -12.553 -10.139  25.297  1.00  0.00     0.180 A 
ATOM     29  C   UNL     1     -12.401 -10.781  22.973  1.00  0.00     0.239 A 
ATOM     30  O   UNL     1     -12.925  -8.924  24.922  1.00  0.00    -0.452 OA
ATOM     31  C   UNL     1     -12.792  -9.478  22.605  1.00  0.00     0.111 A 
ATOM     32  O   UNL     1     -12.121 -11.648  22.097  1.00  0.00    -0.285 OA
ATOM     33  C   UNL     1     -13.043  -8.557  23.650  1.00  0.00     0.146 A 
ATOM     34  C   UNL     1     -12.945  -9.054  21.261  1.00  0.00     0.134 A 
ATOM     35  C   UNL     1     -13.422  -7.248  23.349  1.00  0.00     0.094 A 
ATOM     36  C   UNL     1     -13.342  -7.732  20.981  1.00  0.00     0.093 A 
ATOM     37  C   UNL     1     -13.573  -6.832  22.025  1.00  0.00     0.123 A 
BRANCH  28  38
ATOM     38  C   UNL     1     -12.376 -10.395  26.733  1.00  0.00     0.025 A 
ATOM     39  C   UNL     1     -11.092 -10.597  27.272  1.00  0.00     0.062 A 
ATOM     40  C   UNL     1     -13.496 -10.622  27.539  1.00  0.00     0.016 A 
ATOM     41  C   UNL     1     -10.930 -11.019  28.600  1.00  0.00     0.158 A 
ATOM     42  C   UNL     1     -13.342 -11.044  28.862  1.00  0.00     0.051 A 
ATOM     43  C   UNL     1     -12.069 -11.264  29.407  1.00  0.00     0.157 A 
BRANCH  41  44
ATOM     44  O   UNL     1      -9.631 -11.194  29.070  1.00  0.00    -0.504 OA
ATOM     45  H   UNL     1      -8.859 -11.519  28.503  1.00  0.00     0.293 HD
ENDBRANCH  41  44
BRANCH  43  46
ATOM     46  O   UNL     1     -11.975 -11.746  30.721  1.00  0.00    -0.504 OA
ATOM     47  H   UNL     1     -12.115 -12.719  30.961  1.00  0.00     0.293 HD
ENDBRANCH  43  46
ENDBRANCH  28  38
BRANCH  34  48
ATOM     48  O   UNL     1     -12.724  -9.938  20.206  1.00  0.00    -0.507 OA
ATOM     49  H   UNL     1     -11.807 -10.337  20.054  1.00  0.00     0.293 HD
ENDBRANCH  34  48
BRANCH  37  50
ATOM     50  O   UNL     1     -13.940  -5.525  21.739  1.00  0.00    -0.508 OA
ATOM     51  H   UNL     1     -14.816  -5.316  21.267  1.00  0.00     0.293 HD
ENDBRANCH  37  50
ENDBRANCH  26  27
ENDBRANCH   5  26
BRANCH   4  52
ATOM     52  O   UNL     1     -13.567 -14.055  23.146  1.00  0.00    -0.384 OA
ATOM     53  H   UNL     1     -14.520 -14.305  23.224  1.00  0.00     0.211 HD
ENDBRANCH   4  52
TORSDOF 16
ENDMDL
MODEL 7
REMARK VINA RESULT:    -7.320      1.669      8.981
REMARK INTER + INTRA:         -15.639
REMARK INTER:                 -12.373
REMARK INTRA:                  -3.266
REMARK UNBOUND:                -3.611
REMARK SMILES C[C@H]1O[C@H](OC[C@@H]2O[C@@H](Oc3c(-c4ccc(O)c(O)c4)oc4cc(O)cc(O)c4c3=O)[C@@H](O)[C@@H](O)[C@H]2O)[C@@H](O)[C@@H](O)[C@@H]1O
REMARK SMILES IDX 7 1 36 2 34 3 32 4 9 5 8 6 6 7 5 8 4 9 1 10 2 11 42 12 3 13
REMARK SMILES IDX 40 14 38 15 43 16 41 18 39 20 37 22 35 24 10 26 11 27 12 28
REMARK SMILES IDX 30 29 21 30 29 31 31 32 22 33 27 34 23 35 26 36 24 37 13 38
REMARK SMILES IDX 20 39 14 40 18 41 15 42 16 43 19 44 17 46 28 48 25 50 33 52
REMARK H PARENT 43 17 41 19 39 21 37 23 35 25 19 45 17 47 28 49 25 51 33 53
REMARK Flexibility Score: inf
ROOT
ATOM      1  C   UNL     1     -13.085 -10.339  26.324  1.00  0.00     0.180 C 
ATOM      2  C   UNL     1     -12.670  -9.016  27.019  1.00  0.00     0.177 C 
ATOM      3  C   UNL     1     -11.711  -9.304  28.192  1.00  0.00     0.180 C 
ATOM      4  C   UNL     1     -12.325 -10.385  29.099  1.00  0.00     0.214 C 
ATOM      5  C   UNL     1     -12.760 -11.615  28.263  1.00  0.00     0.339 C 
ATOM      6  O   UNL     1     -13.691 -11.225  27.264  1.00  0.00    -0.332 OA
ENDROOT
BRANCH   1   7
ATOM      7  C   UNL     1     -14.057 -10.088  25.166  1.00  0.00     0.198 C 
BRANCH   7   8
ATOM      8  O   UNL     1     -13.303  -9.715  24.019  1.00  0.00    -0.347 OA
BRANCH   8   9
ATOM      9  C   UNL     1     -13.911  -8.681  23.278  1.00  0.00     0.281 C 
ATOM     10  C   UNL     1     -15.722  -5.694  24.294  1.00  0.00     0.041 C 
ATOM     11  C   UNL     1     -14.524  -6.382  23.624  1.00  0.00     0.150 C 
ATOM     12  C   UNL     1     -14.665  -6.367  22.084  1.00  0.00     0.174 C 
ATOM     13  O   UNL     1     -14.360  -7.681  24.182  1.00  0.00    -0.344 OA
ATOM     14  C   UNL     1     -13.373  -6.911  21.470  1.00  0.00     0.179 C 
ATOM     15  C   UNL     1     -12.856  -8.151  22.260  1.00  0.00     0.202 C 
BRANCH  12  16
ATOM     16  O   UNL     1     -14.893  -5.055  21.630  1.00  0.00    -0.388 OA
ATOM     17  H   UNL     1     -15.836  -4.840  21.846  1.00  0.00     0.211 HD
ENDBRANCH  12  16
BRANCH  14  18
ATOM     18  O   UNL     1     -13.618  -7.173  20.108  1.00  0.00    -0.387 OA
ATOM     19  H   UNL     1     -12.970  -6.656  19.531  1.00  0.00     0.211 HD
ENDBRANCH  14  18
BRANCH  15  20
ATOM     20  O   UNL     1     -12.434  -9.186  21.406  1.00  0.00    -0.385 OA
ATOM     21  H   UNL     1     -12.330 -10.007  21.958  1.00  0.00     0.211 HD
ENDBRANCH  15  20
ENDBRANCH   8   9
ENDBRANCH   7   8
ENDBRANCH   1   7
BRANCH   2  22
ATOM     22  O   UNL     1     -12.039  -8.162  26.104  1.00  0.00    -0.387 OA
ATOM     23  H   UNL     1     -12.540  -8.229  25.251  1.00  0.00     0.211 HD
ENDBRANCH   2  22
BRANCH   3  24
ATOM     24  O   UNL     1     -10.468  -9.742  27.704  1.00  0.00    -0.387 OA
ATOM     25  H   UNL     1      -9.886  -9.903  28.490  1.00  0.00     0.211 HD
ENDBRANCH   3  24
BRANCH   5  26
ATOM     26  O   UNL     1     -11.632 -12.257  27.658  1.00  0.00    -0.454 OA
BRANCH  26  27
ATOM     27  C   UNL     1     -11.473 -13.643  27.565  1.00  0.00     0.214 A 
ATOM     28  C   UNL     1     -11.531 -14.304  26.321  1.00  0.00     0.180 A 
ATOM     29  C   UNL     1     -11.134 -14.381  28.703  1.00  0.00     0.239 A 
ATOM     30  O   UNL     1     -11.293 -15.605  26.254  1.00  0.00    -0.452 OA
ATOM     31  C   UNL     1     -10.880 -15.764  28.600  1.00  0.00     0.111 A 
ATOM     32  O   UNL     1     -11.035 -13.783  29.813  1.00  0.00    -0.285 OA
ATOM     33  C   UNL     1     -10.969 -16.344  27.312  1.00  0.00     0.146 A 
ATOM     34  C   UNL     1     -10.548 -16.587  29.704  1.00  0.00     0.134 A 
ATOM     35  C   UNL     1     -10.717 -17.706  27.141  1.00  0.00     0.094 A 
ATOM     36  C   UNL     1     -10.311 -17.962  29.511  1.00  0.00     0.093 A 
ATOM     37  C   UNL     1     -10.390 -18.515  28.231  1.00  0.00     0.123 A 
BRANCH  28  38
ATOM     38  C   UNL     1     -11.795 -13.584  25.068  1.00  0.00     0.025 A 
ATOM     39  C   UNL     1     -13.039 -13.703  24.421  1.00  0.00     0.062 A 
ATOM     40  C   UNL     1     -10.749 -12.922  24.417  1.00  0.00     0.016 A 
ATOM     41  C   UNL     1     -13.234 -13.167  23.140  1.00  0.00     0.158 A 
ATOM     42  C   UNL     1     -10.937 -12.387  23.140  1.00  0.00     0.051 A 
ATOM     43  C   UNL     1     -12.167 -12.513  22.477  1.00  0.00     0.157 A 
BRANCH  41  44
ATOM     44  O   UNL     1     -14.491 -13.317  22.561  1.00  0.00    -0.504 OA
ATOM     45  H   UNL     1     -15.305 -12.771  22.814  1.00  0.00     0.293 HD
ENDBRANCH  41  44
BRANCH  43  46
ATOM     46  O   UNL     1     -12.280 -12.010  21.172  1.00  0.00    -0.504 OA
ATOM     47  H   UNL     1     -12.774 -12.498  20.437  1.00  0.00     0.293 HD
ENDBRANCH  43  46
ENDBRANCH  28  38
BRANCH  34  48
ATOM     48  O   UNL     1     -10.467 -16.055  30.990  1.00  0.00    -0.507 OA
ATOM     49  H   UNL     1     -10.530 -15.056  31.138  1.00  0.00     0.293 HD
ENDBRANCH  34  48
BRANCH  37  50
ATOM     50  O   UNL     1     -10.132 -19.866  28.047  1.00  0.00    -0.508 OA
ATOM     51  H   UNL     1     -10.888 -20.534  27.920  1.00  0.00     0.293 HD
ENDBRANCH  37  50
ENDBRANCH  26  27
ENDBRANCH   5  26
BRANCH   4  52
ATOM     52  O   UNL     1     -11.410 -10.771  30.099  1.00  0.00    -0.384 OA
ATOM     53  H   UNL     1     -10.796 -11.431  29.695  1.00  0.00     0.211 HD
ENDBRANCH   4  52
TORSDOF 16
ENDMDL
MODEL 8
REMARK VINA RESULT:    -7.295      1.882      9.480
REMARK INTER + INTRA:         -15.597
REMARK INTER:                 -12.643
REMARK INTRA:                  -2.954
REMARK UNBOUND:                -3.611
REMARK SMILES C[C@H]1O[C@H](OC[C@@H]2O[C@@H](Oc3c(-c4ccc(O)c(O)c4)oc4cc(O)cc(O)c4c3=O)[C@@H](O)[C@@H](O)[C@H]2O)[C@@H](O)[C@@H](O)[C@@H]1O
REMARK SMILES IDX 7 1 36 2 34 3 32 4 9 5 8 6 6 7 5 8 4 9 1 10 2 11 42 12 3 13
REMARK SMILES IDX 40 14 38 15 43 16 41 18 39 20 37 22 35 24 10 26 11 27 12 28
REMARK SMILES IDX 30 29 21 30 29 31 31 32 22 33 27 34 23 35 26 36 24 37 13 38
REMARK SMILES IDX 20 39 14 40 18 41 15 42 16 43 19 44 17 46 28 48 25 50 33 52
REMARK H PARENT 43 17 41 19 39 21 37 23 35 25 19 45 17 47 28 49 25 51 33 53
REMARK Flexibility Score: inf
ROOT
ATOM      1  C   UNL     1     -14.096 -12.154  25.647  1.00  0.00     0.180 C 
ATOM      2  C   UNL     1     -14.726 -12.663  24.325  1.00  0.00     0.177 C 
ATOM      3  C   UNL     1     -14.178 -14.061  23.973  1.00  0.00     0.180 C 
ATOM      4  C   UNL     1     -12.641 -14.035  24.027  1.00  0.00     0.214 C 
ATOM      5  C   UNL     1     -12.153 -13.436  25.371  1.00  0.00     0.339 C 
ATOM      6  O   UNL     1     -12.673 -12.125  25.540  1.00  0.00    -0.332 OA
ENDROOT
BRANCH   1   7
ATOM      7  C   UNL     1     -14.605 -10.756  26.013  1.00  0.00     0.198 C 
BRANCH   7   8
ATOM      8  O   UNL     1     -13.540  -9.829  25.837  1.00  0.00    -0.347 OA
BRANCH   8   9
ATOM      9  C   UNL     1     -13.935  -8.668  25.141  1.00  0.00     0.281 C 
ATOM     10  C   UNL     1     -14.819  -8.097  21.659  1.00  0.00     0.041 C 
ATOM     11  C   UNL     1     -15.176  -8.136  23.151  1.00  0.00     0.150 C 
ATOM     12  C   UNL     1     -15.198  -6.712  23.753  1.00  0.00     0.174 C 
ATOM     13  O   UNL     1     -14.298  -9.037  23.817  1.00  0.00    -0.344 OA
ATOM     14  C   UNL     1     -15.720  -6.798  25.190  1.00  0.00     0.179 C 
ATOM     15  C   UNL     1     -15.110  -8.023  25.936  1.00  0.00     0.202 C 
BRANCH  12  16
ATOM     16  O   UNL     1     -16.034  -5.876  22.992  1.00  0.00    -0.388 OA
ATOM     17  H   UNL     1     -16.888  -5.799  23.489  1.00  0.00     0.211 HD
ENDBRANCH  12  16
BRANCH  14  18
ATOM     18  O   UNL     1     -15.458  -5.566  25.820  1.00  0.00    -0.387 OA
ATOM     19  H   UNL     1     -15.955  -4.821  25.354  1.00  0.00     0.211 HD
ENDBRANCH  14  18
BRANCH  15  20
ATOM     20  O   UNL     1     -14.698  -7.697  27.241  1.00  0.00    -0.385 OA
ATOM     21  H   UNL     1     -13.712  -7.568  27.223  1.00  0.00     0.211 HD
ENDBRANCH  15  20
ENDBRANCH   8   9
ENDBRANCH   7   8
ENDBRANCH   1   7
BRANCH   2  22
ATOM     22  O   UNL     1     -16.121 -12.729  24.443  1.00  0.00    -0.387 OA
ATOM     23  H   UNL     1     -16.439 -11.813  24.648  1.00  0.00     0.211 HD
ENDBRANCH   2  22
BRANCH   3  24
ATOM     24  O   UNL     1     -14.670 -15.016  24.880  1.00  0.00    -0.387 OA
ATOM     25  H   UNL     1     -14.563 -14.637  25.790  1.00  0.00     0.211 HD
ENDBRANCH   3  24
BRANCH   5  26
ATOM     26  O   UNL     1     -12.534 -14.262  26.477  1.00  0.00    -0.454 OA
BRANCH  26  27
ATOM     27  C   UNL     1     -11.629 -14.861  27.358  1.00  0.00     0.214 A 
ATOM     28  C   UNL     1     -11.035 -14.130  28.407  1.00  0.00     0.180 A 
ATOM     29  C   UNL     1     -11.391 -16.237  27.280  1.00  0.00     0.239 A 
ATOM     30  O   UNL     1     -10.248 -14.744  29.276  1.00  0.00    -0.452 OA
ATOM     31  C   UNL     1     -10.553 -16.864  28.224  1.00  0.00     0.111 A 
ATOM     32  O   UNL     1     -11.959 -16.905  26.369  1.00  0.00    -0.285 OA
ATOM     33  C   UNL     1      -9.995 -16.049  29.237  1.00  0.00     0.146 A 
ATOM     34  C   UNL     1     -10.247 -18.248  28.206  1.00  0.00     0.134 A 
ATOM     35  C   UNL     1      -9.167 -16.613  30.209  1.00  0.00     0.094 A 
ATOM     36  C   UNL     1      -9.398 -18.793  29.189  1.00  0.00     0.093 A 
ATOM     37  C   UNL     1      -8.866 -17.976  30.189  1.00  0.00     0.123 A 
BRANCH  28  38
ATOM     38  C   UNL     1     -11.305 -12.699  28.608  1.00  0.00     0.025 A 
ATOM     39  C   UNL     1     -12.502 -12.273  29.210  1.00  0.00     0.062 A 
ATOM     40  C   UNL     1     -10.454 -11.748  28.036  1.00  0.00     0.016 A 
ATOM     41  C   UNL     1     -12.844 -10.913  29.241  1.00  0.00     0.158 A 
ATOM     42  C   UNL     1     -10.790 -10.392  28.062  1.00  0.00     0.051 A 
ATOM     43  C   UNL     1     -11.988  -9.955  28.645  1.00  0.00     0.157 A 
BRANCH  41  44
ATOM     44  O   UNL     1     -14.042 -10.560  29.857  1.00  0.00    -0.504 OA
ATOM     45  H   UNL     1     -14.126  -9.861  30.583  1.00  0.00     0.293 HD
ENDBRANCH  41  44
BRANCH  43  46
ATOM     46  O   UNL     1     -12.303  -8.589  28.588  1.00  0.00    -0.504 OA
ATOM     47  H   UNL     1     -12.594  -8.128  27.736  1.00  0.00     0.293 HD
ENDBRANCH  43  46
ENDBRANCH  28  38
BRANCH  34  48
ATOM     48  O   UNL     1     -10.765 -19.079  27.214  1.00  0.00    -0.507 OA
ATOM     49  H   UNL     1     -10.315 -19.142  26.311  1.00  0.00     0.293 HD
ENDBRANCH  34  48
BRANCH  37  50
ATOM     50  O   UNL     1      -8.049 -18.527  31.167  1.00  0.00    -0.508 OA
ATOM     51  H   UNL     1      -7.667 -19.463  31.066  1.00  0.00     0.293 HD
ENDBRANCH  37  50
ENDBRANCH  26  27
ENDBRANCH   5  26
BRANCH   4  52
ATOM     52  O   UNL     1     -12.116 -15.331  23.850  1.00  0.00    -0.384 OA
ATOM     53  H   UNL     1     -11.489 -15.498  24.596  1.00  0.00     0.211 HD
ENDBRANCH   4  52
TORSDOF 16
ENDMDL
MODEL 9
REMARK VINA RESULT:    -7.176      3.101      7.791
REMARK INTER + INTRA:         -15.402
REMARK INTER:                 -12.288
REMARK INTRA:                  -3.114
REMARK UNBOUND:                -3.611
REMARK SMILES C[C@H]1O[C@H](OC[C@@H]2O[C@@H](Oc3c(-c4ccc(O)c(O)c4)oc4cc(O)cc(O)c4c3=O)[C@@H](O)[C@@H](O)[C@H]2O)[C@@H](O)[C@@H](O)[C@@H]1O
REMARK SMILES IDX 7 1 36 2 34 3 32 4 9 5 8 6 6 7 5 8 4 9 1 10 2 11 42 12 3 13
REMARK SMILES IDX 40 14 38 15 43 16 41 18 39 20 37 22 35 24 10 26 11 27 12 28
REMARK SMILES IDX 30 29 21 30 29 31 31 32 22 33 27 34 23 35 26 36 24 37 13 38
REMARK SMILES IDX 20 39 14 40 18 41 15 42 16 43 19 44 17 46 28 48 25 50 33 52
REMARK H PARENT 43 17 41 19 39 21 37 23 35 25 19 45 17 47 28 49 25 51 33 53
REMARK Flexibility Score: inf
ROOT
ATOM      1  C   UNL     1     -13.121  -8.973  22.556  1.00  0.00     0.180 C 
ATOM      2  C   UNL     1     -13.477  -7.469  22.432  1.00  0.00     0.177 C 
ATOM      3  C   UNL     1     -13.500  -6.807  23.824  1.00  0.00     0.180 C 
ATOM      4  C   UNL     1     -14.385  -7.638  24.770  1.00  0.00     0.214 C 
ATOM      5  C   UNL     1     -13.966  -9.129  24.737  1.00  0.00     0.339 C 
ATOM      6  O   UNL     1     -14.052  -9.634  23.412  1.00  0.00    -0.332 OA
ENDROOT
BRANCH   1   7
ATOM      7  C   UNL     1     -13.111  -9.667  21.189  1.00  0.00     0.198 C 
BRANCH   7   8
ATOM      8  O   UNL     1     -14.446  -9.721  20.702  1.00  0.00    -0.347 OA
BRANCH   8   9
ATOM      9  C   UNL     1     -14.716 -10.899  19.976  1.00  0.00     0.281 C 
ATOM     10  C   UNL     1     -13.358 -12.210  16.867  1.00  0.00     0.041 C 
ATOM     11  C   UNL     1     -13.576 -12.294  18.383  1.00  0.00     0.150 C 
ATOM     12  C   UNL     1     -14.695 -13.305  18.727  1.00  0.00     0.174 C 
ATOM     13  O   UNL     1     -13.796 -10.985  18.897  1.00  0.00    -0.344 OA
ATOM     14  C   UNL     1     -14.753 -13.471  20.248  1.00  0.00     0.179 C 
ATOM     15  C   UNL     1     -14.603 -12.096  20.968  1.00  0.00     0.202 C 
BRANCH  12  16
ATOM     16  O   UNL     1     -14.430 -14.547  18.122  1.00  0.00    -0.388 OA
ATOM     17  H   UNL     1     -15.263 -15.079  18.192  1.00  0.00     0.211 HD
ENDBRANCH  12  16
BRANCH  14  18
ATOM     18  O   UNL     1     -15.947 -14.146  20.565  1.00  0.00    -0.387 OA
ATOM     19  H   UNL     1     -16.046 -14.230  21.567  1.00  0.00     0.211 HD
ENDBRANCH  14  18
BRANCH  15  20
ATOM     20  O   UNL     1     -15.522 -11.948  22.023  1.00  0.00    -0.385 OA
ATOM     21  H   UNL     1     -15.970 -11.066  21.910  1.00  0.00     0.211 HD
ENDBRANCH  15  20
ENDBRANCH   8   9
ENDBRANCH   7   8
ENDBRANCH   1   7
BRANCH   2  22
ATOM     22  O   UNL     1     -12.540  -6.812  21.622  1.00  0.00    -0.387 OA
ATOM     23  H   UNL     1     -11.655  -6.918  22.058  1.00  0.00     0.211 HD
ENDBRANCH   2  22
BRANCH   3  24
ATOM     24  O   UNL     1     -12.197  -6.724  24.343  1.00  0.00    -0.387 OA
ATOM     25  H   UNL     1     -12.215  -7.131  25.246  1.00  0.00     0.211 HD
ENDBRANCH   3  24
BRANCH   5  26
ATOM     26  O   UNL     1     -12.639  -9.307  25.245  1.00  0.00    -0.454 OA
BRANCH  26  27
ATOM     27  C   UNL     1     -12.333  -9.999  26.420  1.00  0.00     0.214 A 
ATOM     28  C   UNL     1     -12.112 -11.391  26.414  1.00  0.00     0.180 A 
ATOM     29  C   UNL     1     -12.124  -9.291  27.608  1.00  0.00     0.239 A 
ATOM     30  O   UNL     1     -11.742 -12.006  27.527  1.00  0.00    -0.452 OA
ATOM     31  C   UNL     1     -11.723  -9.972  28.776  1.00  0.00     0.111 A 
ATOM     32  O   UNL     1     -12.275  -8.036  27.607  1.00  0.00    -0.285 OA
ATOM     33  C   UNL     1     -11.533 -11.370  28.677  1.00  0.00     0.146 A 
ATOM     34  C   UNL     1     -11.507  -9.333  30.022  1.00  0.00     0.134 A 
ATOM     35  C   UNL     1     -11.125 -12.099  29.795  1.00  0.00     0.094 A 
ATOM     36  C   UNL     1     -11.108 -10.091  31.141  1.00  0.00     0.093 A 
ATOM     37  C   UNL     1     -10.913 -11.469  31.022  1.00  0.00     0.123 A 
BRANCH  28  38
ATOM     38  C   UNL     1     -12.226 -12.192  25.187  1.00  0.00     0.025 A 
ATOM     39  C   UNL     1     -13.423 -12.866  24.880  1.00  0.00     0.062 A 
ATOM     40  C   UNL     1     -11.088 -12.437  24.412  1.00  0.00     0.016 A 
ATOM     41  C   UNL     1     -13.479 -13.773  23.811  1.00  0.00     0.158 A 
ATOM     42  C   UNL     1     -11.139 -13.340  23.347  1.00  0.00     0.051 A 
ATOM     43  C   UNL     1     -12.320 -14.030  23.040  1.00  0.00     0.157 A 
BRANCH  41  44
ATOM     44  O   UNL     1     -14.696 -14.402  23.560  1.00  0.00    -0.504 OA
ATOM     45  H   UNL     1     -15.443 -14.489  24.238  1.00  0.00     0.293 HD
ENDBRANCH  41  44
BRANCH  43  46
ATOM     46  O   UNL     1     -12.296 -14.970  21.999  1.00  0.00    -0.504 OA
ATOM     47  H   UNL     1     -11.988 -15.925  22.128  1.00  0.00     0.293 HD
ENDBRANCH  43  46
ENDBRANCH  28  38
BRANCH  34  48
ATOM     48  O   UNL     1     -11.700  -7.960  30.162  1.00  0.00    -0.507 OA
ATOM     49  H   UNL     1     -12.582  -7.597  30.499  1.00  0.00     0.293 HD
ENDBRANCH  34  48
BRANCH  37  50
ATOM     50  O   UNL     1     -10.497 -12.203  32.124  1.00  0.00    -0.508 OA
ATOM     51  H   UNL     1     -10.275 -11.748  33.005  1.00  0.00     0.293 HD
ENDBRANCH  37  50
ENDBRANCH  26  27
ENDBRANCH   5  26
BRANCH   4  52
ATOM     52  O   UNL     1     -14.312  -7.137  26.085  1.00  0.00    -0.384 OA
ATOM     53  H   UNL     1     -14.164  -6.162  26.020  1.00  0.00     0.211 HD
ENDBRANCH   4  52
TORSDOF 16
ENDMDL
