MODEL 1
REMARK VINA RESULT:    -5.588      0.000      0.000
REMARK INTER + INTRA:          -7.079
REMARK INTER:                  -6.731
REMARK INTRA:                  -0.348
REMARK UNBOUND:                -0.348
REMARK SMILES Oc1cc(O)c2cc(O)c(-c3ccc(O)c(O)c3)[o+]c2c1
REMARK SMILES IDX 10 1 19 2 20 3 21 4 2 5 3 6 4 7 6 8 7 9 8 10 11 11 12 12
REMARK SMILES IDX 13 13 14 14 18 15 16 16 15 17 17 19 9 21 1 23 5 25
REMARK H PARENT 15 18 17 20 9 22 1 24 5 26
REMARK Flexibility Score: inf
ROOT
ATOM      1  C   UNL     1      -7.917  23.776  -9.713  1.00  0.00     0.402 A 
ATOM      2  O   UNL     1      -6.720  23.828  -9.135  1.00  0.00    -0.202 OA
ATOM      3  C   UNL     1      -5.967  22.755  -8.913  1.00  0.00     0.368 A 
ATOM      4  C   UNL     1      -4.724  22.912  -8.295  1.00  0.00     0.162 A 
ATOM      5  C   UNL     1      -3.914  21.803  -8.048  1.00  0.00     0.128 A 
ATOM      6  C   UNL     1      -4.349  20.527  -8.421  1.00  0.00     0.093 A 
ATOM      7  C   UNL     1      -5.591  20.343  -9.042  1.00  0.00     0.136 A 
ATOM      8  C   UNL     1      -6.417  21.469  -9.296  1.00  0.00     0.125 A 
ATOM      9  C   UNL     1      -7.670  21.381  -9.925  1.00  0.00     0.078 A 
ATOM     10  C   UNL     1      -8.424  22.537 -10.148  1.00  0.00     0.223 A 
ENDROOT
BRANCH   1  11
ATOM     11  C   UNL     1      -8.663  25.041  -9.895  1.00  0.00     0.087 A 
ATOM     12  C   UNL     1      -9.656  25.443  -8.984  1.00  0.00     0.022 A 
ATOM     13  C   UNL     1     -10.331  26.654  -9.163  1.00  0.00     0.051 A 
ATOM     14  C   UNL     1     -10.016  27.485 -10.245  1.00  0.00     0.157 A 
ATOM     15  C   UNL     1      -8.336  25.889 -10.966  1.00  0.00     0.068 A 
ATOM     16  C   UNL     1      -9.011  27.101 -11.149  1.00  0.00     0.158 A 
BRANCH  14  17
ATOM     17  O   UNL     1     -10.692  28.691 -10.423  1.00  0.00    -0.504 OA
ATOM     18  H   UNL     1     -10.606  29.226 -11.279  1.00  0.00     0.293 HD
ENDBRANCH  14  17
BRANCH  16  19
ATOM     19  O   UNL     1      -8.669  27.909 -12.233  1.00  0.00    -0.504 OA
ATOM     20  H   UNL     1      -7.760  28.349 -12.311  1.00  0.00     0.293 HD
ENDBRANCH  16  19
ENDBRANCH   1  11
BRANCH  10  21
ATOM     21  O   UNL     1      -9.646  22.457 -10.816  1.00  0.00    -0.500 OA
ATOM     22  H   UNL     1      -9.814  21.766 -11.539  1.00  0.00     0.294 HD
ENDBRANCH  10  21
BRANCH   5  23
ATOM     23  O   UNL     1      -2.678  21.980  -7.431  1.00  0.00    -0.507 OA
ATOM     24  H   UNL     1      -1.813  21.954  -7.959  1.00  0.00     0.293 HD
ENDBRANCH   5  23
BRANCH   7  25
ATOM     25  O   UNL     1      -5.955  19.035  -9.379  1.00  0.00    -0.507 OA
ATOM     26  H   UNL     1      -6.653  18.494  -8.891  1.00  0.00     0.293 HD
ENDBRANCH   7  25
TORSDOF 6
ENDMDL
MODEL 2
REMARK VINA RESULT:    -5.366      1.326      6.928
REMARK INTER + INTRA:          -6.812
REMARK INTER:                  -6.480
REMARK INTRA:                  -0.332
REMARK UNBOUND:                -0.348
REMARK SMILES Oc1cc(O)c2cc(O)c(-c3ccc(O)c(O)c3)[o+]c2c1
REMARK SMILES IDX 10 1 19 2 20 3 21 4 2 5 3 6 4 7 6 8 7 9 8 10 11 11 12 12
REMARK SMILES IDX 13 13 14 14 18 15 16 16 15 17 17 19 9 21 1 23 5 25
REMARK H PARENT 15 18 17 20 9 22 1 24 5 26
REMARK Flexibility Score: inf
ROOT
ATOM      1  C   UNL     1      -7.731  23.133  -9.007  1.00  0.00     0.402 A 
ATOM      2  O   UNL     1      -7.424  24.084  -9.886  1.00  0.00    -0.202 OA
ATOM      3  C   UNL     1      -8.137  25.194 -10.039  1.00  0.00     0.368 A 
ATOM      4  C   UNL     1      -7.736  26.134 -10.993  1.00  0.00     0.162 A 
ATOM      5  C   UNL     1      -8.467  27.308 -11.177  1.00  0.00     0.128 A 
ATOM      6  C   UNL     1      -9.609  27.546 -10.404  1.00  0.00     0.093 A 
ATOM      7  C   UNL     1     -10.032  26.620  -9.442  1.00  0.00     0.136 A 
ATOM      8  C   UNL     1      -9.290  25.425  -9.250  1.00  0.00     0.125 A 
ATOM      9  C   UNL     1      -9.631  24.448  -8.301  1.00  0.00     0.078 A 
ATOM     10  C   UNL     1      -8.847  23.298  -8.166  1.00  0.00     0.223 A 
ENDROOT
BRANCH   1  11
ATOM     11  C   UNL     1      -6.863  21.936  -8.938  1.00  0.00     0.087 A 
ATOM     12  C   UNL     1      -7.241  20.721  -9.537  1.00  0.00     0.022 A 
ATOM     13  C   UNL     1      -6.394  19.611  -9.480  1.00  0.00     0.051 A 
ATOM     14  C   UNL     1      -5.154  19.701  -8.836  1.00  0.00     0.157 A 
ATOM     15  C   UNL     1      -5.609  22.026  -8.313  1.00  0.00     0.068 A 
ATOM     16  C   UNL     1      -4.759  20.916  -8.252  1.00  0.00     0.158 A 
BRANCH  14  17
ATOM     17  O   UNL     1      -4.312  18.591  -8.778  1.00  0.00    -0.504 OA
ATOM     18  H   UNL     1      -3.617  18.490  -8.047  1.00  0.00     0.293 HD
ENDBRANCH  14  17
BRANCH  16  19
ATOM     19  O   UNL     1      -3.528  21.040  -7.610  1.00  0.00    -0.504 OA
ATOM     20  H   UNL     1      -2.977  20.234  -7.340  1.00  0.00     0.293 HD
ENDBRANCH  16  19
ENDBRANCH   1  11
BRANCH  10  21
ATOM     21  O   UNL     1      -9.158  22.351  -7.190  1.00  0.00    -0.500 OA
ATOM     22  H   UNL     1     -10.116  22.093  -6.984  1.00  0.00     0.294 HD
ENDBRANCH  10  21
BRANCH   5  23
ATOM     23  O   UNL     1      -8.051  28.232 -12.132  1.00  0.00    -0.507 OA
ATOM     24  H   UNL     1      -7.812  27.949 -13.076  1.00  0.00     0.293 HD
ENDBRANCH   5  23
BRANCH   7  25
ATOM     25  O   UNL     1     -11.185  26.930  -8.714  1.00  0.00    -0.507 OA
ATOM     26  H   UNL     1     -12.126  26.778  -9.046  1.00  0.00     0.293 HD
ENDBRANCH   7  25
TORSDOF 6
ENDMDL
MODEL 3
REMARK VINA RESULT:    -5.363      1.790      6.780
REMARK INTER + INTRA:          -6.809
REMARK INTER:                  -7.030
REMARK INTRA:                   0.222
REMARK UNBOUND:                -0.348
REMARK SMILES Oc1cc(O)c2cc(O)c(-c3ccc(O)c(O)c3)[o+]c2c1
REMARK SMILES IDX 10 1 19 2 20 3 21 4 2 5 3 6 4 7 6 8 7 9 8 10 11 11 12 12
REMARK SMILES IDX 13 13 14 14 18 15 16 16 15 17 17 19 9 21 1 23 5 25
REMARK H PARENT 15 18 17 20 9 22 1 24 5 26
REMARK Flexibility Score: inf
ROOT
ATOM      1  C   UNL     1      -6.548  23.031  -9.847  1.00  0.00     0.402 A 
ATOM      2  O   UNL     1      -5.797  24.128  -9.883  1.00  0.00    -0.202 OA
ATOM      3  C   UNL     1      -6.241  25.304 -10.315  1.00  0.00     0.368 A 
ATOM      4  C   UNL     1      -5.374  26.400 -10.318  1.00  0.00     0.162 A 
ATOM      5  C   UNL     1      -5.813  27.645 -10.768  1.00  0.00     0.128 A 
ATOM      6  C   UNL     1      -7.128  27.798 -11.220  1.00  0.00     0.093 A 
ATOM      7  C   UNL     1      -8.017  26.716 -11.228  1.00  0.00     0.136 A 
ATOM      8  C   UNL     1      -7.575  25.448 -10.768  1.00  0.00     0.125 A 
ATOM      9  C   UNL     1      -8.399  24.311 -10.727  1.00  0.00     0.078 A 
ATOM     10  C   UNL     1      -7.893  23.096 -10.255  1.00  0.00     0.223 A 
ENDROOT
BRANCH   1  11
ATOM     11  C   UNL     1      -5.934  21.777  -9.353  1.00  0.00     0.087 A 
ATOM     12  C   UNL     1      -6.396  20.519  -9.778  1.00  0.00     0.022 A 
ATOM     13  C   UNL     1      -5.785  19.350  -9.316  1.00  0.00     0.051 A 
ATOM     14  C   UNL     1      -4.699  19.420  -8.436  1.00  0.00     0.157 A 
ATOM     15  C   UNL     1      -4.830  21.842  -8.488  1.00  0.00     0.068 A 
ATOM     16  C   UNL     1      -4.217  20.674  -8.023  1.00  0.00     0.158 A 
BRANCH  14  17
ATOM     17  O   UNL     1      -4.092  18.252  -7.976  1.00  0.00    -0.504 OA
ATOM     18  H   UNL     1      -4.622  17.532  -7.499  1.00  0.00     0.293 HD
ENDBRANCH  14  17
BRANCH  16  19
ATOM     19  O   UNL     1      -3.132  20.778  -7.153  1.00  0.00    -0.504 OA
ATOM     20  H   UNL     1      -2.269  20.271  -7.306  1.00  0.00     0.293 HD
ENDBRANCH  16  19
ENDBRANCH   1  11
BRANCH  10  21
ATOM     21  O   UNL     1      -8.725  21.979 -10.168  1.00  0.00    -0.500 OA
ATOM     22  H   UNL     1      -8.367  21.038 -10.282  1.00  0.00     0.294 HD
ENDBRANCH  10  21
BRANCH   5  23
ATOM     23  O   UNL     1      -4.933  28.725 -10.763  1.00  0.00    -0.507 OA
ATOM     24  H   UNL     1      -4.556  29.106 -11.623  1.00  0.00     0.293 HD
ENDBRANCH   5  23
BRANCH   7  25
ATOM     25  O   UNL     1      -9.312  26.950 -11.698  1.00  0.00    -0.507 OA
ATOM     26  H   UNL     1      -9.622  26.752 -12.639  1.00  0.00     0.293 HD
ENDBRANCH   7  25
TORSDOF 6
ENDMDL
MODEL 4
REMARK VINA RESULT:    -5.304      1.105      1.744
REMARK INTER + INTRA:          -6.737
REMARK INTER:                  -6.399
REMARK INTRA:                  -0.338
REMARK UNBOUND:                -0.348
REMARK SMILES Oc1cc(O)c2cc(O)c(-c3ccc(O)c(O)c3)[o+]c2c1
REMARK SMILES IDX 10 1 19 2 20 3 21 4 2 5 3 6 4 7 6 8 7 9 8 10 11 11 12 12
REMARK SMILES IDX 13 13 14 14 18 15 16 16 15 17 17 19 9 21 1 23 5 25
REMARK H PARENT 15 18 17 20 9 22 1 24 5 26
REMARK Flexibility Score: inf
ROOT
ATOM      1  C   UNL     1      -7.340  23.324  -9.380  1.00  0.00     0.402 A 
ATOM      2  O   UNL     1      -6.247  23.358  -8.621  1.00  0.00    -0.202 OA
ATOM      3  C   UNL     1      -5.493  22.292  -8.378  1.00  0.00     0.368 A 
ATOM      4  C   UNL     1      -4.365  22.428  -7.564  1.00  0.00     0.162 A 
ATOM      5  C   UNL     1      -3.556  21.325  -7.290  1.00  0.00     0.128 A 
ATOM      6  C   UNL     1      -3.875  20.075  -7.833  1.00  0.00     0.093 A 
ATOM      7  C   UNL     1      -5.000  19.913  -8.651  1.00  0.00     0.136 A 
ATOM      8  C   UNL     1      -5.824  21.033  -8.934  1.00  0.00     0.125 A 
ATOM      9  C   UNL     1      -6.962  20.966  -9.754  1.00  0.00     0.078 A 
ATOM     10  C   UNL     1      -7.723  22.116  -9.991  1.00  0.00     0.223 A 
ENDROOT
BRANCH   1  11
ATOM     11  C   UNL     1      -8.103  24.579  -9.567  1.00  0.00     0.087 A 
ATOM     12  C   UNL     1      -7.898  25.400 -10.690  1.00  0.00     0.022 A 
ATOM     13  C   UNL     1      -8.647  26.567 -10.857  1.00  0.00     0.051 A 
ATOM     14  C   UNL     1      -9.618  26.925  -9.915  1.00  0.00     0.157 A 
ATOM     15  C   UNL     1      -9.093  24.931  -8.636  1.00  0.00     0.068 A 
ATOM     16  C   UNL     1      -9.844  26.101  -8.800  1.00  0.00     0.158 A 
BRANCH  14  17
ATOM     17  O   UNL     1     -10.363  28.093 -10.083  1.00  0.00    -0.504 OA
ATOM     18  H   UNL     1     -10.122  28.777 -10.791  1.00  0.00     0.293 HD
ENDBRANCH  14  17
BRANCH  16  19
ATOM     19  O   UNL     1     -10.808  26.425  -7.847  1.00  0.00    -0.504 OA
ATOM     20  H   UNL     1     -10.606  26.427  -6.854  1.00  0.00     0.293 HD
ENDBRANCH  16  19
ENDBRANCH   1  11
BRANCH  10  21
ATOM     21  O   UNL     1      -8.825  22.061 -10.845  1.00  0.00    -0.500 OA
ATOM     22  H   UNL     1      -9.768  21.949 -10.490  1.00  0.00     0.294 HD
ENDBRANCH  10  21
BRANCH   5  23
ATOM     23  O   UNL     1      -2.436  21.481  -6.477  1.00  0.00    -0.507 OA
ATOM     24  H   UNL     1      -1.498  21.330  -6.831  1.00  0.00     0.293 HD
ENDBRANCH   5  23
BRANCH   7  25
ATOM     25  O   UNL     1      -5.253  18.631  -9.151  1.00  0.00    -0.507 OA
ATOM     26  H   UNL     1      -6.173  18.272  -9.359  1.00  0.00     0.293 HD
ENDBRANCH   7  25
TORSDOF 6
ENDMDL
MODEL 5
REMARK VINA RESULT:    -5.167      3.084      4.882
REMARK INTER + INTRA:          -6.573
REMARK INTER:                  -6.224
REMARK INTRA:                  -0.349
REMARK UNBOUND:                -0.348
REMARK SMILES Oc1cc(O)c2cc(O)c(-c3ccc(O)c(O)c3)[o+]c2c1
REMARK SMILES IDX 10 1 19 2 20 3 21 4 2 5 3 6 4 7 6 8 7 9 8 10 11 11 12 12
REMARK SMILES IDX 13 13 14 14 18 15 16 16 15 17 17 19 9 21 1 23 5 25
REMARK H PARENT 15 18 17 20 9 22 1 24 5 26
REMARK Flexibility Score: inf
ROOT
ATOM      1  C   UNL     1      -5.219  21.577  -8.192  1.00  0.00     0.402 A 
ATOM      2  O   UNL     1      -4.716  22.557  -7.445  1.00  0.00    -0.202 OA
ATOM      3  C   UNL     1      -3.768  22.368  -6.533  1.00  0.00     0.368 A 
ATOM      4  C   UNL     1      -3.307  23.461  -5.794  1.00  0.00     0.162 A 
ATOM      5  C   UNL     1      -2.314  23.292  -4.829  1.00  0.00     0.128 A 
ATOM      6  C   UNL     1      -1.778  22.020  -4.598  1.00  0.00     0.093 A 
ATOM      7  C   UNL     1      -2.223  20.908  -5.324  1.00  0.00     0.136 A 
ATOM      8  C   UNL     1      -3.232  21.077  -6.308  1.00  0.00     0.125 A 
ATOM      9  C   UNL     1      -3.729  20.024  -7.093  1.00  0.00     0.078 A 
ATOM     10  C   UNL     1      -4.720  20.269  -8.049  1.00  0.00     0.223 A 
ENDROOT
BRANCH   1  11
ATOM     11  C   UNL     1      -6.280  21.914  -9.167  1.00  0.00     0.087 A 
ATOM     12  C   UNL     1      -5.970  22.290 -10.487  1.00  0.00     0.022 A 
ATOM     13  C   UNL     1      -6.989  22.580 -11.397  1.00  0.00     0.051 A 
ATOM     14  C   UNL     1      -8.331  22.487 -11.008  1.00  0.00     0.157 A 
ATOM     15  C   UNL     1      -7.628  21.801  -8.790  1.00  0.00     0.068 A 
ATOM     16  C   UNL     1      -8.652  22.092  -9.698  1.00  0.00     0.158 A 
BRANCH  14  17
ATOM     17  O   UNL     1      -9.347  22.779 -11.918  1.00  0.00    -0.504 OA
ATOM     18  H   UNL     1      -9.797  23.687 -11.936  1.00  0.00     0.293 HD
ENDBRANCH  14  17
BRANCH  16  19
ATOM     19  O   UNL     1      -9.978  21.984  -9.282  1.00  0.00    -0.504 OA
ATOM     20  H   UNL     1     -10.337  21.145  -8.842  1.00  0.00     0.293 HD
ENDBRANCH  16  19
ENDBRANCH   1  11
BRANCH  10  21
ATOM     21  O   UNL     1      -5.179  19.233  -8.861  1.00  0.00    -0.500 OA
ATOM     22  H   UNL     1      -5.833  19.398  -9.618  1.00  0.00     0.294 HD
ENDBRANCH  10  21
BRANCH   5  23
ATOM     23  O   UNL     1      -1.868  24.393  -4.104  1.00  0.00    -0.507 OA
ATOM     24  H   UNL     1      -1.241  24.290  -3.314  1.00  0.00     0.293 HD
ENDBRANCH   5  23
BRANCH   7  25
ATOM     25  O   UNL     1      -1.640  19.672  -5.030  1.00  0.00    -0.507 OA
ATOM     26  H   UNL     1      -1.919  19.078  -4.263  1.00  0.00     0.293 HD
ENDBRANCH   7  25
TORSDOF 6
ENDMDL
MODEL 6
REMARK VINA RESULT:    -5.086      3.373      7.407
REMARK INTER + INTRA:          -6.474
REMARK INTER:                  -6.185
REMARK INTRA:                  -0.290
REMARK UNBOUND:                -0.348
REMARK SMILES Oc1cc(O)c2cc(O)c(-c3ccc(O)c(O)c3)[o+]c2c1
REMARK SMILES IDX 10 1 19 2 20 3 21 4 2 5 3 6 4 7 6 8 7 9 8 10 11 11 12 12
REMARK SMILES IDX 13 13 14 14 18 15 16 16 15 17 17 19 9 21 1 23 5 25
REMARK H PARENT 15 18 17 20 9 22 1 24 5 26
REMARK Flexibility Score: inf
ROOT
ATOM      1  C   UNL     1      -5.792  21.898  -6.555  1.00  0.00     0.402 A 
ATOM      2  O   UNL     1      -6.189  22.127  -7.804  1.00  0.00    -0.202 OA
ATOM      3  C   UNL     1      -7.459  22.068  -8.189  1.00  0.00     0.368 A 
ATOM      4  C   UNL     1      -7.777  22.322  -9.526  1.00  0.00     0.162 A 
ATOM      5  C   UNL     1      -9.102  22.263  -9.959  1.00  0.00     0.128 A 
ATOM      6  C   UNL     1     -10.119  21.949  -9.050  1.00  0.00     0.093 A 
ATOM      7  C   UNL     1      -9.826  21.689  -7.706  1.00  0.00     0.136 A 
ATOM      8  C   UNL     1      -8.480  21.749  -7.261  1.00  0.00     0.125 A 
ATOM      9  C   UNL     1      -8.095  21.518  -5.930  1.00  0.00     0.078 A 
ATOM     10  C   UNL     1      -6.747  21.601  -5.566  1.00  0.00     0.223 A 
ENDROOT
BRANCH   1  11
ATOM     11  C   UNL     1      -4.345  21.985  -6.253  1.00  0.00     0.087 A 
ATOM     12  C   UNL     1      -3.695  23.227  -6.135  1.00  0.00     0.022 A 
ATOM     13  C   UNL     1      -2.334  23.285  -5.826  1.00  0.00     0.051 A 
ATOM     14  C   UNL     1      -1.605  22.108  -5.617  1.00  0.00     0.157 A 
ATOM     15  C   UNL     1      -3.614  20.809  -6.022  1.00  0.00     0.068 A 
ATOM     16  C   UNL     1      -2.251  20.863  -5.713  1.00  0.00     0.158 A 
BRANCH  14  17
ATOM     17  O   UNL     1      -0.246  22.169  -5.310  1.00  0.00    -0.504 OA
ATOM     18  H   UNL     1       0.408  21.481  -5.664  1.00  0.00     0.293 HD
ENDBRANCH  14  17
BRANCH  16  19
ATOM     19  O   UNL     1      -1.555  19.673  -5.504  1.00  0.00    -0.504 OA
ATOM     20  H   UNL     1      -1.020  19.226  -6.240  1.00  0.00     0.293 HD
ENDBRANCH  16  19
ENDBRANCH   1  11
BRANCH  10  21
ATOM     21  O   UNL     1      -6.370  21.420  -4.235  1.00  0.00    -0.500 OA
ATOM     22  H   UNL     1      -6.943  20.891  -3.586  1.00  0.00     0.294 HD
ENDBRANCH  10  21
BRANCH   5  23
ATOM     23  O   UNL     1      -9.399  22.520 -11.295  1.00  0.00    -0.507 OA
ATOM     24  H   UNL     1     -10.298  22.277 -11.696  1.00  0.00     0.293 HD
ENDBRANCH   5  23
BRANCH   7  25
ATOM     25  O   UNL     1     -10.897  21.377  -6.862  1.00  0.00    -0.507 OA
ATOM     26  H   UNL     1     -11.043  21.787  -5.951  1.00  0.00     0.293 HD
ENDBRANCH   7  25
TORSDOF 6
ENDMDL
MODEL 7
REMARK VINA RESULT:    -5.066      1.476      2.134
REMARK INTER + INTRA:          -6.450
REMARK INTER:                  -6.101
REMARK INTRA:                  -0.349
REMARK UNBOUND:                -0.348
REMARK SMILES Oc1cc(O)c2cc(O)c(-c3ccc(O)c(O)c3)[o+]c2c1
REMARK SMILES IDX 10 1 19 2 20 3 21 4 2 5 3 6 4 7 6 8 7 9 8 10 11 11 12 12
REMARK SMILES IDX 13 13 14 14 18 15 16 16 15 17 17 19 9 21 1 23 5 25
REMARK H PARENT 15 18 17 20 9 22 1 24 5 26
REMARK Flexibility Score: inf
ROOT
ATOM      1  C   UNL     1      -8.528  23.834  -8.984  1.00  0.00     0.402 A 
ATOM      2  O   UNL     1      -7.220  23.715  -8.773  1.00  0.00    -0.202 OA
ATOM      3  C   UNL     1      -6.567  22.561  -8.866  1.00  0.00     0.368 A 
ATOM      4  C   UNL     1      -5.191  22.536  -8.621  1.00  0.00     0.162 A 
ATOM      5  C   UNL     1      -4.481  21.338  -8.709  1.00  0.00     0.128 A 
ATOM      6  C   UNL     1      -5.150  20.155  -9.042  1.00  0.00     0.093 A 
ATOM      7  C   UNL     1      -6.528  20.153  -9.291  1.00  0.00     0.136 A 
ATOM      8  C   UNL     1      -7.254  21.370  -9.205  1.00  0.00     0.125 A 
ATOM      9  C   UNL     1      -8.633  21.466  -9.450  1.00  0.00     0.078 A 
ATOM     10  C   UNL     1      -9.278  22.702  -9.352  1.00  0.00     0.223 A 
ENDROOT
BRANCH   1  11
ATOM     11  C   UNL     1      -9.141  25.174  -8.840  1.00  0.00     0.087 A 
ATOM     12  C   UNL     1      -9.225  26.062  -9.928  1.00  0.00     0.022 A 
ATOM     13  C   UNL     1      -9.830  27.312  -9.774  1.00  0.00     0.051 A 
ATOM     14  C   UNL     1     -10.370  27.689  -8.539  1.00  0.00     0.157 A 
ATOM     15  C   UNL     1      -9.704  25.549  -7.609  1.00  0.00     0.068 A 
ATOM     16  C   UNL     1     -10.309  26.801  -7.452  1.00  0.00     0.158 A 
BRANCH  14  17
ATOM     17  O   UNL     1     -10.971  28.938  -8.388  1.00  0.00    -0.504 OA
ATOM     18  H   UNL     1     -11.727  29.087  -7.730  1.00  0.00     0.293 HD
ENDBRANCH  14  17
BRANCH  16  19
ATOM     19  O   UNL     1     -10.843  27.144  -6.210  1.00  0.00    -0.504 OA
ATOM     20  H   UNL     1     -11.553  26.582  -5.756  1.00  0.00     0.293 HD
ENDBRANCH  16  19
ENDBRANCH   1  11
BRANCH  10  21
ATOM     21  O   UNL     1     -10.639  22.806  -9.643  1.00  0.00    -0.500 OA
ATOM     22  H   UNL     1     -11.278  22.036  -9.486  1.00  0.00     0.294 HD
ENDBRANCH  10  21
BRANCH   5  23
ATOM     23  O   UNL     1      -3.111  21.334  -8.463  1.00  0.00    -0.507 OA
ATOM     24  H   UNL     1      -2.739  21.471  -7.530  1.00  0.00     0.293 HD
ENDBRANCH   5  23
BRANCH   7  25
ATOM     25  O   UNL     1      -7.123  18.929  -9.613  1.00  0.00    -0.507 OA
ATOM     26  H   UNL     1      -8.074  18.681  -9.387  1.00  0.00     0.293 HD
ENDBRANCH   7  25
TORSDOF 6
ENDMDL
MODEL 8
REMARK VINA RESULT:    -4.944      2.026      7.029
REMARK INTER + INTRA:          -6.304
REMARK INTER:                  -5.975
REMARK INTRA:                  -0.329
REMARK UNBOUND:                -0.348
REMARK SMILES Oc1cc(O)c2cc(O)c(-c3ccc(O)c(O)c3)[o+]c2c1
REMARK SMILES IDX 10 1 19 2 20 3 21 4 2 5 3 6 4 7 6 8 7 9 8 10 11 11 12 12
REMARK SMILES IDX 13 13 14 14 18 15 16 16 15 17 17 19 9 21 1 23 5 25
REMARK H PARENT 15 18 17 20 9 22 1 24 5 26
REMARK Flexibility Score: inf
ROOT
ATOM      1  C   UNL     1      -5.915  21.999  -7.865  1.00  0.00     0.402 A 
ATOM      2  O   UNL     1      -6.321  23.266  -7.841  1.00  0.00    -0.202 OA
ATOM      3  C   UNL     1      -7.146  23.786  -8.744  1.00  0.00     0.368 A 
ATOM      4  C   UNL     1      -7.512  25.130  -8.636  1.00  0.00     0.162 A 
ATOM      5  C   UNL     1      -8.375  25.704  -9.571  1.00  0.00     0.128 A 
ATOM      6  C   UNL     1      -8.876  24.928 -10.622  1.00  0.00     0.093 A 
ATOM      7  C   UNL     1      -8.524  23.579 -10.753  1.00  0.00     0.136 A 
ATOM      8  C   UNL     1      -7.648  22.992  -9.803  1.00  0.00     0.125 A 
ATOM      9  C   UNL     1      -7.252  21.645  -9.847  1.00  0.00     0.078 A 
ATOM     10  C   UNL     1      -6.390  21.136  -8.871  1.00  0.00     0.223 A 
ENDROOT
BRANCH   1  11
ATOM     11  C   UNL     1      -4.986  21.541  -6.808  1.00  0.00     0.087 A 
ATOM     12  C   UNL     1      -5.451  20.859  -5.669  1.00  0.00     0.022 A 
ATOM     13  C   UNL     1      -4.553  20.416  -4.695  1.00  0.00     0.051 A 
ATOM     14  C   UNL     1      -3.178  20.633  -4.850  1.00  0.00     0.157 A 
ATOM     15  C   UNL     1      -3.605  21.737  -6.968  1.00  0.00     0.068 A 
ATOM     16  C   UNL     1      -2.702  21.294  -5.995  1.00  0.00     0.158 A 
BRANCH  14  17
ATOM     17  O   UNL     1      -2.284  20.190  -3.876  1.00  0.00    -0.504 OA
ATOM     18  H   UNL     1      -1.381  19.802  -4.122  1.00  0.00     0.293 HD
ENDBRANCH  14  17
BRANCH  16  19
ATOM     19  O   UNL     1      -1.339  21.520  -6.182  1.00  0.00    -0.504 OA
ATOM     20  H   UNL     1      -0.971  22.438  -6.399  1.00  0.00     0.293 HD
ENDBRANCH  16  19
ENDBRANCH   1  11
BRANCH  10  21
ATOM     21  O   UNL     1      -6.036  19.787  -8.886  1.00  0.00    -0.500 OA
ATOM     22  H   UNL     1      -5.076  19.487  -8.760  1.00  0.00     0.294 HD
ENDBRANCH  10  21
BRANCH   5  23
ATOM     23  O   UNL     1      -8.728  27.044  -9.445  1.00  0.00    -0.507 OA
ATOM     24  H   UNL     1      -9.633  27.323  -9.083  1.00  0.00     0.293 HD
ENDBRANCH   5  23
BRANCH   7  25
ATOM     25  O   UNL     1      -9.064  22.875 -11.834  1.00  0.00    -0.507 OA
ATOM     26  H   UNL     1      -9.813  22.203 -11.759  1.00  0.00     0.293 HD
ENDBRANCH   7  25
TORSDOF 6
ENDMDL
MODEL 9
REMARK VINA RESULT:    -4.917      3.316      7.109
REMARK INTER + INTRA:          -6.271
REMARK INTER:                  -5.955
REMARK INTRA:                  -0.316
REMARK UNBOUND:                -0.348
REMARK SMILES Oc1cc(O)c2cc(O)c(-c3ccc(O)c(O)c3)[o+]c2c1
REMARK SMILES IDX 10 1 19 2 20 3 21 4 2 5 3 6 4 7 6 8 7 9 8 10 11 11 12 12
REMARK SMILES IDX 13 13 14 14 18 15 16 16 15 17 17 19 9 21 1 23 5 25
REMARK H PARENT 15 18 17 20 9 22 1 24 5 26
REMARK Flexibility Score: inf
ROOT
ATOM      1  C   UNL     1      -5.386  22.277  -7.953  1.00  0.00     0.402 A 
ATOM      2  O   UNL     1      -6.512  22.009  -7.297  1.00  0.00    -0.202 OA
ATOM      3  C   UNL     1      -7.706  21.976  -7.879  1.00  0.00     0.368 A 
ATOM      4  C   UNL     1      -8.833  21.688  -7.103  1.00  0.00     0.162 A 
ATOM      5  C   UNL     1     -10.100  21.650  -7.687  1.00  0.00     0.128 A 
ATOM      6  C   UNL     1     -10.243  21.901  -9.056  1.00  0.00     0.093 A 
ATOM      7  C   UNL     1      -9.131  22.193  -9.854  1.00  0.00     0.136 A 
ATOM      8  C   UNL     1      -7.840  22.231  -9.265  1.00  0.00     0.125 A 
ATOM      9  C   UNL     1      -6.668  22.500  -9.990  1.00  0.00     0.078 A 
ATOM     10  C   UNL     1      -5.430  22.515  -9.339  1.00  0.00     0.223 A 
ENDROOT
BRANCH   1  11
ATOM     11  C   UNL     1      -4.118  22.293  -7.190  1.00  0.00     0.087 A 
ATOM     12  C   UNL     1      -3.487  23.502  -6.844  1.00  0.00     0.022 A 
ATOM     13  C   UNL     1      -2.302  23.493  -6.103  1.00  0.00     0.051 A 
ATOM     14  C   UNL     1      -1.738  22.282  -5.686  1.00  0.00     0.157 A 
ATOM     15  C   UNL     1      -3.559  21.082  -6.751  1.00  0.00     0.068 A 
ATOM     16  C   UNL     1      -2.372  21.070  -6.009  1.00  0.00     0.158 A 
BRANCH  14  17
ATOM     17  O   UNL     1      -0.555  22.276  -4.947  1.00  0.00    -0.504 OA
ATOM     18  H   UNL     1      -0.135  23.136  -4.612  1.00  0.00     0.293 HD
ENDBRANCH  14  17
BRANCH  16  19
ATOM     19  O   UNL     1      -1.840  19.847  -5.603  1.00  0.00    -0.504 OA
ATOM     20  H   UNL     1      -1.982  19.481  -4.670  1.00  0.00     0.293 HD
ENDBRANCH  16  19
ENDBRANCH   1  11
BRANCH  10  21
ATOM     21  O   UNL     1      -4.260  22.734 -10.067  1.00  0.00    -0.500 OA
ATOM     22  H   UNL     1      -3.504  22.059 -10.078  1.00  0.00     0.294 HD
ENDBRANCH  10  21
BRANCH   5  23
ATOM     23  O   UNL     1     -11.210  21.360  -6.897  1.00  0.00    -0.507 OA
ATOM     24  H   UNL     1     -11.244  20.532  -6.314  1.00  0.00     0.293 HD
ENDBRANCH   5  23
BRANCH   7  25
ATOM     25  O   UNL     1      -9.359  22.436 -11.212  1.00  0.00    -0.507 OA
ATOM     26  H   UNL     1      -8.666  22.317 -11.937  1.00  0.00     0.293 HD
ENDBRANCH   7  25
TORSDOF 6
ENDMDL
