MODEL 1
REMARK VINA RESULT:    -5.553      0.000      0.000
REMARK INTER + INTRA:          -6.658
REMARK INTER:                  -6.527
REMARK INTRA:                  -0.131
REMARK UNBOUND:                -0.131
REMARK SMILES O=C([O-])C=Cc1ccc(O)c(O)c1
REMARK SMILES IDX 6 1 13 2 7 3 11 4 8 5 9 6 5 7 4 8 2 9 1 10 3 11 12 12 10 14
REMARK H PARENT 12 13 10 15
REMARK Flexibility Score: inf
ROOT
ATOM      1  C   UNL     1       8.793  15.610 -21.758  1.00  0.00    -0.022 A 
ATOM      2  C   UNL     1       8.790  16.929 -21.273  1.00  0.00     0.058 A 
ATOM      3  C   UNL     1       8.562  14.554 -20.856  1.00  0.00     0.012 A 
ATOM      4  C   UNL     1       8.535  17.194 -19.920  1.00  0.00     0.157 A 
ATOM      5  C   UNL     1       8.308  14.818 -19.509  1.00  0.00     0.051 A 
ATOM      6  C   UNL     1       8.290  16.132 -19.035  1.00  0.00     0.157 A 
ENDROOT
BRANCH   1   7
ATOM      7  C   UNL     1       9.079  15.383 -23.198  1.00  0.00     0.010 C 
ATOM      8  C   UNL     1       9.951  16.112 -23.908  1.00  0.00     0.025 C 
BRANCH   8   9
ATOM      9  C   UNL     1      10.211  15.842 -25.331  1.00  0.00     0.064 C 
ATOM     10  O   UNL     1       9.242  15.696 -26.121  1.00  0.00    -0.545 OA
ATOM     11  O   UNL     1      11.509  15.743 -25.818  1.00  0.00    -0.545 OA
ENDBRANCH   8   9
ENDBRANCH   1   7
BRANCH   4  12
ATOM     12  O   UNL     1       8.525  18.508 -19.454  1.00  0.00    -0.504 OA
ATOM     13  H   UNL     1       9.378  19.049 -19.370  1.00  0.00     0.293 HD
ENDBRANCH   4  12
BRANCH   6  14
ATOM     14  O   UNL     1       8.032  16.364 -17.683  1.00  0.00    -0.504 OA
ATOM     15  H   UNL     1       8.742  16.719 -17.054  1.00  0.00     0.293 HD
ENDBRANCH   6  14
TORSDOF 4
ENDMDL
MODEL 2
REMARK VINA RESULT:    -5.494      0.893      1.931
REMARK INTER + INTRA:          -6.588
REMARK INTER:                  -6.459
REMARK INTRA:                  -0.129
REMARK UNBOUND:                -0.131
REMARK SMILES O=C([O-])C=Cc1ccc(O)c(O)c1
REMARK SMILES IDX 6 1 13 2 7 3 11 4 8 5 9 6 5 7 4 8 2 9 1 10 3 11 12 12 10 14
REMARK H PARENT 12 13 10 15
REMARK Flexibility Score: inf
ROOT
ATOM      1  C   UNL     1       8.827  15.880 -21.843  1.00  0.00    -0.022 A 
ATOM      2  C   UNL     1       8.744  14.709 -21.070  1.00  0.00     0.058 A 
ATOM      3  C   UNL     1       8.749  17.128 -21.196  1.00  0.00     0.012 A 
ATOM      4  C   UNL     1       8.614  14.780 -19.675  1.00  0.00     0.157 A 
ATOM      5  C   UNL     1       8.620  17.198 -19.807  1.00  0.00     0.051 A 
ATOM      6  C   UNL     1       8.554  16.031 -19.042  1.00  0.00     0.157 A 
ENDROOT
BRANCH   1   7
ATOM      7  C   UNL     1       8.954  15.750 -23.317  1.00  0.00     0.010 C 
ATOM      8  C   UNL     1      10.093  15.965 -23.987  1.00  0.00     0.025 C 
BRANCH   8   9
ATOM      9  C   UNL     1      10.175  15.813 -25.449  1.00  0.00     0.064 C 
ATOM     10  O   UNL     1       9.115  15.740 -26.125  1.00  0.00    -0.545 OA
ATOM     11  O   UNL     1      11.403  15.745 -26.096  1.00  0.00    -0.545 OA
ENDBRANCH   8   9
ENDBRANCH   1   7
BRANCH   4  12
ATOM     12  O   UNL     1       8.543  13.610 -18.919  1.00  0.00    -0.504 OA
ATOM     13  H   UNL     1       7.654  13.199 -18.657  1.00  0.00     0.293 HD
ENDBRANCH   4  12
BRANCH   6  14
ATOM     14  O   UNL     1       8.426  16.134 -17.656  1.00  0.00    -0.504 OA
ATOM     15  H   UNL     1       8.450  15.321 -17.052  1.00  0.00     0.293 HD
ENDBRANCH   6  14
TORSDOF 4
ENDMDL
MODEL 3
REMARK VINA RESULT:    -4.923      2.706      5.700
REMARK INTER + INTRA:          -5.918
REMARK INTER:                  -5.791
REMARK INTRA:                  -0.127
REMARK UNBOUND:                -0.131
REMARK SMILES O=C([O-])C=Cc1ccc(O)c(O)c1
REMARK SMILES IDX 6 1 13 2 7 3 11 4 8 5 9 6 5 7 4 8 2 9 1 10 3 11 12 12 10 14
REMARK H PARENT 12 13 10 15
REMARK Flexibility Score: inf
ROOT
ATOM      1  C   UNL     1       9.139  16.879 -19.437  1.00  0.00    -0.022 A 
ATOM      2  C   UNL     1       8.739  16.729 -20.775  1.00  0.00     0.058 A 
ATOM      3  C   UNL     1       9.501  15.732 -18.704  1.00  0.00     0.012 A 
ATOM      4  C   UNL     1       8.725  15.465 -21.382  1.00  0.00     0.157 A 
ATOM      5  C   UNL     1       9.487  14.473 -19.308  1.00  0.00     0.051 A 
ATOM      6  C   UNL     1       9.103  14.332 -20.644  1.00  0.00     0.157 A 
ENDROOT
BRANCH   1   7
ATOM      7  C   UNL     1       9.127  18.238 -18.839  1.00  0.00     0.010 C 
ATOM      8  C   UNL     1       8.008  18.890 -18.495  1.00  0.00     0.025 C 
BRANCH   8   9
ATOM      9  C   UNL     1       8.045  20.233 -17.894  1.00  0.00     0.064 C 
ATOM     10  O   UNL     1       7.041  20.659 -17.266  1.00  0.00    -0.545 OA
ATOM     11  O   UNL     1       9.170  21.041 -18.011  1.00  0.00    -0.545 OA
ENDBRANCH   8   9
ENDBRANCH   1   7
BRANCH   4  12
ATOM     12  O   UNL     1       8.335  15.332 -22.714  1.00  0.00    -0.504 OA
ATOM     13  H   UNL     1       7.361  15.234 -22.976  1.00  0.00     0.293 HD
ENDBRANCH   4  12
BRANCH   6  14
ATOM     14  O   UNL     1       9.101  13.061 -21.219  1.00  0.00    -0.504 OA
ATOM     15  H   UNL     1       9.516  12.881 -22.125  1.00  0.00     0.293 HD
ENDBRANCH   6  14
TORSDOF 4
ENDMDL
MODEL 4
REMARK VINA RESULT:    -4.790      3.322      5.545
REMARK INTER + INTRA:          -5.762
REMARK INTER:                  -5.632
REMARK INTRA:                  -0.130
REMARK UNBOUND:                -0.131
REMARK SMILES O=C([O-])C=Cc1ccc(O)c(O)c1
REMARK SMILES IDX 6 1 13 2 7 3 11 4 8 5 9 6 5 7 4 8 2 9 1 10 3 11 12 12 10 14
REMARK H PARENT 12 13 10 15
REMARK Flexibility Score: inf
ROOT
ATOM      1  C   UNL     1       9.187  16.202 -19.658  1.00  0.00    -0.022 A 
ATOM      2  C   UNL     1       9.545  15.165 -18.781  1.00  0.00     0.058 A 
ATOM      3  C   UNL     1       8.797  15.876 -20.972  1.00  0.00     0.012 A 
ATOM      4  C   UNL     1       9.489  13.826 -19.193  1.00  0.00     0.157 A 
ATOM      5  C   UNL     1       8.742  14.543 -21.383  1.00  0.00     0.051 A 
ATOM      6  C   UNL     1       9.083  13.515 -20.501  1.00  0.00     0.157 A 
ENDROOT
BRANCH   1   7
ATOM      7  C   UNL     1       9.272  17.604 -19.175  1.00  0.00     0.010 C 
ATOM      8  C   UNL     1       8.203  18.368 -18.915  1.00  0.00     0.025 C 
BRANCH   8   9
ATOM      9  C   UNL     1       8.336  19.750 -18.426  1.00  0.00     0.064 C 
ATOM     10  O   UNL     1       7.376  20.286 -17.813  1.00  0.00    -0.545 OA
ATOM     11  O   UNL     1       9.504  20.475 -18.632  1.00  0.00    -0.545 OA
ENDBRANCH   8   9
ENDBRANCH   1   7
BRANCH   4  12
ATOM     12  O   UNL     1       9.837  12.807 -18.308  1.00  0.00    -0.504 OA
ATOM     13  H   UNL     1      10.426  12.980 -17.501  1.00  0.00     0.293 HD
ENDBRANCH   4  12
BRANCH   6  14
ATOM     14  O   UNL     1       9.017  12.192 -20.940  1.00  0.00    -0.504 OA
ATOM     15  H   UNL     1       8.523  11.477 -20.421  1.00  0.00     0.293 HD
ENDBRANCH   6  14
TORSDOF 4
ENDMDL
MODEL 5
REMARK VINA RESULT:    -4.755      2.961      4.004
REMARK INTER + INTRA:          -5.720
REMARK INTER:                  -5.586
REMARK INTRA:                  -0.135
REMARK UNBOUND:                -0.131
REMARK SMILES O=C([O-])C=Cc1ccc(O)c(O)c1
REMARK SMILES IDX 6 1 13 2 7 3 11 4 8 5 9 6 5 7 4 8 2 9 1 10 3 11 12 12 10 14
REMARK H PARENT 12 13 10 15
REMARK Flexibility Score: inf
ROOT
ATOM      1  C   UNL     1       9.117  13.958 -20.236  1.00  0.00    -0.022 A 
ATOM      2  C   UNL     1       9.145  12.555 -20.181  1.00  0.00     0.058 A 
ATOM      3  C   UNL     1       9.454  14.690 -19.080  1.00  0.00     0.012 A 
ATOM      4  C   UNL     1       9.528  11.891 -19.006  1.00  0.00     0.157 A 
ATOM      5  C   UNL     1       9.835  14.029 -17.911  1.00  0.00     0.051 A 
ATOM      6  C   UNL     1       9.877  12.633 -17.867  1.00  0.00     0.157 A 
ENDROOT
BRANCH   1   7
ATOM      7  C   UNL     1       8.695  14.612 -21.500  1.00  0.00     0.010 C 
ATOM      8  C   UNL     1       9.210  15.764 -21.951  1.00  0.00     0.025 C 
BRANCH   8   9
ATOM      9  C   UNL     1       8.768  16.370 -23.218  1.00  0.00     0.064 C 
ATOM     10  O   UNL     1       8.326  17.548 -23.221  1.00  0.00    -0.545 OA
ATOM     11  O   UNL     1       8.828  15.661 -24.411  1.00  0.00    -0.545 OA
ENDBRANCH   8   9
ENDBRANCH   1   7
BRANCH   4  12
ATOM     12  O   UNL     1       9.561  10.498 -18.970  1.00  0.00    -0.504 OA
ATOM     13  H   UNL     1       9.323   9.938 -19.781  1.00  0.00     0.293 HD
ENDBRANCH   4  12
BRANCH   6  14
ATOM     14  O   UNL     1      10.262  12.002 -16.684  1.00  0.00    -0.504 OA
ATOM     15  H   UNL     1      10.617  11.053 -16.672  1.00  0.00     0.293 HD
ENDBRANCH   6  14
TORSDOF 4
ENDMDL
MODEL 6
REMARK VINA RESULT:    -4.725      2.811      5.791
REMARK INTER + INTRA:          -5.684
REMARK INTER:                  -5.555
REMARK INTRA:                  -0.130
REMARK UNBOUND:                -0.131
REMARK SMILES O=C([O-])C=Cc1ccc(O)c(O)c1
REMARK SMILES IDX 6 1 13 2 7 3 11 4 8 5 9 6 5 7 4 8 2 9 1 10 3 11 12 12 10 14
REMARK H PARENT 12 13 10 15
REMARK Flexibility Score: inf
ROOT
ATOM      1  C   UNL     1       9.194  14.415 -19.676  1.00  0.00    -0.022 A 
ATOM      2  C   UNL     1       9.033  15.774 -19.358  1.00  0.00     0.058 A 
ATOM      3  C   UNL     1       9.027  14.005 -21.013  1.00  0.00     0.012 A 
ATOM      4  C   UNL     1       8.738  16.714 -20.358  1.00  0.00     0.157 A 
ATOM      5  C   UNL     1       8.733  14.940 -22.008  1.00  0.00     0.051 A 
ATOM      6  C   UNL     1       8.590  16.293 -21.689  1.00  0.00     0.157 A 
ENDROOT
BRANCH   1   7
ATOM      7  C   UNL     1       9.496  13.460 -18.579  1.00  0.00     0.010 C 
ATOM      8  C   UNL     1      10.240  13.768 -17.508  1.00  0.00     0.025 C 
BRANCH   8   9
ATOM      9  C   UNL     1      10.503  12.791 -16.439  1.00  0.00     0.064 C 
ATOM     10  O   UNL     1       9.608  12.546 -15.589  1.00  0.00    -0.545 OA
ATOM     11  O   UNL     1      11.726  12.136 -16.350  1.00  0.00    -0.545 OA
ENDBRANCH   8   9
ENDBRANCH   1   7
BRANCH   4  12
ATOM     12  O   UNL     1       8.591  18.060 -20.030  1.00  0.00    -0.504 OA
ATOM     13  H   UNL     1       7.794  18.395 -19.500  1.00  0.00     0.293 HD
ENDBRANCH   4  12
BRANCH   6  14
ATOM     14  O   UNL     1       8.297  17.203 -22.705  1.00  0.00    -0.504 OA
ATOM     15  H   UNL     1       8.369  16.956 -23.685  1.00  0.00     0.293 HD
ENDBRANCH   6  14
TORSDOF 4
ENDMDL
MODEL 7
REMARK VINA RESULT:    -4.706      3.462      5.650
REMARK INTER + INTRA:          -5.662
REMARK INTER:                  -5.524
REMARK INTRA:                  -0.139
REMARK UNBOUND:                -0.131
REMARK SMILES O=C([O-])C=Cc1ccc(O)c(O)c1
REMARK SMILES IDX 6 1 13 2 7 3 11 4 8 5 9 6 5 7 4 8 2 9 1 10 3 11 12 12 10 14
REMARK H PARENT 12 13 10 15
REMARK Flexibility Score: inf
ROOT
ATOM      1  C   UNL     1       9.374  13.949 -19.492  1.00  0.00    -0.022 A 
ATOM      2  C   UNL     1       9.708  15.239 -19.048  1.00  0.00     0.058 A 
ATOM      3  C   UNL     1       8.785  13.800 -20.763  1.00  0.00     0.012 A 
ATOM      4  C   UNL     1       9.486  16.359 -19.864  1.00  0.00     0.157 A 
ATOM      5  C   UNL     1       8.563  14.914 -21.575  1.00  0.00     0.051 A 
ATOM      6  C   UNL     1       8.912  16.193 -21.134  1.00  0.00     0.157 A 
ENDROOT
BRANCH   1   7
ATOM      7  C   UNL     1       9.620  12.799 -18.586  1.00  0.00     0.010 C 
ATOM      8  C   UNL     1       9.617  11.521 -18.988  1.00  0.00     0.025 C 
BRANCH   8   9
ATOM      9  C   UNL     1       9.879  10.413 -18.055  1.00  0.00     0.064 C 
ATOM     10  O   UNL     1       9.256  10.362 -16.962  1.00  0.00    -0.545 OA
ATOM     11  O   UNL     1      10.805   9.422 -18.358  1.00  0.00    -0.545 OA
ENDBRANCH   8   9
ENDBRANCH   1   7
BRANCH   4  12
ATOM     12  O   UNL     1       9.832  17.632 -19.414  1.00  0.00    -0.504 OA
ATOM     13  H   UNL     1      10.800  17.921 -19.328  1.00  0.00     0.293 HD
ENDBRANCH   4  12
BRANCH   6  14
ATOM     14  O   UNL     1       8.679  17.286 -21.969  1.00  0.00    -0.504 OA
ATOM     15  H   UNL     1       8.250  18.139 -21.631  1.00  0.00     0.293 HD
ENDBRANCH   6  14
TORSDOF 4
ENDMDL
MODEL 8
REMARK VINA RESULT:    -4.705      2.343      3.266
REMARK INTER + INTRA:          -5.661
REMARK INTER:                  -5.534
REMARK INTRA:                  -0.127
REMARK UNBOUND:                -0.131
REMARK SMILES O=C([O-])C=Cc1ccc(O)c(O)c1
REMARK SMILES IDX 6 1 13 2 7 3 11 4 8 5 9 6 5 7 4 8 2 9 1 10 3 11 12 12 10 14
REMARK H PARENT 12 13 10 15
REMARK Flexibility Score: inf
ROOT
ATOM      1  C   UNL     1       9.248  16.021 -19.196  1.00  0.00    -0.022 A 
ATOM      2  C   UNL     1      10.317  15.313 -18.622  1.00  0.00     0.058 A 
ATOM      3  C   UNL     1       8.069  16.198 -18.446  1.00  0.00     0.012 A 
ATOM      4  C   UNL     1      10.226  14.812 -17.315  1.00  0.00     0.157 A 
ATOM      5  C   UNL     1       7.978  15.699 -17.144  1.00  0.00     0.051 A 
ATOM      6  C   UNL     1       9.051  15.009 -16.573  1.00  0.00     0.157 A 
ENDROOT
BRANCH   1   7
ATOM      7  C   UNL     1       9.392  16.522 -20.586  1.00  0.00     0.010 C 
ATOM      8  C   UNL     1       9.002  15.836 -21.669  1.00  0.00     0.025 C 
BRANCH   8   9
ATOM      9  C   UNL     1       9.154  16.379 -23.029  1.00  0.00     0.064 C 
ATOM     10  O   UNL     1       8.367  17.274 -23.431  1.00  0.00    -0.545 OA
ATOM     11  O   UNL     1      10.152  15.916 -23.879  1.00  0.00    -0.545 OA
ENDBRANCH   8   9
ENDBRANCH   1   7
BRANCH   4  12
ATOM     12  O   UNL     1      11.298  14.120 -16.755  1.00  0.00    -0.504 OA
ATOM     13  H   UNL     1      11.929  14.559 -16.095  1.00  0.00     0.293 HD
ENDBRANCH   4  12
BRANCH   6  14
ATOM     14  O   UNL     1       8.929  14.524 -15.271  1.00  0.00    -0.504 OA
ATOM     15  H   UNL     1       9.468  14.905 -14.502  1.00  0.00     0.293 HD
ENDBRANCH   6  14
TORSDOF 4
ENDMDL
MODEL 9
REMARK VINA RESULT:    -4.678      3.260      6.237
REMARK INTER + INTRA:          -5.630
REMARK INTER:                  -5.497
REMARK INTRA:                  -0.133
REMARK UNBOUND:                -0.131
REMARK SMILES O=C([O-])C=Cc1ccc(O)c(O)c1
REMARK SMILES IDX 6 1 13 2 7 3 11 4 8 5 9 6 5 7 4 8 2 9 1 10 3 11 12 12 10 14
REMARK H PARENT 12 13 10 15
REMARK Flexibility Score: inf
ROOT
ATOM      1  C   UNL     1       9.684  15.028 -18.887  1.00  0.00    -0.022 A 
ATOM      2  C   UNL     1       9.023  14.383 -19.946  1.00  0.00     0.058 A 
ATOM      3  C   UNL     1       9.896  16.419 -18.965  1.00  0.00     0.012 A 
ATOM      4  C   UNL     1       8.557  15.112 -21.050  1.00  0.00     0.157 A 
ATOM      5  C   UNL     1       9.433  17.144 -20.065  1.00  0.00     0.051 A 
ATOM      6  C   UNL     1       8.762  16.499 -21.108  1.00  0.00     0.157 A 
ENDROOT
BRANCH   1   7
ATOM      7  C   UNL     1      10.165  14.210 -17.746  1.00  0.00     0.010 C 
ATOM      8  C   UNL     1       9.924  12.898 -17.616  1.00  0.00     0.025 C 
BRANCH   8   9
ATOM      9  C   UNL     1      10.433  12.125 -16.472  1.00  0.00     0.064 C 
ATOM     10  O   UNL     1      11.673  11.959 -16.337  1.00  0.00    -0.545 OA
ATOM     11  O   UNL     1       9.566  11.570 -15.539  1.00  0.00    -0.545 OA
ENDBRANCH   8   9
ENDBRANCH   1   7
BRANCH   4  12
ATOM     12  O   UNL     1       7.894  14.460 -22.089  1.00  0.00    -0.504 OA
ATOM     13  H   UNL     1       7.922  14.809 -23.040  1.00  0.00     0.293 HD
ENDBRANCH   4  12
BRANCH   6  14
ATOM     14  O   UNL     1       8.310  17.252 -22.192  1.00  0.00    -0.504 OA
ATOM     15  H   UNL     1       8.917  17.499 -22.965  1.00  0.00     0.293 HD
ENDBRANCH   6  14
TORSDOF 4
ENDMDL
