MODEL 1
REMARK VINA RESULT:     2.573      0.000      0.000
REMARK INTER + INTRA:           4.300
REMARK INTER:                   4.680
REMARK INTRA:                  -0.379
REMARK UNBOUND:                -0.379
REMARK SMILES CCCCCCCCCCCCCCCC(=O)[O-]
REMARK SMILES IDX 9 1 10 2 11 3 12 4 13 5 14 6 15 7 16 8 17 9 18 10 8 11 7 12
REMARK SMILES IDX 6 13 5 14 4 15 3 16 2 17 1 18
REMARK H PARENT
REMARK Flexibility Score: inf
ROOT
ATOM      1  C   UNL     1      -3.281 -29.962  -5.169  1.00  0.00     0.000 C 
ENDROOT
BRANCH   1   2
ATOM      2  C   UNL     1      -3.897 -31.295  -4.693  1.00  0.00     0.000 C 
BRANCH   2   3
ATOM      3  C   UNL     1      -2.975 -32.108  -3.764  1.00  0.00     0.000 C 
BRANCH   3   4
ATOM      4  C   UNL     1      -1.847 -31.300  -3.100  1.00  0.00     0.000 C 
BRANCH   4   5
ATOM      5  C   UNL     1      -0.502 -31.447  -3.828  1.00  0.00     0.000 C 
BRANCH   5   6
ATOM      6  C   UNL     1       0.662 -31.474  -2.828  1.00  0.00     0.006 C 
BRANCH   6   7
ATOM      7  C   UNL     1       0.944 -30.092  -2.226  1.00  0.00     0.053 C 
BRANCH   7   8
ATOM      8  C   UNL     1       1.119 -30.157  -0.741  1.00  0.00     0.041 C 
ATOM      9  O   UNL     1       1.715 -29.233  -0.130  1.00  0.00    -0.550 OA
ATOM     10  O   UNL     1       0.589 -31.225  -0.025  1.00  0.00    -0.550 OA
ENDBRANCH   7   8
ENDBRANCH   6   7
ENDBRANCH   5   6
ENDBRANCH   4   5
ENDBRANCH   3   4
ENDBRANCH   2   3
ENDBRANCH   1   2
BRANCH   1  11
ATOM     11  C   UNL     1      -3.614 -29.657  -6.641  1.00  0.00     0.000 C 
BRANCH  11  12
ATOM     12  C   UNL     1      -4.405 -30.790  -7.314  1.00  0.00    -0.000 C 
BRANCH  12  13
ATOM     13  C   UNL     1      -3.631 -32.120  -7.321  1.00  0.00    -0.000 C 
BRANCH  13  14
ATOM     14  C   UNL     1      -2.280 -32.012  -8.046  1.00  0.00    -0.000 C 
BRANCH  14  15
ATOM     15  C   UNL     1      -1.082 -32.097  -7.082  1.00  0.00    -0.000 C 
BRANCH  15  16
ATOM     16  C   UNL     1       0.267 -31.993  -7.810  1.00  0.00    -0.000 C 
BRANCH  16  17
ATOM     17  C   UNL     1       1.453 -31.879  -6.840  1.00  0.00    -0.003 C 
ATOM     18  C   UNL     1       2.773 -31.759  -7.596  1.00  0.00     0.004 C 
ENDBRANCH  16  17
ENDBRANCH  15  16
ENDBRANCH  14  15
ENDBRANCH  13  14
ENDBRANCH  12  13
ENDBRANCH  11  12
ENDBRANCH   1  11
TORSDOF 14
ENDMDL
MODEL 2
REMARK VINA RESULT:     2.781      3.860      6.103
REMARK INTER + INTRA:           4.678
REMARK INTER:                   5.448
REMARK INTRA:                  -0.770
REMARK UNBOUND:                -0.379
REMARK SMILES CCCCCCCCCCCCCCCC(=O)[O-]
REMARK SMILES IDX 9 1 10 2 11 3 12 4 13 5 14 6 15 7 16 8 17 9 18 10 8 11 7 12
REMARK SMILES IDX 6 13 5 14 4 15 3 16 2 17 1 18
REMARK H PARENT
REMARK Flexibility Score: inf
ROOT
ATOM      1  C   UNL     1       0.775 -30.681  -5.200  1.00  0.00     0.000 C 
ENDROOT
BRANCH   1   2
ATOM      2  C   UNL     1       2.082 -31.244  -5.799  1.00  0.00     0.000 C 
BRANCH   2   3
ATOM      3  C   UNL     1       2.724 -30.325  -6.857  1.00  0.00     0.000 C 
BRANCH   3   4
ATOM      4  C   UNL     1       2.968 -28.878  -6.397  1.00  0.00     0.000 C 
BRANCH   4   5
ATOM      5  C   UNL     1       2.333 -27.841  -7.336  1.00  0.00     0.000 C 
BRANCH   5   6
ATOM      6  C   UNL     1       2.950 -26.453  -7.115  1.00  0.00     0.006 C 
BRANCH   6   7
ATOM      7  C   UNL     1       3.365 -26.225  -5.656  1.00  0.00     0.053 C 
BRANCH   7   8
ATOM      8  C   UNL     1       3.861 -24.830  -5.431  1.00  0.00     0.041 C 
ATOM      9  O   UNL     1       3.252 -24.059  -4.645  1.00  0.00    -0.550 OA
ATOM     10  O   UNL     1       5.020 -24.395  -6.062  1.00  0.00    -0.550 OA
ENDBRANCH   7   8
ENDBRANCH   6   7
ENDBRANCH   5   6
ENDBRANCH   4   5
ENDBRANCH   3   4
ENDBRANCH   2   3
ENDBRANCH   1   2
BRANCH   1  11
ATOM     11  C   UNL     1       0.524 -31.189  -3.767  1.00  0.00     0.000 C 
BRANCH  11  12
ATOM     12  C   UNL     1      -0.969 -31.375  -3.460  1.00  0.00    -0.000 C 
BRANCH  12  13
ATOM     13  C   UNL     1      -1.806 -31.595  -4.733  1.00  0.00    -0.000 C 
BRANCH  13  14
ATOM     14  C   UNL     1      -2.911 -30.540  -4.902  1.00  0.00    -0.000 C 
BRANCH  14  15
ATOM     15  C   UNL     1      -4.228 -31.140  -5.426  1.00  0.00    -0.000 C 
BRANCH  15  16
ATOM     16  C   UNL     1      -4.005 -32.124  -6.585  1.00  0.00    -0.000 C 
BRANCH  16  17
ATOM     17  C   UNL     1      -4.284 -31.492  -7.957  1.00  0.00    -0.003 C 
ATOM     18  C   UNL     1      -4.874 -30.093  -7.809  1.00  0.00     0.004 C 
ENDBRANCH  16  17
ENDBRANCH  15  16
ENDBRANCH  14  15
ENDBRANCH  13  14
ENDBRANCH  12  13
ENDBRANCH  11  12
ENDBRANCH   1  11
TORSDOF 14
ENDMDL
MODEL 3
REMARK VINA RESULT:     2.935      1.516      2.525
REMARK INTER + INTRA:           4.958
REMARK INTER:                   5.206
REMARK INTRA:                  -0.248
REMARK UNBOUND:                -0.379
REMARK SMILES CCCCCCCCCCCCCCCC(=O)[O-]
REMARK SMILES IDX 9 1 10 2 11 3 12 4 13 5 14 6 15 7 16 8 17 9 18 10 8 11 7 12
REMARK SMILES IDX 6 13 5 14 4 15 3 16 2 17 1 18
REMARK H PARENT
REMARK Flexibility Score: inf
ROOT
ATOM      1  C   UNL     1      -2.548 -30.889  -4.957  1.00  0.00     0.000 C 
ENDROOT
BRANCH   1   2
ATOM      2  C   UNL     1      -3.249 -31.141  -3.605  1.00  0.00     0.000 C 
BRANCH   2   3
ATOM      3  C   UNL     1      -2.401 -31.956  -2.609  1.00  0.00     0.000 C 
BRANCH   3   4
ATOM      4  C   UNL     1      -1.284 -31.164  -1.909  1.00  0.00     0.000 C 
BRANCH   4   5
ATOM      5  C   UNL     1      -0.055 -30.951  -2.806  1.00  0.00     0.000 C 
BRANCH   5   6
ATOM      6  C   UNL     1       1.226 -31.417  -2.099  1.00  0.00     0.006 C 
BRANCH   6   7
ATOM      7  C   UNL     1       1.170 -31.188  -0.583  1.00  0.00     0.053 C 
BRANCH   7   8
ATOM      8  C   UNL     1       1.503 -29.774  -0.222  1.00  0.00     0.041 C 
ATOM      9  O   UNL     1       2.042 -29.512   0.885  1.00  0.00    -0.550 OA
ATOM     10  O   UNL     1       1.252 -28.748  -1.125  1.00  0.00    -0.550 OA
ENDBRANCH   7   8
ENDBRANCH   6   7
ENDBRANCH   5   6
ENDBRANCH   4   5
ENDBRANCH   3   4
ENDBRANCH   2   3
ENDBRANCH   1   2
BRANCH   1  11
ATOM     11  C   UNL     1      -1.585 -32.030  -5.336  1.00  0.00     0.000 C 
BRANCH  11  12
ATOM     12  C   UNL     1      -1.307 -32.091  -6.846  1.00  0.00    -0.000 C 
BRANCH  12  13
ATOM     13  C   UNL     1       0.198 -32.121  -7.164  1.00  0.00    -0.000 C 
BRANCH  13  14
ATOM     14  C   UNL     1       1.046 -31.456  -6.069  1.00  0.00    -0.000 C 
BRANCH  14  15
ATOM     15  C   UNL     1       2.553 -31.492  -6.382  1.00  0.00    -0.000 C 
BRANCH  15  16
ATOM     16  C   UNL     1       2.862 -31.089  -7.832  1.00  0.00    -0.000 C 
BRANCH  16  17
ATOM     17  C   UNL     1       4.293 -30.558  -8.004  1.00  0.00    -0.003 C 
ATOM     18  C   UNL     1       5.294 -31.703  -8.125  1.00  0.00     0.004 C 
ENDBRANCH  16  17
ENDBRANCH  15  16
ENDBRANCH  14  15
ENDBRANCH  13  14
ENDBRANCH  12  13
ENDBRANCH  11  12
ENDBRANCH   1  11
TORSDOF 14
ENDMDL
MODEL 4
REMARK VINA RESULT:     3.339      3.782      7.808
REMARK INTER + INTRA:           5.692
REMARK INTER:                   4.498
REMARK INTRA:                   1.193
REMARK UNBOUND:                -0.379
REMARK SMILES CCCCCCCCCCCCCCCC(=O)[O-]
REMARK SMILES IDX 9 1 10 2 11 3 12 4 13 5 14 6 15 7 16 8 17 9 18 10 8 11 7 12
REMARK SMILES IDX 6 13 5 14 4 15 3 16 2 17 1 18
REMARK H PARENT
REMARK Flexibility Score: inf
ROOT
ATOM      1  C   UNL     1       0.622 -30.623  -3.288  1.00  0.00     0.000 C 
ENDROOT
BRANCH   1   2
ATOM      2  C   UNL     1       0.692 -31.341  -4.653  1.00  0.00     0.000 C 
BRANCH   2   3
ATOM      3  C   UNL     1      -0.685 -31.754  -5.208  1.00  0.00     0.000 C 
BRANCH   3   4
ATOM      4  C   UNL     1      -1.874 -31.454  -4.279  1.00  0.00     0.000 C 
BRANCH   4   5
ATOM      5  C   UNL     1      -3.121 -30.982  -5.043  1.00  0.00     0.000 C 
BRANCH   5   6
ATOM      6  C   UNL     1      -4.177 -32.094  -5.107  1.00  0.00     0.006 C 
BRANCH   6   7
ATOM      7  C   UNL     1      -5.068 -31.981  -6.351  1.00  0.00     0.053 C 
BRANCH   7   8
ATOM      8  C   UNL     1      -4.312 -31.445  -7.527  1.00  0.00     0.041 C 
ATOM      9  O   UNL     1      -3.338 -32.085  -8.002  1.00  0.00    -0.550 OA
ATOM     10  O   UNL     1      -4.709 -30.253  -8.124  1.00  0.00    -0.550 OA
ENDBRANCH   7   8
ENDBRANCH   6   7
ENDBRANCH   5   6
ENDBRANCH   4   5
ENDBRANCH   3   4
ENDBRANCH   2   3
ENDBRANCH   1   2
BRANCH   1  11
ATOM     11  C   UNL     1      -0.496 -31.183  -2.390  1.00  0.00     0.000 C 
BRANCH  11  12
ATOM     12  C   UNL     1       0.034 -31.712  -1.048  1.00  0.00    -0.000 C 
BRANCH  12  13
ATOM     13  C   UNL     1       1.490 -31.289  -0.786  1.00  0.00    -0.000 C 
BRANCH  13  14
ATOM     14  C   UNL     1       1.601 -29.843  -0.275  1.00  0.00    -0.000 C 
BRANCH  14  15
ATOM     15  C   UNL     1       1.519 -29.749   1.259  1.00  0.00    -0.000 C 
BRANCH  15  16
ATOM     16  C   UNL     1       2.500 -28.717   1.838  1.00  0.00    -0.000 C 
BRANCH  16  17
ATOM     17  C   UNL     1       2.426 -28.628   3.370  1.00  0.00    -0.003 C 
ATOM     18  C   UNL     1       3.449 -29.552   4.024  1.00  0.00     0.004 C 
ENDBRANCH  16  17
ENDBRANCH  15  16
ENDBRANCH  14  15
ENDBRANCH  13  14
ENDBRANCH  12  13
ENDBRANCH  11  12
ENDBRANCH   1  11
TORSDOF 14
ENDMDL
MODEL 5
REMARK VINA RESULT:     3.429      2.736      5.770
REMARK INTER + INTRA:           5.857
REMARK INTER:                   6.647
REMARK INTRA:                  -0.790
REMARK UNBOUND:                -0.379
REMARK SMILES CCCCCCCCCCCCCCCC(=O)[O-]
REMARK SMILES IDX 9 1 10 2 11 3 12 4 13 5 14 6 15 7 16 8 17 9 18 10 8 11 7 12
REMARK SMILES IDX 6 13 5 14 4 15 3 16 2 17 1 18
REMARK H PARENT
REMARK Flexibility Score: inf
ROOT
ATOM      1  C   UNL     1       1.140 -30.479  -3.581  1.00  0.00     0.000 C 
ENDROOT
BRANCH   1   2
ATOM      2  C   UNL     1       1.674 -31.928  -3.612  1.00  0.00     0.000 C 
BRANCH   2   3
ATOM      3  C   UNL     1       2.878 -32.124  -4.553  1.00  0.00     0.000 C 
BRANCH   3   4
ATOM      4  C   UNL     1       2.539 -32.106  -6.053  1.00  0.00     0.000 C 
BRANCH   4   5
ATOM      5  C   UNL     1       3.789 -32.076  -6.945  1.00  0.00     0.000 C 
BRANCH   5   6
ATOM      6  C   UNL     1       3.746 -30.881  -7.908  1.00  0.00     0.006 C 
BRANCH   6   7
ATOM      7  C   UNL     1       2.385 -30.175  -7.898  1.00  0.00     0.053 C 
BRANCH   7   8
ATOM      8  C   UNL     1       2.446 -28.862  -7.181  1.00  0.00     0.041 C 
ATOM      9  O   UNL     1       2.397 -28.822  -5.924  1.00  0.00    -0.550 OA
ATOM     10  O   UNL     1       2.594 -27.682  -7.902  1.00  0.00    -0.550 OA
ENDBRANCH   7   8
ENDBRANCH   6   7
ENDBRANCH   5   6
ENDBRANCH   4   5
ENDBRANCH   3   4
ENDBRANCH   2   3
ENDBRANCH   1   2
BRANCH   1  11
ATOM     11  C   UNL     1      -0.247 -30.383  -2.918  1.00  0.00     0.000 C 
BRANCH  11  12
ATOM     12  C   UNL     1      -0.778 -31.749  -2.459  1.00  0.00    -0.000 C 
BRANCH  12  13
ATOM     13  C   UNL     1      -2.202 -32.027  -2.973  1.00  0.00    -0.000 C 
BRANCH  13  14
ATOM     14  C   UNL     1      -2.283 -32.038  -4.508  1.00  0.00    -0.000 C 
BRANCH  14  15
ATOM     15  C   UNL     1      -3.309 -31.028  -5.054  1.00  0.00    -0.000 C 
BRANCH  15  16
ATOM     16  C   UNL     1      -4.376 -31.692  -5.937  1.00  0.00    -0.000 C 
BRANCH  16  17
ATOM     17  C   UNL     1      -4.131 -31.456  -7.435  1.00  0.00    -0.003 C 
ATOM     18  C   UNL     1      -4.854 -30.203  -7.920  1.00  0.00     0.004 C 
ENDBRANCH  16  17
ENDBRANCH  15  16
ENDBRANCH  14  15
ENDBRANCH  13  14
ENDBRANCH  12  13
ENDBRANCH  11  12
ENDBRANCH   1  11
TORSDOF 14
ENDMDL
MODEL 6
REMARK VINA RESULT:     4.307      3.772      6.590
REMARK INTER + INTRA:           7.453
REMARK INTER:                   8.452
REMARK INTRA:                  -0.999
REMARK UNBOUND:                -0.379
REMARK SMILES CCCCCCCCCCCCCCCC(=O)[O-]
REMARK SMILES IDX 9 1 10 2 11 3 12 4 13 5 14 6 15 7 16 8 17 9 18 10 8 11 7 12
REMARK SMILES IDX 6 13 5 14 4 15 3 16 2 17 1 18
REMARK H PARENT
REMARK Flexibility Score: inf
ROOT
ATOM      1  C   UNL     1       2.586 -31.986  -5.920  1.00  0.00     0.000 C 
ENDROOT
BRANCH   1   2
ATOM      2  C   UNL     1       3.181 -31.607  -7.293  1.00  0.00     0.000 C 
BRANCH   2   3
ATOM      3  C   UNL     1       2.374 -30.528  -8.042  1.00  0.00     0.000 C 
BRANCH   3   4
ATOM      4  C   UNL     1       2.968 -29.111  -7.974  1.00  0.00     0.000 C 
BRANCH   4   5
ATOM      5  C   UNL     1       2.351 -28.260  -6.853  1.00  0.00     0.000 C 
BRANCH   5   6
ATOM      6  C   UNL     1       2.907 -26.829  -6.882  1.00  0.00     0.006 C 
BRANCH   6   7
ATOM      7  C   UNL     1       3.471 -26.397  -5.524  1.00  0.00     0.053 C 
BRANCH   7   8
ATOM      8  C   UNL     1       3.844 -24.946  -5.513  1.00  0.00     0.041 C 
ATOM      9  O   UNL     1       3.184 -24.126  -4.825  1.00  0.00    -0.550 OA
ATOM     10  O   UNL     1       4.947 -24.507  -6.238  1.00  0.00    -0.550 OA
ENDBRANCH   7   8
ENDBRANCH   6   7
ENDBRANCH   5   6
ENDBRANCH   4   5
ENDBRANCH   3   4
ENDBRANCH   2   3
ENDBRANCH   1   2
BRANCH   1  11
ATOM     11  C   UNL     1       1.048 -32.064  -5.951  1.00  0.00     0.000 C 
BRANCH  11  12
ATOM     12  C   UNL     1       0.383 -30.895  -5.210  1.00  0.00    -0.000 C 
BRANCH  12  13
ATOM     13  C   UNL     1      -0.949 -31.299  -4.553  1.00  0.00    -0.000 C 
BRANCH  13  14
ATOM     14  C   UNL     1      -0.872 -31.301  -3.018  1.00  0.00    -0.000 C 
BRANCH  14  15
ATOM     15  C   UNL     1       0.482 -30.792  -2.492  1.00  0.00    -0.000 C 
BRANCH  15  16
ATOM     16  C   UNL     1       0.819 -31.348  -1.099  1.00  0.00    -0.000 C 
BRANCH  16  17
ATOM     17  C   UNL     1       1.295 -30.257  -0.128  1.00  0.00    -0.003 C 
ATOM     18  C   UNL     1       1.451 -28.917  -0.840  1.00  0.00     0.004 C 
ENDBRANCH  16  17
ENDBRANCH  15  16
ENDBRANCH  14  15
ENDBRANCH  13  14
ENDBRANCH  12  13
ENDBRANCH  11  12
ENDBRANCH   1  11
TORSDOF 14
ENDMDL
MODEL 7
REMARK VINA RESULT:     4.378      2.156      4.556
REMARK INTER + INTRA:           7.581
REMARK INTER:                   7.852
REMARK INTRA:                  -0.271
REMARK UNBOUND:                -0.379
REMARK SMILES CCCCCCCCCCCCCCCC(=O)[O-]
REMARK SMILES IDX 9 1 10 2 11 3 12 4 13 5 14 6 15 7 16 8 17 9 18 10 8 11 7 12
REMARK SMILES IDX 6 13 5 14 4 15 3 16 2 17 1 18
REMARK H PARENT
REMARK Flexibility Score: inf
ROOT
ATOM      1  C   UNL     1       0.832 -31.244  -4.604  1.00  0.00     0.000 C 
ENDROOT
BRANCH   1   2
ATOM      2  C   UNL     1       0.229 -30.517  -3.383  1.00  0.00     0.000 C 
BRANCH   2   3
ATOM      3  C   UNL     1       0.212 -31.370  -2.100  1.00  0.00     0.000 C 
BRANCH   3   4
ATOM      4  C   UNL     1       1.451 -31.216  -1.202  1.00  0.00     0.000 C 
BRANCH   4   5
ATOM      5  C   UNL     1       1.618 -29.789  -0.659  1.00  0.00     0.000 C 
BRANCH   5   6
ATOM      6  C   UNL     1       1.529 -29.773   0.874  1.00  0.00     0.006 C 
BRANCH   6   7
ATOM      7  C   UNL     1       2.548 -28.816   1.505  1.00  0.00     0.053 C 
BRANCH   7   8
ATOM      8  C   UNL     1       2.581 -28.944   2.997  1.00  0.00     0.041 C 
ATOM      9  O   UNL     1       1.556 -28.682   3.680  1.00  0.00    -0.550 OA
ATOM     10  O   UNL     1       3.734 -29.391   3.631  1.00  0.00    -0.550 OA
ENDBRANCH   7   8
ENDBRANCH   6   7
ENDBRANCH   5   6
ENDBRANCH   4   5
ENDBRANCH   3   4
ENDBRANCH   2   3
ENDBRANCH   1   2
BRANCH   1  11
ATOM     11  C   UNL     1      -0.225 -31.545  -5.684  1.00  0.00     0.000 C 
BRANCH  11  12
ATOM     12  C   UNL     1      -1.521 -32.124  -5.097  1.00  0.00    -0.000 C 
BRANCH  12  13
ATOM     13  C   UNL     1      -2.575 -31.038  -4.818  1.00  0.00    -0.000 C 
BRANCH  13  14
ATOM     14  C   UNL     1      -3.985 -31.619  -4.630  1.00  0.00    -0.000 C 
BRANCH  14  15
ATOM     15  C   UNL     1      -4.693 -31.901  -5.968  1.00  0.00    -0.000 C 
BRANCH  15  16
ATOM     16  C   UNL     1      -3.866 -31.442  -7.179  1.00  0.00    -0.000 C 
BRANCH  16  17
ATOM     17  C   UNL     1      -4.655 -30.511  -8.112  1.00  0.00    -0.003 C 
ATOM     18  C   UNL     1      -5.107 -29.252  -7.380  1.00  0.00     0.004 C 
ENDBRANCH  16  17
ENDBRANCH  15  16
ENDBRANCH  14  15
ENDBRANCH  13  14
ENDBRANCH  12  13
ENDBRANCH  11  12
ENDBRANCH   1  11
TORSDOF 14
ENDMDL
MODEL 8
REMARK VINA RESULT:     4.611     18.438     22.315
REMARK INTER + INTRA:           8.006
REMARK INTER:                   8.787
REMARK INTRA:                  -0.781
REMARK UNBOUND:                -0.379
REMARK SMILES CCCCCCCCCCCCCCCC(=O)[O-]
REMARK SMILES IDX 9 1 10 2 11 3 12 4 13 5 14 6 15 7 16 8 17 9 18 10 8 11 7 12
REMARK SMILES IDX 6 13 5 14 4 15 3 16 2 17 1 18
REMARK H PARENT
REMARK Flexibility Score: inf
ROOT
ATOM      1  C   UNL     1       2.987 -15.007   7.357  1.00  0.00     0.000 C 
ENDROOT
BRANCH   1   2
ATOM      2  C   UNL     1       3.256 -13.954   6.260  1.00  0.00     0.000 C 
BRANCH   2   3
ATOM      3  C   UNL     1       2.423 -14.165   4.981  1.00  0.00     0.000 C 
BRANCH   3   4
ATOM      4  C   UNL     1       1.122 -13.348   4.912  1.00  0.00     0.000 C 
BRANCH   4   5
ATOM      5  C   UNL     1      -0.095 -14.121   5.442  1.00  0.00     0.000 C 
BRANCH   5   6
ATOM      6  C   UNL     1      -0.794 -14.886   4.309  1.00  0.00     0.006 C 
BRANCH   6   7
ATOM      7  C   UNL     1      -2.264 -15.184   4.628  1.00  0.00     0.053 C 
BRANCH   7   8
ATOM      8  C   UNL     1      -2.828 -16.234   3.721  1.00  0.00     0.041 C 
ATOM      9  O   UNL     1      -2.505 -16.262   2.505  1.00  0.00    -0.550 OA
ATOM     10  O   UNL     1      -3.683 -17.205   4.229  1.00  0.00    -0.550 OA
ENDBRANCH   7   8
ENDBRANCH   6   7
ENDBRANCH   5   6
ENDBRANCH   4   5
ENDBRANCH   3   4
ENDBRANCH   2   3
ENDBRANCH   1   2
BRANCH   1  11
ATOM     11  C   UNL     1       3.123 -14.420   8.774  1.00  0.00     0.000 C 
BRANCH  11  12
ATOM     12  C   UNL     1       4.000 -13.159   8.809  1.00  0.00    -0.000 C 
BRANCH  12  13
ATOM     13  C   UNL     1       3.376 -12.034   9.654  1.00  0.00    -0.000 C 
BRANCH  13  14
ATOM     14  C   UNL     1       2.550 -12.571  10.834  1.00  0.00    -0.000 C 
BRANCH  14  15
ATOM     15  C   UNL     1       3.405 -12.824  12.089  1.00  0.00    -0.000 C 
BRANCH  15  16
ATOM     16  C   UNL     1       4.202 -14.135  12.003  1.00  0.00    -0.000 C 
BRANCH  16  17
ATOM     17  C   UNL     1       5.717 -13.914  12.125  1.00  0.00    -0.003 C 
ATOM     18  C   UNL     1       6.094 -12.479  11.769  1.00  0.00     0.004 C 
ENDBRANCH  16  17
ENDBRANCH  15  16
ENDBRANCH  14  15
ENDBRANCH  13  14
ENDBRANCH  12  13
ENDBRANCH  11  12
ENDBRANCH   1  11
TORSDOF 14
ENDMDL
