MODEL 1
REMARK VINA RESULT:    26.342      0.000      0.000
REMARK INTER + INTRA:          30.698
REMARK INTER:                  30.962
REMARK INTRA:                  -0.265
REMARK UNBOUND:                -0.265
REMARK SMILES O=c1cc(-c2ccc(O)c(O)c2)oc2cc(O)cc(O)c12
REMARK SMILES IDX 4 1 3 2 2 3 1 4 21 5 19 6 18 7 16 8 15 9 14 10 13 11 5 12
REMARK SMILES IDX 6 13 7 14 8 15 12 16 10 17 9 18 11 20 20 22 17 24
REMARK H PARENT 9 19 11 21 20 23 17 25
REMARK Flexibility Score: inf
ROOT
ATOM      1  C   UNL     1      20.174 -12.688 -16.325  1.00  0.00     0.138 A 
ATOM      2  C   UNL     1      20.062 -12.992 -17.688  1.00  0.00     0.100 A 
ATOM      3  C   UNL     1      21.074 -12.603 -18.568  1.00  0.00     0.197 A 
ATOM      4  O   UNL     1      20.976 -12.945 -19.775  1.00  0.00    -0.289 OA
ATOM      5  C   UNL     1      22.188 -11.877 -18.082  1.00  0.00     0.107 A 
ATOM      6  C   UNL     1      23.257 -11.393 -18.892  1.00  0.00     0.134 A 
ATOM      7  C   UNL     1      24.364 -10.788 -18.283  1.00  0.00     0.093 A 
ATOM      8  C   UNL     1      24.412 -10.595 -16.903  1.00  0.00     0.123 A 
ATOM      9  C   UNL     1      23.346 -11.016 -16.107  1.00  0.00     0.094 A 
ATOM     10  C   UNL     1      22.243 -11.654 -16.680  1.00  0.00     0.146 A 
ATOM     11  O   UNL     1      21.256 -12.052 -15.886  1.00  0.00    -0.456 OA
ENDROOT
BRANCH   1  12
ATOM     12  C   UNL     1      19.127 -13.077 -15.346  1.00  0.00     0.021 A 
ATOM     13  C   UNL     1      18.333 -12.082 -14.751  1.00  0.00     0.016 A 
ATOM     14  C   UNL     1      17.337 -12.424 -13.833  1.00  0.00     0.051 A 
ATOM     15  C   UNL     1      17.110 -13.765 -13.501  1.00  0.00     0.157 A 
ATOM     16  C   UNL     1      18.885 -14.425 -15.018  1.00  0.00     0.062 A 
ATOM     17  C   UNL     1      17.887 -14.769 -14.100  1.00  0.00     0.158 A 
BRANCH  15  18
ATOM     18  O   UNL     1      16.116 -14.102 -12.583  1.00  0.00    -0.504 OA
ATOM     19  H   UNL     1      15.211 -14.444 -12.884  1.00  0.00     0.293 HD
ENDBRANCH  15  18
BRANCH  17  20
ATOM     20  O   UNL     1      17.679 -16.115 -13.799  1.00  0.00    -0.504 OA
ATOM     21  H   UNL     1      17.367 -16.781 -14.497  1.00  0.00     0.293 HD
ENDBRANCH  17  20
ENDBRANCH   1  12
BRANCH   6  22
ATOM     22  O   UNL     1      23.272 -11.459 -20.289  1.00  0.00    -0.507 OA
ATOM     23  H   UNL     1      24.066 -11.737 -20.844  1.00  0.00     0.293 HD
ENDBRANCH   6  22
BRANCH   8  24
ATOM     24  O   UNL     1      25.522  -9.975 -16.334  1.00  0.00    -0.508 OA
ATOM     25  H   UNL     1      26.416 -10.448 -16.263  1.00  0.00     0.293 HD
ENDBRANCH   8  24
TORSDOF 5
ENDMDL
MODEL 2
REMARK VINA RESULT:    26.938      1.133      2.635
REMARK INTER + INTRA:          31.398
REMARK INTER:                  31.666
REMARK INTRA:                  -0.267
REMARK UNBOUND:                -0.265
REMARK SMILES O=c1cc(-c2ccc(O)c(O)c2)oc2cc(O)cc(O)c12
REMARK SMILES IDX 4 1 3 2 2 3 1 4 21 5 19 6 18 7 16 8 15 9 14 10 13 11 5 12
REMARK SMILES IDX 6 13 7 14 8 15 12 16 10 17 9 18 11 20 20 22 17 24
REMARK H PARENT 9 19 11 21 20 23 17 25
REMARK Flexibility Score: inf
ROOT
ATOM      1  C   UNL     1      20.337 -12.656 -15.635  1.00  0.00     0.138 A 
ATOM      2  C   UNL     1      21.490 -12.197 -14.985  1.00  0.00     0.100 A 
ATOM      3  C   UNL     1      22.593 -11.794 -15.739  1.00  0.00     0.197 A 
ATOM      4  O   UNL     1      23.590 -11.328 -15.129  1.00  0.00    -0.289 OA
ATOM      5  C   UNL     1      22.550 -11.882 -17.151  1.00  0.00     0.107 A 
ATOM      6  C   UNL     1      23.629 -11.540 -18.018  1.00  0.00     0.134 A 
ATOM      7  C   UNL     1      23.431 -11.557 -19.405  1.00  0.00     0.093 A 
ATOM      8  C   UNL     1      22.216 -11.963 -19.955  1.00  0.00     0.123 A 
ATOM      9  C   UNL     1      21.171 -12.353 -19.116  1.00  0.00     0.094 A 
ATOM     10  C   UNL     1      21.326 -12.313 -17.728  1.00  0.00     0.146 A 
ATOM     11  O   UNL     1      20.303 -12.678 -16.964  1.00  0.00    -0.456 OA
ENDROOT
BRANCH   1  12
ATOM     12  C   UNL     1      19.135 -13.098 -14.882  1.00  0.00     0.021 A 
ATOM     13  C   UNL     1      18.262 -12.136 -14.348  1.00  0.00     0.016 A 
ATOM     14  C   UNL     1      17.120 -12.526 -13.642  1.00  0.00     0.051 A 
ATOM     15  C   UNL     1      16.826 -13.883 -13.467  1.00  0.00     0.157 A 
ATOM     16  C   UNL     1      18.827 -14.462 -14.714  1.00  0.00     0.062 A 
ATOM     17  C   UNL     1      17.683 -14.855 -14.010  1.00  0.00     0.158 A 
BRANCH  15  18
ATOM     18  O   UNL     1      15.688 -14.270 -12.762  1.00  0.00    -0.504 OA
ATOM     19  H   UNL     1      14.848 -13.702 -12.759  1.00  0.00     0.293 HD
ENDBRANCH  15  18
BRANCH  17  20
ATOM     20  O   UNL     1      17.413 -16.216 -13.862  1.00  0.00    -0.504 OA
ATOM     21  H   UNL     1      17.854 -16.777 -13.142  1.00  0.00     0.293 HD
ENDBRANCH  17  20
ENDBRANCH   1  12
BRANCH   6  22
ATOM     22  O   UNL     1      24.912 -11.200 -17.576  1.00  0.00    -0.507 OA
ATOM     23  H   UNL     1      25.184 -10.288 -17.245  1.00  0.00     0.293 HD
ENDBRANCH   6  22
BRANCH   8  24
ATOM     24  O   UNL     1      22.061 -11.983 -21.339  1.00  0.00    -0.508 OA
ATOM     25  H   UNL     1      22.030 -11.128 -21.882  1.00  0.00     0.293 HD
ENDBRANCH   8  24
TORSDOF 5
ENDMDL
MODEL 3
REMARK VINA RESULT:    28.365      1.422      7.327
REMARK INTER + INTRA:          33.075
REMARK INTER:                  33.340
REMARK INTRA:                  -0.265
REMARK UNBOUND:                -0.265
REMARK SMILES O=c1cc(-c2ccc(O)c(O)c2)oc2cc(O)cc(O)c12
REMARK SMILES IDX 4 1 3 2 2 3 1 4 21 5 19 6 18 7 16 8 15 9 14 10 13 11 5 12
REMARK SMILES IDX 6 13 7 14 8 15 12 16 10 17 9 18 11 20 20 22 17 24
REMARK H PARENT 9 19 11 21 20 23 17 25
REMARK Flexibility Score: inf
ROOT
ATOM      1  C   UNL     1      20.035 -12.735 -15.614  1.00  0.00     0.138 A 
ATOM      2  C   UNL     1      19.169 -11.858 -14.946  1.00  0.00     0.100 A 
ATOM      3  C   UNL     1      18.089 -12.370 -14.227  1.00  0.00     0.197 A 
ATOM      4  O   UNL     1      17.367 -11.563 -13.586  1.00  0.00    -0.289 OA
ATOM      5  C   UNL     1      17.858 -13.766 -14.202  1.00  0.00     0.107 A 
ATOM      6  C   UNL     1      16.765 -14.397 -13.537  1.00  0.00     0.134 A 
ATOM      7  C   UNL     1      16.704 -15.795 -13.484  1.00  0.00     0.093 A 
ATOM      8  C   UNL     1      17.660 -16.584 -14.123  1.00  0.00     0.123 A 
ATOM      9  C   UNL     1      18.703 -15.977 -14.824  1.00  0.00     0.094 A 
ATOM     10  C   UNL     1      18.811 -14.584 -14.866  1.00  0.00     0.146 A 
ATOM     11  O   UNL     1      19.826 -14.045 -15.531  1.00  0.00    -0.456 OA
ENDROOT
BRANCH   1  12
ATOM     12  C   UNL     1      21.199 -12.244 -16.396  1.00  0.00     0.021 A 
ATOM     13  C   UNL     1      22.405 -11.960 -15.734  1.00  0.00     0.016 A 
ATOM     14  C   UNL     1      23.517 -11.505 -16.448  1.00  0.00     0.051 A 
ATOM     15  C   UNL     1      23.446 -11.335 -17.836  1.00  0.00     0.157 A 
ATOM     16  C   UNL     1      21.137 -12.085 -17.794  1.00  0.00     0.062 A 
ATOM     17  C   UNL     1      22.250 -11.630 -18.511  1.00  0.00     0.158 A 
BRANCH  15  18
ATOM     18  O   UNL     1      24.556 -10.880 -18.545  1.00  0.00    -0.504 OA
ATOM     19  H   UNL     1      25.498 -11.146 -18.283  1.00  0.00     0.293 HD
ENDBRANCH  15  18
BRANCH  17  20
ATOM     20  O   UNL     1      22.149 -11.483 -19.895  1.00  0.00    -0.504 OA
ATOM     21  H   UNL     1      21.388 -11.890 -20.425  1.00  0.00     0.293 HD
ENDBRANCH  17  20
ENDBRANCH   1  12
BRANCH   6  22
ATOM     22  O   UNL     1      15.710 -13.703 -12.936  1.00  0.00    -0.507 OA
ATOM     23  H   UNL     1      15.780 -13.177 -12.080  1.00  0.00     0.293 HD
ENDBRANCH   6  22
BRANCH   8  24
ATOM     24  O   UNL     1      17.558 -17.971 -14.064  1.00  0.00    -0.508 OA
ATOM     25  H   UNL     1      17.629 -18.545 -14.896  1.00  0.00     0.293 HD
ENDBRANCH   8  24
TORSDOF 5
ENDMDL
MODEL 4
REMARK VINA RESULT:    29.321      4.399      7.944
REMARK INTER + INTRA:          34.199
REMARK INTER:                  34.463
REMARK INTRA:                  -0.264
REMARK UNBOUND:                -0.265
REMARK SMILES O=c1cc(-c2ccc(O)c(O)c2)oc2cc(O)cc(O)c12
REMARK SMILES IDX 4 1 3 2 2 3 1 4 21 5 19 6 18 7 16 8 15 9 14 10 13 11 5 12
REMARK SMILES IDX 6 13 7 14 8 15 12 16 10 17 9 18 11 20 20 22 17 24
REMARK H PARENT 9 19 11 21 20 23 17 25
REMARK Flexibility Score: inf
ROOT
ATOM      1  C   UNL     1      22.543  -8.162 -18.434  1.00  0.00     0.138 A 
ATOM      2  C   UNL     1      23.241  -8.467 -17.258  1.00  0.00     0.100 A 
ATOM      3  C   UNL     1      23.486  -9.800 -16.926  1.00  0.00     0.197 A 
ATOM      4  O   UNL     1      24.169 -10.040 -15.897  1.00  0.00    -0.289 OA
ATOM      5  C   UNL     1      23.001 -10.833 -17.763  1.00  0.00     0.107 A 
ATOM      6  C   UNL     1      23.155 -12.228 -17.503  1.00  0.00     0.134 A 
ATOM      7  C   UNL     1      22.734 -13.158 -18.462  1.00  0.00     0.093 A 
ATOM      8  C   UNL     1      22.111 -12.749 -19.640  1.00  0.00     0.123 A 
ATOM      9  C   UNL     1      21.906 -11.389 -19.879  1.00  0.00     0.094 A 
ATOM     10  C   UNL     1      22.346 -10.434 -18.958  1.00  0.00     0.146 A 
ATOM     11  O   UNL     1      22.145  -9.150 -19.229  1.00  0.00    -0.456 OA
ENDROOT
BRANCH   1  12
ATOM     12  C   UNL     1      22.254  -6.761 -18.834  1.00  0.00     0.021 A 
ATOM     13  C   UNL     1      20.969  -6.234 -18.625  1.00  0.00     0.016 A 
ATOM     14  C   UNL     1      20.674  -4.916 -18.985  1.00  0.00     0.051 A 
ATOM     15  C   UNL     1      21.661  -4.100 -19.552  1.00  0.00     0.157 A 
ATOM     16  C   UNL     1      23.246  -5.932 -19.393  1.00  0.00     0.062 A 
ATOM     17  C   UNL     1      22.953  -4.611 -19.753  1.00  0.00     0.158 A 
BRANCH  15  18
ATOM     18  O   UNL     1      21.363  -2.787 -19.913  1.00  0.00    -0.504 OA
ATOM     19  H   UNL     1      20.411  -2.490 -20.095  1.00  0.00     0.293 HD
ENDBRANCH  15  18
BRANCH  17  20
ATOM     20  O   UNL     1      23.961  -3.821 -20.306  1.00  0.00    -0.504 OA
ATOM     21  H   UNL     1      24.098  -2.855 -20.032  1.00  0.00     0.293 HD
ENDBRANCH  17  20
ENDBRANCH   1  12
BRANCH   6  22
ATOM     22  O   UNL     1      23.688 -12.749 -16.320  1.00  0.00    -0.507 OA
ATOM     23  H   UNL     1      23.834 -12.222 -15.473  1.00  0.00     0.293 HD
ENDBRANCH   6  22
BRANCH   8  24
ATOM     24  O   UNL     1      21.692 -13.703 -20.563  1.00  0.00    -0.508 OA
ATOM     25  H   UNL     1      20.708 -13.877 -20.737  1.00  0.00     0.293 HD
ENDBRANCH   8  24
TORSDOF 5
ENDMDL
