MODEL 1
REMARK VINA RESULT:    -7.084      0.000      0.000
REMARK INTER + INTRA:          -8.615
REMARK INTER:                  -8.326
REMARK INTRA:                  -0.289
REMARK UNBOUND:                -0.289
REMARK SMILES O=c1c(O)c(-c2ccc(O)cc2)oc2cc(O)cc(O)c12
REMARK SMILES IDX 5 1 3 2 2 3 1 4 21 5 19 6 18 7 16 8 15 9 14 10 13 11 6 12
REMARK SMILES IDX 7 13 8 14 9 15 12 16 11 17 10 18 4 20 20 22 17 24
REMARK H PARENT 10 19 4 21 20 23 17 25
REMARK Flexibility Score: inf
ROOT
ATOM      1  C   UNL     1     165.591 154.637 151.220  1.00  0.00     0.180 A 
ATOM      2  C   UNL     1     164.497 153.755 151.257  1.00  0.00     0.208 A 
ATOM      3  C   UNL     1     164.675 152.430 150.828  1.00  0.00     0.238 A 
ATOM      4  O   UNL     1     163.675 151.668 150.794  1.00  0.00    -0.285 OA
ATOM      5  C   UNL     1     165.957 151.987 150.423  1.00  0.00     0.111 A 
ATOM      6  C   UNL     1     166.264 150.654 150.013  1.00  0.00     0.134 A 
ATOM      7  C   UNL     1     167.545 150.357 149.530  1.00  0.00     0.093 A 
ATOM      8  C   UNL     1     168.549 151.328 149.505  1.00  0.00     0.123 A 
ATOM      9  C   UNL     1     168.275 152.617 149.954  1.00  0.00     0.094 A 
ATOM     10  C   UNL     1     166.997 152.954 150.404  1.00  0.00     0.146 A 
ATOM     11  O   UNL     1     166.774 154.201 150.804  1.00  0.00    -0.452 OA
ENDROOT
BRANCH   1  12
ATOM     12  C   UNL     1     165.479 156.052 151.641  1.00  0.00     0.021 A 
ATOM     13  C   UNL     1     165.087 157.023 150.705  1.00  0.00     0.016 A 
ATOM     14  C   UNL     1     164.952 158.362 151.086  1.00  0.00     0.047 A 
ATOM     15  C   UNL     1     165.193 158.743 152.412  1.00  0.00     0.115 A 
ATOM     16  C   UNL     1     165.699 156.439 152.975  1.00  0.00     0.016 A 
ATOM     17  C   UNL     1     165.564 157.779 153.355  1.00  0.00     0.047 A 
BRANCH  15  18
ATOM     18  O   UNL     1     165.063 160.073 152.804  1.00  0.00    -0.508 OA
ATOM     19  H   UNL     1     165.578 160.813 152.342  1.00  0.00     0.293 HD
ENDBRANCH  15  18
ENDBRANCH   1  12
BRANCH   2  20
ATOM     20  O   UNL     1     163.257 154.192 151.733  1.00  0.00    -0.502 OA
ATOM     21  H   UNL     1     162.858 155.085 151.470  1.00  0.00     0.293 HD
ENDBRANCH   2  20
BRANCH   6  22
ATOM     22  O   UNL     1     165.363 149.586 150.081  1.00  0.00    -0.507 OA
ATOM     23  H   UNL     1     164.361 149.670 149.999  1.00  0.00     0.293 HD
ENDBRANCH   6  22
BRANCH   8  24
ATOM     24  O   UNL     1     169.825 151.019 149.040  1.00  0.00    -0.508 OA
ATOM     25  H   UNL     1     170.636 151.563 149.315  1.00  0.00     0.293 HD
ENDBRANCH   8  24
TORSDOF 5
ENDMDL
MODEL 2
REMARK VINA RESULT:    -6.969      2.745      4.866
REMARK INTER + INTRA:          -8.480
REMARK INTER:                  -8.493
REMARK INTRA:                   0.012
REMARK UNBOUND:                -0.289
REMARK SMILES O=c1c(O)c(-c2ccc(O)cc2)oc2cc(O)cc(O)c12
REMARK SMILES IDX 5 1 3 2 2 3 1 4 21 5 19 6 18 7 16 8 15 9 14 10 13 11 6 12
REMARK SMILES IDX 7 13 8 14 9 15 12 16 11 17 10 18 4 20 20 22 17 24
REMARK H PARENT 10 19 4 21 20 23 17 25
REMARK Flexibility Score: inf
ROOT
ATOM      1  C   UNL     1     167.164 151.971 149.617  1.00  0.00     0.180 A 
ATOM      2  C   UNL     1     167.945 152.701 148.705  1.00  0.00     0.208 A 
ATOM      3  C   UNL     1     169.116 152.120 148.192  1.00  0.00     0.238 A 
ATOM      4  O   UNL     1     169.849 152.808 147.434  1.00  0.00    -0.285 OA
ATOM      5  C   UNL     1     169.462 150.795 148.553  1.00  0.00     0.111 A 
ATOM      6  C   UNL     1     170.601 150.090 148.059  1.00  0.00     0.134 A 
ATOM      7  C   UNL     1     170.902 148.821 148.569  1.00  0.00     0.093 A 
ATOM      8  C   UNL     1     170.069 148.204 149.506  1.00  0.00     0.123 A 
ATOM      9  C   UNL     1     168.925 148.861 149.953  1.00  0.00     0.094 A 
ATOM     10  C   UNL     1     168.620 150.144 149.493  1.00  0.00     0.146 A 
ATOM     11  O   UNL     1     167.532 150.743 149.962  1.00  0.00    -0.452 OA
ENDROOT
BRANCH   1  12
ATOM     12  C   UNL     1     165.925 152.521 150.212  1.00  0.00     0.021 A 
ATOM     13  C   UNL     1     164.761 151.735 150.233  1.00  0.00     0.016 A 
ATOM     14  C   UNL     1     163.585 152.226 150.811  1.00  0.00     0.047 A 
ATOM     15  C   UNL     1     163.564 153.502 151.388  1.00  0.00     0.115 A 
ATOM     16  C   UNL     1     165.902 153.794 150.811  1.00  0.00     0.016 A 
ATOM     17  C   UNL     1     164.725 154.283 151.388  1.00  0.00     0.047 A 
BRANCH  15  18
ATOM     18  O   UNL     1     162.400 154.002 151.964  1.00  0.00    -0.508 OA
ATOM     19  H   UNL     1     161.643 153.389 152.246  1.00  0.00     0.293 HD
ENDBRANCH  15  18
ENDBRANCH   1  12
BRANCH   2  20
ATOM     20  O   UNL     1     167.546 153.979 148.302  1.00  0.00    -0.502 OA
ATOM     21  H   UNL     1     167.965 154.823 148.675  1.00  0.00     0.293 HD
ENDBRANCH   2  20
BRANCH   6  22
ATOM     22  O   UNL     1     171.449 150.574 147.058  1.00  0.00    -0.507 OA
ATOM     23  H   UNL     1     171.374 151.483 146.627  1.00  0.00     0.293 HD
ENDBRANCH   6  22
BRANCH   8  24
ATOM     24  O   UNL     1     170.366 146.934 149.994  1.00  0.00    -0.508 OA
ATOM     25  H   UNL     1     170.208 146.689 150.966  1.00  0.00     0.293 HD
ENDBRANCH   8  24
TORSDOF 5
ENDMDL
MODEL 3
REMARK VINA RESULT:    -6.736      1.930      6.809
REMARK INTER + INTRA:          -8.206
REMARK INTER:                  -7.908
REMARK INTRA:                  -0.299
REMARK UNBOUND:                -0.289
REMARK SMILES O=c1c(O)c(-c2ccc(O)cc2)oc2cc(O)cc(O)c12
REMARK SMILES IDX 5 1 3 2 2 3 1 4 21 5 19 6 18 7 16 8 15 9 14 10 13 11 6 12
REMARK SMILES IDX 7 13 8 14 9 15 12 16 11 17 10 18 4 20 20 22 17 24
REMARK H PARENT 10 19 4 21 20 23 17 25
REMARK Flexibility Score: inf
ROOT
ATOM      1  C   UNL     1     166.516 151.335 149.475  1.00  0.00     0.180 A 
ATOM      2  C   UNL     1     165.312 150.783 149.945  1.00  0.00     0.208 A 
ATOM      3  C   UNL     1     164.409 151.606 150.636  1.00  0.00     0.238 A 
ATOM      4  O   UNL     1     163.368 151.089 151.118  1.00  0.00    -0.285 OA
ATOM      5  C   UNL     1     164.694 152.984 150.800  1.00  0.00     0.111 A 
ATOM      6  C   UNL     1     163.830 153.921 151.444  1.00  0.00     0.134 A 
ATOM      7  C   UNL     1     164.265 155.237 151.643  1.00  0.00     0.093 A 
ATOM      8  C   UNL     1     165.504 155.667 151.163  1.00  0.00     0.123 A 
ATOM      9  C   UNL     1     166.331 154.775 150.485  1.00  0.00     0.094 A 
ATOM     10  C   UNL     1     165.942 153.445 150.306  1.00  0.00     0.146 A 
ATOM     11  O   UNL     1     166.770 152.623 149.673  1.00  0.00    -0.452 OA
ENDROOT
BRANCH   1  12
ATOM     12  C   UNL     1     167.524 150.529 148.751  1.00  0.00     0.021 A 
ATOM     13  C   UNL     1     167.519 150.515 147.346  1.00  0.00     0.016 A 
ATOM     14  C   UNL     1     168.477 149.779 146.641  1.00  0.00     0.047 A 
ATOM     15  C   UNL     1     169.460 149.059 147.332  1.00  0.00     0.115 A 
ATOM     16  C   UNL     1     168.527 149.820 149.437  1.00  0.00     0.016 A 
ATOM     17  C   UNL     1     169.483 149.084 148.730  1.00  0.00     0.047 A 
BRANCH  15  18
ATOM     18  O   UNL     1     170.417 148.321 146.641  1.00  0.00    -0.508 OA
ATOM     19  H   UNL     1     171.304 148.729 146.368  1.00  0.00     0.293 HD
ENDBRANCH  15  18
ENDBRANCH   1  12
BRANCH   2  20
ATOM     20  O   UNL     1     165.014 149.438 149.706  1.00  0.00    -0.502 OA
ATOM     21  H   UNL     1     165.256 148.703 150.360  1.00  0.00     0.293 HD
ENDBRANCH   2  20
BRANCH   6  22
ATOM     22  O   UNL     1     162.536 153.622 151.882  1.00  0.00    -0.507 OA
ATOM     23  H   UNL     1     162.234 152.718 152.213  1.00  0.00     0.293 HD
ENDBRANCH   6  22
BRANCH   8  24
ATOM     24  O   UNL     1     165.921 156.983 151.349  1.00  0.00    -0.508 OA
ATOM     25  H   UNL     1     165.300 157.766 151.177  1.00  0.00     0.293 HD
ENDBRANCH   8  24
TORSDOF 5
ENDMDL
MODEL 4
REMARK VINA RESULT:    -6.708      2.387      3.969
REMARK INTER + INTRA:          -8.173
REMARK INTER:                  -7.911
REMARK INTRA:                  -0.263
REMARK UNBOUND:                -0.289
REMARK SMILES O=c1c(O)c(-c2ccc(O)cc2)oc2cc(O)cc(O)c12
REMARK SMILES IDX 5 1 3 2 2 3 1 4 21 5 19 6 18 7 16 8 15 9 14 10 13 11 6 12
REMARK SMILES IDX 7 13 8 14 9 15 12 16 11 17 10 18 4 20 20 22 17 24
REMARK H PARENT 10 19 4 21 20 23 17 25
REMARK Flexibility Score: inf
ROOT
ATOM      1  C   UNL     1     166.420 152.013 149.427  1.00  0.00     0.180 A 
ATOM      2  C   UNL     1     165.915 151.642 148.169  1.00  0.00     0.208 A 
ATOM      3  C   UNL     1     166.681 150.798 147.350  1.00  0.00     0.238 A 
ATOM      4  O   UNL     1     166.257 150.531 146.195  1.00  0.00    -0.285 OA
ATOM      5  C   UNL     1     167.915 150.289 147.820  1.00  0.00     0.111 A 
ATOM      6  C   UNL     1     168.753 149.389 147.093  1.00  0.00     0.134 A 
ATOM      7  C   UNL     1     170.004 149.036 147.615  1.00  0.00     0.093 A 
ATOM      8  C   UNL     1     170.419 149.498 148.866  1.00  0.00     0.123 A 
ATOM      9  C   UNL     1     169.586 150.331 149.608  1.00  0.00     0.094 A 
ATOM     10  C   UNL     1     168.349 150.733 149.097  1.00  0.00     0.146 A 
ATOM     11  O   UNL     1     167.596 151.545 149.828  1.00  0.00    -0.452 OA
ENDROOT
BRANCH   1  12
ATOM     12  C   UNL     1     165.678 152.910 150.342  1.00  0.00     0.021 A 
ATOM     13  C   UNL     1     164.651 152.385 151.144  1.00  0.00     0.016 A 
ATOM     14  C   UNL     1     163.953 153.210 152.032  1.00  0.00     0.047 A 
ATOM     15  C   UNL     1     164.283 154.567 152.139  1.00  0.00     0.115 A 
ATOM     16  C   UNL     1     166.018 154.270 150.470  1.00  0.00     0.016 A 
ATOM     17  C   UNL     1     165.318 155.093 151.359  1.00  0.00     0.047 A 
BRANCH  15  18
ATOM     18  O   UNL     1     163.595 155.399 153.018  1.00  0.00    -0.508 OA
ATOM     19  H   UNL     1     163.949 156.315 153.267  1.00  0.00     0.293 HD
ENDBRANCH  15  18
ENDBRANCH   1  12
BRANCH   2  20
ATOM     20  O   UNL     1     164.658 152.094 147.754  1.00  0.00    -0.502 OA
ATOM     21  H   UNL     1     164.164 151.683 146.971  1.00  0.00     0.293 HD
ENDBRANCH   2  20
BRANCH   6  22
ATOM     22  O   UNL     1     168.399 148.799 145.876  1.00  0.00    -0.507 OA
ATOM     23  H   UNL     1     167.956 147.897 145.779  1.00  0.00     0.293 HD
ENDBRANCH   6  22
BRANCH   8  24
ATOM     24  O   UNL     1     171.657 149.127 149.386  1.00  0.00    -0.508 OA
ATOM     25  H   UNL     1     172.501 149.163 148.823  1.00  0.00     0.293 HD
ENDBRANCH   8  24
TORSDOF 5
ENDMDL
MODEL 5
REMARK VINA RESULT:    -6.674      3.167      5.459
REMARK INTER + INTRA:          -8.133
REMARK INTER:                  -7.917
REMARK INTRA:                  -0.216
REMARK UNBOUND:                -0.289
REMARK SMILES O=c1c(O)c(-c2ccc(O)cc2)oc2cc(O)cc(O)c12
REMARK SMILES IDX 5 1 3 2 2 3 1 4 21 5 19 6 18 7 16 8 15 9 14 10 13 11 6 12
REMARK SMILES IDX 7 13 8 14 9 15 12 16 11 17 10 18 4 20 20 22 17 24
REMARK H PARENT 10 19 4 21 20 23 17 25
REMARK Flexibility Score: inf
ROOT
ATOM      1  C   UNL     1     166.720 150.483 149.406  1.00  0.00     0.180 A 
ATOM      2  C   UNL     1     167.153 150.692 148.085  1.00  0.00     0.208 A 
ATOM      3  C   UNL     1     168.134 149.844 147.548  1.00  0.00     0.238 A 
ATOM      4  O   UNL     1     168.572 150.083 146.392  1.00  0.00    -0.285 OA
ATOM      5  C   UNL     1     168.629 148.762 148.316  1.00  0.00     0.111 A 
ATOM      6  C   UNL     1     169.590 147.812 147.857  1.00  0.00     0.134 A 
ATOM      7  C   UNL     1     170.085 146.847 148.743  1.00  0.00     0.093 A 
ATOM      8  C   UNL     1     169.605 146.756 150.052  1.00  0.00     0.123 A 
ATOM      9  C   UNL     1     168.627 147.643 150.492  1.00  0.00     0.094 A 
ATOM     10  C   UNL     1     168.143 148.642 149.645  1.00  0.00     0.146 A 
ATOM     11  O   UNL     1     167.225 149.480 150.113  1.00  0.00    -0.452 OA
ENDROOT
BRANCH   1  12
ATOM     12  C   UNL     1     165.700 151.344 150.047  1.00  0.00     0.021 A 
ATOM     13  C   UNL     1     164.433 150.813 150.340  1.00  0.00     0.016 A 
ATOM     14  C   UNL     1     163.462 151.601 150.966  1.00  0.00     0.047 A 
ATOM     15  C   UNL     1     163.751 152.925 151.321  1.00  0.00     0.115 A 
ATOM     16  C   UNL     1     165.990 152.668 150.424  1.00  0.00     0.016 A 
ATOM     17  C   UNL     1     165.017 153.454 151.050  1.00  0.00     0.047 A 
BRANCH  15  18
ATOM     18  O   UNL     1     162.793 153.719 151.943  1.00  0.00    -0.508 OA
ATOM     19  H   UNL     1     162.088 154.215 151.410  1.00  0.00     0.293 HD
ENDBRANCH  15  18
ENDBRANCH   1  12
BRANCH   2  20
ATOM     20  O   UNL     1     166.597 151.719 147.316  1.00  0.00    -0.502 OA
ATOM     21  H   UNL     1     165.964 151.539 146.546  1.00  0.00     0.293 HD
ENDBRANCH   2  20
BRANCH   6  22
ATOM     22  O   UNL     1     170.072 147.755 146.545  1.00  0.00    -0.507 OA
ATOM     23  H   UNL     1     169.620 147.270 145.785  1.00  0.00     0.293 HD
ENDBRANCH   6  22
BRANCH   8  24
ATOM     24  O   UNL     1     170.090 145.781 150.921  1.00  0.00    -0.508 OA
ATOM     25  H   UNL     1     169.835 144.805 150.818  1.00  0.00     0.293 HD
ENDBRANCH   8  24
TORSDOF 5
ENDMDL
MODEL 6
REMARK VINA RESULT:    -6.624      2.508      4.149
REMARK INTER + INTRA:          -8.075
REMARK INTER:                  -7.787
REMARK INTRA:                  -0.289
REMARK UNBOUND:                -0.289
REMARK SMILES O=c1c(O)c(-c2ccc(O)cc2)oc2cc(O)cc(O)c12
REMARK SMILES IDX 5 1 3 2 2 3 1 4 21 5 19 6 18 7 16 8 15 9 14 10 13 11 6 12
REMARK SMILES IDX 7 13 8 14 9 15 12 16 11 17 10 18 4 20 20 22 17 24
REMARK H PARENT 10 19 4 21 20 23 17 25
REMARK Flexibility Score: inf
ROOT
ATOM      1  C   UNL     1     165.478 151.087 150.094  1.00  0.00     0.180 A 
ATOM      2  C   UNL     1     164.896 150.632 148.898  1.00  0.00     0.208 A 
ATOM      3  C   UNL     1     165.227 149.354 148.422  1.00  0.00     0.238 A 
ATOM      4  O   UNL     1     164.761 148.983 147.314  1.00  0.00    -0.285 OA
ATOM      5  C   UNL     1     166.090 148.523 149.176  1.00  0.00     0.111 A 
ATOM      6  C   UNL     1     166.458 147.192 148.813  1.00  0.00     0.134 A 
ATOM      7  C   UNL     1     167.405 146.503 149.582  1.00  0.00     0.093 A 
ATOM      8  C   UNL     1     167.948 147.072 150.737  1.00  0.00     0.123 A 
ATOM      9  C   UNL     1     167.554 148.348 151.130  1.00  0.00     0.094 A 
ATOM     10  C   UNL     1     166.641 149.076 150.362  1.00  0.00     0.146 A 
ATOM     11  O   UNL     1     166.310 150.297 150.763  1.00  0.00    -0.452 OA
ENDROOT
BRANCH   1  12
ATOM     12  C   UNL     1     165.190 152.428 150.652  1.00  0.00     0.021 A 
ATOM     13  C   UNL     1     164.091 152.598 151.511  1.00  0.00     0.016 A 
ATOM     14  C   UNL     1     163.814 153.850 152.067  1.00  0.00     0.047 A 
ATOM     15  C   UNL     1     164.641 154.945 151.784  1.00  0.00     0.115 A 
ATOM     16  C   UNL     1     166.027 153.527 150.388  1.00  0.00     0.016 A 
ATOM     17  C   UNL     1     165.748 154.779 150.946  1.00  0.00     0.047 A 
BRANCH  15  18
ATOM     18  O   UNL     1     164.375 156.197 152.331  1.00  0.00    -0.508 OA
ATOM     19  H   UNL     1     164.872 156.535 153.147  1.00  0.00     0.293 HD
ENDBRANCH  15  18
ENDBRANCH   1  12
BRANCH   2  20
ATOM     20  O   UNL     1     163.986 151.439 148.208  1.00  0.00    -0.502 OA
ATOM     21  H   UNL     1     163.070 151.664 148.578  1.00  0.00     0.293 HD
ENDBRANCH   2  20
BRANCH   6  22
ATOM     22  O   UNL     1     165.912 146.495 147.731  1.00  0.00    -0.507 OA
ATOM     23  H   UNL     1     166.267 145.622 147.368  1.00  0.00     0.293 HD
ENDBRANCH   6  22
BRANCH   8  24
ATOM     24  O   UNL     1     168.875 146.372 151.505  1.00  0.00    -0.508 OA
ATOM     25  H   UNL     1     169.422 146.832 152.226  1.00  0.00     0.293 HD
ENDBRANCH   8  24
TORSDOF 5
ENDMDL
MODEL 7
REMARK VINA RESULT:    -6.552      4.990      7.645
REMARK INTER + INTRA:          -7.990
REMARK INTER:                  -7.694
REMARK INTRA:                  -0.296
REMARK UNBOUND:                -0.289
REMARK SMILES O=c1c(O)c(-c2ccc(O)cc2)oc2cc(O)cc(O)c12
REMARK SMILES IDX 5 1 3 2 2 3 1 4 21 5 19 6 18 7 16 8 15 9 14 10 13 11 6 12
REMARK SMILES IDX 7 13 8 14 9 15 12 16 11 17 10 18 4 20 20 22 17 24
REMARK H PARENT 10 19 4 21 20 23 17 25
REMARK Flexibility Score: inf
ROOT
ATOM      1  C   UNL     1     168.863 148.565 149.724  1.00  0.00     0.180 A 
ATOM      2  C   UNL     1     169.745 147.685 149.072  1.00  0.00     0.208 A 
ATOM      3  C   UNL     1     169.881 146.375 149.556  1.00  0.00     0.238 A 
ATOM      4  O   UNL     1     170.728 145.616 149.014  1.00  0.00    -0.285 OA
ATOM      5  C   UNL     1     169.093 145.940 150.649  1.00  0.00     0.111 A 
ATOM      6  C   UNL     1     169.115 144.621 151.193  1.00  0.00     0.134 A 
ATOM      7  C   UNL     1     168.370 144.336 152.345  1.00  0.00     0.093 A 
ATOM      8  C   UNL     1     167.552 145.304 152.932  1.00  0.00     0.123 A 
ATOM      9  C   UNL     1     167.481 146.579 152.376  1.00  0.00     0.094 A 
ATOM     10  C   UNL     1     168.243 146.905 151.252  1.00  0.00     0.146 A 
ATOM     11  O   UNL     1     168.161 148.138 150.767  1.00  0.00    -0.452 OA
ENDROOT
BRANCH   1  12
ATOM     12  C   UNL     1     168.675 149.965 149.282  1.00  0.00     0.021 A 
ATOM     13  C   UNL     1     167.628 150.277 148.399  1.00  0.00     0.016 A 
ATOM     14  C   UNL     1     167.418 151.597 147.987  1.00  0.00     0.047 A 
ATOM     15  C   UNL     1     168.243 152.623 148.465  1.00  0.00     0.115 A 
ATOM     16  C   UNL     1     169.487 151.004 149.773  1.00  0.00     0.016 A 
ATOM     17  C   UNL     1     169.276 152.323 149.360  1.00  0.00     0.047 A 
BRANCH  15  18
ATOM     18  O   UNL     1     168.045 153.941 148.061  1.00  0.00    -0.508 OA
ATOM     19  H   UNL     1     168.529 154.327 147.259  1.00  0.00     0.293 HD
ENDBRANCH  15  18
ENDBRANCH   1  12
BRANCH   2  20
ATOM     20  O   UNL     1     170.458 148.110 147.947  1.00  0.00    -0.502 OA
ATOM     21  H   UNL     1     170.542 147.544 147.111  1.00  0.00     0.293 HD
ENDBRANCH   2  20
BRANCH   6  22
ATOM     22  O   UNL     1     169.827 143.555 150.635  1.00  0.00    -0.507 OA
ATOM     23  H   UNL     1     170.832 143.508 150.560  1.00  0.00     0.293 HD
ENDBRANCH   6  22
BRANCH   8  24
ATOM     24  O   UNL     1     166.800 145.007 154.066  1.00  0.00    -0.508 OA
ATOM     25  H   UNL     1     165.881 145.410 154.213  1.00  0.00     0.293 HD
ENDBRANCH   8  24
TORSDOF 5
ENDMDL
MODEL 8
REMARK VINA RESULT:    -6.484      9.740     12.587
REMARK INTER + INTRA:          -7.910
REMARK INTER:                  -7.621
REMARK INTRA:                  -0.289
REMARK UNBOUND:                -0.289
REMARK SMILES O=c1c(O)c(-c2ccc(O)cc2)oc2cc(O)cc(O)c12
REMARK SMILES IDX 5 1 3 2 2 3 1 4 21 5 19 6 18 7 16 8 15 9 14 10 13 11 6 12
REMARK SMILES IDX 7 13 8 14 9 15 12 16 11 17 10 18 4 20 20 22 17 24
REMARK H PARENT 10 19 4 21 20 23 17 25
REMARK Flexibility Score: inf
ROOT
ATOM      1  C   UNL     1     169.230 143.602 152.222  1.00  0.00     0.180 A 
ATOM      2  C   UNL     1     170.584 143.535 152.591  1.00  0.00     0.208 A 
ATOM      3  C   UNL     1     171.019 144.245 153.721  1.00  0.00     0.238 A 
ATOM      4  O   UNL     1     172.246 144.241 154.002  1.00  0.00    -0.285 OA
ATOM      5  C   UNL     1     170.085 144.968 154.502  1.00  0.00     0.111 A 
ATOM      6  C   UNL     1     170.405 145.687 155.693  1.00  0.00     0.134 A 
ATOM      7  C   UNL     1     169.417 146.454 156.324  1.00  0.00     0.093 A 
ATOM      8  C   UNL     1     168.105 146.475 155.844  1.00  0.00     0.123 A 
ATOM      9  C   UNL     1     167.770 145.733 154.715  1.00  0.00     0.094 A 
ATOM     10  C   UNL     1     168.742 144.990 154.041  1.00  0.00     0.146 A 
ATOM     11  O   UNL     1     168.383 144.314 152.956  1.00  0.00    -0.452 OA
ENDROOT
BRANCH   1  12
ATOM     12  C   UNL     1     168.699 142.893 151.036  1.00  0.00     0.021 A 
ATOM     13  C   UNL     1     168.711 143.532 149.785  1.00  0.00     0.016 A 
ATOM     14  C   UNL     1     168.235 142.872 148.648  1.00  0.00     0.047 A 
ATOM     15  C   UNL     1     167.756 141.559 148.744  1.00  0.00     0.115 A 
ATOM     16  C   UNL     1     168.234 141.567 151.122  1.00  0.00     0.016 A 
ATOM     17  C   UNL     1     167.759 140.909 149.983  1.00  0.00     0.047 A 
BRANCH  15  18
ATOM     18  O   UNL     1     167.279 140.893 147.619  1.00  0.00    -0.508 OA
ATOM     19  H   UNL     1     167.168 139.885 147.608  1.00  0.00     0.293 HD
ENDBRANCH  15  18
ENDBRANCH   1  12
BRANCH   2  20
ATOM     20  O   UNL     1     171.477 142.754 151.851  1.00  0.00    -0.502 OA
ATOM     21  H   UNL     1     172.391 143.090 151.572  1.00  0.00     0.293 HD
ENDBRANCH   2  20
BRANCH   6  22
ATOM     22  O   UNL     1     171.660 145.664 156.309  1.00  0.00    -0.507 OA
ATOM     23  H   UNL     1     172.052 146.421 156.849  1.00  0.00     0.293 HD
ENDBRANCH   6  22
BRANCH   8  24
ATOM     24  O   UNL     1     167.125 147.226 156.488  1.00  0.00    -0.508 OA
ATOM     25  H   UNL     1     166.194 146.856 156.651  1.00  0.00     0.293 HD
ENDBRANCH   8  24
TORSDOF 5
ENDMDL
MODEL 9
REMARK VINA RESULT:    -6.472      2.662      8.209
REMARK INTER + INTRA:          -7.896
REMARK INTER:                  -7.616
REMARK INTRA:                  -0.281
REMARK UNBOUND:                -0.289
REMARK SMILES O=c1c(O)c(-c2ccc(O)cc2)oc2cc(O)cc(O)c12
REMARK SMILES IDX 5 1 3 2 2 3 1 4 21 5 19 6 18 7 16 8 15 9 14 10 13 11 6 12
REMARK SMILES IDX 7 13 8 14 9 15 12 16 11 17 10 18 4 20 20 22 17 24
REMARK H PARENT 10 19 4 21 20 23 17 25
REMARK Flexibility Score: inf
ROOT
ATOM      1  C   UNL     1     167.397 149.593 150.022  1.00  0.00     0.180 A 
ATOM      2  C   UNL     1     168.300 150.550 149.528  1.00  0.00     0.208 A 
ATOM      3  C   UNL     1     167.947 151.908 149.572  1.00  0.00     0.238 A 
ATOM      4  O   UNL     1     168.727 152.752 149.060  1.00  0.00    -0.285 OA
ATOM      5  C   UNL     1     166.720 152.298 150.162  1.00  0.00     0.111 A 
ATOM      6  C   UNL     1     166.280 153.649 150.303  1.00  0.00     0.134 A 
ATOM      7  C   UNL     1     164.999 153.909 150.806  1.00  0.00     0.093 A 
ATOM      8  C   UNL     1     164.168 152.871 151.235  1.00  0.00     0.123 A 
ATOM      9  C   UNL     1     164.610 151.553 151.154  1.00  0.00     0.094 A 
ATOM     10  C   UNL     1     165.867 151.259 150.619  1.00  0.00     0.146 A 
ATOM     11  O   UNL     1     166.240 149.987 150.541  1.00  0.00    -0.452 OA
ENDROOT
BRANCH   1  12
ATOM     12  C   UNL     1     167.692 148.143 149.997  1.00  0.00     0.021 A 
ATOM     13  C   UNL     1     168.124 147.505 151.172  1.00  0.00     0.016 A 
ATOM     14  C   UNL     1     168.386 146.131 151.177  1.00  0.00     0.047 A 
ATOM     15  C   UNL     1     168.204 145.376 150.011  1.00  0.00     0.115 A 
ATOM     16  C   UNL     1     167.492 147.374 148.836  1.00  0.00     0.016 A 
ATOM     17  C   UNL     1     167.755 146.000 148.843  1.00  0.00     0.047 A 
BRANCH  15  18
ATOM     18  O   UNL     1     168.463 144.008 150.003  1.00  0.00    -0.508 OA
ATOM     19  H   UNL     1     168.403 143.463 149.151  1.00  0.00     0.293 HD
ENDBRANCH  15  18
ENDBRANCH   1  12
BRANCH   2  20
ATOM     20  O   UNL     1     169.540 150.150 149.019  1.00  0.00    -0.502 OA
ATOM     21  H   UNL     1     170.396 150.222 149.555  1.00  0.00     0.293 HD
ENDBRANCH   2  20
BRANCH   6  22
ATOM     22  O   UNL     1     167.061 154.765 149.989  1.00  0.00    -0.507 OA
ATOM     23  H   UNL     1     167.433 154.971 149.073  1.00  0.00     0.293 HD
ENDBRANCH   6  22
BRANCH   8  24
ATOM     24  O   UNL     1     162.903 153.140 151.751  1.00  0.00    -0.508 OA
ATOM     25  H   UNL     1     162.063 152.776 151.313  1.00  0.00     0.293 HD
ENDBRANCH   8  24
TORSDOF 5
ENDMDL
