MODEL 1
REMARK VINA RESULT:    -6.828      0.000      0.000
REMARK INTER + INTRA:         -11.547
REMARK INTER:                 -10.022
REMARK INTRA:                  -1.525
REMARK UNBOUND:                -1.525
REMARK SMILES O=c1c(O[C@@H]2O[C@@H](CO)[C@@H](O)[C@H](O)[C@H]2O)c(-c2ccc(O)c(O)c2)oc2cc(O)cc(O)c12
REMARK SMILES IDX 4 1 3 2 16 3 25 4 2 5 26 6 1 7 33 8 27 9 31 10 28 11 30 12
REMARK SMILES IDX 17 13 18 14 19 15 20 16 24 17 22 18 21 19 23 21 32 23 29 25
REMARK SMILES IDX 5 27 14 28 6 29 12 30 7 31 10 32 15 33 13 35 8 37 9 38 11 40
REMARK H PARENT 21 20 23 22 32 24 29 26 15 34 13 36 9 39 11 41
REMARK Flexibility Score: inf
ROOT
ATOM      1  O   UNL     1     116.486 129.202 132.648  1.00  0.00    -0.454 OA
ENDROOT
BRANCH   1   2
ATOM      2  C   UNL     1     116.329 129.484 131.281  1.00  0.00     0.214 A 
ATOM      3  C   UNL     1     117.062 128.757 130.325  1.00  0.00     0.180 A 
ATOM      4  O   UNL     1     116.973 129.074 129.035  1.00  0.00    -0.452 OA
ATOM      5  C   UNL     1     115.438 130.478 130.836  1.00  0.00     0.239 A 
ATOM      6  C   UNL     1     116.180 130.037 128.576  1.00  0.00     0.146 A 
ATOM      7  O   UNL     1     114.701 131.073 131.668  1.00  0.00    -0.285 OA
ATOM      8  C   UNL     1     115.361 130.781 129.460  1.00  0.00     0.111 A 
ATOM      9  C   UNL     1     116.151 130.300 127.200  1.00  0.00     0.094 A 
ATOM     10  C   UNL     1     114.506 131.779 128.931  1.00  0.00     0.134 A 
ATOM     11  C   UNL     1     115.305 131.290 126.685  1.00  0.00     0.123 A 
ATOM     12  C   UNL     1     114.485 132.020 127.547  1.00  0.00     0.093 A 
BRANCH   3  13
ATOM     13  C   UNL     1     117.960 127.651 130.711  1.00  0.00     0.025 A 
ATOM     14  C   UNL     1     117.446 126.454 131.237  1.00  0.00     0.016 A 
ATOM     15  C   UNL     1     118.308 125.413 131.593  1.00  0.00     0.051 A 
ATOM     16  C   UNL     1     119.692 125.554 131.416  1.00  0.00     0.157 A 
ATOM     17  C   UNL     1     119.343 127.779 130.512  1.00  0.00     0.062 A 
ATOM     18  C   UNL     1     120.211 126.739 130.873  1.00  0.00     0.158 A 
BRANCH  16  19
ATOM     19  O   UNL     1     120.557 124.522 131.776  1.00  0.00    -0.504 OA
ATOM     20  H   UNL     1     120.472 123.594 131.375  1.00  0.00     0.293 HD
ENDBRANCH  16  19
BRANCH  18  21
ATOM     21  O   UNL     1     121.589 126.876 130.702  1.00  0.00    -0.504 OA
ATOM     22  H   UNL     1     122.228 126.879 131.492  1.00  0.00     0.293 HD
ENDBRANCH  18  21
ENDBRANCH   3  13
BRANCH  10  23
ATOM     23  O   UNL     1     113.681 132.533 129.767  1.00  0.00    -0.507 OA
ATOM     24  H   UNL     1     113.661 132.388 130.774  1.00  0.00     0.293 HD
ENDBRANCH  10  23
BRANCH  11  25
ATOM     25  O   UNL     1     115.275 131.555 125.316  1.00  0.00    -0.508 OA
ATOM     26  H   UNL     1     114.552 132.134 124.907  1.00  0.00     0.293 HD
ENDBRANCH  11  25
ENDBRANCH   1   2
BRANCH   1  27
ATOM     27  C   UNL     1     117.079 130.119 133.577  1.00  0.00     0.339 C 
ATOM     28  C   UNL     1     116.375 130.027 134.953  1.00  0.00     0.214 C 
ATOM     29  O   UNL     1     118.482 129.904 133.683  1.00  0.00    -0.332 OA
ATOM     30  C   UNL     1     116.761 128.737 135.720  1.00  0.00     0.180 C 
ATOM     31  C   UNL     1     118.780 128.618 134.211  1.00  0.00     0.179 C 
ATOM     32  C   UNL     1     118.281 128.489 135.668  1.00  0.00     0.177 C 
BRANCH  28  33
ATOM     33  O   UNL     1     116.626 131.171 135.737  1.00  0.00    -0.384 OA
ATOM     34  H   UNL     1     115.753 131.549 136.022  1.00  0.00     0.211 HD
ENDBRANCH  28  33
BRANCH  30  35
ATOM     35  O   UNL     1     116.102 127.628 135.160  1.00  0.00    -0.387 OA
ATOM     36  H   UNL     1     115.906 127.001 135.907  1.00  0.00     0.211 HD
ENDBRANCH  30  35
BRANCH  31  37
ATOM     37  C   UNL     1     120.296 128.375 134.110  1.00  0.00     0.191 C 
BRANCH  37  38
ATOM     38  O   UNL     1     121.005 129.555 134.391  1.00  0.00    -0.394 OA
ATOM     39  H   UNL     1     121.770 129.302 134.979  1.00  0.00     0.210 HD
ENDBRANCH  37  38
ENDBRANCH  31  37
BRANCH  32  40
ATOM     40  O   UNL     1     118.941 129.410 136.503  1.00  0.00    -0.387 OA
ATOM     41  H   UNL     1     118.368 130.223 136.553  1.00  0.00     0.211 HD
ENDBRANCH  32  40
ENDBRANCH   1  27
TORSDOF 12
ENDMDL
MODEL 2
REMARK VINA RESULT:    -6.757      4.452      5.902
REMARK INTER + INTRA:         -11.441
REMARK INTER:                  -9.789
REMARK INTRA:                  -1.652
REMARK UNBOUND:                -1.525
REMARK SMILES O=c1c(O[C@@H]2O[C@@H](CO)[C@@H](O)[C@H](O)[C@H]2O)c(-c2ccc(O)c(O)c2)oc2cc(O)cc(O)c12
REMARK SMILES IDX 4 1 3 2 16 3 25 4 2 5 26 6 1 7 33 8 27 9 31 10 28 11 30 12
REMARK SMILES IDX 17 13 18 14 19 15 20 16 24 17 22 18 21 19 23 21 32 23 29 25
REMARK SMILES IDX 5 27 14 28 6 29 12 30 7 31 10 32 15 33 13 35 8 37 9 38 11 40
REMARK H PARENT 21 20 23 22 32 24 29 26 15 34 13 36 9 39 11 41
REMARK Flexibility Score: inf
ROOT
ATOM      1  O   UNL     1     120.034 128.024 135.083  1.00  0.00    -0.454 OA
ENDROOT
BRANCH   1   2
ATOM      2  C   UNL     1     120.267 127.956 133.700  1.00  0.00     0.214 A 
ATOM      3  C   UNL     1     119.458 127.134 132.891  1.00  0.00     0.180 A 
ATOM      4  O   UNL     1     119.726 127.008 131.594  1.00  0.00    -0.452 OA
ATOM      5  C   UNL     1     121.290 128.704 133.090  1.00  0.00     0.239 A 
ATOM      6  C   UNL     1     120.712 127.660 130.986  1.00  0.00     0.146 A 
ATOM      7  O   UNL     1     121.962 129.519 133.780  1.00  0.00    -0.285 OA
ATOM      8  C   UNL     1     121.538 128.554 131.710  1.00  0.00     0.111 A 
ATOM      9  C   UNL     1     120.918 127.464 129.615  1.00  0.00     0.094 A 
ATOM     10  C   UNL     1     122.561 129.254 131.024  1.00  0.00     0.134 A 
ATOM     11  C   UNL     1     121.932 128.158 128.944  1.00  0.00     0.123 A 
ATOM     12  C   UNL     1     122.743 129.051 129.646  1.00  0.00     0.093 A 
BRANCH   3  13
ATOM     13  C   UNL     1     118.320 126.376 133.447  1.00  0.00     0.025 A 
ATOM     14  C   UNL     1     117.181 127.038 133.933  1.00  0.00     0.016 A 
ATOM     15  C   UNL     1     116.109 126.307 134.452  1.00  0.00     0.051 A 
ATOM     16  C   UNL     1     116.160 124.905 134.477  1.00  0.00     0.157 A 
ATOM     17  C   UNL     1     118.358 124.973 133.451  1.00  0.00     0.062 A 
ATOM     18  C   UNL     1     117.285 124.237 133.975  1.00  0.00     0.158 A 
BRANCH  16  19
ATOM     19  O   UNL     1     115.096 124.172 135.000  1.00  0.00    -0.504 OA
ATOM     20  H   UNL     1     114.856 123.254 134.639  1.00  0.00     0.293 HD
ENDBRANCH  16  19
BRANCH  18  21
ATOM     21  O   UNL     1     117.333 122.843 134.006  1.00  0.00    -0.504 OA
ATOM     22  H   UNL     1     117.369 122.290 133.153  1.00  0.00     0.293 HD
ENDBRANCH  18  21
ENDBRANCH   3  13
BRANCH  10  23
ATOM     23  O   UNL     1     123.396 130.147 131.698  1.00  0.00    -0.507 OA
ATOM     24  H   UNL     1     124.292 130.439 131.313  1.00  0.00     0.293 HD
ENDBRANCH  10  23
BRANCH  11  25
ATOM     25  O   UNL     1     122.140 127.966 127.578  1.00  0.00    -0.508 OA
ATOM     26  H   UNL     1     121.724 127.184 127.086  1.00  0.00     0.293 HD
ENDBRANCH  11  25
ENDBRANCH   1   2
BRANCH   1  27
ATOM     27  C   UNL     1     120.754 127.237 136.041  1.00  0.00     0.339 C 
ATOM     28  C   UNL     1     121.375 128.146 137.131  1.00  0.00     0.214 C 
ATOM     29  O   UNL     1     119.923 126.227 136.602  1.00  0.00    -0.332 OA
ATOM     30  C   UNL     1     120.309 128.681 138.119  1.00  0.00     0.180 C 
ATOM     31  C   UNL     1     118.841 126.784 137.338  1.00  0.00     0.179 C 
ATOM     32  C   UNL     1     119.352 127.562 138.571  1.00  0.00     0.177 C 
BRANCH  28  33
ATOM     33  O   UNL     1     122.412 127.487 137.820  1.00  0.00    -0.384 OA
ATOM     34  H   UNL     1     122.004 126.806 138.418  1.00  0.00     0.211 HD
ENDBRANCH  28  33
BRANCH  30  35
ATOM     35  O   UNL     1     119.556 129.701 137.511  1.00  0.00    -0.387 OA
ATOM     36  H   UNL     1     118.763 129.861 138.090  1.00  0.00     0.211 HD
ENDBRANCH  30  35
BRANCH  31  37
ATOM     37  C   UNL     1     117.878 125.654 137.743  1.00  0.00     0.191 C 
BRANCH  37  38
ATOM     38  O   UNL     1     118.574 124.442 137.891  1.00  0.00    -0.394 OA
ATOM     39  H   UNL     1     117.898 123.711 137.833  1.00  0.00     0.210 HD
ENDBRANCH  37  38
ENDBRANCH  31  37
BRANCH  32  40
ATOM     40  O   UNL     1     120.020 126.698 139.461  1.00  0.00    -0.387 OA
ATOM     41  H   UNL     1     120.019 125.793 139.048  1.00  0.00     0.211 HD
ENDBRANCH  32  40
ENDBRANCH   1  27
TORSDOF 12
ENDMDL
MODEL 3
REMARK VINA RESULT:    -6.636      2.952      7.128
REMARK INTER + INTRA:         -11.264
REMARK INTER:                  -9.753
REMARK INTRA:                  -1.511
REMARK UNBOUND:                -1.525
REMARK SMILES O=c1c(O[C@@H]2O[C@@H](CO)[C@@H](O)[C@H](O)[C@H]2O)c(-c2ccc(O)c(O)c2)oc2cc(O)cc(O)c12
REMARK SMILES IDX 4 1 3 2 16 3 25 4 2 5 26 6 1 7 33 8 27 9 31 10 28 11 30 12
REMARK SMILES IDX 17 13 18 14 19 15 20 16 24 17 22 18 21 19 23 21 32 23 29 25
REMARK SMILES IDX 5 27 14 28 6 29 12 30 7 31 10 32 15 33 13 35 8 37 9 38 11 40
REMARK H PARENT 21 20 23 22 32 24 29 26 15 34 13 36 9 39 11 41
REMARK Flexibility Score: inf
ROOT
ATOM      1  O   UNL     1     118.273 126.612 132.113  1.00  0.00    -0.454 OA
ENDROOT
BRANCH   1   2
ATOM      2  C   UNL     1     117.193 126.140 132.876  1.00  0.00     0.214 A 
ATOM      3  C   UNL     1     115.974 126.845 132.881  1.00  0.00     0.180 A 
ATOM      4  O   UNL     1     114.975 126.443 133.663  1.00  0.00    -0.452 OA
ATOM      5  C   UNL     1     117.292 124.960 133.636  1.00  0.00     0.239 A 
ATOM      6  C   UNL     1     115.043 125.361 134.432  1.00  0.00     0.146 A 
ATOM      7  O   UNL     1     118.340 124.262 133.569  1.00  0.00    -0.285 OA
ATOM      8  C   UNL     1     116.209 124.557 134.445  1.00  0.00     0.111 A 
ATOM      9  C   UNL     1     113.940 125.013 135.222  1.00  0.00     0.094 A 
ATOM     10  C   UNL     1     116.235 123.394 135.254  1.00  0.00     0.134 A 
ATOM     11  C   UNL     1     113.973 123.865 136.021  1.00  0.00     0.123 A 
ATOM     12  C   UNL     1     115.113 123.059 136.031  1.00  0.00     0.093 A 
BRANCH   3  13
ATOM     13  C   UNL     1     115.771 128.050 132.053  1.00  0.00     0.025 A 
ATOM     14  C   UNL     1     115.819 129.333 132.623  1.00  0.00     0.016 A 
ATOM     15  C   UNL     1     115.630 130.466 131.826  1.00  0.00     0.051 A 
ATOM     16  C   UNL     1     115.404 130.327 130.448  1.00  0.00     0.157 A 
ATOM     17  C   UNL     1     115.570 127.916 130.671  1.00  0.00     0.062 A 
ATOM     18  C   UNL     1     115.375 129.050 129.870  1.00  0.00     0.158 A 
BRANCH  16  19
ATOM     19  O   UNL     1     115.208 131.452 129.650  1.00  0.00    -0.504 OA
ATOM     20  H   UNL     1     115.986 131.931 129.207  1.00  0.00     0.293 HD
ENDBRANCH  16  19
BRANCH  18  21
ATOM     21  O   UNL     1     115.147 128.917 128.499  1.00  0.00    -0.504 OA
ATOM     22  H   UNL     1     114.313 129.295 128.057  1.00  0.00     0.293 HD
ENDBRANCH  18  21
ENDBRANCH   3  13
BRANCH  10  23
ATOM     23  O   UNL     1     117.363 122.573 135.294  1.00  0.00    -0.507 OA
ATOM     24  H   UNL     1     117.937 122.410 134.470  1.00  0.00     0.293 HD
ENDBRANCH  10  23
BRANCH  11  25
ATOM     25  O   UNL     1     112.877 123.516 136.810  1.00  0.00    -0.508 OA
ATOM     26  H   UNL     1     112.789 122.591 137.213  1.00  0.00     0.293 HD
ENDBRANCH  11  25
ENDBRANCH   1   2
BRANCH   1  27
ATOM     27  C   UNL     1     119.033 127.777 132.463  1.00  0.00     0.339 C 
ATOM     28  C   UNL     1     119.981 127.468 133.648  1.00  0.00     0.214 C 
ATOM     29  O   UNL     1     119.738 128.285 131.336  1.00  0.00    -0.332 OA
ATOM     30  C   UNL     1     121.190 126.602 133.215  1.00  0.00     0.180 C 
ATOM     31  C   UNL     1     120.704 127.358 130.858  1.00  0.00     0.179 C 
ATOM     32  C   UNL     1     121.814 127.125 131.907  1.00  0.00     0.177 C 
BRANCH  28  33
ATOM     33  O   UNL     1     120.412 128.650 134.283  1.00  0.00    -0.384 OA
ATOM     34  H   UNL     1     120.073 129.424 133.760  1.00  0.00     0.211 HD
ENDBRANCH  28  33
BRANCH  30  35
ATOM     35  O   UNL     1     120.784 125.269 133.021  1.00  0.00    -0.387 OA
ATOM     36  H   UNL     1     121.600 124.748 132.792  1.00  0.00     0.211 HD
ENDBRANCH  30  35
BRANCH  31  37
ATOM     37  C   UNL     1     121.283 127.881 129.531  1.00  0.00     0.191 C 
BRANCH  37  38
ATOM     38  O   UNL     1     122.633 127.513 129.403  1.00  0.00    -0.394 OA
ATOM     39  H   UNL     1     122.795 126.772 130.051  1.00  0.00     0.210 HD
ENDBRANCH  37  38
ENDBRANCH  31  37
BRANCH  32  40
ATOM     40  O   UNL     1     122.517 128.317 132.161  1.00  0.00    -0.387 OA
ATOM     41  H   UNL     1     122.372 128.916 131.379  1.00  0.00     0.211 HD
ENDBRANCH  32  40
ENDBRANCH   1  27
TORSDOF 12
ENDMDL
MODEL 4
REMARK VINA RESULT:    -6.597      4.608      5.668
REMARK INTER + INTRA:         -11.207
REMARK INTER:                 -10.012
REMARK INTRA:                  -1.196
REMARK UNBOUND:                -1.525
REMARK SMILES O=c1c(O[C@@H]2O[C@@H](CO)[C@@H](O)[C@H](O)[C@H]2O)c(-c2ccc(O)c(O)c2)oc2cc(O)cc(O)c12
REMARK SMILES IDX 4 1 3 2 16 3 25 4 2 5 26 6 1 7 33 8 27 9 31 10 28 11 30 12
REMARK SMILES IDX 17 13 18 14 19 15 20 16 24 17 22 18 21 19 23 21 32 23 29 25
REMARK SMILES IDX 5 27 14 28 6 29 12 30 7 31 10 32 15 33 13 35 8 37 9 38 11 40
REMARK H PARENT 21 20 23 22 32 24 29 26 15 34 13 36 9 39 11 41
REMARK Flexibility Score: inf
ROOT
ATOM      1  O   UNL     1     120.278 127.308 135.185  1.00  0.00    -0.454 OA
ENDROOT
BRANCH   1   2
ATOM      2  C   UNL     1     120.470 127.348 133.794  1.00  0.00     0.214 A 
ATOM      3  C   UNL     1     119.772 126.452 132.963  1.00  0.00     0.180 A 
ATOM      4  O   UNL     1     120.010 126.436 131.654  1.00  0.00    -0.452 OA
ATOM      5  C   UNL     1     121.343 128.278 133.200  1.00  0.00     0.239 A 
ATOM      6  C   UNL     1     120.861 127.265 131.057  1.00  0.00     0.146 A 
ATOM      7  O   UNL     1     121.903 129.153 133.916  1.00  0.00    -0.285 OA
ATOM      8  C   UNL     1     121.563 128.239 131.807  1.00  0.00     0.111 A 
ATOM      9  C   UNL     1     121.046 127.175 129.672  1.00  0.00     0.094 A 
ATOM     10  C   UNL     1     122.439 129.126 131.135  1.00  0.00     0.134 A 
ATOM     11  C   UNL     1     121.915 128.053 129.014  1.00  0.00     0.123 A 
ATOM     12  C   UNL     1     122.602 129.025 129.743  1.00  0.00     0.093 A 
BRANCH   3  13
ATOM     13  C   UNL     1     118.786 125.497 133.506  1.00  0.00     0.025 A 
ATOM     14  C   UNL     1     119.201 124.353 134.208  1.00  0.00     0.016 A 
ATOM     15  C   UNL     1     118.256 123.460 134.721  1.00  0.00     0.051 A 
ATOM     16  C   UNL     1     116.887 123.708 134.548  1.00  0.00     0.157 A 
ATOM     17  C   UNL     1     117.415 125.755 133.356  1.00  0.00     0.062 A 
ATOM     18  C   UNL     1     116.465 124.858 133.866  1.00  0.00     0.158 A 
BRANCH  16  19
ATOM     19  O   UNL     1     115.941 122.817 135.052  1.00  0.00    -0.504 OA
ATOM     20  H   UNL     1     115.725 121.947 134.576  1.00  0.00     0.293 HD
ENDBRANCH  16  19
BRANCH  18  21
ATOM     21  O   UNL     1     115.101 125.100 133.693  1.00  0.00    -0.504 OA
ATOM     22  H   UNL     1     114.755 125.996 133.360  1.00  0.00     0.293 HD
ENDBRANCH  18  21
ENDBRANCH   3  13
BRANCH  10  23
ATOM     23  O   UNL     1     123.148 130.104 131.835  1.00  0.00    -0.507 OA
ATOM     24  H   UNL     1     123.358 130.007 132.827  1.00  0.00     0.293 HD
ENDBRANCH  10  23
BRANCH  11  25
ATOM     25  O   UNL     1     122.103 127.965 127.634  1.00  0.00    -0.508 OA
ATOM     26  H   UNL     1     123.016 127.782 127.237  1.00  0.00     0.293 HD
ENDBRANCH  11  25
ENDBRANCH   1   2
BRANCH   1  27
ATOM     27  C   UNL     1     119.536 128.303 135.905  1.00  0.00     0.339 C 
ATOM     28  C   UNL     1     118.321 127.660 136.618  1.00  0.00     0.214 C 
ATOM     29  O   UNL     1     120.374 129.008 136.813  1.00  0.00    -0.332 OA
ATOM     30  C   UNL     1     118.745 126.835 137.859  1.00  0.00     0.180 C 
ATOM     31  C   UNL     1     120.896 128.152 137.822  1.00  0.00     0.179 C 
ATOM     32  C   UNL     1     119.766 127.602 138.720  1.00  0.00     0.177 C 
BRANCH  28  33
ATOM     33  O   UNL     1     117.358 128.628 136.964  1.00  0.00    -0.384 OA
ATOM     34  H   UNL     1     117.125 129.141 136.145  1.00  0.00     0.211 HD
ENDBRANCH  28  33
BRANCH  30  35
ATOM     35  O   UNL     1     119.319 125.617 137.454  1.00  0.00    -0.387 OA
ATOM     36  H   UNL     1     120.204 125.549 137.905  1.00  0.00     0.211 HD
ENDBRANCH  30  35
BRANCH  31  37
ATOM     37  C   UNL     1     121.943 128.926 138.642  1.00  0.00     0.191 C 
BRANCH  37  38
ATOM     38  O   UNL     1     122.768 129.687 137.797  1.00  0.00    -0.394 OA
ATOM     39  H   UNL     1     123.458 129.066 137.430  1.00  0.00     0.210 HD
ENDBRANCH  37  38
ENDBRANCH  31  37
BRANCH  32  40
ATOM     40  O   UNL     1     119.119 128.650 139.402  1.00  0.00    -0.387 OA
ATOM     41  H   UNL     1     118.486 128.234 140.048  1.00  0.00     0.211 HD
ENDBRANCH  32  40
ENDBRANCH   1  27
TORSDOF 12
ENDMDL
MODEL 5
REMARK VINA RESULT:    -6.552      1.716      2.927
REMARK INTER + INTRA:         -11.141
REMARK INTER:                  -9.953
REMARK INTRA:                  -1.188
REMARK UNBOUND:                -1.525
REMARK SMILES O=c1c(O[C@@H]2O[C@@H](CO)[C@@H](O)[C@H](O)[C@H]2O)c(-c2ccc(O)c(O)c2)oc2cc(O)cc(O)c12
REMARK SMILES IDX 4 1 3 2 16 3 25 4 2 5 26 6 1 7 33 8 27 9 31 10 28 11 30 12
REMARK SMILES IDX 17 13 18 14 19 15 20 16 24 17 22 18 21 19 23 21 32 23 29 25
REMARK SMILES IDX 5 27 14 28 6 29 12 30 7 31 10 32 15 33 13 35 8 37 9 38 11 40
REMARK H PARENT 21 20 23 22 32 24 29 26 15 34 13 36 9 39 11 41
REMARK Flexibility Score: inf
ROOT
ATOM      1  O   UNL     1     118.064 128.230 134.226  1.00  0.00    -0.454 OA
ENDROOT
BRANCH   1   2
ATOM      2  C   UNL     1     117.393 128.481 133.018  1.00  0.00     0.214 A 
ATOM      3  C   UNL     1     117.536 127.590 131.937  1.00  0.00     0.180 A 
ATOM      4  O   UNL     1     116.964 127.865 130.767  1.00  0.00    -0.452 OA
ATOM      5  C   UNL     1     116.562 129.605 132.860  1.00  0.00     0.239 A 
ATOM      6  C   UNL     1     116.210 128.940 130.561  1.00  0.00     0.146 A 
ATOM      7  O   UNL     1     116.343 130.362 133.845  1.00  0.00    -0.285 OA
ATOM      8  C   UNL     1     115.963 129.860 131.608  1.00  0.00     0.111 A 
ATOM      9  C   UNL     1     115.648 129.147 129.295  1.00  0.00     0.094 A 
ATOM     10  C   UNL     1     115.130 130.979 131.360  1.00  0.00     0.134 A 
ATOM     11  C   UNL     1     114.828 130.256 129.056  1.00  0.00     0.123 A 
ATOM     12  C   UNL     1     114.568 131.162 130.086  1.00  0.00     0.093 A 
BRANCH   3  13
ATOM     13  C   UNL     1     118.332 126.352 132.051  1.00  0.00     0.025 A 
ATOM     14  C   UNL     1     119.569 126.227 131.397  1.00  0.00     0.016 A 
ATOM     15  C   UNL     1     120.314 125.051 131.517  1.00  0.00     0.051 A 
ATOM     16  C   UNL     1     119.837 123.993 132.306  1.00  0.00     0.157 A 
ATOM     17  C   UNL     1     117.869 125.302 132.859  1.00  0.00     0.062 A 
ATOM     18  C   UNL     1     118.613 124.119 132.978  1.00  0.00     0.158 A 
BRANCH  16  19
ATOM     19  O   UNL     1     120.573 122.816 132.424  1.00  0.00    -0.504 OA
ATOM     20  H   UNL     1     120.121 121.921 132.587  1.00  0.00     0.293 HD
ENDBRANCH  16  19
BRANCH  18  21
ATOM     21  O   UNL     1     118.140 123.062 133.758  1.00  0.00    -0.504 OA
ATOM     22  H   UNL     1     117.174 123.020 134.072  1.00  0.00     0.293 HD
ENDBRANCH  18  21
ENDBRANCH   3  13
BRANCH  10  23
ATOM     23  O   UNL     1     114.858 131.908 132.366  1.00  0.00    -0.507 OA
ATOM     24  H   UNL     1     113.932 132.312 132.486  1.00  0.00     0.293 HD
ENDBRANCH  10  23
BRANCH  11  25
ATOM     25  O   UNL     1     114.267 130.467 127.796  1.00  0.00    -0.508 OA
ATOM     26  H   UNL     1     113.842 129.709 127.274  1.00  0.00     0.293 HD
ENDBRANCH  11  25
ENDBRANCH   1   2
BRANCH   1  27
ATOM     27  C   UNL     1     118.905 129.195 134.873  1.00  0.00     0.339 C 
ATOM     28  C   UNL     1     119.454 128.627 136.205  1.00  0.00     0.214 C 
ATOM     29  O   UNL     1     119.949 129.625 134.008  1.00  0.00    -0.332 OA
ATOM     30  C   UNL     1     120.561 127.567 135.973  1.00  0.00     0.180 C 
ATOM     31  C   UNL     1     120.825 128.558 133.668  1.00  0.00     0.179 C 
ATOM     32  C   UNL     1     121.576 128.040 134.915  1.00  0.00     0.177 C 
BRANCH  28  33
ATOM     33  O   UNL     1     119.914 129.655 137.052  1.00  0.00    -0.384 OA
ATOM     34  H   UNL     1     119.895 129.318 137.987  1.00  0.00     0.211 HD
ENDBRANCH  28  33
BRANCH  30  35
ATOM     35  O   UNL     1     119.988 126.358 135.540  1.00  0.00    -0.387 OA
ATOM     36  H   UNL     1     120.739 125.742 135.326  1.00  0.00     0.211 HD
ENDBRANCH  30  35
BRANCH  31  37
ATOM     37  C   UNL     1     121.802 129.041 132.581  1.00  0.00     0.191 C 
BRANCH  37  38
ATOM     38  O   UNL     1     123.006 128.321 132.645  1.00  0.00    -0.394 OA
ATOM     39  H   UNL     1     122.765 127.366 132.801  1.00  0.00     0.210 HD
ENDBRANCH  37  38
ENDBRANCH  31  37
BRANCH  32  40
ATOM     40  O   UNL     1     122.392 129.050 135.459  1.00  0.00    -0.387 OA
ATOM     41  H   UNL     1     122.736 129.592 134.698  1.00  0.00     0.211 HD
ENDBRANCH  32  40
ENDBRANCH   1  27
TORSDOF 12
ENDMDL
MODEL 6
REMARK VINA RESULT:    -6.489      4.942      7.057
REMARK INTER + INTRA:         -11.048
REMARK INTER:                  -9.618
REMARK INTRA:                  -1.430
REMARK UNBOUND:                -1.525
REMARK SMILES O=c1c(O[C@@H]2O[C@@H](CO)[C@@H](O)[C@H](O)[C@H]2O)c(-c2ccc(O)c(O)c2)oc2cc(O)cc(O)c12
REMARK SMILES IDX 4 1 3 2 16 3 25 4 2 5 26 6 1 7 33 8 27 9 31 10 28 11 30 12
REMARK SMILES IDX 17 13 18 14 19 15 20 16 24 17 22 18 21 19 23 21 32 23 29 25
REMARK SMILES IDX 5 27 14 28 6 29 12 30 7 31 10 32 15 33 13 35 8 37 9 38 11 40
REMARK H PARENT 21 20 23 22 32 24 29 26 15 34 13 36 9 39 11 41
REMARK Flexibility Score: inf
ROOT
ATOM      1  O   UNL     1     119.829 126.070 134.471  1.00  0.00    -0.454 OA
ENDROOT
BRANCH   1   2
ATOM      2  C   UNL     1     120.557 127.065 133.798  1.00  0.00     0.214 A 
ATOM      3  C   UNL     1     121.040 128.182 134.506  1.00  0.00     0.180 A 
ATOM      4  O   UNL     1     121.663 129.163 133.857  1.00  0.00    -0.452 OA
ATOM      5  C   UNL     1     120.831 126.969 132.421  1.00  0.00     0.239 A 
ATOM      6  C   UNL     1     121.901 129.135 132.549  1.00  0.00     0.146 A 
ATOM      7  O   UNL     1     120.493 125.931 131.789  1.00  0.00    -0.285 OA
ATOM      8  C   UNL     1     121.504 128.023 131.768  1.00  0.00     0.111 A 
ATOM      9  C   UNL     1     122.565 130.213 131.952  1.00  0.00     0.094 A 
ATOM     10  C   UNL     1     121.801 128.013 130.383  1.00  0.00     0.134 A 
ATOM     11  C   UNL     1     122.854 130.198 130.583  1.00  0.00     0.123 A 
ATOM     12  C   UNL     1     122.477 129.101 129.806  1.00  0.00     0.093 A 
BRANCH   3  13
ATOM     13  C   UNL     1     120.854 128.317 135.964  1.00  0.00     0.025 A 
ATOM     14  C   UNL     1     119.693 128.905 136.492  1.00  0.00     0.016 A 
ATOM     15  C   UNL     1     119.528 129.022 137.875  1.00  0.00     0.051 A 
ATOM     16  C   UNL     1     120.518 128.539 138.744  1.00  0.00     0.157 A 
ATOM     17  C   UNL     1     121.831 127.813 136.837  1.00  0.00     0.062 A 
ATOM     18  C   UNL     1     121.670 127.933 138.224  1.00  0.00     0.158 A 
BRANCH  16  19
ATOM     19  O   UNL     1     120.362 128.659 140.124  1.00  0.00    -0.504 OA
ATOM     20  H   UNL     1     120.734 127.964 140.763  1.00  0.00     0.293 HD
ENDBRANCH  16  19
BRANCH  18  21
ATOM     21  O   UNL     1     122.654 127.458 139.094  1.00  0.00    -0.504 OA
ATOM     22  H   UNL     1     122.902 126.472 139.133  1.00  0.00     0.293 HD
ENDBRANCH  18  21
ENDBRANCH   3  13
BRANCH  10  23
ATOM     23  O   UNL     1     121.430 126.935 129.576  1.00  0.00    -0.507 OA
ATOM     24  H   UNL     1     122.063 126.542 128.883  1.00  0.00     0.293 HD
ENDBRANCH  10  23
BRANCH  11  25
ATOM     25  O   UNL     1     123.514 131.272 129.984  1.00  0.00    -0.508 OA
ATOM     26  H   UNL     1     124.310 131.128 129.374  1.00  0.00     0.293 HD
ENDBRANCH  11  25
ENDBRANCH   1   2
BRANCH   1  27
ATOM     27  C   UNL     1     118.395 126.022 134.488  1.00  0.00     0.339 C 
ATOM     28  C   UNL     1     117.865 125.256 133.250  1.00  0.00     0.214 C 
ATOM     29  O   UNL     1     117.917 125.460 135.705  1.00  0.00    -0.332 OA
ATOM     30  C   UNL     1     118.087 123.728 133.372  1.00  0.00     0.180 C 
ATOM     31  C   UNL     1     118.323 124.106 135.856  1.00  0.00     0.179 C 
ATOM     32  C   UNL     1     117.685 123.213 134.768  1.00  0.00     0.177 C 
BRANCH  28  33
ATOM     33  O   UNL     1     116.508 125.548 133.008  1.00  0.00    -0.384 OA
ATOM     34  H   UNL     1     116.464 126.280 132.337  1.00  0.00     0.211 HD
ENDBRANCH  28  33
BRANCH  30  35
ATOM     35  O   UNL     1     119.441 123.418 133.149  1.00  0.00    -0.387 OA
ATOM     36  H   UNL     1     119.762 124.025 132.429  1.00  0.00     0.211 HD
ENDBRANCH  30  35
BRANCH  31  37
ATOM     37  C   UNL     1     117.949 123.626 137.270  1.00  0.00     0.191 C 
BRANCH  37  38
ATOM     38  O   UNL     1     117.852 122.225 137.306  1.00  0.00    -0.394 OA
ATOM     39  H   UNL     1     117.232 121.997 138.054  1.00  0.00     0.210 HD
ENDBRANCH  37  38
ENDBRANCH  31  37
BRANCH  32  40
ATOM     40  O   UNL     1     116.282 123.210 134.886  1.00  0.00    -0.387 OA
ATOM     41  H   UNL     1     115.919 123.666 134.079  1.00  0.00     0.211 HD
ENDBRANCH  32  40
ENDBRANCH   1  27
TORSDOF 12
ENDMDL
MODEL 7
REMARK VINA RESULT:    -6.155      1.599      4.550
REMARK INTER + INTRA:         -10.559
REMARK INTER:                  -9.111
REMARK INTRA:                  -1.448
REMARK UNBOUND:                -1.525
REMARK SMILES O=c1c(O[C@@H]2O[C@@H](CO)[C@@H](O)[C@H](O)[C@H]2O)c(-c2ccc(O)c(O)c2)oc2cc(O)cc(O)c12
REMARK SMILES IDX 4 1 3 2 16 3 25 4 2 5 26 6 1 7 33 8 27 9 31 10 28 11 30 12
REMARK SMILES IDX 17 13 18 14 19 15 20 16 24 17 22 18 21 19 23 21 32 23 29 25
REMARK SMILES IDX 5 27 14 28 6 29 12 30 7 31 10 32 15 33 13 35 8 37 9 38 11 40
REMARK H PARENT 21 20 23 22 32 24 29 26 15 34 13 36 9 39 11 41
REMARK Flexibility Score: inf
ROOT
ATOM      1  O   UNL     1     117.217 128.237 132.451  1.00  0.00    -0.454 OA
ENDROOT
BRANCH   1   2
ATOM      2  C   UNL     1     116.550 129.127 131.594  1.00  0.00     0.214 A 
ATOM      3  C   UNL     1     115.676 130.093 132.126  1.00  0.00     0.180 A 
ATOM      4  O   UNL     1     114.984 130.886 131.312  1.00  0.00    -0.452 OA
ATOM      5  C   UNL     1     116.741 129.086 130.200  1.00  0.00     0.239 A 
ATOM      6  C   UNL     1     115.099 130.849 129.988  1.00  0.00     0.146 A 
ATOM      7  O   UNL     1     117.592 128.294 129.711  1.00  0.00    -0.285 OA
ATOM      8  C   UNL     1     115.999 129.949 129.367  1.00  0.00     0.111 A 
ATOM      9  C   UNL     1     114.330 131.724 129.210  1.00  0.00     0.094 A 
ATOM     10  C   UNL     1     116.118 129.958 127.956  1.00  0.00     0.134 A 
ATOM     11  C   UNL     1     114.451 131.725 127.816  1.00  0.00     0.123 A 
ATOM     12  C   UNL     1     115.344 130.850 127.195  1.00  0.00     0.093 A 
BRANCH   3  13
ATOM     13  C   UNL     1     115.479 130.245 133.581  1.00  0.00     0.025 A 
ATOM     14  C   UNL     1     114.811 129.258 134.325  1.00  0.00     0.016 A 
ATOM     15  C   UNL     1     114.636 129.412 135.703  1.00  0.00     0.051 A 
ATOM     16  C   UNL     1     115.140 130.548 136.354  1.00  0.00     0.157 A 
ATOM     17  C   UNL     1     116.004 131.368 134.239  1.00  0.00     0.062 A 
ATOM     18  C   UNL     1     115.826 131.527 135.621  1.00  0.00     0.158 A 
BRANCH  16  19
ATOM     19  O   UNL     1     114.963 130.709 137.727  1.00  0.00    -0.504 OA
ATOM     20  H   UNL     1     114.260 130.185 138.237  1.00  0.00     0.293 HD
ENDBRANCH  16  19
BRANCH  18  21
ATOM     21  O   UNL     1     116.323 132.657 136.272  1.00  0.00    -0.504 OA
ATOM     22  H   UNL     1     116.327 133.572 135.827  1.00  0.00     0.293 HD
ENDBRANCH  18  21
ENDBRANCH   3  13
BRANCH  10  23
ATOM     23  O   UNL     1     116.995 129.089 127.304  1.00  0.00    -0.507 OA
ATOM     24  H   UNL     1     117.909 128.862 127.689  1.00  0.00     0.293 HD
ENDBRANCH  10  23
BRANCH  11  25
ATOM     25  O   UNL     1     113.685 132.594 127.037  1.00  0.00    -0.508 OA
ATOM     26  H   UNL     1     113.663 133.589 127.224  1.00  0.00     0.293 HD
ENDBRANCH  11  25
ENDBRANCH   1   2
BRANCH   1  27
ATOM     27  C   UNL     1     118.562 128.443 132.905  1.00  0.00     0.339 C 
ATOM     28  C   UNL     1     118.612 128.471 134.453  1.00  0.00     0.214 C 
ATOM     29  O   UNL     1     119.440 127.464 132.362  1.00  0.00    -0.332 OA
ATOM     30  C   UNL     1     118.441 127.059 135.066  1.00  0.00     0.180 C 
ATOM     31  C   UNL     1     119.110 126.154 132.808  1.00  0.00     0.179 C 
ATOM     32  C   UNL     1     119.313 126.021 134.334  1.00  0.00     0.177 C 
BRANCH  28  33
ATOM     33  O   UNL     1     119.794 129.081 134.918  1.00  0.00    -0.384 OA
ATOM     34  H   UNL     1     120.280 129.452 134.134  1.00  0.00     0.211 HD
ENDBRANCH  28  33
BRANCH  30  35
ATOM     35  O   UNL     1     117.096 126.657 134.985  1.00  0.00    -0.387 OA
ATOM     36  H   UNL     1     116.551 127.486 134.904  1.00  0.00     0.211 HD
ENDBRANCH  30  35
BRANCH  31  37
ATOM     37  C   UNL     1     119.962 125.133 132.033  1.00  0.00     0.191 C 
BRANCH  37  38
ATOM     38  O   UNL     1     121.280 125.598 131.890  1.00  0.00    -0.394 OA
ATOM     39  H   UNL     1     121.509 126.085 132.730  1.00  0.00     0.210 HD
ENDBRANCH  37  38
ENDBRANCH  31  37
BRANCH  32  40
ATOM     40  O   UNL     1     120.665 126.213 134.674  1.00  0.00    -0.387 OA
ATOM     41  H   UNL     1     120.771 127.169 134.929  1.00  0.00     0.211 HD
ENDBRANCH  32  40
ENDBRANCH   1  27
TORSDOF 12
ENDMDL
MODEL 8
REMARK VINA RESULT:    -6.149      1.026      2.107
REMARK INTER + INTRA:         -10.550
REMARK INTER:                  -9.088
REMARK INTRA:                  -1.462
REMARK UNBOUND:                -1.525
REMARK SMILES O=c1c(O[C@@H]2O[C@@H](CO)[C@@H](O)[C@H](O)[C@H]2O)c(-c2ccc(O)c(O)c2)oc2cc(O)cc(O)c12
REMARK SMILES IDX 4 1 3 2 16 3 25 4 2 5 26 6 1 7 33 8 27 9 31 10 28 11 30 12
REMARK SMILES IDX 17 13 18 14 19 15 20 16 24 17 22 18 21 19 23 21 32 23 29 25
REMARK SMILES IDX 5 27 14 28 6 29 12 30 7 31 10 32 15 33 13 35 8 37 9 38 11 40
REMARK H PARENT 21 20 23 22 32 24 29 26 15 34 13 36 9 39 11 41
REMARK Flexibility Score: inf
ROOT
ATOM      1  O   UNL     1     117.064 129.439 132.806  1.00  0.00    -0.454 OA
ENDROOT
BRANCH   1   2
ATOM      2  C   UNL     1     116.577 129.530 131.492  1.00  0.00     0.214 A 
ATOM      3  C   UNL     1     117.015 128.616 130.515  1.00  0.00     0.180 A 
ATOM      4  O   UNL     1     116.614 128.749 129.253  1.00  0.00    -0.452 OA
ATOM      5  C   UNL     1     115.643 130.516 131.123  1.00  0.00     0.239 A 
ATOM      6  C   UNL     1     115.770 129.694 128.852  1.00  0.00     0.146 A 
ATOM      7  O   UNL     1     115.165 131.282 132.004  1.00  0.00    -0.285 OA
ATOM      8  C   UNL     1     115.232 130.620 129.778  1.00  0.00     0.111 A 
ATOM      9  C   UNL     1     115.403 129.755 127.501  1.00  0.00     0.094 A 
ATOM     10  C   UNL     1     114.311 131.595 129.321  1.00  0.00     0.134 A 
ATOM     11  C   UNL     1     114.495 130.722 127.056  1.00  0.00     0.123 A 
ATOM     12  C   UNL     1     113.949 131.632 127.964  1.00  0.00     0.093 A 
BRANCH   3  13
ATOM     13  C   UNL     1     117.938 127.512 130.843  1.00  0.00     0.025 A 
ATOM     14  C   UNL     1     117.449 126.268 131.276  1.00  0.00     0.016 A 
ATOM     15  C   UNL     1     118.334 125.230 131.578  1.00  0.00     0.051 A 
ATOM     16  C   UNL     1     119.717 125.420 131.437  1.00  0.00     0.157 A 
ATOM     17  C   UNL     1     119.320 127.691 130.678  1.00  0.00     0.062 A 
ATOM     18  C   UNL     1     120.210 126.652 130.985  1.00  0.00     0.158 A 
BRANCH  16  19
ATOM     19  O   UNL     1     120.604 124.390 131.743  1.00  0.00    -0.504 OA
ATOM     20  H   UNL     1     121.532 124.579 132.106  1.00  0.00     0.293 HD
ENDBRANCH  16  19
BRANCH  18  21
ATOM     21  O   UNL     1     121.587 126.838 130.849  1.00  0.00    -0.504 OA
ATOM     22  H   UNL     1     122.231 126.052 130.810  1.00  0.00     0.293 HD
ENDBRANCH  18  21
ENDBRANCH   3  13
BRANCH  10  23
ATOM     23  O   UNL     1     113.755 132.525 130.201  1.00  0.00    -0.507 OA
ATOM     24  H   UNL     1     113.850 133.527 130.052  1.00  0.00     0.293 HD
ENDBRANCH  10  23
BRANCH  11  25
ATOM     25  O   UNL     1     114.128 130.787 125.711  1.00  0.00    -0.508 OA
ATOM     26  H   UNL     1     114.683 131.301 125.038  1.00  0.00     0.293 HD
ENDBRANCH  11  25
ENDBRANCH   1   2
BRANCH   1  27
ATOM     27  C   UNL     1     116.396 128.707 133.843  1.00  0.00     0.339 C 
ATOM     28  C   UNL     1     117.399 127.800 134.598  1.00  0.00     0.214 C 
ATOM     29  O   UNL     1     115.705 129.585 134.724  1.00  0.00    -0.332 OA
ATOM     30  C   UNL     1     118.326 128.613 135.536  1.00  0.00     0.180 C 
ATOM     31  C   UNL     1     116.599 130.448 135.416  1.00  0.00     0.179 C 
ATOM     32  C   UNL     1     117.529 129.646 136.354  1.00  0.00     0.177 C 
BRANCH  28  33
ATOM     33  O   UNL     1     116.736 126.780 135.308  1.00  0.00    -0.384 OA
ATOM     34  H   UNL     1     116.916 125.916 134.851  1.00  0.00     0.211 HD
ENDBRANCH  28  33
BRANCH  30  35
ATOM     35  O   UNL     1     119.302 129.289 134.782  1.00  0.00    -0.387 OA
ATOM     36  H   UNL     1     119.500 130.139 135.260  1.00  0.00     0.211 HD
ENDBRANCH  30  35
BRANCH  31  37
ATOM     37  C   UNL     1     115.782 131.496 136.191  1.00  0.00     0.191 C 
BRANCH  37  38
ATOM     38  O   UNL     1     116.492 131.939 137.320  1.00  0.00    -0.394 OA
ATOM     39  H   UNL     1     116.562 132.932 137.247  1.00  0.00     0.210 HD
ENDBRANCH  37  38
ENDBRANCH  31  37
BRANCH  32  40
ATOM     40  O   UNL     1     116.782 128.988 137.349  1.00  0.00    -0.387 OA
ATOM     41  H   UNL     1     115.820 129.138 137.142  1.00  0.00     0.211 HD
ENDBRANCH  32  40
ENDBRANCH   1  27
TORSDOF 12
ENDMDL
MODEL 9
REMARK VINA RESULT:    -5.961      2.008      5.061
REMARK INTER + INTRA:         -10.274
REMARK INTER:                  -8.682
REMARK INTRA:                  -1.591
REMARK UNBOUND:                -1.525
REMARK SMILES O=c1c(O[C@@H]2O[C@@H](CO)[C@@H](O)[C@H](O)[C@H]2O)c(-c2ccc(O)c(O)c2)oc2cc(O)cc(O)c12
REMARK SMILES IDX 4 1 3 2 16 3 25 4 2 5 26 6 1 7 33 8 27 9 31 10 28 11 30 12
REMARK SMILES IDX 17 13 18 14 19 15 20 16 24 17 22 18 21 19 23 21 32 23 29 25
REMARK SMILES IDX 5 27 14 28 6 29 12 30 7 31 10 32 15 33 13 35 8 37 9 38 11 40
REMARK H PARENT 21 20 23 22 32 24 29 26 15 34 13 36 9 39 11 41
REMARK Flexibility Score: inf
ROOT
ATOM      1  O   UNL     1     117.080 128.661 132.250  1.00  0.00    -0.454 OA
ENDROOT
BRANCH   1   2
ATOM      2  C   UNL     1     116.387 129.501 131.363  1.00  0.00     0.214 A 
ATOM      3  C   UNL     1     115.506 130.479 131.864  1.00  0.00     0.180 A 
ATOM      4  O   UNL     1     114.791 131.223 131.024  1.00  0.00    -0.452 OA
ATOM      5  C   UNL     1     116.561 129.400 129.970  1.00  0.00     0.239 A 
ATOM      6  C   UNL     1     114.889 131.128 129.702  1.00  0.00     0.146 A 
ATOM      7  O   UNL     1     117.416 128.599 129.505  1.00  0.00    -0.285 OA
ATOM      8  C   UNL     1     115.794 130.214 129.110  1.00  0.00     0.111 A 
ATOM      9  C   UNL     1     114.096 131.955 128.896  1.00  0.00     0.094 A 
ATOM     10  C   UNL     1     115.893 130.160 127.697  1.00  0.00     0.134 A 
ATOM     11  C   UNL     1     114.198 131.895 127.501  1.00  0.00     0.123 A 
ATOM     12  C   UNL     1     115.096 131.006 126.908  1.00  0.00     0.093 A 
BRANCH   3  13
ATOM     13  C   UNL     1     115.328 130.693 133.313  1.00  0.00     0.025 A 
ATOM     14  C   UNL     1     116.185 131.546 134.027  1.00  0.00     0.016 A 
ATOM     15  C   UNL     1     116.001 131.744 135.398  1.00  0.00     0.051 A 
ATOM     16  C   UNL     1     114.948 131.100 136.067  1.00  0.00     0.157 A 
ATOM     17  C   UNL     1     114.261 130.071 133.980  1.00  0.00     0.062 A 
ATOM     18  C   UNL     1     114.076 130.264 135.356  1.00  0.00     0.158 A 
BRANCH  16  19
ATOM     19  O   UNL     1     114.764 131.289 137.435  1.00  0.00    -0.504 OA
ATOM     20  H   UNL     1     115.447 130.965 138.113  1.00  0.00     0.293 HD
ENDBRANCH  16  19
BRANCH  18  21
ATOM     21  O   UNL     1     113.033 129.623 136.026  1.00  0.00    -0.504 OA
ATOM     22  H   UNL     1     112.097 129.569 135.631  1.00  0.00     0.293 HD
ENDBRANCH  18  21
ENDBRANCH   3  13
BRANCH  10  23
ATOM     23  O   UNL     1     116.774 129.275 127.073  1.00  0.00    -0.507 OA
ATOM     24  H   UNL     1     116.872 129.241 126.060  1.00  0.00     0.293 HD
ENDBRANCH  10  23
BRANCH  11  25
ATOM     25  O   UNL     1     113.409 132.717 126.696  1.00  0.00    -0.508 OA
ATOM     26  H   UNL     1     112.705 133.327 127.093  1.00  0.00     0.293 HD
ENDBRANCH  11  25
ENDBRANCH   1   2
BRANCH   1  27
ATOM     27  C   UNL     1     116.487 127.510 132.867  1.00  0.00     0.339 C 
ATOM     28  C   UNL     1     116.419 126.333 131.863  1.00  0.00     0.214 C 
ATOM     29  O   UNL     1     117.181 127.155 134.057  1.00  0.00    -0.332 OA
ATOM     30  C   UNL     1     117.810 125.695 131.618  1.00  0.00     0.180 C 
ATOM     31  C   UNL     1     118.522 126.765 133.790  1.00  0.00     0.179 C 
ATOM     32  C   UNL     1     118.565 125.473 132.943  1.00  0.00     0.177 C 
BRANCH  28  33
ATOM     33  O   UNL     1     115.486 125.360 132.275  1.00  0.00    -0.384 OA
ATOM     34  H   UNL     1     115.006 125.031 131.469  1.00  0.00     0.211 HD
ENDBRANCH  28  33
BRANCH  30  35
ATOM     35  O   UNL     1     118.583 126.529 130.791  1.00  0.00    -0.387 OA
ATOM     36  H   UNL     1     117.955 127.161 130.348  1.00  0.00     0.211 HD
ENDBRANCH  30  35
BRANCH  31  37
ATOM     37  C   UNL     1     119.268 126.590 135.124  1.00  0.00     0.191 C 
BRANCH  37  38
ATOM     38  O   UNL     1     120.331 125.683 134.981  1.00  0.00    -0.394 OA
ATOM     39  H   UNL     1     120.779 125.896 134.115  1.00  0.00     0.210 HD
ENDBRANCH  37  38
ENDBRANCH  31  37
BRANCH  32  40
ATOM     40  O   UNL     1     117.985 124.400 133.645  1.00  0.00    -0.387 OA
ATOM     41  H   UNL     1     118.695 123.713 133.770  1.00  0.00     0.211 HD
ENDBRANCH  32  40
ENDBRANCH   1  27
TORSDOF 12
ENDMDL
