MODEL 1
REMARK VINA RESULT:    -5.055      0.000      0.000
REMARK INTER + INTRA:          -9.181
REMARK INTER:                  -8.601
REMARK INTRA:                  -0.579
REMARK UNBOUND:                -0.579
REMARK SMILES CCCCCCCCCCCCCC(=O)[O-]
REMARK SMILES IDX 8 1 9 2 10 3 11 4 12 5 13 6 14 7 15 8 16 9 7 10 6 11 5 12
REMARK SMILES IDX 4 13 3 14 2 15 1 16
REMARK H PARENT
REMARK Flexibility Score: inf
ROOT
ATOM      1  C   UNL     1       9.899  53.427  22.932  1.00  0.00     0.000 C 
ENDROOT
BRANCH   1   2
ATOM      2  C   UNL     1      10.479  52.319  22.032  1.00  0.00     0.000 C 
BRANCH   2   3
ATOM      3  C   UNL     1       9.908  50.911  22.280  1.00  0.00     0.000 C 
BRANCH   3   4
ATOM      4  C   UNL     1      10.995  49.865  22.572  1.00  0.00     0.000 C 
BRANCH   4   5
ATOM      5  C   UNL     1      10.403  48.452  22.602  1.00  0.00     0.006 C 
BRANCH   5   6
ATOM      6  C   UNL     1      11.500  47.400  22.800  1.00  0.00     0.053 C 
BRANCH   6   7
ATOM      7  C   UNL     1      12.400  47.789  23.929  1.00  0.00     0.041 C 
ATOM      8  O   UNL     1      13.575  48.180  23.696  1.00  0.00    -0.550 OA
ATOM      9  O   UNL     1      11.928  47.767  25.235  1.00  0.00    -0.550 OA
ENDBRANCH   6   7
ENDBRANCH   5   6
ENDBRANCH   4   5
ENDBRANCH   3   4
ENDBRANCH   2   3
ENDBRANCH   1   2
BRANCH   1  10
ATOM     10  C   UNL     1       8.969  54.388  22.172  1.00  0.00     0.000 C 
BRANCH  10  11
ATOM     11  C   UNL     1       7.484  54.013  22.323  1.00  0.00    -0.000 C 
BRANCH  11  12
ATOM     12  C   UNL     1       6.569  54.862  21.422  1.00  0.00    -0.000 C 
BRANCH  12  13
ATOM     13  C   UNL     1       7.272  56.118  20.882  1.00  0.00    -0.000 C 
BRANCH  13  14
ATOM     14  C   UNL     1       7.361  56.133  19.346  1.00  0.00    -0.000 C 
BRANCH  14  15
ATOM     15  C   UNL     1       7.326  54.721  18.741  1.00  0.00    -0.003 C 
ATOM     16  C   UNL     1       6.781  54.699  17.314  1.00  0.00     0.004 C 
ENDBRANCH  14  15
ENDBRANCH  13  14
ENDBRANCH  12  13
ENDBRANCH  11  12
ENDBRANCH  10  11
ENDBRANCH   1  10
TORSDOF 12
ENDMDL
MODEL 2
REMARK VINA RESULT:    -5.049      3.181      4.368
REMARK INTER + INTRA:          -9.170
REMARK INTER:                  -8.334
REMARK INTRA:                  -0.836
REMARK UNBOUND:                -0.579
REMARK SMILES CCCCCCCCCCCCCC(=O)[O-]
REMARK SMILES IDX 8 1 9 2 10 3 11 4 12 5 13 6 14 7 15 8 16 9 7 10 6 11 5 12
REMARK SMILES IDX 4 13 3 14 2 15 1 16
REMARK H PARENT
REMARK Flexibility Score: inf
ROOT
ATOM      1  C   UNL     1       6.028  54.717  22.002  1.00  0.00     0.000 C 
ENDROOT
BRANCH   1   2
ATOM      2  C   UNL     1       7.133  53.731  22.427  1.00  0.00     0.000 C 
BRANCH   2   3
ATOM      3  C   UNL     1       7.142  53.364  23.921  1.00  0.00     0.000 C 
BRANCH   3   4
ATOM      4  C   UNL     1       8.382  53.889  24.662  1.00  0.00     0.000 C 
BRANCH   4   5
ATOM      5  C   UNL     1       9.309  54.652  23.709  1.00  0.00     0.006 C 
BRANCH   5   6
ATOM      6  C   UNL     1      10.600  53.868  23.453  1.00  0.00     0.053 C 
BRANCH   6   7
ATOM      7  C   UNL     1      10.464  53.022  22.227  1.00  0.00     0.041 C 
ATOM      8  O   UNL     1      10.602  53.535  21.085  1.00  0.00    -0.550 OA
ATOM      9  O   UNL     1      10.234  51.657  22.346  1.00  0.00    -0.550 OA
ENDBRANCH   6   7
ENDBRANCH   5   6
ENDBRANCH   4   5
ENDBRANCH   3   4
ENDBRANCH   2   3
ENDBRANCH   1   2
BRANCH   1  10
ATOM     10  C   UNL     1       6.573  56.113  21.654  1.00  0.00     0.000 C 
BRANCH  10  11
ATOM     11  C   UNL     1       6.098  56.604  20.276  1.00  0.00    -0.000 C 
BRANCH  11  12
ATOM     12  C   UNL     1       7.199  56.503  19.204  1.00  0.00    -0.000 C 
BRANCH  12  13
ATOM     13  C   UNL     1       8.073  55.248  19.371  1.00  0.00    -0.000 C 
BRANCH  13  14
ATOM     14  C   UNL     1       7.787  54.181  18.299  1.00  0.00    -0.000 C 
BRANCH  14  15
ATOM     15  C   UNL     1       6.394  54.339  17.670  1.00  0.00    -0.003 C 
ATOM     16  C   UNL     1       6.446  54.858  16.234  1.00  0.00     0.004 C 
ENDBRANCH  14  15
ENDBRANCH  13  14
ENDBRANCH  12  13
ENDBRANCH  11  12
ENDBRANCH  10  11
ENDBRANCH   1  10
TORSDOF 12
ENDMDL
MODEL 3
REMARK VINA RESULT:    -4.960      6.594      9.952
REMARK INTER + INTRA:          -9.019
REMARK INTER:                  -8.255
REMARK INTRA:                  -0.763
REMARK UNBOUND:                -0.579
REMARK SMILES CCCCCCCCCCCCCC(=O)[O-]
REMARK SMILES IDX 8 1 9 2 10 3 11 4 12 5 13 6 14 7 15 8 16 9 7 10 6 11 5 12
REMARK SMILES IDX 4 13 3 14 2 15 1 16
REMARK H PARENT
REMARK Flexibility Score: inf
ROOT
ATOM      1  C   UNL     1       7.619  56.027  20.611  1.00  0.00     0.000 C 
ENDROOT
BRANCH   1   2
ATOM      2  C   UNL     1       6.290  55.354  21.006  1.00  0.00     0.000 C 
BRANCH   2   3
ATOM      3  C   UNL     1       5.200  56.313  21.519  1.00  0.00     0.000 C 
BRANCH   3   4
ATOM      4  C   UNL     1       4.869  57.434  20.523  1.00  0.00     0.000 C 
BRANCH   4   5
ATOM      5  C   UNL     1       3.554  58.128  20.894  1.00  0.00     0.006 C 
BRANCH   5   6
ATOM      6  C   UNL     1       3.147  59.145  19.823  1.00  0.00     0.053 C 
BRANCH   6   7
ATOM      7  C   UNL     1       2.291  60.217  20.417  1.00  0.00     0.041 C 
ATOM      8  O   UNL     1       1.908  61.187  19.709  1.00  0.00    -0.550 OA
ATOM      9  O   UNL     1       1.873  60.122  21.738  1.00  0.00    -0.550 OA
ENDBRANCH   6   7
ENDBRANCH   5   6
ENDBRANCH   4   5
ENDBRANCH   3   4
ENDBRANCH   2   3
ENDBRANCH   1   2
BRANCH   1  10
ATOM     10  C   UNL     1       8.685  55.018  20.150  1.00  0.00     0.000 C 
BRANCH  10  11
ATOM     11  C   UNL     1       8.713  53.751  21.021  1.00  0.00    -0.000 C 
BRANCH  11  12
ATOM     12  C   UNL     1      10.141  53.358  21.441  1.00  0.00    -0.000 C 
BRANCH  12  13
ATOM     13  C   UNL     1      10.248  53.030  22.940  1.00  0.00    -0.000 C 
BRANCH  13  14
ATOM     14  C   UNL     1      10.285  54.292  23.821  1.00  0.00    -0.000 C 
BRANCH  14  15
ATOM     15  C   UNL     1       9.073  54.389  24.760  1.00  0.00    -0.003 C 
ATOM     16  C   UNL     1       8.046  53.283  24.520  1.00  0.00     0.004 C 
ENDBRANCH  14  15
ENDBRANCH  13  14
ENDBRANCH  12  13
ENDBRANCH  11  12
ENDBRANCH  10  11
ENDBRANCH   1  10
TORSDOF 12
ENDMDL
MODEL 4
REMARK VINA RESULT:    -4.911      4.078      5.534
REMARK INTER + INTRA:          -8.936
REMARK INTER:                  -8.242
REMARK INTRA:                  -0.694
REMARK UNBOUND:                -0.579
REMARK SMILES CCCCCCCCCCCCCC(=O)[O-]
REMARK SMILES IDX 8 1 9 2 10 3 11 4 12 5 13 6 14 7 15 8 16 9 7 10 6 11 5 12
REMARK SMILES IDX 4 13 3 14 2 15 1 16
REMARK H PARENT
REMARK Flexibility Score: inf
ROOT
ATOM      1  C   UNL     1       6.761  54.783  21.418  1.00  0.00     0.000 C 
ENDROOT
BRANCH   1   2
ATOM      2  C   UNL     1       7.801  53.989  20.604  1.00  0.00     0.000 C 
BRANCH   2   3
ATOM      3  C   UNL     1       9.269  54.268  20.972  1.00  0.00     0.000 C 
BRANCH   3   4
ATOM      4  C   UNL     1      10.071  52.990  21.259  1.00  0.00     0.000 C 
BRANCH   4   5
ATOM      5  C   UNL     1      10.223  52.762  22.766  1.00  0.00     0.006 C 
BRANCH   5   6
ATOM      6  C   UNL     1      10.097  54.080  23.537  1.00  0.00     0.053 C 
BRANCH   6   7
ATOM      7  C   UNL     1       9.149  53.927  24.684  1.00  0.00     0.041 C 
ATOM      8  O   UNL     1       9.513  54.229  25.851  1.00  0.00    -0.550 OA
ATOM      9  O   UNL     1       7.847  53.499  24.458  1.00  0.00    -0.550 OA
ENDBRANCH   6   7
ENDBRANCH   5   6
ENDBRANCH   4   5
ENDBRANCH   3   4
ENDBRANCH   2   3
ENDBRANCH   1   2
BRANCH   1  10
ATOM     10  C   UNL     1       6.913  56.305  21.260  1.00  0.00     0.000 C 
BRANCH  10  11
ATOM     11  C   UNL     1       5.797  56.922  20.400  1.00  0.00    -0.000 C 
BRANCH  11  12
ATOM     12  C   UNL     1       4.573  57.338  21.236  1.00  0.00    -0.000 C 
BRANCH  12  13
ATOM     13  C   UNL     1       3.670  58.344  20.502  1.00  0.00    -0.000 C 
BRANCH  13  14
ATOM     14  C   UNL     1       2.734  59.106  21.458  1.00  0.00    -0.000 C 
BRANCH  14  15
ATOM     15  C   UNL     1       2.322  60.480  20.906  1.00  0.00    -0.003 C 
ATOM     16  C   UNL     1       1.436  60.379  19.665  1.00  0.00     0.004 C 
ENDBRANCH  14  15
ENDBRANCH  13  14
ENDBRANCH  12  13
ENDBRANCH  11  12
ENDBRANCH  10  11
ENDBRANCH   1  10
TORSDOF 12
ENDMDL
MODEL 5
REMARK VINA RESULT:    -4.889      6.728     10.369
REMARK INTER + INTRA:          -8.899
REMARK INTER:                  -8.304
REMARK INTRA:                  -0.595
REMARK UNBOUND:                -0.579
REMARK SMILES CCCCCCCCCCCCCC(=O)[O-]
REMARK SMILES IDX 8 1 9 2 10 3 11 4 12 5 13 6 14 7 15 8 16 9 7 10 6 11 5 12
REMARK SMILES IDX 4 13 3 14 2 15 1 16
REMARK H PARENT
REMARK Flexibility Score: inf
ROOT
ATOM      1  C   UNL     1       6.295  56.664  20.354  1.00  0.00     0.000 C 
ENDROOT
BRANCH   1   2
ATOM      2  C   UNL     1       5.052  56.986  21.205  1.00  0.00     0.000 C 
BRANCH   2   3
ATOM      3  C   UNL     1       4.022  57.911  20.532  1.00  0.00     0.000 C 
BRANCH   3   4
ATOM      4  C   UNL     1       3.223  58.753  21.537  1.00  0.00     0.000 C 
BRANCH   4   5
ATOM      5  C   UNL     1       1.762  58.896  21.097  1.00  0.00     0.006 C 
BRANCH   5   6
ATOM      6  C   UNL     1       0.932  59.612  22.168  1.00  0.00     0.053 C 
BRANCH   6   7
ATOM      7  C   UNL     1       0.178  58.620  22.995  1.00  0.00     0.041 C 
ATOM      8  O   UNL     1      -0.212  57.536  22.485  1.00  0.00    -0.550 OA
ATOM      9  O   UNL     1      -0.053  58.870  24.342  1.00  0.00    -0.550 OA
ENDBRANCH   6   7
ENDBRANCH   5   6
ENDBRANCH   4   5
ENDBRANCH   3   4
ENDBRANCH   2   3
ENDBRANCH   1   2
BRANCH   1  10
ATOM     10  C   UNL     1       7.503  56.230  21.201  1.00  0.00     0.000 C 
BRANCH  10  11
ATOM     11  C   UNL     1       7.439  54.745  21.601  1.00  0.00    -0.000 C 
BRANCH  11  12
ATOM     12  C   UNL     1       8.424  53.877  20.797  1.00  0.00    -0.000 C 
BRANCH  12  13
ATOM     13  C   UNL     1       9.860  53.953  21.341  1.00  0.00    -0.000 C 
BRANCH  13  14
ATOM     14  C   UNL     1      10.021  53.232  22.691  1.00  0.00    -0.000 C 
BRANCH  14  15
ATOM     15  C   UNL     1      10.345  54.200  23.840  1.00  0.00    -0.003 C 
ATOM     16  C   UNL     1       9.238  54.266  24.891  1.00  0.00     0.004 C 
ENDBRANCH  14  15
ENDBRANCH  13  14
ENDBRANCH  12  13
ENDBRANCH  11  12
ENDBRANCH  10  11
ENDBRANCH   1  10
TORSDOF 12
ENDMDL
MODEL 6
REMARK VINA RESULT:    -4.833      7.117     10.673
REMARK INTER + INTRA:          -8.803
REMARK INTER:                  -8.188
REMARK INTRA:                  -0.615
REMARK UNBOUND:                -0.579
REMARK SMILES CCCCCCCCCCCCCC(=O)[O-]
REMARK SMILES IDX 8 1 9 2 10 3 11 4 12 5 13 6 14 7 15 8 16 9 7 10 6 11 5 12
REMARK SMILES IDX 4 13 3 14 2 15 1 16
REMARK H PARENT
REMARK Flexibility Score: inf
ROOT
ATOM      1  C   UNL     1       5.598  55.878  20.568  1.00  0.00     0.000 C 
ENDROOT
BRANCH   1   2
ATOM      2  C   UNL     1       4.994  57.101  21.284  1.00  0.00     0.000 C 
BRANCH   2   3
ATOM      3  C   UNL     1       3.885  57.831  20.505  1.00  0.00     0.000 C 
BRANCH   3   4
ATOM      4  C   UNL     1       3.014  58.727  21.398  1.00  0.00     0.000 C 
BRANCH   4   5
ATOM      5  C   UNL     1       2.703  60.058  20.704  1.00  0.00     0.006 C 
BRANCH   5   6
ATOM      6  C   UNL     1       3.041  59.992  19.211  1.00  0.00     0.053 C 
BRANCH   6   7
ATOM      7  C   UNL     1       1.790  59.941  18.393  1.00  0.00     0.041 C 
ATOM      8  O   UNL     1       1.830  59.542  17.198  1.00  0.00    -0.550 OA
ATOM      9  O   UNL     1       0.571  60.286  18.962  1.00  0.00    -0.550 OA
ENDBRANCH   6   7
ENDBRANCH   5   6
ENDBRANCH   4   5
ENDBRANCH   3   4
ENDBRANCH   2   3
ENDBRANCH   1   2
BRANCH   1  10
ATOM     10  C   UNL     1       7.059  56.096  20.141  1.00  0.00     0.000 C 
BRANCH  10  11
ATOM     11  C   UNL     1       8.061  55.676  21.231  1.00  0.00    -0.000 C 
BRANCH  11  12
ATOM     12  C   UNL     1       8.751  54.337  20.910  1.00  0.00    -0.000 C 
BRANCH  12  13
ATOM     13  C   UNL     1       9.503  53.756  22.118  1.00  0.00    -0.000 C 
BRANCH  13  14
ATOM     14  C   UNL     1       9.478  54.693  23.339  1.00  0.00    -0.000 C 
BRANCH  14  15
ATOM     15  C   UNL     1       8.720  54.087  24.530  1.00  0.00    -0.003 C 
ATOM     16  C   UNL     1       7.926  52.837  24.154  1.00  0.00     0.004 C 
ENDBRANCH  14  15
ENDBRANCH  13  14
ENDBRANCH  12  13
ENDBRANCH  11  12
ENDBRANCH  10  11
ENDBRANCH   1  10
TORSDOF 12
ENDMDL
MODEL 7
REMARK VINA RESULT:    -4.801      7.894     11.468
REMARK INTER + INTRA:          -8.749
REMARK INTER:                  -8.149
REMARK INTRA:                  -0.600
REMARK UNBOUND:                -0.579
REMARK SMILES CCCCCCCCCCCCCC(=O)[O-]
REMARK SMILES IDX 8 1 9 2 10 3 11 4 12 5 13 6 14 7 15 8 16 9 7 10 6 11 5 12
REMARK SMILES IDX 4 13 3 14 2 15 1 16
REMARK H PARENT
REMARK Flexibility Score: inf
ROOT
ATOM      1  C   UNL     1       4.506  57.798  20.409  1.00  0.00     0.000 C 
ENDROOT
BRANCH   1   2
ATOM      2  C   UNL     1       3.187  58.317  21.012  1.00  0.00     0.000 C 
BRANCH   2   3
ATOM      3  C   UNL     1       2.873  59.795  20.722  1.00  0.00     0.000 C 
BRANCH   3   4
ATOM      4  C   UNL     1       2.945  60.142  19.227  1.00  0.00     0.000 C 
BRANCH   4   5
ATOM      5  C   UNL     1       1.746  59.564  18.469  1.00  0.00     0.006 C 
BRANCH   5   6
ATOM      6  C   UNL     1       1.960  59.647  16.954  1.00  0.00     0.053 C 
BRANCH   6   7
ATOM      7  C   UNL     1       0.658  59.503  16.232  1.00  0.00     0.041 C 
ATOM      8  O   UNL     1       0.416  58.463  15.564  1.00  0.00    -0.550 OA
ATOM      9  O   UNL     1      -0.309  60.495  16.337  1.00  0.00    -0.550 OA
ENDBRANCH   6   7
ENDBRANCH   5   6
ENDBRANCH   4   5
ENDBRANCH   3   4
ENDBRANCH   2   3
ENDBRANCH   1   2
BRANCH   1  10
ATOM     10  C   UNL     1       5.124  56.648  21.222  1.00  0.00     0.000 C 
BRANCH  10  11
ATOM     11  C   UNL     1       6.660  56.625  21.138  1.00  0.00    -0.000 C 
BRANCH  11  12
ATOM     12  C   UNL     1       7.167  56.307  19.719  1.00  0.00    -0.000 C 
BRANCH  12  13
ATOM     13  C   UNL     1       7.285  54.796  19.459  1.00  0.00    -0.000 C 
BRANCH  13  14
ATOM     14  C   UNL     1       7.783  54.020  20.692  1.00  0.00    -0.000 C 
BRANCH  14  15
ATOM     15  C   UNL     1       9.305  54.124  20.875  1.00  0.00    -0.003 C 
ATOM     16  C   UNL     1       9.872  53.019  21.766  1.00  0.00     0.004 C 
ENDBRANCH  14  15
ENDBRANCH  13  14
ENDBRANCH  12  13
ENDBRANCH  11  12
ENDBRANCH  10  11
ENDBRANCH   1  10
TORSDOF 12
ENDMDL
MODEL 8
REMARK VINA RESULT:    -4.730      2.532      4.283
REMARK INTER + INTRA:          -8.627
REMARK INTER:                  -7.816
REMARK INTRA:                  -0.811
REMARK UNBOUND:                -0.579
REMARK SMILES CCCCCCCCCCCCCC(=O)[O-]
REMARK SMILES IDX 8 1 9 2 10 3 11 4 12 5 13 6 14 7 15 8 16 9 7 10 6 11 5 12
REMARK SMILES IDX 4 13 3 14 2 15 1 16
REMARK H PARENT
REMARK Flexibility Score: inf
ROOT
ATOM      1  C   UNL     1      10.933  49.970  22.489  1.00  0.00     0.000 C 
ENDROOT
BRANCH   1   2
ATOM      2  C   UNL     1      10.266  48.607  22.756  1.00  0.00     0.000 C 
BRANCH   2   3
ATOM      3  C   UNL     1      11.239  47.447  23.033  1.00  0.00     0.000 C 
BRANCH   3   4
ATOM      4  C   UNL     1      12.584  47.915  23.607  1.00  0.00     0.000 C 
BRANCH   4   5
ATOM      5  C   UNL     1      12.861  47.260  24.965  1.00  0.00     0.006 C 
BRANCH   5   6
ATOM      6  C   UNL     1      13.080  48.317  26.052  1.00  0.00     0.053 C 
BRANCH   6   7
ATOM      7  C   UNL     1      13.278  47.667  27.384  1.00  0.00     0.041 C 
ATOM      8  O   UNL     1      12.425  47.823  28.298  1.00  0.00    -0.550 OA
ATOM      9  O   UNL     1      14.378  46.846  27.601  1.00  0.00    -0.550 OA
ENDBRANCH   6   7
ENDBRANCH   5   6
ENDBRANCH   4   5
ENDBRANCH   3   4
ENDBRANCH   2   3
ENDBRANCH   1   2
BRANCH   1  10
ATOM     10  C   UNL     1       9.918  51.118  22.365  1.00  0.00     0.000 C 
BRANCH  10  11
ATOM     11  C   UNL     1      10.588  52.464  22.035  1.00  0.00    -0.000 C 
BRANCH  11  12
ATOM     12  C   UNL     1       9.615  53.460  21.380  1.00  0.00    -0.000 C 
BRANCH  12  13
ATOM     13  C   UNL     1       9.083  54.507  22.373  1.00  0.00    -0.000 C 
BRANCH  13  14
ATOM     14  C   UNL     1       9.925  54.584  23.659  1.00  0.00    -0.000 C 
BRANCH  14  15
ATOM     15  C   UNL     1       9.102  54.270  24.919  1.00  0.00    -0.003 C 
ATOM     16  C   UNL     1       7.958  53.293  24.653  1.00  0.00     0.004 C 
ENDBRANCH  14  15
ENDBRANCH  13  14
ENDBRANCH  12  13
ENDBRANCH  11  12
ENDBRANCH  10  11
ENDBRANCH   1  10
TORSDOF 12
ENDMDL
MODEL 9
REMARK VINA RESULT:    -4.695      1.849      2.619
REMARK INTER + INTRA:          -8.568
REMARK INTER:                  -7.942
REMARK INTRA:                  -0.626
REMARK UNBOUND:                -0.579
REMARK SMILES CCCCCCCCCCCCCC(=O)[O-]
REMARK SMILES IDX 8 1 9 2 10 3 11 4 12 5 13 6 14 7 15 8 16 9 7 10 6 11 5 12
REMARK SMILES IDX 4 13 3 14 2 15 1 16
REMARK H PARENT
REMARK Flexibility Score: inf
ROOT
ATOM      1  C   UNL     1       9.884  52.055  22.753  1.00  0.00     0.000 C 
ENDROOT
BRANCH   1   2
ATOM      2  C   UNL     1      10.314  50.768  22.023  1.00  0.00     0.000 C 
BRANCH   2   3
ATOM      3  C   UNL     1      10.300  49.493  22.884  1.00  0.00     0.000 C 
BRANCH   3   4
ATOM      4  C   UNL     1      11.645  48.751  22.882  1.00  0.00     0.000 C 
BRANCH   4   5
ATOM      5  C   UNL     1      11.442  47.244  23.078  1.00  0.00     0.006 C 
BRANCH   5   6
ATOM      6  C   UNL     1       9.955  46.904  23.224  1.00  0.00     0.053 C 
BRANCH   6   7
ATOM      7  C   UNL     1       9.780  45.455  23.554  1.00  0.00     0.041 C 
ATOM      8  O   UNL     1       8.674  44.889  23.349  1.00  0.00    -0.550 OA
ATOM      9  O   UNL     1      10.852  44.718  24.040  1.00  0.00    -0.550 OA
ENDBRANCH   6   7
ENDBRANCH   5   6
ENDBRANCH   4   5
ENDBRANCH   3   4
ENDBRANCH   2   3
ENDBRANCH   1   2
BRANCH   1  10
ATOM     10  C   UNL     1      10.271  53.333  21.990  1.00  0.00     0.000 C 
BRANCH  10  11
ATOM     11  C   UNL     1       9.264  54.477  22.208  1.00  0.00    -0.000 C 
BRANCH  11  12
ATOM     12  C   UNL     1       7.804  53.990  22.169  1.00  0.00    -0.000 C 
BRANCH  12  13
ATOM     13  C   UNL     1       7.143  54.215  20.799  1.00  0.00    -0.000 C 
BRANCH  13  14
ATOM     14  C   UNL     1       7.848  55.306  19.973  1.00  0.00    -0.000 C 
BRANCH  14  15
ATOM     15  C   UNL     1       7.002  56.583  19.844  1.00  0.00    -0.003 C 
ATOM     16  C   UNL     1       5.878  56.658  20.877  1.00  0.00     0.004 C 
ENDBRANCH  14  15
ENDBRANCH  13  14
ENDBRANCH  12  13
ENDBRANCH  11  12
ENDBRANCH  10  11
ENDBRANCH   1  10
TORSDOF 12
ENDMDL
