MODEL 1
REMARK VINA RESULT:    11.853      0.000      0.000
REMARK INTER + INTRA:          14.567
REMARK INTER:                  12.893
REMARK INTRA:                   1.674
REMARK UNBOUND:                 1.674
REMARK SMILES C[C@@H]1[C@@H](C)CC[C@]2(C(=O)[O-])CC[C@]3(C)C(=CC[C@H]4[C@@]5(C)CC[C@H](O)C(C)(C)[C@H]5CC[C@]43C)[C@@H]12
REMARK SMILES IDX 7 1 6 2 11 3 33 4 5 5 12 6 15 7 2 8 3 9 13 10 16 11 1 12
REMARK SMILES IDX 4 13 14 14 31 15 17 16 18 17 30 18 32 19 19 20 29 21 28 22
REMARK SMILES IDX 21 23 20 24 25 25 22 26 23 27 26 28 27 29 8 30 9 31 10 32
REMARK SMILES IDX 24 33
REMARK H PARENT 24 34
REMARK Flexibility Score: inf
ROOT
ATOM      1  C   UNL     1     -44.745  29.174  -8.112  1.00  0.00     0.017 C 
ATOM      2  C   UNL     1     -44.417  29.309  -9.621  1.00  0.00     0.014 C 
ATOM      3  C   UNL     1     -43.783  30.125  -7.303  1.00  0.00     0.014 C 
ATOM      4  C   UNL     1     -44.489  27.707  -7.660  1.00  0.00     0.030 C 
ATOM      5  C   UNL     1     -45.211  28.314 -10.469  1.00  0.00     0.004 C 
ATOM      6  C   UNL     1     -43.134  29.547  -6.006  1.00  0.00     0.013 C 
ATOM      7  C   UNL     1     -44.777  27.613  -6.152  1.00  0.00    -0.063 C 
ATOM      8  C   UNL     1     -45.131  26.604  -8.576  1.00  0.00    -0.003 C 
ATOM      9  C   UNL     1     -44.850  26.872 -10.087  1.00  0.00    -0.011 C 
ATOM     10  C   UNL     1     -43.894  28.410  -5.196  1.00  0.00    -0.006 C 
ATOM     11  C   UNL     1     -45.786  26.877  -5.647  1.00  0.00    -0.027 C 
ATOM     12  C   UNL     1     -44.585  25.207  -8.193  1.00  0.00     0.008 C 
ATOM     13  C   UNL     1     -45.620  25.905 -11.003  1.00  0.00     0.008 C 
ATOM     14  C   UNL     1     -42.793  27.413  -4.725  1.00  0.00     0.017 C 
ATOM     15  C   UNL     1     -44.784  28.985  -3.958  1.00  0.00    -0.020 C 
ATOM     16  C   UNL     1     -45.906  26.600  -4.178  1.00  0.00     0.032 C 
ATOM     17  C   UNL     1     -45.693  27.851  -3.267  1.00  0.00     0.006 C 
ATOM     18  C   UNL     1     -43.857  29.643  -2.896  1.00  0.00     0.008 C 
ATOM     19  C   UNL     1     -45.747  30.125  -4.484  1.00  0.00     0.012 C 
ATOM     20  C   UNL     1     -45.445  27.519  -1.713  1.00  0.00    -0.025 C 
ATOM     21  C   UNL     1     -44.547  30.002  -1.584  1.00  0.00     0.005 C 
ATOM     22  C   UNL     1     -45.386  28.877  -0.881  1.00  0.00     0.003 C 
ATOM     23  C   UNL     1     -44.154  26.677  -1.456  1.00  0.00     0.010 C 
ATOM     24  C   UNL     1     -46.673  26.663  -1.229  1.00  0.00     0.012 C 
ATOM     25  C   UNL     1     -45.003  28.718   0.660  1.00  0.00    -0.006 C 
ATOM     26  C   UNL     1     -43.779  26.531   0.030  1.00  0.00     0.033 C 
ATOM     27  C   UNL     1     -43.695  27.883   0.771  1.00  0.00     0.120 C 
ATOM     28  C   UNL     1     -46.156  28.064   1.488  1.00  0.00     0.014 C 
ATOM     29  C   UNL     1     -44.778  30.113   1.338  1.00  0.00     0.014 C 
ENDROOT
BRANCH   1  30
ATOM     30  C   UNL     1     -46.199  29.615  -7.910  1.00  0.00     0.048 C 
ATOM     31  O   UNL     1     -46.592  29.973  -6.765  1.00  0.00    -0.550 OA
ATOM     32  O   UNL     1     -47.095  29.698  -8.973  1.00  0.00    -0.550 OA
ENDBRANCH   1  30
BRANCH  27  33
ATOM     33  O   UNL     1     -43.385  27.654   2.125  1.00  0.00    -0.393 OA
ATOM     34  H   UNL     1     -42.713  28.340   2.387  1.00  0.00     0.210 HD
ENDBRANCH  27  33
TORSDOF 2
ENDMDL
MODEL 2
REMARK VINA RESULT:    13.000      1.676      8.074
REMARK INTER + INTRA:          15.814
REMARK INTER:                  15.547
REMARK INTRA:                   0.266
REMARK UNBOUND:                 1.674
REMARK SMILES C[C@@H]1[C@@H](C)CC[C@]2(C(=O)[O-])CC[C@]3(C)C(=CC[C@H]4[C@@]5(C)CC[C@H](O)C(C)(C)[C@H]5CC[C@]43C)[C@@H]12
REMARK SMILES IDX 7 1 6 2 11 3 33 4 5 5 12 6 15 7 2 8 3 9 13 10 16 11 1 12
REMARK SMILES IDX 4 13 14 14 31 15 17 16 18 17 30 18 32 19 19 20 29 21 28 22
REMARK SMILES IDX 21 23 20 24 25 25 22 26 23 27 26 28 27 29 8 30 9 31 10 32
REMARK SMILES IDX 24 33
REMARK H PARENT 24 34
REMARK Flexibility Score: inf
ROOT
ATOM      1  C   UNL     1     -43.624  28.210  -0.800  1.00  0.00     0.017 C 
ATOM      2  C   UNL     1     -43.271  28.699   0.628  1.00  0.00     0.014 C 
ATOM      3  C   UNL     1     -42.398  28.499  -1.746  1.00  0.00     0.014 C 
ATOM      4  C   UNL     1     -44.855  29.005  -1.325  1.00  0.00     0.030 C 
ATOM      5  C   UNL     1     -44.461  28.584   1.581  1.00  0.00     0.004 C 
ATOM      6  C   UNL     1     -42.708  29.103  -3.152  1.00  0.00     0.013 C 
ATOM      7  C   UNL     1     -45.154  28.534  -2.758  1.00  0.00    -0.063 C 
ATOM      8  C   UNL     1     -46.072  29.083  -0.334  1.00  0.00    -0.003 C 
ATOM      9  C   UNL     1     -45.619  29.472   1.107  1.00  0.00    -0.011 C 
ATOM     10  C   UNL     1     -44.108  28.796  -3.838  1.00  0.00    -0.006 C 
ATOM     11  C   UNL     1     -46.286  27.883  -3.090  1.00  0.00    -0.027 C 
ATOM     12  C   UNL     1     -47.108  30.115  -0.842  1.00  0.00     0.008 C 
ATOM     13  C   UNL     1     -46.770  29.378   2.124  1.00  0.00     0.008 C 
ATOM     14  C   UNL     1     -44.549  30.125  -4.523  1.00  0.00     0.017 C 
ATOM     15  C   UNL     1     -44.055  27.545  -4.882  1.00  0.00    -0.020 C 
ATOM     16  C   UNL     1     -46.672  27.647  -4.520  1.00  0.00     0.032 C 
ATOM     17  C   UNL     1     -45.511  27.126  -5.425  1.00  0.00     0.006 C 
ATOM     18  C   UNL     1     -43.121  27.890  -6.078  1.00  0.00     0.008 C 
ATOM     19  C   UNL     1     -43.423  26.285  -4.165  1.00  0.00     0.012 C 
ATOM     20  C   UNL     1     -45.792  27.225  -7.005  1.00  0.00    -0.025 C 
ATOM     21  C   UNL     1     -43.178  26.898  -7.235  1.00  0.00     0.005 C 
ATOM     22  C   UNL     1     -44.596  26.535  -7.802  1.00  0.00     0.003 C 
ATOM     23  C   UNL     1     -45.996  28.689  -7.510  1.00  0.00     0.010 C 
ATOM     24  C   UNL     1     -47.125  26.437  -7.280  1.00  0.00     0.012 C 
ATOM     25  C   UNL     1     -44.662  26.678  -9.390  1.00  0.00    -0.006 C 
ATOM     26  C   UNL     1     -46.050  28.828  -9.042  1.00  0.00     0.033 C 
ATOM     27  C   UNL     1     -44.845  28.179  -9.755  1.00  0.00     0.120 C 
ATOM     28  C   UNL     1     -45.802  25.808 -10.013  1.00  0.00     0.014 C 
ATOM     29  C   UNL     1     -43.351  26.144 -10.065  1.00  0.00     0.014 C 
ENDROOT
BRANCH   1  30
ATOM     30  C   UNL     1     -43.877  26.700  -0.727  1.00  0.00     0.048 C 
ATOM     31  O   UNL     1     -42.954  25.894  -1.030  1.00  0.00    -0.550 OA
ATOM     32  O   UNL     1     -45.084  26.180  -0.268  1.00  0.00    -0.550 OA
ENDBRANCH   1  30
BRANCH  27  33
ATOM     33  O   UNL     1     -44.994  28.321 -11.147  1.00  0.00    -0.393 OA
ATOM     34  H   UNL     1     -45.602  27.592 -11.447  1.00  0.00     0.210 HD
ENDBRANCH  27  33
TORSDOF 2
ENDMDL
