MODEL 1
REMARK VINA RESULT:    -5.318      0.000      0.000
REMARK INTER + INTRA:         -18.014
REMARK INTER:                 -14.024
REMARK INTRA:                  -3.990
REMARK UNBOUND:                -3.990
REMARK SMILES CCCCCCCCCCCCCCCCCCCCCCCCCCCCCC(=O)[O-]
REMARK SMILES IDX 16 1 17 2 18 3 19 4 20 5 21 6 22 7 23 8 24 9 25 10 26 11
REMARK SMILES IDX 27 12 28 13 29 14 30 15 31 16 32 17 15 18 14 19 13 20 12 21
REMARK SMILES IDX 11 22 10 23 9 24 8 25 7 26 6 27 5 28 4 29 3 30 2 31 1 32
REMARK H PARENT
REMARK Flexibility Score: inf
ROOT
ATOM      1  C   UNL     1       9.145   8.895  31.490  1.00  0.00     0.000 C 
ENDROOT
BRANCH   1   2
ATOM      2  C   UNL     1       9.736   8.151  30.276  1.00  0.00     0.000 C 
BRANCH   2   3
ATOM      3  C   UNL     1      10.270   9.052  29.148  1.00  0.00     0.000 C 
BRANCH   3   4
ATOM      4  C   UNL     1      10.585   8.278  27.857  1.00  0.00     0.000 C 
BRANCH   4   5
ATOM      5  C   UNL     1      10.815   6.780  28.131  1.00  0.00     0.000 C 
BRANCH   5   6
ATOM      6  C   UNL     1      10.935   5.944  26.843  1.00  0.00     0.000 C 
BRANCH   6   7
ATOM      7  C   UNL     1      11.012   4.439  27.140  1.00  0.00     0.000 C 
BRANCH   7   8
ATOM      8  C   UNL     1      10.528   4.129  28.564  1.00  0.00     0.000 C 
BRANCH   8   9
ATOM      9  C   UNL     1      11.425   3.103  29.275  1.00  0.00     0.000 C 
BRANCH   9  10
ATOM     10  C   UNL     1      12.132   3.695  30.508  1.00  0.00     0.000 C 
BRANCH  10  11
ATOM     11  C   UNL     1      12.613   2.617  31.494  1.00  0.00     0.000 C 
BRANCH  11  12
ATOM     12  C   UNL     1      11.605   2.253  32.600  1.00  0.00     0.000 C 
BRANCH  12  13
ATOM     13  C   UNL     1      11.915   2.939  33.942  1.00  0.00     0.006 C 
BRANCH  13  14
ATOM     14  C   UNL     1      12.767   4.202  33.768  1.00  0.00     0.053 C 
BRANCH  14  15
ATOM     15  C   UNL     1      12.609   5.147  34.920  1.00  0.00     0.041 C 
ATOM     16  O   UNL     1      13.464   5.166  35.844  1.00  0.00    -0.550 OA
ATOM     17  O   UNL     1      11.507   5.992  34.981  1.00  0.00    -0.550 OA
ENDBRANCH  14  15
ENDBRANCH  13  14
ENDBRANCH  12  13
ENDBRANCH  11  12
ENDBRANCH  10  11
ENDBRANCH   9  10
ENDBRANCH   8   9
ENDBRANCH   7   8
ENDBRANCH   6   7
ENDBRANCH   5   6
ENDBRANCH   4   5
ENDBRANCH   3   4
ENDBRANCH   2   3
ENDBRANCH   1   2
BRANCH   1  18
ATOM     18  C   UNL     1       8.720  10.351  31.229  1.00  0.00     0.000 C 
BRANCH  18  19
ATOM     19  C   UNL     1       7.582  10.816  32.155  1.00  0.00     0.000 C 
BRANCH  19  20
ATOM     20  C   UNL     1       6.277  11.123  31.389  1.00  0.00     0.000 C 
BRANCH  20  21
ATOM     21  C   UNL     1       4.988  10.738  32.138  1.00  0.00     0.000 C 
BRANCH  21  22
ATOM     22  C   UNL     1       3.959  10.039  31.228  1.00  0.00     0.000 C 
BRANCH  22  23
ATOM     23  C   UNL     1       4.544   8.813  30.502  1.00  0.00     0.000 C 
BRANCH  23  24
ATOM     24  C   UNL     1       4.183   8.734  29.000  1.00  0.00    -0.000 C 
BRANCH  24  25
ATOM     25  C   UNL     1       4.979   9.691  28.091  1.00  0.00    -0.000 C 
BRANCH  25  26
ATOM     26  C   UNL     1       6.499   9.499  28.211  1.00  0.00    -0.000 C 
BRANCH  26  27
ATOM     27  C   UNL     1       6.960   8.264  27.421  1.00  0.00    -0.000 C 
BRANCH  27  28
ATOM     28  C   UNL     1       6.941   6.979  28.264  1.00  0.00    -0.000 C 
BRANCH  28  29
ATOM     29  C   UNL     1       7.253   5.721  27.433  1.00  0.00    -0.000 C 
BRANCH  29  30
ATOM     30  C   UNL     1       6.774   5.823  25.970  1.00  0.00    -0.000 C 
BRANCH  30  31
ATOM     31  C   UNL     1       7.907   5.763  24.927  1.00  0.00    -0.003 C 
ATOM     32  C   UNL     1       7.843   6.885  23.892  1.00  0.00     0.004 C 
ENDBRANCH  30  31
ENDBRANCH  29  30
ENDBRANCH  28  29
ENDBRANCH  27  28
ENDBRANCH  26  27
ENDBRANCH  25  26
ENDBRANCH  24  25
ENDBRANCH  23  24
ENDBRANCH  22  23
ENDBRANCH  21  22
ENDBRANCH  20  21
ENDBRANCH  19  20
ENDBRANCH  18  19
ENDBRANCH   1  18
TORSDOF 28
ENDMDL
MODEL 2
REMARK VINA RESULT:    -5.235      2.288      3.061
REMARK INTER + INTRA:         -17.793
REMARK INTER:                 -13.255
REMARK INTRA:                  -4.538
REMARK UNBOUND:                -3.990
REMARK SMILES CCCCCCCCCCCCCCCCCCCCCCCCCCCCCC(=O)[O-]
REMARK SMILES IDX 16 1 17 2 18 3 19 4 20 5 21 6 22 7 23 8 24 9 25 10 26 11
REMARK SMILES IDX 27 12 28 13 29 14 30 15 31 16 32 17 15 18 14 19 13 20 12 21
REMARK SMILES IDX 11 22 10 23 9 24 8 25 7 26 6 27 5 28 4 29 3 30 2 31 1 32
REMARK H PARENT
REMARK Flexibility Score: inf
ROOT
ATOM      1  C   UNL     1       9.182   8.902  30.591  1.00  0.00     0.000 C 
ENDROOT
BRANCH   1   2
ATOM      2  C   UNL     1      10.245   8.727  29.490  1.00  0.00     0.000 C 
BRANCH   2   3
ATOM      3  C   UNL     1      10.490   7.276  29.037  1.00  0.00     0.000 C 
BRANCH   3   4
ATOM      4  C   UNL     1      11.290   7.181  27.727  1.00  0.00     0.000 C 
BRANCH   4   5
ATOM      5  C   UNL     1      12.700   6.606  27.960  1.00  0.00     0.000 C 
BRANCH   5   6
ATOM      6  C   UNL     1      13.404   6.192  26.655  1.00  0.00     0.000 C 
BRANCH   6   7
ATOM      7  C   UNL     1      13.604   4.671  26.567  1.00  0.00     0.000 C 
BRANCH   7   8
ATOM      8  C   UNL     1      15.081   4.295  26.744  1.00  0.00     0.000 C 
BRANCH   8   9
ATOM      9  C   UNL     1      15.274   3.131  27.730  1.00  0.00     0.000 C 
BRANCH   9  10
ATOM     10  C   UNL     1      13.969   2.355  27.985  1.00  0.00     0.000 C 
BRANCH  10  11
ATOM     11  C   UNL     1      13.652   2.198  29.483  1.00  0.00     0.000 C 
BRANCH  11  12
ATOM     12  C   UNL     1      13.056   3.450  30.154  1.00  0.00     0.000 C 
BRANCH  12  13
ATOM     13  C   UNL     1      12.113   3.110  31.322  1.00  0.00     0.006 C 
BRANCH  13  14
ATOM     14  C   UNL     1      11.059   2.065  30.936  1.00  0.00     0.053 C 
BRANCH  14  15
ATOM     15  C   UNL     1      10.871   1.038  32.010  1.00  0.00     0.041 C 
ATOM     16  O   UNL     1      10.122   1.279  32.992  1.00  0.00    -0.550 OA
ATOM     17  O   UNL     1      11.538  -0.180  31.933  1.00  0.00    -0.550 OA
ENDBRANCH  14  15
ENDBRANCH  13  14
ENDBRANCH  12  13
ENDBRANCH  11  12
ENDBRANCH  10  11
ENDBRANCH   9  10
ENDBRANCH   8   9
ENDBRANCH   7   8
ENDBRANCH   6   7
ENDBRANCH   5   6
ENDBRANCH   4   5
ENDBRANCH   3   4
ENDBRANCH   2   3
ENDBRANCH   1   2
BRANCH   1  18
ATOM     18  C   UNL     1       8.598  10.320  30.728  1.00  0.00     0.000 C 
BRANCH  18  19
ATOM     19  C   UNL     1       7.557  10.432  31.856  1.00  0.00     0.000 C 
BRANCH  19  20
ATOM     20  C   UNL     1       6.186  10.932  31.355  1.00  0.00     0.000 C 
BRANCH  20  21
ATOM     21  C   UNL     1       5.014   9.970  31.624  1.00  0.00     0.000 C 
BRANCH  21  22
ATOM     22  C   UNL     1       4.275   9.558  30.335  1.00  0.00     0.000 C 
BRANCH  22  23
ATOM     23  C   UNL     1       5.215   8.944  29.281  1.00  0.00     0.000 C 
BRANCH  23  24
ATOM     24  C   UNL     1       5.374   9.795  27.999  1.00  0.00    -0.000 C 
BRANCH  24  25
ATOM     25  C   UNL     1       6.633   9.483  27.166  1.00  0.00    -0.000 C 
BRANCH  25  26
ATOM     26  C   UNL     1       7.266   8.131  27.529  1.00  0.00    -0.000 C 
BRANCH  26  27
ATOM     27  C   UNL     1       7.366   7.222  26.293  1.00  0.00    -0.000 C 
BRANCH  27  28
ATOM     28  C   UNL     1       7.082   5.747  26.618  1.00  0.00    -0.000 C 
BRANCH  28  29
ATOM     29  C   UNL     1       7.265   5.424  28.112  1.00  0.00    -0.000 C 
BRANCH  29  30
ATOM     30  C   UNL     1       8.356   4.366  28.377  1.00  0.00    -0.000 C 
BRANCH  30  31
ATOM     31  C   UNL     1       9.274   4.086  27.171  1.00  0.00    -0.003 C 
ATOM     32  C   UNL     1      10.406   3.107  27.481  1.00  0.00     0.004 C 
ENDBRANCH  30  31
ENDBRANCH  29  30
ENDBRANCH  28  29
ENDBRANCH  27  28
ENDBRANCH  26  27
ENDBRANCH  25  26
ENDBRANCH  24  25
ENDBRANCH  23  24
ENDBRANCH  22  23
ENDBRANCH  21  22
ENDBRANCH  20  21
ENDBRANCH  19  20
ENDBRANCH  18  19
ENDBRANCH   1  18
TORSDOF 28
ENDMDL
MODEL 3
REMARK VINA RESULT:    -5.231      3.339      8.455
REMARK INTER + INTRA:         -17.783
REMARK INTER:                 -13.460
REMARK INTRA:                  -4.323
REMARK UNBOUND:                -3.990
REMARK SMILES CCCCCCCCCCCCCCCCCCCCCCCCCCCCCC(=O)[O-]
REMARK SMILES IDX 16 1 17 2 18 3 19 4 20 5 21 6 22 7 23 8 24 9 25 10 26 11
REMARK SMILES IDX 27 12 28 13 29 14 30 15 31 16 32 17 15 18 14 19 13 20 12 21
REMARK SMILES IDX 11 22 10 23 9 24 8 25 7 26 6 27 5 28 4 29 3 30 2 31 1 32
REMARK H PARENT
REMARK Flexibility Score: inf
ROOT
ATOM      1  C   UNL     1       8.883   9.364  30.207  1.00  0.00     0.000 C 
ENDROOT
BRANCH   1   2
ATOM      2  C   UNL     1       8.184  10.711  30.471  1.00  0.00     0.000 C 
BRANCH   2   3
ATOM      3  C   UNL     1       7.817  10.985  31.941  1.00  0.00     0.000 C 
BRANCH   3   4
ATOM      4  C   UNL     1       6.464  10.378  32.348  1.00  0.00     0.000 C 
BRANCH   4   5
ATOM      5  C   UNL     1       5.330  10.828  31.408  1.00  0.00     0.000 C 
BRANCH   5   6
ATOM      6  C   UNL     1       4.407   9.672  30.981  1.00  0.00     0.000 C 
BRANCH   6   7
ATOM      7  C   UNL     1       5.114   8.692  30.034  1.00  0.00     0.000 C 
BRANCH   7   8
ATOM      8  C   UNL     1       4.739   8.966  28.571  1.00  0.00     0.000 C 
BRANCH   8   9
ATOM      9  C   UNL     1       5.769   9.861  27.861  1.00  0.00     0.000 C 
BRANCH   9  10
ATOM     10  C   UNL     1       6.738   9.055  26.978  1.00  0.00     0.000 C 
BRANCH  10  11
ATOM     11  C   UNL     1       6.967   7.624  27.497  1.00  0.00     0.000 C 
BRANCH  11  12
ATOM     12  C   UNL     1       6.820   6.518  26.436  1.00  0.00     0.000 C 
BRANCH  12  13
ATOM     13  C   UNL     1       8.148   5.803  26.129  1.00  0.00     0.006 C 
BRANCH  13  14
ATOM     14  C   UNL     1       8.352   5.569  24.627  1.00  0.00     0.053 C 
BRANCH  14  15
ATOM     15  C   UNL     1       8.297   6.848  23.849  1.00  0.00     0.041 C 
ATOM     16  O   UNL     1       7.328   7.080  23.081  1.00  0.00    -0.550 OA
ATOM     17  O   UNL     1       9.328   7.774  23.959  1.00  0.00    -0.550 OA
ENDBRANCH  14  15
ENDBRANCH  13  14
ENDBRANCH  12  13
ENDBRANCH  11  12
ENDBRANCH  10  11
ENDBRANCH   9  10
ENDBRANCH   8   9
ENDBRANCH   7   8
ENDBRANCH   6   7
ENDBRANCH   5   6
ENDBRANCH   4   5
ENDBRANCH   3   4
ENDBRANCH   2   3
ENDBRANCH   1   2
BRANCH   1  18
ATOM     18  C   UNL     1       9.946   9.377  29.093  1.00  0.00     0.000 C 
BRANCH  18  19
ATOM     19  C   UNL     1      10.559   7.990  28.836  1.00  0.00     0.000 C 
BRANCH  19  20
ATOM     20  C   UNL     1      10.931   7.767  27.355  1.00  0.00     0.000 C 
BRANCH  20  21
ATOM     21  C   UNL     1      11.684   6.453  27.074  1.00  0.00     0.000 C 
BRANCH  21  22
ATOM     22  C   UNL     1      13.048   6.385  27.789  1.00  0.00     0.000 C 
BRANCH  22  23
ATOM     23  C   UNL     1      13.855   5.128  27.415  1.00  0.00     0.000 C 
BRANCH  23  24
ATOM     24  C   UNL     1      14.969   4.765  28.424  1.00  0.00    -0.000 C 
BRANCH  24  25
ATOM     25  C   UNL     1      14.887   5.506  29.774  1.00  0.00    -0.000 C 
BRANCH  25  26
ATOM     26  C   UNL     1      14.480   4.584  30.934  1.00  0.00    -0.000 C 
BRANCH  26  27
ATOM     27  C   UNL     1      12.950   4.481  31.042  1.00  0.00    -0.000 C 
BRANCH  27  28
ATOM     28  C   UNL     1      12.486   3.132  31.616  1.00  0.00    -0.000 C 
BRANCH  28  29
ATOM     29  C   UNL     1      11.823   2.235  30.555  1.00  0.00    -0.000 C 
BRANCH  29  30
ATOM     30  C   UNL     1      11.719   2.904  29.169  1.00  0.00    -0.000 C 
BRANCH  30  31
ATOM     31  C   UNL     1      10.295   3.356  28.789  1.00  0.00    -0.003 C 
ATOM     32  C   UNL     1       9.896   2.979  27.363  1.00  0.00     0.004 C 
ENDBRANCH  30  31
ENDBRANCH  29  30
ENDBRANCH  28  29
ENDBRANCH  27  28
ENDBRANCH  26  27
ENDBRANCH  25  26
ENDBRANCH  24  25
ENDBRANCH  23  24
ENDBRANCH  22  23
ENDBRANCH  21  22
ENDBRANCH  20  21
ENDBRANCH  19  20
ENDBRANCH  18  19
ENDBRANCH   1  18
TORSDOF 28
ENDMDL
MODEL 4
REMARK VINA RESULT:    -5.006      4.019      9.707
REMARK INTER + INTRA:         -17.189
REMARK INTER:                 -12.964
REMARK INTRA:                  -4.225
REMARK UNBOUND:                -3.990
REMARK SMILES CCCCCCCCCCCCCCCCCCCCCCCCCCCCCC(=O)[O-]
REMARK SMILES IDX 16 1 17 2 18 3 19 4 20 5 21 6 22 7 23 8 24 9 25 10 26 11
REMARK SMILES IDX 27 12 28 13 29 14 30 15 31 16 32 17 15 18 14 19 13 20 12 21
REMARK SMILES IDX 11 22 10 23 9 24 8 25 7 26 6 27 5 28 4 29 3 30 2 31 1 32
REMARK H PARENT
REMARK Flexibility Score: inf
ROOT
ATOM      1  C   UNL     1       8.417   4.756  28.361  1.00  0.00     0.000 C 
ENDROOT
BRANCH   1   2
ATOM      2  C   UNL     1       7.243   5.650  27.915  1.00  0.00     0.000 C 
BRANCH   2   3
ATOM      3  C   UNL     1       7.076   6.960  28.707  1.00  0.00     0.000 C 
BRANCH   3   4
ATOM      4  C   UNL     1       6.108   7.949  28.037  1.00  0.00     0.000 C 
BRANCH   4   5
ATOM      5  C   UNL     1       6.696   9.371  27.974  1.00  0.00     0.000 C 
BRANCH   5   6
ATOM      6  C   UNL     1       6.764  10.055  29.351  1.00  0.00     0.000 C 
BRANCH   6   7
ATOM      7  C   UNL     1       8.194  10.487  29.708  1.00  0.00     0.000 C 
BRANCH   7   8
ATOM      8  C   UNL     1       8.735   9.684  30.899  1.00  0.00     0.000 C 
BRANCH   8   9
ATOM      9  C   UNL     1       9.669   8.545  30.461  1.00  0.00     0.000 C 
BRANCH   9  10
ATOM     10  C   UNL     1      10.326   8.816  29.095  1.00  0.00     0.000 C 
BRANCH  10  11
ATOM     11  C   UNL     1      11.089   7.597  28.549  1.00  0.00     0.000 C 
BRANCH  11  12
ATOM     12  C   UNL     1      10.826   7.278  27.065  1.00  0.00     0.000 C 
BRANCH  12  13
ATOM     13  C   UNL     1       9.801   8.229  26.422  1.00  0.00     0.006 C 
BRANCH  13  14
ATOM     14  C   UNL     1       9.617   7.962  24.923  1.00  0.00     0.053 C 
BRANCH  14  15
ATOM     15  C   UNL     1       8.505   6.993  24.660  1.00  0.00     0.041 C 
ATOM     16  O   UNL     1       8.765   5.806  24.330  1.00  0.00    -0.550 OA
ATOM     17  O   UNL     1       7.182   7.407  24.762  1.00  0.00    -0.550 OA
ENDBRANCH  14  15
ENDBRANCH  13  14
ENDBRANCH  12  13
ENDBRANCH  11  12
ENDBRANCH  10  11
ENDBRANCH   9  10
ENDBRANCH   8   9
ENDBRANCH   7   8
ENDBRANCH   6   7
ENDBRANCH   5   6
ENDBRANCH   4   5
ENDBRANCH   3   4
ENDBRANCH   2   3
ENDBRANCH   1   2
BRANCH   1  18
ATOM     18  C   UNL     1       9.146   4.010  27.229  1.00  0.00     0.000 C 
BRANCH  18  19
ATOM     19  C   UNL     1      10.206   3.023  27.751  1.00  0.00     0.000 C 
BRANCH  19  20
ATOM     20  C   UNL     1      11.605   3.661  27.880  1.00  0.00     0.000 C 
BRANCH  20  21
ATOM     21  C   UNL     1      12.055   3.933  29.327  1.00  0.00     0.000 C 
BRANCH  21  22
ATOM     22  C   UNL     1      12.499   2.652  30.061  1.00  0.00     0.000 C 
BRANCH  22  23
ATOM     23  C   UNL     1      11.438   2.134  31.049  1.00  0.00     0.000 C 
BRANCH  23  24
ATOM     24  C   UNL     1      12.018   1.575  32.369  1.00  0.00    -0.000 C 
BRANCH  24  25
ATOM     25  C   UNL     1      11.377   0.260  32.854  1.00  0.00    -0.000 C 
BRANCH  25  26
ATOM     26  C   UNL     1      11.791  -0.952  32.004  1.00  0.00    -0.000 C 
BRANCH  26  27
ATOM     27  C   UNL     1      13.305  -1.197  32.098  1.00  0.00    -0.000 C 
BRANCH  27  28
ATOM     28  C   UNL     1      13.690  -2.077  33.297  1.00  0.00    -0.000 C 
BRANCH  28  29
ATOM     29  C   UNL     1      13.656  -3.580  32.964  1.00  0.00    -0.000 C 
BRANCH  29  30
ATOM     30  C   UNL     1      12.365  -4.279  33.438  1.00  0.00    -0.000 C 
BRANCH  30  31
ATOM     31  C   UNL     1      11.568  -4.967  32.312  1.00  0.00    -0.003 C 
ATOM     32  C   UNL     1      11.999  -4.540  30.910  1.00  0.00     0.004 C 
ENDBRANCH  30  31
ENDBRANCH  29  30
ENDBRANCH  28  29
ENDBRANCH  27  28
ENDBRANCH  26  27
ENDBRANCH  25  26
ENDBRANCH  24  25
ENDBRANCH  23  24
ENDBRANCH  22  23
ENDBRANCH  21  22
ENDBRANCH  20  21
ENDBRANCH  19  20
ENDBRANCH  18  19
ENDBRANCH   1  18
TORSDOF 28
ENDMDL
MODEL 5
REMARK VINA RESULT:    -4.975      2.815      3.470
REMARK INTER + INTRA:         -17.107
REMARK INTER:                 -13.221
REMARK INTRA:                  -3.886
REMARK UNBOUND:                -3.990
REMARK SMILES CCCCCCCCCCCCCCCCCCCCCCCCCCCCCC(=O)[O-]
REMARK SMILES IDX 16 1 17 2 18 3 19 4 20 5 21 6 22 7 23 8 24 9 25 10 26 11
REMARK SMILES IDX 27 12 28 13 29 14 30 15 31 16 32 17 15 18 14 19 13 20 12 21
REMARK SMILES IDX 11 22 10 23 9 24 8 25 7 26 6 27 5 28 4 29 3 30 2 31 1 32
REMARK H PARENT
REMARK Flexibility Score: inf
ROOT
ATOM      1  C   UNL     1       9.357   8.945  30.386  1.00  0.00     0.000 C 
ENDROOT
BRANCH   1   2
ATOM      2  C   UNL     1      10.178   8.952  29.081  1.00  0.00     0.000 C 
BRANCH   2   3
ATOM      3  C   UNL     1      10.799   7.600  28.688  1.00  0.00     0.000 C 
BRANCH   3   4
ATOM      4  C   UNL     1      11.262   7.554  27.222  1.00  0.00     0.000 C 
BRANCH   4   5
ATOM      5  C   UNL     1      11.777   6.157  26.829  1.00  0.00     0.000 C 
BRANCH   5   6
ATOM      6  C   UNL     1      13.285   6.137  26.517  1.00  0.00     0.000 C 
BRANCH   6   7
ATOM      7  C   UNL     1      14.136   6.145  27.795  1.00  0.00     0.000 C 
BRANCH   7   8
ATOM      8  C   UNL     1      15.206   5.044  27.756  1.00  0.00     0.000 C 
BRANCH   8   9
ATOM      9  C   UNL     1      14.812   3.880  26.833  1.00  0.00     0.000 C 
BRANCH   9  10
ATOM     10  C   UNL     1      14.988   2.508  27.509  1.00  0.00     0.000 C 
BRANCH  10  11
ATOM     11  C   UNL     1      14.614   2.528  29.001  1.00  0.00     0.000 C 
BRANCH  11  12
ATOM     12  C   UNL     1      13.138   2.212  29.305  1.00  0.00     0.000 C 
BRANCH  12  13
ATOM     13  C   UNL     1      12.227   3.448  29.200  1.00  0.00     0.006 C 
BRANCH  13  14
ATOM     14  C   UNL     1      10.763   3.123  29.520  1.00  0.00     0.053 C 
BRANCH  14  15
ATOM     15  C   UNL     1       9.892   3.211  28.305  1.00  0.00     0.041 C 
ATOM     16  O   UNL     1       8.672   3.501  28.420  1.00  0.00    -0.550 OA
ATOM     17  O   UNL     1      10.424   2.953  27.047  1.00  0.00    -0.550 OA
ENDBRANCH  14  15
ENDBRANCH  13  14
ENDBRANCH  12  13
ENDBRANCH  11  12
ENDBRANCH  10  11
ENDBRANCH   9  10
ENDBRANCH   8   9
ENDBRANCH   7   8
ENDBRANCH   6   7
ENDBRANCH   5   6
ENDBRANCH   4   5
ENDBRANCH   3   4
ENDBRANCH   2   3
ENDBRANCH   1   2
BRANCH   1  18
ATOM     18  C   UNL     1       8.775  10.306  30.808  1.00  0.00     0.000 C 
BRANCH  18  19
ATOM     19  C   UNL     1       7.744  10.187  31.945  1.00  0.00     0.000 C 
BRANCH  19  20
ATOM     20  C   UNL     1       6.522  11.107  31.740  1.00  0.00     0.000 C 
BRANCH  20  21
ATOM     21  C   UNL     1       5.182  10.509  32.209  1.00  0.00     0.000 C 
BRANCH  21  22
ATOM     22  C   UNL     1       4.291  10.058  31.035  1.00  0.00     0.000 C 
BRANCH  22  23
ATOM     23  C   UNL     1       4.997   9.056  30.102  1.00  0.00     0.000 C 
BRANCH  23  24
ATOM     24  C   UNL     1       4.843   9.373  28.597  1.00  0.00    -0.000 C 
BRANCH  24  25
ATOM     25  C   UNL     1       6.048  10.091  27.960  1.00  0.00    -0.000 C 
BRANCH  25  26
ATOM     26  C   UNL     1       7.071   9.116  27.356  1.00  0.00    -0.000 C 
BRANCH  26  27
ATOM     27  C   UNL     1       6.478   7.703  27.237  1.00  0.00    -0.000 C 
BRANCH  27  28
ATOM     28  C   UNL     1       7.528   6.600  27.445  1.00  0.00    -0.000 C 
BRANCH  28  29
ATOM     29  C   UNL     1       8.185   6.151  26.128  1.00  0.00    -0.000 C 
BRANCH  29  30
ATOM     30  C   UNL     1       7.276   6.345  24.897  1.00  0.00    -0.000 C 
BRANCH  30  31
ATOM     31  C   UNL     1       8.032   6.689  23.598  1.00  0.00    -0.003 C 
ATOM     32  C   UNL     1       8.275   5.480  22.696  1.00  0.00     0.004 C 
ENDBRANCH  30  31
ENDBRANCH  29  30
ENDBRANCH  28  29
ENDBRANCH  27  28
ENDBRANCH  26  27
ENDBRANCH  25  26
ENDBRANCH  24  25
ENDBRANCH  23  24
ENDBRANCH  22  23
ENDBRANCH  21  22
ENDBRANCH  20  21
ENDBRANCH  19  20
ENDBRANCH  18  19
ENDBRANCH   1  18
TORSDOF 28
ENDMDL
MODEL 6
REMARK VINA RESULT:    -4.969      1.409      2.078
REMARK INTER + INTRA:         -17.092
REMARK INTER:                 -12.804
REMARK INTRA:                  -4.289
REMARK UNBOUND:                -3.990
REMARK SMILES CCCCCCCCCCCCCCCCCCCCCCCCCCCCCC(=O)[O-]
REMARK SMILES IDX 16 1 17 2 18 3 19 4 20 5 21 6 22 7 23 8 24 9 25 10 26 11
REMARK SMILES IDX 27 12 28 13 29 14 30 15 31 16 32 17 15 18 14 19 13 20 12 21
REMARK SMILES IDX 11 22 10 23 9 24 8 25 7 26 6 27 5 28 4 29 3 30 2 31 1 32
REMARK H PARENT
REMARK Flexibility Score: inf
ROOT
ATOM      1  C   UNL     1       9.097   8.939  30.465  1.00  0.00     0.000 C 
ENDROOT
BRANCH   1   2
ATOM      2  C   UNL     1      10.081   8.900  29.279  1.00  0.00     0.000 C 
BRANCH   2   3
ATOM      3  C   UNL     1      10.768   7.543  29.039  1.00  0.00     0.000 C 
BRANCH   3   4
ATOM      4  C   UNL     1      11.611   7.515  27.753  1.00  0.00     0.000 C 
BRANCH   4   5
ATOM      5  C   UNL     1      12.418   6.209  27.628  1.00  0.00     0.000 C 
BRANCH   5   6
ATOM      6  C   UNL     1      13.813   6.299  28.272  1.00  0.00     0.000 C 
BRANCH   6   7
ATOM      7  C   UNL     1      13.979   5.300  29.427  1.00  0.00     0.000 C 
BRANCH   7   8
ATOM      8  C   UNL     1      14.656   4.008  28.950  1.00  0.00     0.000 C 
BRANCH   8   9
ATOM      9  C   UNL     1      13.872   2.751  29.361  1.00  0.00     0.000 C 
BRANCH   9  10
ATOM     10  C   UNL     1      12.439   3.075  29.819  1.00  0.00     0.000 C 
BRANCH  10  11
ATOM     11  C   UNL     1      11.878   2.034  30.803  1.00  0.00     0.000 C 
BRANCH  11  12
ATOM     12  C   UNL     1      11.879   2.470  32.280  1.00  0.00     0.000 C 
BRANCH  12  13
ATOM     13  C   UNL     1      13.278   2.863  32.786  1.00  0.00     0.006 C 
BRANCH  13  14
ATOM     14  C   UNL     1      13.351   4.332  33.219  1.00  0.00     0.053 C 
BRANCH  14  15
ATOM     15  C   UNL     1      13.578   4.471  34.693  1.00  0.00     0.041 C 
ATOM     16  O   UNL     1      12.861   5.251  35.373  1.00  0.00    -0.550 OA
ATOM     17  O   UNL     1      14.595   3.753  35.311  1.00  0.00    -0.550 OA
ENDBRANCH  14  15
ENDBRANCH  13  14
ENDBRANCH  12  13
ENDBRANCH  11  12
ENDBRANCH  10  11
ENDBRANCH   9  10
ENDBRANCH   8   9
ENDBRANCH   7   8
ENDBRANCH   6   7
ENDBRANCH   5   6
ENDBRANCH   4   5
ENDBRANCH   3   4
ENDBRANCH   2   3
ENDBRANCH   1   2
BRANCH   1  18
ATOM     18  C   UNL     1       8.592  10.338  30.860  1.00  0.00     0.000 C 
BRANCH  18  19
ATOM     19  C   UNL     1       7.553  10.301  31.994  1.00  0.00     0.000 C 
BRANCH  19  20
ATOM     20  C   UNL     1       6.252  11.050  31.638  1.00  0.00     0.000 C 
BRANCH  20  21
ATOM     21  C   UNL     1       4.959  10.310  32.027  1.00  0.00     0.000 C 
BRANCH  21  22
ATOM     22  C   UNL     1       4.174   9.801  30.802  1.00  0.00     0.000 C 
BRANCH  22  23
ATOM     23  C   UNL     1       4.973   8.786  29.963  1.00  0.00     0.000 C 
BRANCH  23  24
ATOM     24  C   UNL     1       5.007   9.101  28.449  1.00  0.00    -0.000 C 
BRANCH  24  25
ATOM     25  C   UNL     1       6.011  10.196  28.038  1.00  0.00    -0.000 C 
BRANCH  25  26
ATOM     26  C   UNL     1       7.175   9.651  27.196  1.00  0.00    -0.000 C 
BRANCH  26  27
ATOM     27  C   UNL     1       6.819   8.286  26.586  1.00  0.00    -0.000 C 
BRANCH  27  28
ATOM     28  C   UNL     1       7.866   7.205  26.901  1.00  0.00    -0.000 C 
BRANCH  28  29
ATOM     29  C   UNL     1       7.465   6.324  28.098  1.00  0.00    -0.000 C 
BRANCH  29  30
ATOM     30  C   UNL     1       7.755   4.825  27.876  1.00  0.00    -0.000 C 
BRANCH  30  31
ATOM     31  C   UNL     1       9.203   4.516  27.448  1.00  0.00    -0.003 C 
ATOM     32  C   UNL     1       9.585   3.046  27.606  1.00  0.00     0.004 C 
ENDBRANCH  30  31
ENDBRANCH  29  30
ENDBRANCH  28  29
ENDBRANCH  27  28
ENDBRANCH  26  27
ENDBRANCH  25  26
ENDBRANCH  24  25
ENDBRANCH  23  24
ENDBRANCH  22  23
ENDBRANCH  21  22
ENDBRANCH  20  21
ENDBRANCH  19  20
ENDBRANCH  18  19
ENDBRANCH   1  18
TORSDOF 28
ENDMDL
MODEL 7
REMARK VINA RESULT:    -4.943      3.434      5.748
REMARK INTER + INTRA:         -17.023
REMARK INTER:                 -11.503
REMARK INTRA:                  -5.520
REMARK UNBOUND:                -3.990
REMARK SMILES CCCCCCCCCCCCCCCCCCCCCCCCCCCCCC(=O)[O-]
REMARK SMILES IDX 16 1 17 2 18 3 19 4 20 5 21 6 22 7 23 8 24 9 25 10 26 11
REMARK SMILES IDX 27 12 28 13 29 14 30 15 31 16 32 17 15 18 14 19 13 20 12 21
REMARK SMILES IDX 11 22 10 23 9 24 8 25 7 26 6 27 5 28 4 29 3 30 2 31 1 32
REMARK H PARENT
REMARK Flexibility Score: inf
ROOT
ATOM      1  C   UNL     1       8.738   4.422  27.274  1.00  0.00     0.000 C 
ENDROOT
BRANCH   1   2
ATOM      2  C   UNL     1      10.206   4.125  27.633  1.00  0.00     0.000 C 
BRANCH   2   3
ATOM      3  C   UNL     1      10.468   3.803  29.116  1.00  0.00     0.000 C 
BRANCH   3   4
ATOM      4  C   UNL     1      11.489   2.670  29.315  1.00  0.00     0.000 C 
BRANCH   4   5
ATOM      5  C   UNL     1      12.383   2.915  30.544  1.00  0.00     0.000 C 
BRANCH   5   6
ATOM      6  C   UNL     1      12.981   4.333  30.580  1.00  0.00     0.000 C 
BRANCH   6   7
ATOM      7  C   UNL     1      14.188   4.472  29.640  1.00  0.00     0.000 C 
BRANCH   7   8
ATOM      8  C   UNL     1      14.266   5.883  29.042  1.00  0.00     0.000 C 
BRANCH   8   9
ATOM      9  C   UNL     1      14.237   5.869  27.505  1.00  0.00     0.000 C 
BRANCH   9  10
ATOM     10  C   UNL     1      13.621   4.576  26.941  1.00  0.00     0.000 C 
BRANCH  10  11
ATOM     11  C   UNL     1      14.625   3.746  26.122  1.00  0.00     0.000 C 
BRANCH  11  12
ATOM     12  C   UNL     1      14.400   2.223  26.170  1.00  0.00     0.000 C 
BRANCH  12  13
ATOM     13  C   UNL     1      15.224   1.532  27.272  1.00  0.00     0.006 C 
BRANCH  13  14
ATOM     14  C   UNL     1      14.342   0.761  28.262  1.00  0.00     0.053 C 
BRANCH  14  15
ATOM     15  C   UNL     1      14.430  -0.720  28.054  1.00  0.00     0.041 C 
ATOM     16  O   UNL     1      14.226  -1.507  29.015  1.00  0.00    -0.550 OA
ATOM     17  O   UNL     1      14.757  -1.229  26.803  1.00  0.00    -0.550 OA
ENDBRANCH  14  15
ENDBRANCH  13  14
ENDBRANCH  12  13
ENDBRANCH  11  12
ENDBRANCH  10  11
ENDBRANCH   9  10
ENDBRANCH   8   9
ENDBRANCH   7   8
ENDBRANCH   6   7
ENDBRANCH   5   6
ENDBRANCH   4   5
ENDBRANCH   3   4
ENDBRANCH   2   3
ENDBRANCH   1   2
BRANCH   1  18
ATOM     18  C   UNL     1       8.524   5.223  25.977  1.00  0.00     0.000 C 
BRANCH  18  19
ATOM     19  C   UNL     1       7.191   5.993  25.963  1.00  0.00     0.000 C 
BRANCH  19  20
ATOM     20  C   UNL     1       6.811   6.553  27.350  1.00  0.00     0.000 C 
BRANCH  20  21
ATOM     21  C   UNL     1       6.432   8.046  27.358  1.00  0.00     0.000 C 
BRANCH  21  22
ATOM     22  C   UNL     1       5.411   8.393  28.458  1.00  0.00     0.000 C 
BRANCH  22  23
ATOM     23  C   UNL     1       6.023   9.231  29.596  1.00  0.00     0.000 C 
BRANCH  23  24
ATOM     24  C   UNL     1       6.869  10.433  29.114  1.00  0.00    -0.000 C 
BRANCH  24  25
ATOM     25  C   UNL     1       8.352  10.391  29.534  1.00  0.00    -0.000 C 
BRANCH  25  26
ATOM     26  C   UNL     1       8.569   9.688  30.883  1.00  0.00    -0.000 C 
BRANCH  26  27
ATOM     27  C   UNL     1       9.581   8.538  30.746  1.00  0.00    -0.000 C 
BRANCH  27  28
ATOM     28  C   UNL     1       9.532   7.867  29.364  1.00  0.00    -0.000 C 
BRANCH  28  29
ATOM     29  C   UNL     1      10.934   7.568  28.802  1.00  0.00    -0.000 C 
BRANCH  29  30
ATOM     30  C   UNL     1      11.042   7.800  27.280  1.00  0.00    -0.000 C 
BRANCH  30  31
ATOM     31  C   UNL     1       9.928   8.690  26.695  1.00  0.00    -0.003 C 
ATOM     32  C   UNL     1       9.821   8.611  25.173  1.00  0.00     0.004 C 
ENDBRANCH  30  31
ENDBRANCH  29  30
ENDBRANCH  28  29
ENDBRANCH  27  28
ENDBRANCH  26  27
ENDBRANCH  25  26
ENDBRANCH  24  25
ENDBRANCH  23  24
ENDBRANCH  22  23
ENDBRANCH  21  22
ENDBRANCH  20  21
ENDBRANCH  19  20
ENDBRANCH  18  19
ENDBRANCH   1  18
TORSDOF 28
ENDMDL
MODEL 8
REMARK VINA RESULT:    -4.905      2.686      8.923
REMARK INTER + INTRA:         -16.923
REMARK INTER:                 -13.009
REMARK INTRA:                  -3.914
REMARK UNBOUND:                -3.990
REMARK SMILES CCCCCCCCCCCCCCCCCCCCCCCCCCCCCC(=O)[O-]
REMARK SMILES IDX 16 1 17 2 18 3 19 4 20 5 21 6 22 7 23 8 24 9 25 10 26 11
REMARK SMILES IDX 27 12 28 13 29 14 30 15 31 16 32 17 15 18 14 19 13 20 12 21
REMARK SMILES IDX 11 22 10 23 9 24 8 25 7 26 6 27 5 28 4 29 3 30 2 31 1 32
REMARK H PARENT
REMARK Flexibility Score: inf
ROOT
ATOM      1  C   UNL     1      11.488   6.585  27.051  1.00  0.00     0.000 C 
ENDROOT
BRANCH   1   2
ATOM      2  C   UNL     1      11.098   7.450  28.266  1.00  0.00     0.000 C 
BRANCH   2   3
ATOM      3  C   UNL     1      10.551   8.849  27.929  1.00  0.00     0.000 C 
BRANCH   3   4
ATOM      4  C   UNL     1       9.781   9.491  29.095  1.00  0.00     0.000 C 
BRANCH   4   5
ATOM      5  C   UNL     1       9.482   8.473  30.212  1.00  0.00     0.000 C 
BRANCH   5   6
ATOM      6  C   UNL     1       9.123   9.139  31.553  1.00  0.00     0.000 C 
BRANCH   6   7
ATOM      7  C   UNL     1       8.334  10.442  31.354  1.00  0.00     0.000 C 
BRANCH   7   8
ATOM      8  C   UNL     1       7.336  10.666  32.499  1.00  0.00     0.000 C 
BRANCH   8   9
ATOM      9  C   UNL     1       5.875  10.589  32.025  1.00  0.00     0.000 C 
BRANCH   9  10
ATOM     10  C   UNL     1       5.759  10.199  30.540  1.00  0.00     0.000 C 
BRANCH  10  11
ATOM     11  C   UNL     1       4.517   9.340  30.246  1.00  0.00     0.000 C 
BRANCH  11  12
ATOM     12  C   UNL     1       4.607   8.487  28.967  1.00  0.00     0.000 C 
BRANCH  12  13
ATOM     13  C   UNL     1       6.055   8.130  28.586  1.00  0.00     0.006 C 
BRANCH  13  14
ATOM     14  C   UNL     1       6.125   6.985  27.568  1.00  0.00     0.053 C 
BRANCH  14  15
ATOM     15  C   UNL     1       7.537   6.662  27.185  1.00  0.00     0.041 C 
ATOM     16  O   UNL     1       8.098   7.289  26.249  1.00  0.00    -0.550 OA
ATOM     17  O   UNL     1       8.226   5.655  27.852  1.00  0.00    -0.550 OA
ENDBRANCH  14  15
ENDBRANCH  13  14
ENDBRANCH  12  13
ENDBRANCH  11  12
ENDBRANCH  10  11
ENDBRANCH   9  10
ENDBRANCH   8   9
ENDBRANCH   7   8
ENDBRANCH   6   7
ENDBRANCH   5   6
ENDBRANCH   4   5
ENDBRANCH   3   4
ENDBRANCH   2   3
ENDBRANCH   1   2
BRANCH   1  18
ATOM     18  C   UNL     1      12.907   6.818  26.502  1.00  0.00     0.000 C 
BRANCH  18  19
ATOM     19  C   UNL     1      14.003   6.238  27.414  1.00  0.00     0.000 C 
BRANCH  19  20
ATOM     20  C   UNL     1      14.890   5.201  26.695  1.00  0.00     0.000 C 
BRANCH  20  21
ATOM     21  C   UNL     1      14.718   3.754  27.193  1.00  0.00     0.000 C 
BRANCH  21  22
ATOM     22  C   UNL     1      13.242   3.313  27.240  1.00  0.00     0.000 C 
BRANCH  22  23
ATOM     23  C   UNL     1      12.908   2.482  28.492  1.00  0.00     0.000 C 
BRANCH  23  24
ATOM     24  C   UNL     1      11.973   3.196  29.497  1.00  0.00    -0.000 C 
BRANCH  24  25
ATOM     25  C   UNL     1      12.518   4.523  30.058  1.00  0.00    -0.000 C 
BRANCH  25  26
ATOM     26  C   UNL     1      13.869   4.357  30.772  1.00  0.00    -0.000 C 
BRANCH  26  27
ATOM     27  C   UNL     1      13.698   3.606  32.102  1.00  0.00    -0.000 C 
BRANCH  27  28
ATOM     28  C   UNL     1      12.638   4.245  33.013  1.00  0.00    -0.000 C 
BRANCH  28  29
ATOM     29  C   UNL     1      12.120   3.275  34.090  1.00  0.00    -0.000 C 
BRANCH  29  30
ATOM     30  C   UNL     1      12.002   1.820  33.593  1.00  0.00    -0.000 C 
BRANCH  30  31
ATOM     31  C   UNL     1      10.564   1.383  33.245  1.00  0.00    -0.003 C 
ATOM     32  C   UNL     1      10.312   1.256  31.744  1.00  0.00     0.004 C 
ENDBRANCH  30  31
ENDBRANCH  29  30
ENDBRANCH  28  29
ENDBRANCH  27  28
ENDBRANCH  26  27
ENDBRANCH  25  26
ENDBRANCH  24  25
ENDBRANCH  23  24
ENDBRANCH  22  23
ENDBRANCH  21  22
ENDBRANCH  20  21
ENDBRANCH  19  20
ENDBRANCH  18  19
ENDBRANCH   1  18
TORSDOF 28
ENDMDL
MODEL 9
REMARK VINA RESULT:    -4.871      3.174      5.275
REMARK INTER + INTRA:         -16.833
REMARK INTER:                 -12.645
REMARK INTRA:                  -4.188
REMARK UNBOUND:                -3.990
REMARK SMILES CCCCCCCCCCCCCCCCCCCCCCCCCCCCCC(=O)[O-]
REMARK SMILES IDX 16 1 17 2 18 3 19 4 20 5 21 6 22 7 23 8 24 9 25 10 26 11
REMARK SMILES IDX 27 12 28 13 29 14 30 15 31 16 32 17 15 18 14 19 13 20 12 21
REMARK SMILES IDX 11 22 10 23 9 24 8 25 7 26 6 27 5 28 4 29 3 30 2 31 1 32
REMARK H PARENT
REMARK Flexibility Score: inf
ROOT
ATOM      1  C   UNL     1       7.686   4.712  27.823  1.00  0.00     0.000 C 
ENDROOT
BRANCH   1   2
ATOM      2  C   UNL     1       8.939   4.333  28.637  1.00  0.00     0.000 C 
BRANCH   2   3
ATOM      3  C   UNL     1       9.833   3.252  28.004  1.00  0.00     0.000 C 
BRANCH   3   4
ATOM      4  C   UNL     1      11.137   3.817  27.418  1.00  0.00     0.000 C 
BRANCH   4   5
ATOM      5  C   UNL     1      12.342   3.547  28.339  1.00  0.00     0.000 C 
BRANCH   5   6
ATOM      6  C   UNL     1      11.931   3.220  29.786  1.00  0.00     0.000 C 
BRANCH   6   7
ATOM      7  C   UNL     1      12.744   2.052  30.365  1.00  0.00     0.000 C 
BRANCH   7   8
ATOM      8  C   UNL     1      13.035   2.264  31.857  1.00  0.00     0.000 C 
BRANCH   8   9
ATOM      9  C   UNL     1      11.759   2.217  32.713  1.00  0.00     0.000 C 
BRANCH   9  10
ATOM     10  C   UNL     1      10.928   0.946  32.462  1.00  0.00     0.000 C 
BRANCH  10  11
ATOM     11  C   UNL     1      11.628  -0.331  32.960  1.00  0.00     0.000 C 
BRANCH  11  12
ATOM     12  C   UNL     1      12.013  -1.333  31.855  1.00  0.00     0.000 C 
BRANCH  12  13
ATOM     13  C   UNL     1      13.233  -2.193  32.227  1.00  0.00     0.006 C 
BRANCH  13  14
ATOM     14  C   UNL     1      13.413  -2.327  33.744  1.00  0.00     0.053 C 
BRANCH  14  15
ATOM     15  C   UNL     1      12.655  -3.494  34.297  1.00  0.00     0.041 C 
ATOM     16  O   UNL     1      11.891  -3.342  35.286  1.00  0.00    -0.550 OA
ATOM     17  O   UNL     1      12.808  -4.755  33.731  1.00  0.00    -0.550 OA
ENDBRANCH  14  15
ENDBRANCH  13  14
ENDBRANCH  12  13
ENDBRANCH  11  12
ENDBRANCH  10  11
ENDBRANCH   9  10
ENDBRANCH   8   9
ENDBRANCH   7   8
ENDBRANCH   6   7
ENDBRANCH   5   6
ENDBRANCH   4   5
ENDBRANCH   3   4
ENDBRANCH   2   3
ENDBRANCH   1   2
BRANCH   1  18
ATOM     18  C   UNL     1       7.959   5.386  26.466  1.00  0.00     0.000 C 
BRANCH  18  19
ATOM     19  C   UNL     1       6.947   6.498  26.137  1.00  0.00     0.000 C 
BRANCH  19  20
ATOM     20  C   UNL     1       6.517   7.301  27.383  1.00  0.00     0.000 C 
BRANCH  20  21
ATOM     21  C   UNL     1       6.528   8.830  27.197  1.00  0.00     0.000 C 
BRANCH  21  22
ATOM     22  C   UNL     1       5.566   9.552  28.161  1.00  0.00     0.000 C 
BRANCH  22  23
ATOM     23  C   UNL     1       6.267  10.047  29.440  1.00  0.00     0.000 C 
BRANCH  23  24
ATOM     24  C   UNL     1       7.396  11.074  29.189  1.00  0.00    -0.000 C 
BRANCH  24  25
ATOM     25  C   UNL     1       8.793  10.629  29.665  1.00  0.00    -0.000 C 
BRANCH  25  26
ATOM     26  C   UNL     1       8.750   9.849  30.988  1.00  0.00    -0.000 C 
BRANCH  26  27
ATOM     27  C   UNL     1       9.514   8.520  30.865  1.00  0.00    -0.000 C 
BRANCH  27  28
ATOM     28  C   UNL     1       9.445   7.924  29.450  1.00  0.00    -0.000 C 
BRANCH  28  29
ATOM     29  C   UNL     1      10.828   7.518  28.911  1.00  0.00    -0.000 C 
BRANCH  29  30
ATOM     30  C   UNL     1      10.909   7.530  27.370  1.00  0.00    -0.000 C 
BRANCH  30  31
ATOM     31  C   UNL     1      10.054   8.623  26.699  1.00  0.00    -0.003 C 
ATOM     32  C   UNL     1       9.941   8.464  25.184  1.00  0.00     0.004 C 
ENDBRANCH  30  31
ENDBRANCH  29  30
ENDBRANCH  28  29
ENDBRANCH  27  28
ENDBRANCH  26  27
ENDBRANCH  25  26
ENDBRANCH  24  25
ENDBRANCH  23  24
ENDBRANCH  22  23
ENDBRANCH  21  22
ENDBRANCH  20  21
ENDBRANCH  19  20
ENDBRANCH  18  19
ENDBRANCH   1  18
TORSDOF 28
ENDMDL
