MODEL 1
REMARK VINA RESULT:    -2.991      0.000      0.000
REMARK INTER + INTRA:          -5.888
REMARK INTER:                  -5.440
REMARK INTRA:                  -0.448
REMARK UNBOUND:                -0.448
REMARK SMILES CCCCCCCCCCCCCCCC(=O)[O-]
REMARK SMILES IDX 9 1 10 2 11 3 12 4 13 5 14 6 15 7 16 8 17 9 18 10 8 11 7 12
REMARK SMILES IDX 6 13 5 14 4 15 3 16 2 17 1 18
REMARK H PARENT
REMARK Flexibility Score: inf
ROOT
ATOM      1  C   UNL     1      23.864   1.098  -3.037  1.00  0.00     0.000 C 
ENDROOT
BRANCH   1   2
ATOM      2  C   UNL     1      23.767   2.582  -2.640  1.00  0.00     0.000 C 
BRANCH   2   3
ATOM      3  C   UNL     1      25.093   3.235  -2.197  1.00  0.00     0.000 C 
BRANCH   3   4
ATOM      4  C   UNL     1      25.009   4.740  -1.882  1.00  0.00     0.000 C 
BRANCH   4   5
ATOM      5  C   UNL     1      26.239   5.316  -1.153  1.00  0.00     0.000 C 
BRANCH   5   6
ATOM      6  C   UNL     1      26.486   6.815  -1.441  1.00  0.00     0.006 C 
BRANCH   6   7
ATOM      7  C   UNL     1      27.792   7.355  -0.838  1.00  0.00     0.053 C 
BRANCH   7   8
ATOM      8  C   UNL     1      27.798   8.852  -0.766  1.00  0.00     0.041 C 
ATOM      9  O   UNL     1      27.050   9.450   0.052  1.00  0.00    -0.550 OA
ATOM     10  O   UNL     1      28.615   9.587  -1.616  1.00  0.00    -0.550 OA
ENDBRANCH   7   8
ENDBRANCH   6   7
ENDBRANCH   5   6
ENDBRANCH   4   5
ENDBRANCH   3   4
ENDBRANCH   2   3
ENDBRANCH   1   2
BRANCH   1  11
ATOM     11  C   UNL     1      22.793   0.226  -2.361  1.00  0.00     0.000 C 
BRANCH  11  12
ATOM     12  C   UNL     1      23.201  -1.253  -2.279  1.00  0.00    -0.000 C 
BRANCH  12  13
ATOM     13  C   UNL     1      24.410  -1.585  -3.173  1.00  0.00    -0.000 C 
BRANCH  13  14
ATOM     14  C   UNL     1      25.476  -2.411  -2.436  1.00  0.00    -0.000 C 
BRANCH  14  15
ATOM     15  C   UNL     1      26.149  -3.451  -3.350  1.00  0.00    -0.000 C 
BRANCH  15  16
ATOM     16  C   UNL     1      26.308  -4.819  -2.668  1.00  0.00    -0.000 C 
BRANCH  16  17
ATOM     17  C   UNL     1      27.668  -4.979  -1.973  1.00  0.00    -0.003 C 
ATOM     18  C   UNL     1      27.567  -4.656  -0.485  1.00  0.00     0.004 C 
ENDBRANCH  16  17
ENDBRANCH  15  16
ENDBRANCH  14  15
ENDBRANCH  13  14
ENDBRANCH  12  13
ENDBRANCH  11  12
ENDBRANCH   1  11
TORSDOF 14
ENDMDL
MODEL 2
REMARK VINA RESULT:    -2.699      4.969     10.345
REMARK INTER + INTRA:          -5.356
REMARK INTER:                  -4.939
REMARK INTRA:                  -0.417
REMARK UNBOUND:                -0.448
REMARK SMILES CCCCCCCCCCCCCCCC(=O)[O-]
REMARK SMILES IDX 9 1 10 2 11 3 12 4 13 5 14 6 15 7 16 8 17 9 18 10 8 11 7 12
REMARK SMILES IDX 6 13 5 14 4 15 3 16 2 17 1 18
REMARK H PARENT
REMARK Flexibility Score: inf
ROOT
ATOM      1  C   UNL     1      23.711   2.632  -2.579  1.00  0.00     0.000 C 
ENDROOT
BRANCH   1   2
ATOM      2  C   UNL     1      23.865   1.200  -3.122  1.00  0.00     0.000 C 
BRANCH   2   3
ATOM      3  C   UNL     1      22.870   0.168  -2.553  1.00  0.00     0.000 C 
BRANCH   3   4
ATOM      4  C   UNL     1      23.445  -1.245  -2.335  1.00  0.00     0.000 C 
BRANCH   4   5
ATOM      5  C   UNL     1      24.582  -1.634  -3.299  1.00  0.00     0.000 C 
BRANCH   5   6
ATOM      6  C   UNL     1      25.703  -2.465  -2.634  1.00  0.00     0.006 C 
BRANCH   6   7
ATOM      7  C   UNL     1      25.799  -3.907  -3.157  1.00  0.00     0.053 C 
BRANCH   7   8
ATOM      8  C   UNL     1      26.675  -4.759  -2.289  1.00  0.00     0.041 C 
ATOM      9  O   UNL     1      27.013  -5.911  -2.668  1.00  0.00    -0.550 OA
ATOM     10  O   UNL     1      27.100  -4.289  -1.053  1.00  0.00    -0.550 OA
ENDBRANCH   7   8
ENDBRANCH   6   7
ENDBRANCH   5   6
ENDBRANCH   4   5
ENDBRANCH   3   4
ENDBRANCH   2   3
ENDBRANCH   1   2
BRANCH   1  11
ATOM     11  C   UNL     1      25.059   3.300  -2.260  1.00  0.00     0.000 C 
BRANCH  11  12
ATOM     12  C   UNL     1      24.915   4.795  -1.935  1.00  0.00    -0.000 C 
BRANCH  12  13
ATOM     13  C   UNL     1      26.125   5.354  -1.165  1.00  0.00    -0.000 C 
BRANCH  13  14
ATOM     14  C   UNL     1      26.479   6.789  -1.589  1.00  0.00    -0.000 C 
BRANCH  14  15
ATOM     15  C   UNL     1      27.580   7.407  -0.710  1.00  0.00    -0.000 C 
BRANCH  15  16
ATOM     16  C   UNL     1      27.728   8.921  -0.928  1.00  0.00    -0.000 C 
BRANCH  16  17
ATOM     17  C   UNL     1      27.979   9.284  -2.400  1.00  0.00    -0.003 C 
ATOM     18  C   UNL     1      28.510  10.709  -2.533  1.00  0.00     0.004 C 
ENDBRANCH  16  17
ENDBRANCH  15  16
ENDBRANCH  14  15
ENDBRANCH  13  14
ENDBRANCH  12  13
ENDBRANCH  11  12
ENDBRANCH   1  11
TORSDOF 14
ENDMDL
MODEL 3
REMARK VINA RESULT:    -2.668      1.113      2.183
REMARK INTER + INTRA:          -5.299
REMARK INTER:                  -4.829
REMARK INTRA:                  -0.471
REMARK UNBOUND:                -0.448
REMARK SMILES CCCCCCCCCCCCCCCC(=O)[O-]
REMARK SMILES IDX 9 1 10 2 11 3 12 4 13 5 14 6 15 7 16 8 17 9 18 10 8 11 7 12
REMARK SMILES IDX 6 13 5 14 4 15 3 16 2 17 1 18
REMARK H PARENT
REMARK Flexibility Score: inf
ROOT
ATOM      1  C   UNL     1      23.019  -0.859  -2.464  1.00  0.00     0.000 C 
ENDROOT
BRANCH   1   2
ATOM      2  C   UNL     1      22.783   0.661  -2.421  1.00  0.00     0.000 C 
BRANCH   2   3
ATOM      3  C   UNL     1      23.923   1.523  -3.000  1.00  0.00     0.000 C 
BRANCH   3   4
ATOM      4  C   UNL     1      23.865   3.018  -2.634  1.00  0.00     0.000 C 
BRANCH   4   5
ATOM      5  C   UNL     1      25.026   3.512  -1.750  1.00  0.00     0.000 C 
BRANCH   5   6
ATOM      6  C   UNL     1      25.311   5.025  -1.885  1.00  0.00     0.006 C 
BRANCH   6   7
ATOM      7  C   UNL     1      26.491   5.513  -1.032  1.00  0.00     0.053 C 
BRANCH   7   8
ATOM      8  C   UNL     1      26.832   6.945  -1.315  1.00  0.00     0.041 C 
ATOM      9  O   UNL     1      27.796   7.496  -0.721  1.00  0.00    -0.550 OA
ATOM     10  O   UNL     1      26.072   7.677  -2.219  1.00  0.00    -0.550 OA
ENDBRANCH   7   8
ENDBRANCH   6   7
ENDBRANCH   5   6
ENDBRANCH   4   5
ENDBRANCH   3   4
ENDBRANCH   2   3
ENDBRANCH   1   2
BRANCH   1  11
ATOM     11  C   UNL     1      24.215  -1.255  -3.346  1.00  0.00     0.000 C 
BRANCH  11  12
ATOM     12  C   UNL     1      25.002  -2.446  -2.775  1.00  0.00    -0.000 C 
BRANCH  12  13
ATOM     13  C   UNL     1      25.948  -3.082  -3.809  1.00  0.00    -0.000 C 
BRANCH  13  14
ATOM     14  C   UNL     1      25.930  -4.618  -3.754  1.00  0.00    -0.000 C 
BRANCH  14  15
ATOM     15  C   UNL     1      27.338  -5.228  -3.869  1.00  0.00    -0.000 C 
BRANCH  15  16
ATOM     16  C   UNL     1      28.032  -5.370  -2.505  1.00  0.00    -0.000 C 
BRANCH  16  17
ATOM     17  C   UNL     1      27.098  -5.042  -1.331  1.00  0.00    -0.003 C 
ATOM     18  C   UNL     1      27.893  -4.735  -0.065  1.00  0.00     0.004 C 
ENDBRANCH  16  17
ENDBRANCH  15  16
ENDBRANCH  14  15
ENDBRANCH  13  14
ENDBRANCH  12  13
ENDBRANCH  11  12
ENDBRANCH   1  11
TORSDOF 14
ENDMDL
MODEL 4
REMARK VINA RESULT:    -2.635      5.057     10.050
REMARK INTER + INTRA:          -5.239
REMARK INTER:                  -4.866
REMARK INTRA:                  -0.373
REMARK UNBOUND:                -0.448
REMARK SMILES CCCCCCCCCCCCCCCC(=O)[O-]
REMARK SMILES IDX 9 1 10 2 11 3 12 4 13 5 14 6 15 7 16 8 17 9 18 10 8 11 7 12
REMARK SMILES IDX 6 13 5 14 4 15 3 16 2 17 1 18
REMARK H PARENT
REMARK Flexibility Score: inf
ROOT
ATOM      1  C   UNL     1      22.551   1.074  -2.647  1.00  0.00     0.000 C 
ENDROOT
BRANCH   1   2
ATOM      2  C   UNL     1      22.540  -0.425  -2.995  1.00  0.00     0.000 C 
BRANCH   2   3
ATOM      3  C   UNL     1      23.688  -1.254  -2.381  1.00  0.00     0.000 C 
BRANCH   3   4
ATOM      4  C   UNL     1      24.756  -1.735  -3.381  1.00  0.00     0.000 C 
BRANCH   4   5
ATOM      5  C   UNL     1      25.742  -2.777  -2.819  1.00  0.00     0.000 C 
BRANCH   5   6
ATOM      6  C   UNL     1      25.961  -3.991  -3.752  1.00  0.00     0.006 C 
BRANCH   6   7
ATOM      7  C   UNL     1      26.236  -5.305  -3.004  1.00  0.00     0.053 C 
BRANCH   7   8
ATOM      8  C   UNL     1      27.662  -5.404  -2.553  1.00  0.00     0.041 C 
ATOM      9  O   UNL     1      28.539  -5.875  -3.324  1.00  0.00    -0.550 OA
ATOM     10  O   UNL     1      28.018  -4.996  -1.273  1.00  0.00    -0.550 OA
ENDBRANCH   7   8
ENDBRANCH   6   7
ENDBRANCH   5   6
ENDBRANCH   4   5
ENDBRANCH   3   4
ENDBRANCH   2   3
ENDBRANCH   1   2
BRANCH   1  11
ATOM     11  C   UNL     1      23.934   1.721  -2.832  1.00  0.00     0.000 C 
BRANCH  11  12
ATOM     12  C   UNL     1      23.903   3.246  -2.638  1.00  0.00    -0.000 C 
BRANCH  12  13
ATOM     13  C   UNL     1      25.108   3.767  -1.834  1.00  0.00    -0.000 C 
BRANCH  13  14
ATOM     14  C   UNL     1      25.399   5.251  -2.109  1.00  0.00    -0.000 C 
BRANCH  14  15
ATOM     15  C   UNL     1      26.472   5.824  -1.167  1.00  0.00    -0.000 C 
BRANCH  15  16
ATOM     16  C   UNL     1      26.649   7.342  -1.328  1.00  0.00    -0.000 C 
BRANCH  16  17
ATOM     17  C   UNL     1      28.055   7.818  -0.936  1.00  0.00    -0.003 C 
ATOM     18  C   UNL     1      28.014   9.220  -0.333  1.00  0.00     0.004 C 
ENDBRANCH  16  17
ENDBRANCH  15  16
ENDBRANCH  14  15
ENDBRANCH  13  14
ENDBRANCH  12  13
ENDBRANCH  11  12
ENDBRANCH   1  11
TORSDOF 14
ENDMDL
MODEL 5
REMARK VINA RESULT:    -2.131      4.860      9.713
REMARK INTER + INTRA:          -4.322
REMARK INTER:                  -3.868
REMARK INTRA:                  -0.454
REMARK UNBOUND:                -0.448
REMARK SMILES CCCCCCCCCCCCCCCC(=O)[O-]
REMARK SMILES IDX 9 1 10 2 11 3 12 4 13 5 14 6 15 7 16 8 17 9 18 10 8 11 7 12
REMARK SMILES IDX 6 13 5 14 4 15 3 16 2 17 1 18
REMARK H PARENT
REMARK Flexibility Score: inf
ROOT
ATOM      1  C   UNL     1      22.736  -0.842  -2.657  1.00  0.00     0.000 C 
ENDROOT
BRANCH   1   2
ATOM      2  C   UNL     1      24.181  -1.255  -2.326  1.00  0.00     0.000 C 
BRANCH   2   3
ATOM      3  C   UNL     1      24.909  -2.054  -3.427  1.00  0.00     0.000 C 
BRANCH   3   4
ATOM      4  C   UNL     1      26.013  -3.004  -2.926  1.00  0.00     0.000 C 
BRANCH   4   5
ATOM      5  C   UNL     1      26.037  -4.384  -3.612  1.00  0.00     0.000 C 
BRANCH   5   6
ATOM      6  C   UNL     1      26.649  -5.502  -2.738  1.00  0.00     0.006 C 
BRANCH   6   7
ATOM      7  C   UNL     1      27.954  -5.096  -2.036  1.00  0.00     0.053 C 
BRANCH   7   8
ATOM      8  C   UNL     1      27.779  -4.985  -0.552  1.00  0.00     0.041 C 
ATOM      9  O   UNL     1      28.593  -4.312   0.133  1.00  0.00    -0.550 OA
ATOM     10  O   UNL     1      26.729  -5.642   0.078  1.00  0.00    -0.550 OA
ENDBRANCH   7   8
ENDBRANCH   6   7
ENDBRANCH   5   6
ENDBRANCH   4   5
ENDBRANCH   3   4
ENDBRANCH   2   3
ENDBRANCH   1   2
BRANCH   1  11
ATOM     11  C   UNL     1      22.526   0.681  -2.626  1.00  0.00     0.000 C 
BRANCH  11  12
ATOM     12  C   UNL     1      23.813   1.461  -2.941  1.00  0.00    -0.000 C 
BRANCH  12  13
ATOM     13  C   UNL     1      23.699   2.957  -2.598  1.00  0.00    -0.000 C 
BRANCH  13  14
ATOM     14  C   UNL     1      25.029   3.550  -2.105  1.00  0.00    -0.000 C 
BRANCH  14  15
ATOM     15  C   UNL     1      25.036   5.088  -2.137  1.00  0.00    -0.000 C 
BRANCH  15  16
ATOM     16  C   UNL     1      26.165   5.691  -1.287  1.00  0.00    -0.000 C 
BRANCH  16  17
ATOM     17  C   UNL     1      26.514   7.128  -1.702  1.00  0.00    -0.003 C 
ATOM     18  C   UNL     1      27.629   7.697  -0.828  1.00  0.00     0.004 C 
ENDBRANCH  16  17
ENDBRANCH  15  16
ENDBRANCH  14  15
ENDBRANCH  13  14
ENDBRANCH  12  13
ENDBRANCH  11  12
ENDBRANCH   1  11
TORSDOF 14
ENDMDL
MODEL 6
REMARK VINA RESULT:    -1.504      2.549      3.838
REMARK INTER + INTRA:          -3.184
REMARK INTER:                  -2.518
REMARK INTRA:                  -0.665
REMARK UNBOUND:                -0.448
REMARK SMILES CCCCCCCCCCCCCCCC(=O)[O-]
REMARK SMILES IDX 9 1 10 2 11 3 12 4 13 5 14 6 15 7 16 8 17 9 18 10 8 11 7 12
REMARK SMILES IDX 6 13 5 14 4 15 3 16 2 17 1 18
REMARK H PARENT
REMARK Flexibility Score: inf
ROOT
ATOM      1  C   UNL     1      24.192  -1.512  -3.324  1.00  0.00     0.000 C 
ENDROOT
BRANCH   1   2
ATOM      2  C   UNL     1      23.219  -1.089  -2.209  1.00  0.00     0.000 C 
BRANCH   2   3
ATOM      3  C   UNL     1      22.421   0.203  -2.485  1.00  0.00     0.000 C 
BRANCH   3   4
ATOM      4  C   UNL     1      23.164   1.267  -3.315  1.00  0.00     0.000 C 
BRANCH   4   5
ATOM      5  C   UNL     1      24.007   2.258  -2.488  1.00  0.00     0.000 C 
BRANCH   5   6
ATOM      6  C   UNL     1      23.599   3.736  -2.685  1.00  0.00     0.006 C 
BRANCH   6   7
ATOM      7  C   UNL     1      24.762   4.727  -2.521  1.00  0.00     0.053 C 
BRANCH   7   8
ATOM      8  C   UNL     1      25.690   4.321  -1.416  1.00  0.00     0.041 C 
ATOM      9  O   UNL     1      25.424   4.623  -0.222  1.00  0.00    -0.550 OA
ATOM     10  O   UNL     1      26.858   3.627  -1.706  1.00  0.00    -0.550 OA
ENDBRANCH   7   8
ENDBRANCH   6   7
ENDBRANCH   5   6
ENDBRANCH   4   5
ENDBRANCH   3   4
ENDBRANCH   2   3
ENDBRANCH   1   2
BRANCH   1  11
ATOM     11  C   UNL     1      25.024  -2.752  -2.954  1.00  0.00     0.000 C 
BRANCH  11  12
ATOM     12  C   UNL     1      26.510  -2.596  -3.317  1.00  0.00    -0.000 C 
BRANCH  12  13
ATOM     13  C   UNL     1      27.101  -3.866  -3.953  1.00  0.00    -0.000 C 
BRANCH  13  14
ATOM     14  C   UNL     1      26.222  -5.105  -3.718  1.00  0.00    -0.000 C 
BRANCH  14  15
ATOM     15  C   UNL     1      26.814  -6.054  -2.661  1.00  0.00    -0.000 C 
BRANCH  15  16
ATOM     16  C   UNL     1      27.906  -5.384  -1.813  1.00  0.00    -0.000 C 
BRANCH  16  17
ATOM     17  C   UNL     1      27.344  -4.712  -0.551  1.00  0.00    -0.003 C 
ATOM     18  C   UNL     1      28.438  -4.492   0.490  1.00  0.00     0.004 C 
ENDBRANCH  16  17
ENDBRANCH  15  16
ENDBRANCH  14  15
ENDBRANCH  13  14
ENDBRANCH  12  13
ENDBRANCH  11  12
ENDBRANCH   1  11
TORSDOF 14
ENDMDL
MODEL 7
REMARK VINA RESULT:    -1.371      2.512      4.796
REMARK INTER + INTRA:          -2.941
REMARK INTER:                  -2.362
REMARK INTRA:                  -0.579
REMARK UNBOUND:                -0.448
REMARK SMILES CCCCCCCCCCCCCCCC(=O)[O-]
REMARK SMILES IDX 9 1 10 2 11 3 12 4 13 5 14 6 15 7 16 8 17 9 18 10 8 11 7 12
REMARK SMILES IDX 6 13 5 14 4 15 3 16 2 17 1 18
REMARK H PARENT
REMARK Flexibility Score: inf
ROOT
ATOM      1  C   UNL     1      27.189   3.996  -1.116  1.00  0.00     0.000 C 
ENDROOT
BRANCH   1   2
ATOM      2  C   UNL     1      28.001   4.722  -0.028  1.00  0.00     0.000 C 
BRANCH   2   3
ATOM      3  C   UNL     1      28.513   6.125  -0.412  1.00  0.00     0.000 C 
BRANCH   3   4
ATOM      4  C   UNL     1      27.429   7.112  -0.883  1.00  0.00     0.000 C 
BRANCH   4   5
ATOM      5  C   UNL     1      27.796   8.600  -0.719  1.00  0.00     0.000 C 
BRANCH   5   6
ATOM      6  C   UNL     1      28.793   9.115  -1.782  1.00  0.00     0.006 C 
BRANCH   6   7
ATOM      7  C   UNL     1      28.885  10.647  -1.855  1.00  0.00     0.053 C 
BRANCH   7   8
ATOM      8  C   UNL     1      28.324  11.180  -3.139  1.00  0.00     0.041 C 
ATOM      9  O   UNL     1      28.527  12.378  -3.470  1.00  0.00    -0.550 OA
ATOM     10  O   UNL     1      27.559  10.360  -3.959  1.00  0.00    -0.550 OA
ENDBRANCH   7   8
ENDBRANCH   6   7
ENDBRANCH   5   6
ENDBRANCH   4   5
ENDBRANCH   3   4
ENDBRANCH   2   3
ENDBRANCH   1   2
BRANCH   1  11
ATOM     11  C   UNL     1      25.670   4.104  -0.901  1.00  0.00     0.000 C 
BRANCH  11  12
ATOM     12  C   UNL     1      24.928   4.581  -2.159  1.00  0.00    -0.000 C 
BRANCH  12  13
ATOM     13  C   UNL     1      23.820   3.607  -2.600  1.00  0.00    -0.000 C 
BRANCH  13  14
ATOM     14  C   UNL     1      24.248   2.136  -2.476  1.00  0.00    -0.000 C 
BRANCH  14  15
ATOM     15  C   UNL     1      23.307   1.184  -3.235  1.00  0.00    -0.000 C 
BRANCH  15  16
ATOM     16  C   UNL     1      22.507   0.271  -2.293  1.00  0.00    -0.000 C 
BRANCH  16  17
ATOM     17  C   UNL     1      23.095  -1.145  -2.202  1.00  0.00    -0.003 C 
ATOM     18  C   UNL     1      24.303  -1.300  -3.122  1.00  0.00     0.004 C 
ENDBRANCH  16  17
ENDBRANCH  15  16
ENDBRANCH  14  15
ENDBRANCH  13  14
ENDBRANCH  12  13
ENDBRANCH  11  12
ENDBRANCH   1  11
TORSDOF 14
ENDMDL
MODEL 8
REMARK VINA RESULT:    -1.157      1.403      2.677
REMARK INTER + INTRA:          -2.552
REMARK INTER:                  -2.002
REMARK INTRA:                  -0.550
REMARK UNBOUND:                -0.448
REMARK SMILES CCCCCCCCCCCCCCCC(=O)[O-]
REMARK SMILES IDX 9 1 10 2 11 3 12 4 13 5 14 6 15 7 16 8 17 9 18 10 8 11 7 12
REMARK SMILES IDX 6 13 5 14 4 15 3 16 2 17 1 18
REMARK H PARENT
REMARK Flexibility Score: inf
ROOT
ATOM      1  C   UNL     1      25.026   3.263  -2.161  1.00  0.00     0.000 C 
ENDROOT
BRANCH   1   2
ATOM      2  C   UNL     1      25.411   4.606  -1.515  1.00  0.00     0.000 C 
BRANCH   2   3
ATOM      3  C   UNL     1      26.735   4.601  -0.722  1.00  0.00     0.000 C 
BRANCH   3   4
ATOM      4  C   UNL     1      27.498   5.939  -0.712  1.00  0.00     0.000 C 
BRANCH   4   5
ATOM      5  C   UNL     1      26.713   7.133  -1.291  1.00  0.00     0.000 C 
BRANCH   5   6
ATOM      6  C   UNL     1      27.305   8.509  -0.909  1.00  0.00     0.006 C 
BRANCH   6   7
ATOM      7  C   UNL     1      28.680   8.788  -1.535  1.00  0.00     0.053 C 
BRANCH   7   8
ATOM      8  C   UNL     1      28.576   9.663  -2.747  1.00  0.00     0.041 C 
ATOM      9  O   UNL     1      28.353  10.895  -2.622  1.00  0.00    -0.550 OA
ATOM     10  O   UNL     1      28.704   9.113  -4.017  1.00  0.00    -0.550 OA
ENDBRANCH   7   8
ENDBRANCH   6   7
ENDBRANCH   5   6
ENDBRANCH   4   5
ENDBRANCH   3   4
ENDBRANCH   2   3
ENDBRANCH   1   2
BRANCH   1  11
ATOM     11  C   UNL     1      23.609   3.271  -2.758  1.00  0.00     0.000 C 
BRANCH  11  12
ATOM     12  C   UNL     1      23.072   1.855  -3.021  1.00  0.00    -0.000 C 
BRANCH  12  13
ATOM     13  C   UNL     1      24.139   0.766  -2.806  1.00  0.00    -0.000 C 
BRANCH  13  14
ATOM     14  C   UNL     1      23.522  -0.621  -2.565  1.00  0.00    -0.000 C 
BRANCH  14  15
ATOM     15  C   UNL     1      24.276  -1.738  -3.308  1.00  0.00    -0.000 C 
BRANCH  15  16
ATOM     16  C   UNL     1      25.666  -2.007  -2.713  1.00  0.00    -0.000 C 
BRANCH  16  17
ATOM     17  C   UNL     1      25.905  -3.497  -2.422  1.00  0.00    -0.003 C 
ATOM     18  C   UNL     1      26.262  -4.256  -3.696  1.00  0.00     0.004 C 
ENDBRANCH  16  17
ENDBRANCH  15  16
ENDBRANCH  14  15
ENDBRANCH  13  14
ENDBRANCH  12  13
ENDBRANCH  11  12
ENDBRANCH   1  11
TORSDOF 14
ENDMDL
