MODEL 1
REMARK VINA RESULT:     0.075      0.000      0.000
REMARK INTER + INTRA:          -2.506
REMARK INTER:                   0.189
REMARK INTRA:                  -2.695
REMARK UNBOUND:                -2.695
REMARK SMILES CCCCCCCCCCCCCCCCCCCCCCCCCCCC(=O)[O-]
REMARK SMILES IDX 15 1 16 2 17 3 18 4 19 5 20 6 21 7 22 8 23 9 24 10 25 11
REMARK SMILES IDX 26 12 27 13 28 14 29 15 30 16 14 17 13 18 12 19 11 20 10 21
REMARK SMILES IDX 9 22 8 23 7 24 6 25 5 26 4 27 3 28 2 29 1 30
REMARK H PARENT
REMARK Flexibility Score: inf
ROOT
ATOM      1  C   UNL     1      15.842  14.782   8.726  1.00  0.00     0.000 C 
ENDROOT
BRANCH   1   2
ATOM      2  C   UNL     1      16.074  13.837   7.536  1.00  0.00     0.000 C 
BRANCH   2   3
ATOM      3  C   UNL     1      16.456  14.584   6.247  1.00  0.00     0.000 C 
BRANCH   3   4
ATOM      4  C   UNL     1      16.102  16.086   6.272  1.00  0.00     0.000 C 
BRANCH   4   5
ATOM      5  C   UNL     1      14.582  16.328   6.240  1.00  0.00     0.000 C 
BRANCH   5   6
ATOM      6  C   UNL     1      14.075  16.673   4.823  1.00  0.00     0.000 C 
BRANCH   6   7
ATOM      7  C   UNL     1      13.019  15.691   4.290  1.00  0.00     0.000 C 
BRANCH   7   8
ATOM      8  C   UNL     1      12.320  16.197   3.018  1.00  0.00     0.000 C 
BRANCH   8   9
ATOM      9  C   UNL     1      13.237  17.089   2.154  1.00  0.00     0.000 C 
BRANCH   9  10
ATOM     10  C   UNL     1      12.824  17.149   0.671  1.00  0.00     0.000 C 
BRANCH  10  11
ATOM     11  C   UNL     1      12.269  18.509   0.208  1.00  0.00     0.000 C 
BRANCH  11  12
ATOM     12  C   UNL     1      13.204  19.313  -0.720  1.00  0.00     0.006 C 
BRANCH  12  13
ATOM     13  C   UNL     1      13.845  20.548  -0.069  1.00  0.00     0.053 C 
BRANCH  13  14
ATOM     14  C   UNL     1      15.055  21.013  -0.819  1.00  0.00     0.041 C 
ATOM     15  O   UNL     1      16.190  20.977  -0.276  1.00  0.00    -0.550 OA
ATOM     16  O   UNL     1      14.922  21.526  -2.103  1.00  0.00    -0.550 OA
ENDBRANCH  13  14
ENDBRANCH  12  13
ENDBRANCH  11  12
ENDBRANCH  10  11
ENDBRANCH   9  10
ENDBRANCH   8   9
ENDBRANCH   7   8
ENDBRANCH   6   7
ENDBRANCH   5   6
ENDBRANCH   4   5
ENDBRANCH   3   4
ENDBRANCH   2   3
ENDBRANCH   1   2
BRANCH   1  17
ATOM     17  C   UNL     1      14.882  14.193   9.772  1.00  0.00     0.000 C 
BRANCH  17  18
ATOM     18  C   UNL     1      14.156  12.935   9.269  1.00  0.00     0.000 C 
BRANCH  18  19
ATOM     19  C   UNL     1      13.864  11.972  10.428  1.00  0.00     0.000 C 
BRANCH  19  20
ATOM     20  C   UNL     1      13.870  12.669  11.798  1.00  0.00     0.000 C 
BRANCH  20  21
ATOM     21  C   UNL     1      14.636  11.869  12.867  1.00  0.00     0.000 C 
BRANCH  21  22
ATOM     22  C   UNL     1      15.977  11.324  12.346  1.00  0.00    -0.000 C 
BRANCH  22  23
ATOM     23  C   UNL     1      16.972  12.444  11.994  1.00  0.00    -0.000 C 
BRANCH  23  24
ATOM     24  C   UNL     1      17.120  13.480  13.120  1.00  0.00    -0.000 C 
BRANCH  24  25
ATOM     25  C   UNL     1      17.109  14.927  12.597  1.00  0.00    -0.000 C 
BRANCH  25  26
ATOM     26  C   UNL     1      15.781  15.650  12.882  1.00  0.00    -0.000 C 
BRANCH  26  27
ATOM     27  C   UNL     1      15.943  17.178  12.959  1.00  0.00    -0.000 C 
BRANCH  27  28
ATOM     28  C   UNL     1      16.606  17.765  11.702  1.00  0.00    -0.000 C 
BRANCH  28  29
ATOM     29  C   UNL     1      15.615  17.951  10.543  1.00  0.00    -0.003 C 
ATOM     30  C   UNL     1      16.268  18.687   9.376  1.00  0.00     0.004 C 
ENDBRANCH  28  29
ENDBRANCH  27  28
ENDBRANCH  26  27
ENDBRANCH  25  26
ENDBRANCH  24  25
ENDBRANCH  23  24
ENDBRANCH  22  23
ENDBRANCH  21  22
ENDBRANCH  20  21
ENDBRANCH  19  20
ENDBRANCH  18  19
ENDBRANCH  17  18
ENDBRANCH   1  17
TORSDOF 26
ENDMDL
MODEL 2
REMARK VINA RESULT:     1.064      1.153      3.422
REMARK INTER + INTRA:          -0.013
REMARK INTER:                   1.353
REMARK INTRA:                  -1.366
REMARK UNBOUND:                -2.695
REMARK SMILES CCCCCCCCCCCCCCCCCCCCCCCCCCCC(=O)[O-]
REMARK SMILES IDX 15 1 16 2 17 3 18 4 19 5 20 6 21 7 22 8 23 9 24 10 25 11
REMARK SMILES IDX 26 12 27 13 28 14 29 15 30 16 14 17 13 18 12 19 11 20 10 21
REMARK SMILES IDX 9 22 8 23 7 24 6 25 5 26 4 27 3 28 2 29 1 30
REMARK H PARENT
REMARK Flexibility Score: inf
ROOT
ATOM      1  C   UNL     1      17.124  18.103   9.505  1.00  0.00     0.000 C 
ENDROOT
BRANCH   1   2
ATOM      2  C   UNL     1      16.412  17.810   8.175  1.00  0.00     0.000 C 
BRANCH   2   3
ATOM      3  C   UNL     1      15.661  16.467   8.182  1.00  0.00     0.000 C 
BRANCH   3   4
ATOM      4  C   UNL     1      14.460  16.423   7.213  1.00  0.00     0.000 C 
BRANCH   4   5
ATOM      5  C   UNL     1      14.899  16.237   5.749  1.00  0.00     0.000 C 
BRANCH   5   6
ATOM      6  C   UNL     1      13.896  16.863   4.756  1.00  0.00     0.000 C 
BRANCH   6   7
ATOM      7  C   UNL     1      12.776  15.903   4.322  1.00  0.00     0.000 C 
BRANCH   7   8
ATOM      8  C   UNL     1      12.695  15.729   2.797  1.00  0.00     0.000 C 
BRANCH   8   9
ATOM      9  C   UNL     1      13.309  16.921   2.032  1.00  0.00     0.000 C 
BRANCH   9  10
ATOM     10  C   UNL     1      12.521  17.319   0.770  1.00  0.00     0.000 C 
BRANCH  10  11
ATOM     11  C   UNL     1      12.887  18.696   0.184  1.00  0.00     0.000 C 
BRANCH  11  12
ATOM     12  C   UNL     1      14.375  19.084   0.310  1.00  0.00     0.006 C 
BRANCH  12  13
ATOM     13  C   UNL     1      14.696  20.530  -0.097  1.00  0.00     0.053 C 
BRANCH  13  14
ATOM     14  C   UNL     1      16.150  20.717  -0.404  1.00  0.00     0.041 C 
ATOM     15  O   UNL     1      17.003  19.907   0.047  1.00  0.00    -0.550 OA
ATOM     16  O   UNL     1      16.567  21.809  -1.155  1.00  0.00    -0.550 OA
ENDBRANCH  13  14
ENDBRANCH  12  13
ENDBRANCH  11  12
ENDBRANCH  10  11
ENDBRANCH   9  10
ENDBRANCH   8   9
ENDBRANCH   7   8
ENDBRANCH   6   7
ENDBRANCH   5   6
ENDBRANCH   4   5
ENDBRANCH   3   4
ENDBRANCH   2   3
ENDBRANCH   1   2
BRANCH   1  17
ATOM     17  C   UNL     1      16.983  16.956  10.518  1.00  0.00     0.000 C 
BRANCH  17  18
ATOM     18  C   UNL     1      16.064  17.314  11.696  1.00  0.00     0.000 C 
BRANCH  18  19
ATOM     19  C   UNL     1      16.604  16.728  13.009  1.00  0.00     0.000 C 
BRANCH  19  20
ATOM     20  C   UNL     1      16.561  15.192  13.038  1.00  0.00     0.000 C 
BRANCH  20  21
ATOM     21  C   UNL     1      15.364  14.618  12.259  1.00  0.00     0.000 C 
BRANCH  21  22
ATOM     22  C   UNL     1      14.482  13.702  13.125  1.00  0.00    -0.000 C 
BRANCH  22  23
ATOM     23  C   UNL     1      14.523  12.235  12.660  1.00  0.00    -0.000 C 
BRANCH  23  24
ATOM     24  C   UNL     1      15.938  11.637  12.708  1.00  0.00    -0.000 C 
BRANCH  24  25
ATOM     25  C   UNL     1      16.571  11.504  11.312  1.00  0.00    -0.000 C 
BRANCH  25  26
ATOM     26  C   UNL     1      16.640  12.845  10.563  1.00  0.00    -0.000 C 
BRANCH  26  27
ATOM     27  C   UNL     1      16.040  12.764   9.148  1.00  0.00    -0.000 C 
BRANCH  27  28
ATOM     28  C   UNL     1      14.506  12.652   9.162  1.00  0.00    -0.000 C 
BRANCH  28  29
ATOM     29  C   UNL     1      13.887  12.838   7.768  1.00  0.00    -0.003 C 
ATOM     30  C   UNL     1      14.969  13.003   6.705  1.00  0.00     0.004 C 
ENDBRANCH  28  29
ENDBRANCH  27  28
ENDBRANCH  26  27
ENDBRANCH  25  26
ENDBRANCH  24  25
ENDBRANCH  23  24
ENDBRANCH  22  23
ENDBRANCH  21  22
ENDBRANCH  20  21
ENDBRANCH  19  20
ENDBRANCH  18  19
ENDBRANCH  17  18
ENDBRANCH   1  17
TORSDOF 26
ENDMDL
MODEL 3
REMARK VINA RESULT:     1.154      1.492      4.539
REMARK INTER + INTRA:           0.212
REMARK INTER:                   2.973
REMARK INTRA:                  -2.761
REMARK UNBOUND:                -2.695
REMARK SMILES CCCCCCCCCCCCCCCCCCCCCCCCCCCC(=O)[O-]
REMARK SMILES IDX 15 1 16 2 17 3 18 4 19 5 20 6 21 7 22 8 23 9 24 10 25 11
REMARK SMILES IDX 26 12 27 13 28 14 29 15 30 16 14 17 13 18 12 19 11 20 10 21
REMARK SMILES IDX 9 22 8 23 7 24 6 25 5 26 4 27 3 28 2 29 1 30
REMARK H PARENT
REMARK Flexibility Score: inf
ROOT
ATOM      1  C   UNL     1      15.659  16.444   8.477  1.00  0.00     0.000 C 
ENDROOT
BRANCH   1   2
ATOM      2  C   UNL     1      16.642  15.265   8.550  1.00  0.00     0.000 C 
BRANCH   2   3
ATOM      3  C   UNL     1      17.096  14.778   7.164  1.00  0.00     0.000 C 
BRANCH   3   4
ATOM      4  C   UNL     1      16.671  13.328   6.846  1.00  0.00     0.000 C 
BRANCH   4   5
ATOM      5  C   UNL     1      15.159  13.110   7.027  1.00  0.00     0.000 C 
BRANCH   5   6
ATOM      6  C   UNL     1      14.359  13.496   5.764  1.00  0.00     0.000 C 
BRANCH   6   7
ATOM      7  C   UNL     1      13.468  14.736   5.953  1.00  0.00     0.000 C 
BRANCH   7   8
ATOM      8  C   UNL     1      13.727  15.824   4.899  1.00  0.00     0.000 C 
BRANCH   8   9
ATOM      9  C   UNL     1      12.531  16.016   3.942  1.00  0.00     0.000 C 
BRANCH   9  10
ATOM     10  C   UNL     1      12.929  16.053   2.454  1.00  0.00     0.000 C 
BRANCH  10  11
ATOM     11  C   UNL     1      12.258  17.170   1.631  1.00  0.00     0.000 C 
BRANCH  11  12
ATOM     12  C   UNL     1      12.998  17.556   0.333  1.00  0.00     0.006 C 
BRANCH  12  13
ATOM     13  C   UNL     1      12.992  19.060   0.017  1.00  0.00     0.053 C 
BRANCH  13  14
ATOM     14  C   UNL     1      14.374  19.636   0.007  1.00  0.00     0.041 C 
ATOM     15  O   UNL     1      14.588  20.763  -0.514  1.00  0.00    -0.550 OA
ATOM     16  O   UNL     1      15.434  18.911   0.537  1.00  0.00    -0.550 OA
ENDBRANCH  13  14
ENDBRANCH  12  13
ENDBRANCH  11  12
ENDBRANCH  10  11
ENDBRANCH   9  10
ENDBRANCH   8   9
ENDBRANCH   7   8
ENDBRANCH   6   7
ENDBRANCH   5   6
ENDBRANCH   4   5
ENDBRANCH   3   4
ENDBRANCH   2   3
ENDBRANCH   1   2
BRANCH   1  17
ATOM     17  C   UNL     1      16.366  17.792   8.265  1.00  0.00     0.000 C 
BRANCH  17  18
ATOM     18  C   UNL     1      17.108  18.277   9.519  1.00  0.00     0.000 C 
BRANCH  18  19
ATOM     19  C   UNL     1      16.861  19.774   9.757  1.00  0.00     0.000 C 
BRANCH  19  20
ATOM     20  C   UNL     1      15.584  20.045  10.569  1.00  0.00     0.000 C 
BRANCH  20  21
ATOM     21  C   UNL     1      15.864  20.796  11.883  1.00  0.00     0.000 C 
BRANCH  21  22
ATOM     22  C   UNL     1      15.632  19.918  13.124  1.00  0.00    -0.000 C 
BRANCH  22  23
ATOM     23  C   UNL     1      16.512  18.655  13.125  1.00  0.00    -0.000 C 
BRANCH  23  24
ATOM     24  C   UNL     1      15.688  17.358  13.076  1.00  0.00    -0.000 C 
BRANCH  24  25
ATOM     25  C   UNL     1      16.403  16.231  12.309  1.00  0.00    -0.000 C 
BRANCH  25  26
ATOM     26  C   UNL     1      15.906  14.833  12.713  1.00  0.00    -0.000 C 
BRANCH  26  27
ATOM     27  C   UNL     1      16.152  13.778  11.619  1.00  0.00    -0.000 C 
BRANCH  27  28
ATOM     28  C   UNL     1      15.771  12.359  12.072  1.00  0.00    -0.000 C 
BRANCH  28  29
ATOM     29  C   UNL     1      14.930  11.611  11.026  1.00  0.00    -0.003 C 
ATOM     30  C   UNL     1      13.841  12.513  10.451  1.00  0.00     0.004 C 
ENDBRANCH  28  29
ENDBRANCH  27  28
ENDBRANCH  26  27
ENDBRANCH  25  26
ENDBRANCH  24  25
ENDBRANCH  23  24
ENDBRANCH  22  23
ENDBRANCH  21  22
ENDBRANCH  20  21
ENDBRANCH  19  20
ENDBRANCH  18  19
ENDBRANCH  17  18
ENDBRANCH   1  17
TORSDOF 26
ENDMDL
MODEL 4
REMARK VINA RESULT:     1.284      4.084     11.477
REMARK INTER + INTRA:           0.539
REMARK INTER:                   1.461
REMARK INTRA:                  -0.922
REMARK UNBOUND:                -2.695
REMARK SMILES CCCCCCCCCCCCCCCCCCCCCCCCCCCC(=O)[O-]
REMARK SMILES IDX 15 1 16 2 17 3 18 4 19 5 20 6 21 7 22 8 23 9 24 10 25 11
REMARK SMILES IDX 26 12 27 13 28 14 29 15 30 16 14 17 13 18 12 19 11 20 10 21
REMARK SMILES IDX 9 22 8 23 7 24 6 25 5 26 4 27 3 28 2 29 1 30
REMARK H PARENT
REMARK Flexibility Score: inf
ROOT
ATOM      1  C   UNL     1      14.417  15.849   5.898  1.00  0.00     0.000 C 
ENDROOT
BRANCH   1   2
ATOM      2  C   UNL     1      15.732  16.441   6.429  1.00  0.00     0.000 C 
BRANCH   2   3
ATOM      3  C   UNL     1      16.641  15.386   7.082  1.00  0.00     0.000 C 
BRANCH   3   4
ATOM      4  C   UNL     1      16.088  14.827   8.410  1.00  0.00     0.000 C 
BRANCH   4   5
ATOM      5  C   UNL     1      15.523  15.934   9.319  1.00  0.00     0.000 C 
BRANCH   5   6
ATOM      6  C   UNL     1      16.580  17.009   9.653  1.00  0.00     0.000 C 
BRANCH   6   7
ATOM      7  C   UNL     1      15.994  18.423   9.803  1.00  0.00     0.000 C 
BRANCH   7   8
ATOM      8  C   UNL     1      15.476  18.707  11.223  1.00  0.00     0.000 C 
BRANCH   8   9
ATOM      9  C   UNL     1      16.347  18.048  12.313  1.00  0.00     0.000 C 
BRANCH   9  10
ATOM     10  C   UNL     1      15.610  16.966  13.125  1.00  0.00     0.000 C 
BRANCH  10  11
ATOM     11  C   UNL     1      16.221  15.555  13.031  1.00  0.00     0.000 C 
BRANCH  11  12
ATOM     12  C   UNL     1      15.195  14.405  12.944  1.00  0.00     0.006 C 
BRANCH  12  13
ATOM     13  C   UNL     1      15.494  13.362  11.857  1.00  0.00     0.053 C 
BRANCH  13  14
ATOM     14  C   UNL     1      14.282  12.555  11.506  1.00  0.00     0.041 C 
ATOM     15  O   UNL     1      14.308  11.765  10.526  1.00  0.00    -0.550 OA
ATOM     16  O   UNL     1      13.111  12.705  12.239  1.00  0.00    -0.550 OA
ENDBRANCH  13  14
ENDBRANCH  12  13
ENDBRANCH  11  12
ENDBRANCH  10  11
ENDBRANCH   9  10
ENDBRANCH   8   9
ENDBRANCH   7   8
ENDBRANCH   6   7
ENDBRANCH   5   6
ENDBRANCH   4   5
ENDBRANCH   3   4
ENDBRANCH   2   3
ENDBRANCH   1   2
BRANCH   1  17
ATOM     17  C   UNL     1      13.806  16.687   4.764  1.00  0.00     0.000 C 
BRANCH  17  18
ATOM     18  C   UNL     1      12.984  15.844   3.779  1.00  0.00     0.000 C 
BRANCH  18  19
ATOM     19  C   UNL     1      12.392  16.722   2.666  1.00  0.00     0.000 C 
BRANCH  19  20
ATOM     20  C   UNL     1      13.372  16.952   1.505  1.00  0.00     0.000 C 
BRANCH  20  21
ATOM     21  C   UNL     1      14.561  17.846   1.900  1.00  0.00     0.000 C 
BRANCH  21  22
ATOM     22  C   UNL     1      15.014  18.765   0.754  1.00  0.00    -0.000 C 
BRANCH  22  23
ATOM     23  C   UNL     1      16.531  19.028   0.774  1.00  0.00    -0.000 C 
BRANCH  23  24
ATOM     24  C   UNL     1      16.879  20.507   0.543  1.00  0.00    -0.000 C 
BRANCH  24  25
ATOM     25  C   UNL     1      16.817  20.904  -0.943  1.00  0.00    -0.000 C 
BRANCH  25  26
ATOM     26  C   UNL     1      15.762  21.988  -1.223  1.00  0.00    -0.000 C 
BRANCH  26  27
ATOM     27  C   UNL     1      14.469  21.413  -1.828  1.00  0.00    -0.000 C 
BRANCH  27  28
ATOM     28  C   UNL     1      13.462  20.968  -0.756  1.00  0.00    -0.000 C 
BRANCH  28  29
ATOM     29  C   UNL     1      12.979  19.524  -0.961  1.00  0.00    -0.003 C 
ATOM     30  C   UNL     1      11.559  19.495  -1.521  1.00  0.00     0.004 C 
ENDBRANCH  28  29
ENDBRANCH  27  28
ENDBRANCH  26  27
ENDBRANCH  25  26
ENDBRANCH  24  25
ENDBRANCH  23  24
ENDBRANCH  22  23
ENDBRANCH  21  22
ENDBRANCH  20  21
ENDBRANCH  19  20
ENDBRANCH  18  19
ENDBRANCH  17  18
ENDBRANCH   1  17
TORSDOF 26
ENDMDL
MODEL 5
REMARK VINA RESULT:     1.298      2.127      3.596
REMARK INTER + INTRA:           0.577
REMARK INTER:                   2.460
REMARK INTRA:                  -1.883
REMARK UNBOUND:                -2.695
REMARK SMILES CCCCCCCCCCCCCCCCCCCCCCCCCCCC(=O)[O-]
REMARK SMILES IDX 15 1 16 2 17 3 18 4 19 5 20 6 21 7 22 8 23 9 24 10 25 11
REMARK SMILES IDX 26 12 27 13 28 14 29 15 30 16 14 17 13 18 12 19 11 20 10 21
REMARK SMILES IDX 9 22 8 23 7 24 6 25 5 26 4 27 3 28 2 29 1 30
REMARK H PARENT
REMARK Flexibility Score: inf
ROOT
ATOM      1  C   UNL     1      15.486  15.518   6.592  1.00  0.00     0.000 C 
ENDROOT
BRANCH   1   2
ATOM      2  C   UNL     1      16.017  16.896   6.164  1.00  0.00     0.000 C 
BRANCH   2   3
ATOM      3  C   UNL     1      15.799  17.182   4.669  1.00  0.00     0.000 C 
BRANCH   3   4
ATOM      4  C   UNL     1      17.110  17.308   3.863  1.00  0.00     0.000 C 
BRANCH   4   5
ATOM      5  C   UNL     1      17.125  18.558   2.965  1.00  0.00     0.000 C 
BRANCH   5   6
ATOM      6  C   UNL     1      16.433  18.308   1.607  1.00  0.00     0.000 C 
BRANCH   6   7
ATOM      7  C   UNL     1      17.121  19.012   0.426  1.00  0.00     0.000 C 
BRANCH   7   8
ATOM      8  C   UNL     1      16.977  20.542   0.475  1.00  0.00     0.000 C 
BRANCH   8   9
ATOM      9  C   UNL     1      16.866  21.171  -0.930  1.00  0.00     0.000 C 
BRANCH   9  10
ATOM     10  C   UNL     1      15.415  21.371  -1.406  1.00  0.00     0.000 C 
BRANCH  10  11
ATOM     11  C   UNL     1      14.364  21.419  -0.281  1.00  0.00     0.000 C 
BRANCH  11  12
ATOM     12  C   UNL     1      13.278  20.325  -0.357  1.00  0.00     0.006 C 
BRANCH  12  13
ATOM     13  C   UNL     1      13.802  18.891  -0.188  1.00  0.00     0.053 C 
BRANCH  13  14
ATOM     14  C   UNL     1      12.712  17.936   0.191  1.00  0.00     0.041 C 
ATOM     15  O   UNL     1      12.738  17.355   1.308  1.00  0.00    -0.550 OA
ATOM     16  O   UNL     1      11.688  17.659  -0.706  1.00  0.00    -0.550 OA
ENDBRANCH  13  14
ENDBRANCH  12  13
ENDBRANCH  11  12
ENDBRANCH  10  11
ENDBRANCH   9  10
ENDBRANCH   8   9
ENDBRANCH   7   8
ENDBRANCH   6   7
ENDBRANCH   5   6
ENDBRANCH   4   5
ENDBRANCH   3   4
ENDBRANCH   2   3
ENDBRANCH   1   2
BRANCH   1  17
ATOM     17  C   UNL     1      16.176  14.984   7.857  1.00  0.00     0.000 C 
BRANCH  17  18
ATOM     18  C   UNL     1      15.850  13.509   8.133  1.00  0.00     0.000 C 
BRANCH  18  19
ATOM     19  C   UNL     1      14.422  13.170   7.681  1.00  0.00     0.000 C 
BRANCH  19  20
ATOM     20  C   UNL     1      13.600  12.473   8.777  1.00  0.00     0.000 C 
BRANCH  20  21
ATOM     21  C   UNL     1      14.434  12.153  10.030  1.00  0.00     0.000 C 
BRANCH  21  22
ATOM     22  C   UNL     1      13.957  12.928  11.270  1.00  0.00    -0.000 C 
BRANCH  22  23
ATOM     23  C   UNL     1      15.001  12.931  12.401  1.00  0.00    -0.000 C 
BRANCH  23  24
ATOM     24  C   UNL     1      16.343  13.541  11.966  1.00  0.00    -0.000 C 
BRANCH  24  25
ATOM     25  C   UNL     1      16.825  14.650  12.918  1.00  0.00    -0.000 C 
BRANCH  25  26
ATOM     26  C   UNL     1      15.817  15.805  13.040  1.00  0.00    -0.000 C 
BRANCH  26  27
ATOM     27  C   UNL     1      16.372  17.135  12.502  1.00  0.00    -0.000 C 
BRANCH  27  28
ATOM     28  C   UNL     1      15.857  17.463  11.091  1.00  0.00    -0.000 C 
BRANCH  28  29
ATOM     29  C   UNL     1      15.072  18.782  11.039  1.00  0.00    -0.003 C 
ATOM     30  C   UNL     1      14.388  19.066  12.374  1.00  0.00     0.004 C 
ENDBRANCH  28  29
ENDBRANCH  27  28
ENDBRANCH  26  27
ENDBRANCH  25  26
ENDBRANCH  24  25
ENDBRANCH  23  24
ENDBRANCH  22  23
ENDBRANCH  21  22
ENDBRANCH  20  21
ENDBRANCH  19  20
ENDBRANCH  18  19
ENDBRANCH  17  18
ENDBRANCH   1  17
TORSDOF 26
ENDMDL
MODEL 6
REMARK VINA RESULT:     1.437      3.756     11.223
REMARK INTER + INTRA:           0.925
REMARK INTER:                   1.743
REMARK INTRA:                  -0.817
REMARK UNBOUND:                -2.695
REMARK SMILES CCCCCCCCCCCCCCCCCCCCCCCCCCCC(=O)[O-]
REMARK SMILES IDX 15 1 16 2 17 3 18 4 19 5 20 6 21 7 22 8 23 9 24 10 25 11
REMARK SMILES IDX 26 12 27 13 28 14 29 15 30 16 14 17 13 18 12 19 11 20 10 21
REMARK SMILES IDX 9 22 8 23 7 24 6 25 5 26 4 27 3 28 2 29 1 30
REMARK H PARENT
REMARK Flexibility Score: inf
ROOT
ATOM      1  C   UNL     1      16.400  16.699   5.774  1.00  0.00     0.000 C 
ENDROOT
BRANCH   1   2
ATOM      2  C   UNL     1      17.125  15.812   6.799  1.00  0.00     0.000 C 
BRANCH   2   3
ATOM      3  C   UNL     1      16.521  14.401   6.902  1.00  0.00     0.000 C 
BRANCH   3   4
ATOM      4  C   UNL     1      14.978  14.382   6.857  1.00  0.00     0.000 C 
BRANCH   4   5
ATOM      5  C   UNL     1      14.400  13.006   7.231  1.00  0.00     0.000 C 
BRANCH   5   6
ATOM      6  C   UNL     1      14.046  12.910   8.730  1.00  0.00     0.000 C 
BRANCH   6   7
ATOM      7  C   UNL     1      15.062  13.610   9.649  1.00  0.00     0.000 C 
BRANCH   7   8
ATOM      8  C   UNL     1      14.711  13.475  11.140  1.00  0.00     0.000 C 
BRANCH   8   9
ATOM      9  C   UNL     1      15.836  13.992  12.061  1.00  0.00     0.000 C 
BRANCH   9  10
ATOM     10  C   UNL     1      16.970  14.713  11.309  1.00  0.00     0.000 C 
BRANCH  10  11
ATOM     11  C   UNL     1      16.583  16.075  10.702  1.00  0.00     0.000 C 
BRANCH  11  12
ATOM     12  C   UNL     1      16.278  17.184  11.731  1.00  0.00     0.006 C 
BRANCH  12  13
ATOM     13  C   UNL     1      15.741  18.489  11.125  1.00  0.00     0.053 C 
BRANCH  13  14
ATOM     14  C   UNL     1      14.680  19.110  11.980  1.00  0.00     0.041 C 
ATOM     15  O   UNL     1      14.235  20.256  11.707  1.00  0.00    -0.550 OA
ATOM     16  O   UNL     1      14.210  18.439  13.102  1.00  0.00    -0.550 OA
ENDBRANCH  13  14
ENDBRANCH  12  13
ENDBRANCH  11  12
ENDBRANCH  10  11
ENDBRANCH   9  10
ENDBRANCH   8   9
ENDBRANCH   7   8
ENDBRANCH   6   7
ENDBRANCH   5   6
ENDBRANCH   4   5
ENDBRANCH   3   4
ENDBRANCH   2   3
ENDBRANCH   1   2
BRANCH   1  17
ATOM     17  C   UNL     1      17.125  16.750   4.419  1.00  0.00     0.000 C 
BRANCH  17  18
ATOM     18  C   UNL     1      17.057  18.137   3.763  1.00  0.00     0.000 C 
BRANCH  18  19
ATOM     19  C   UNL     1      17.117  18.022   2.233  1.00  0.00     0.000 C 
BRANCH  19  20
ATOM     20  C   UNL     1      16.152  18.988   1.525  1.00  0.00     0.000 C 
BRANCH  20  21
ATOM     21  C   UNL     1      16.877  20.181   0.877  1.00  0.00     0.000 C 
BRANCH  21  22
ATOM     22  C   UNL     1      16.967  20.056  -0.653  1.00  0.00    -0.000 C 
BRANCH  22  23
ATOM     23  C   UNL     1      16.309  21.242  -1.381  1.00  0.00    -0.000 C 
BRANCH  23  24
ATOM     24  C   UNL     1      15.045  21.747  -0.668  1.00  0.00    -0.000 C 
BRANCH  24  25
ATOM     25  C   UNL     1      14.078  20.607  -0.300  1.00  0.00    -0.000 C 
BRANCH  25  26
ATOM     26  C   UNL     1      13.182  20.188  -1.478  1.00  0.00    -0.000 C 
BRANCH  26  27
ATOM     27  C   UNL     1      12.097  19.177  -1.065  1.00  0.00    -0.000 C 
BRANCH  27  28
ATOM     28  C   UNL     1      12.686  17.900  -0.444  1.00  0.00    -0.000 C 
BRANCH  28  29
ATOM     29  C   UNL     1      12.121  17.608   0.954  1.00  0.00    -0.003 C 
ATOM     30  C   UNL     1      12.977  16.579   1.688  1.00  0.00     0.004 C 
ENDBRANCH  28  29
ENDBRANCH  27  28
ENDBRANCH  26  27
ENDBRANCH  25  26
ENDBRANCH  24  25
ENDBRANCH  23  24
ENDBRANCH  22  23
ENDBRANCH  21  22
ENDBRANCH  20  21
ENDBRANCH  19  20
ENDBRANCH  18  19
ENDBRANCH  17  18
ENDBRANCH   1  17
TORSDOF 26
ENDMDL
MODEL 7
REMARK VINA RESULT:     1.474      3.579     11.499
REMARK INTER + INTRA:           1.020
REMARK INTER:                   3.391
REMARK INTRA:                  -2.371
REMARK UNBOUND:                -2.695
REMARK SMILES CCCCCCCCCCCCCCCCCCCCCCCCCCCC(=O)[O-]
REMARK SMILES IDX 15 1 16 2 17 3 18 4 19 5 20 6 21 7 22 8 23 9 24 10 25 11
REMARK SMILES IDX 26 12 27 13 28 14 29 15 30 16 14 17 13 18 12 19 11 20 10 21
REMARK SMILES IDX 9 22 8 23 7 24 6 25 5 26 4 27 3 28 2 29 1 30
REMARK H PARENT
REMARK Flexibility Score: inf
ROOT
ATOM      1  C   UNL     1      15.438  16.290   5.290  1.00  0.00     0.000 C 
ENDROOT
BRANCH   1   2
ATOM      2  C   UNL     1      15.880  16.375   6.760  1.00  0.00     0.000 C 
BRANCH   2   3
ATOM      3  C   UNL     1      15.358  15.204   7.610  1.00  0.00     0.000 C 
BRANCH   3   4
ATOM      4  C   UNL     1      16.064  13.862   7.316  1.00  0.00     0.000 C 
BRANCH   4   5
ATOM      5  C   UNL     1      15.979  12.886   8.503  1.00  0.00     0.000 C 
BRANCH   5   6
ATOM      6  C   UNL     1      14.859  13.269   9.494  1.00  0.00     0.000 C 
BRANCH   6   7
ATOM      7  C   UNL     1      14.313  12.077  10.297  1.00  0.00     0.000 C 
BRANCH   7   8
ATOM      8  C   UNL     1      13.571  12.505  11.573  1.00  0.00     0.000 C 
BRANCH   8   9
ATOM      9  C   UNL     1      14.294  12.050  12.859  1.00  0.00     0.000 C 
BRANCH   9  10
ATOM     10  C   UNL     1      15.690  11.451  12.606  1.00  0.00     0.000 C 
BRANCH  10  11
ATOM     11  C   UNL     1      16.865  12.302  13.125  1.00  0.00     0.000 C 
BRANCH  11  12
ATOM     12  C   UNL     1      16.629  13.826  13.094  1.00  0.00     0.006 C 
BRANCH  12  13
ATOM     13  C   UNL     1      17.080  14.518  11.799  1.00  0.00     0.053 C 
BRANCH  13  14
ATOM     14  C   UNL     1      16.710  15.969  11.779  1.00  0.00     0.041 C 
ATOM     15  O   UNL     1      16.054  16.443  10.815  1.00  0.00    -0.550 OA
ATOM     16  O   UNL     1      17.125  16.806  12.808  1.00  0.00    -0.550 OA
ENDBRANCH  13  14
ENDBRANCH  12  13
ENDBRANCH  11  12
ENDBRANCH  10  11
ENDBRANCH   9  10
ENDBRANCH   8   9
ENDBRANCH   7   8
ENDBRANCH   6   7
ENDBRANCH   5   6
ENDBRANCH   4   5
ENDBRANCH   3   4
ENDBRANCH   2   3
ENDBRANCH   1   2
BRANCH   1  17
ATOM     17  C   UNL     1      14.164  17.101   5.007  1.00  0.00     0.000 C 
BRANCH  17  18
ATOM     18  C   UNL     1      13.305  16.486   3.892  1.00  0.00     0.000 C 
BRANCH  18  19
ATOM     19  C   UNL     1      13.679  17.075   2.524  1.00  0.00     0.000 C 
BRANCH  19  20
ATOM     20  C   UNL     1      12.482  17.154   1.562  1.00  0.00     0.000 C 
BRANCH  20  21
ATOM     21  C   UNL     1      12.909  17.407   0.105  1.00  0.00     0.000 C 
BRANCH  21  22
ATOM     22  C   UNL     1      12.397  18.754  -0.433  1.00  0.00    -0.000 C 
BRANCH  22  23
ATOM     23  C   UNL     1      13.343  19.921  -0.095  1.00  0.00    -0.000 C 
BRANCH  23  24
ATOM     24  C   UNL     1      14.016  20.518  -1.342  1.00  0.00    -0.000 C 
BRANCH  24  25
ATOM     25  C   UNL     1      14.512  21.957  -1.115  1.00  0.00    -0.000 C 
BRANCH  25  26
ATOM     26  C   UNL     1      16.043  22.076  -1.209  1.00  0.00    -0.000 C 
BRANCH  26  27
ATOM     27  C   UNL     1      16.747  20.709  -1.173  1.00  0.00    -0.000 C 
BRANCH  27  28
ATOM     28  C   UNL     1      17.125  20.277   0.254  1.00  0.00    -0.000 C 
BRANCH  28  29
ATOM     29  C   UNL     1      16.819  18.796   0.524  1.00  0.00    -0.003 C 
ATOM     30  C   UNL     1      16.397  18.579   1.975  1.00  0.00     0.004 C 
ENDBRANCH  28  29
ENDBRANCH  27  28
ENDBRANCH  26  27
ENDBRANCH  25  26
ENDBRANCH  24  25
ENDBRANCH  23  24
ENDBRANCH  22  23
ENDBRANCH  21  22
ENDBRANCH  20  21
ENDBRANCH  19  20
ENDBRANCH  18  19
ENDBRANCH  17  18
ENDBRANCH   1  17
TORSDOF 26
ENDMDL
