MODEL 1
REMARK VINA RESULT:    -8.676      0.000      0.000
REMARK INTER + INTRA:          -9.735
REMARK INTER:                  -9.437
REMARK INTRA:                  -0.298
REMARK UNBOUND:                -0.298
REMARK SMILES C[C@H]1[C@H](C)CC[C@@]2(C(=O)[O-])CC[C@@]3(C)C(=CC[C@@H]4[C@]5(C)CC[C@@H](O)C(C)(C)[C@@H]5CC[C@]43C)[C@@H]12
REMARK SMILES IDX 7 1 6 2 11 3 33 4 5 5 12 6 15 7 2 8 3 9 13 10 16 11 1 12
REMARK SMILES IDX 4 13 14 14 31 15 17 16 18 17 30 18 32 19 19 20 29 21 28 22
REMARK SMILES IDX 21 23 20 24 25 25 22 26 23 27 26 28 27 29 8 30 9 31 10 32
REMARK SMILES IDX 24 33
REMARK H PARENT 24 34
REMARK Flexibility Score: inf
ROOT
ATOM      1  C   UNL     1      13.003   8.131  22.233  1.00  0.00     0.017 C 
ATOM      2  C   UNL     1      12.248   9.215  23.044  1.00  0.00     0.014 C 
ATOM      3  C   UNL     1      12.134   7.629  21.040  1.00  0.00     0.014 C 
ATOM      4  C   UNL     1      14.370   8.733  21.731  1.00  0.00     0.030 C 
ATOM      5  C   UNL     1      13.034   9.590  24.308  1.00  0.00     0.004 C 
ATOM      6  C   UNL     1      11.963   8.667  19.949  1.00  0.00     0.013 C 
ATOM      7  C   UNL     1      14.492   8.936  20.201  1.00  0.00    -0.063 C 
ATOM      8  C   UNL     1      14.912   9.989  22.533  1.00  0.00    -0.003 C 
ATOM      9  C   UNL     1      14.493  10.055  24.032  1.00  0.00    -0.011 C 
ATOM     10  C   UNL     1      13.297   9.036  19.216  1.00  0.00    -0.006 C 
ATOM     11  C   UNL     1      15.754   8.992  19.711  1.00  0.00    -0.027 C 
ATOM     12  C   UNL     1      14.666  11.377  21.897  1.00  0.00     0.008 C 
ATOM     13  C   UNL     1      15.520   9.329  24.912  1.00  0.00     0.008 C 
ATOM     14  C   UNL     1      13.147  10.576  18.939  1.00  0.00     0.017 C 
ATOM     15  C   UNL     1      13.577   8.179  17.823  1.00  0.00    -0.020 C 
ATOM     16  C   UNL     1      16.005   8.763  18.255  1.00  0.00     0.032 C 
ATOM     17  C   UNL     1      15.056   7.629  17.805  1.00  0.00     0.006 C 
ATOM     18  C   UNL     1      12.711   6.897  17.664  1.00  0.00     0.008 C 
ATOM     19  C   UNL     1      13.256   9.073  16.573  1.00  0.00     0.012 C 
ATOM     20  C   UNL     1      15.560   6.730  16.584  1.00  0.00    -0.025 C 
ATOM     21  C   UNL     1      12.973   6.133  16.359  1.00  0.00     0.005 C 
ATOM     22  C   UNL     1      14.432   5.683  16.103  1.00  0.00     0.003 C 
ATOM     23  C   UNL     1      16.123   7.639  15.442  1.00  0.00     0.010 C 
ATOM     24  C   UNL     1      16.766   5.892  17.128  1.00  0.00     0.012 C 
ATOM     25  C   UNL     1      14.627   5.070  14.623  1.00  0.00    -0.006 C 
ATOM     26  C   UNL     1      16.310   6.939  14.096  1.00  0.00     0.033 C 
ATOM     27  C   UNL     1      15.058   6.197  13.628  1.00  0.00     0.120 C 
ATOM     28  C   UNL     1      15.644   3.893  14.624  1.00  0.00     0.014 C 
ATOM     29  C   UNL     1      13.298   4.426  14.100  1.00  0.00     0.014 C 
ENDROOT
BRANCH   1  30
ATOM     30  C   UNL     1      13.168   6.898  23.130  1.00  0.00     0.048 C 
ATOM     31  O   UNL     1      14.292   6.396  23.389  1.00  0.00    -0.550 OA
ATOM     32  O   UNL     1      12.041   6.300  23.669  1.00  0.00    -0.550 OA
ENDBRANCH   1  30
BRANCH  27  33
ATOM     33  O   UNL     1      15.337   5.684  12.345  1.00  0.00    -0.393 OA
ATOM     34  H   UNL     1      15.703   4.774  12.434  1.00  0.00     0.210 HD
ENDBRANCH  27  33
TORSDOF 2
ENDMDL
MODEL 2
REMARK VINA RESULT:    -8.633      4.196      8.130
REMARK INTER + INTRA:          -9.689
REMARK INTER:                  -9.412
REMARK INTRA:                  -0.277
REMARK UNBOUND:                -0.298
REMARK SMILES C[C@H]1[C@H](C)CC[C@@]2(C(=O)[O-])CC[C@@]3(C)C(=CC[C@@H]4[C@]5(C)CC[C@@H](O)C(C)(C)[C@@H]5CC[C@]43C)[C@@H]12
REMARK SMILES IDX 7 1 6 2 11 3 33 4 5 5 12 6 15 7 2 8 3 9 13 10 16 11 1 12
REMARK SMILES IDX 4 13 14 14 31 15 17 16 18 17 30 18 32 19 19 20 29 21 28 22
REMARK SMILES IDX 21 23 20 24 25 25 22 26 23 27 26 28 27 29 8 30 9 31 10 32
REMARK SMILES IDX 24 33
REMARK H PARENT 24 34
REMARK Flexibility Score: inf
ROOT
ATOM      1  C   UNL     1      15.353   9.636  29.306  1.00  0.00     0.017 C 
ATOM      2  C   UNL     1      16.152   9.030  30.489  1.00  0.00     0.014 C 
ATOM      3  C   UNL     1      16.265   9.801  28.052  1.00  0.00     0.014 C 
ATOM      4  C   UNL     1      14.120   8.706  28.998  1.00  0.00     0.030 C 
ATOM      5  C   UNL     1      15.302   9.019  31.767  1.00  0.00     0.004 C 
ATOM      6  C   UNL     1      16.656   8.480  27.422  1.00  0.00     0.013 C 
ATOM      7  C   UNL     1      14.164   7.959  27.644  1.00  0.00    -0.063 C 
ATOM      8  C   UNL     1      13.657   7.753  30.178  1.00  0.00    -0.003 C 
ATOM      9  C   UNL     1      13.940   8.283  31.615  1.00  0.00    -0.011 C 
ATOM     10  C   UNL     1      15.449   7.688  26.816  1.00  0.00    -0.006 C 
ATOM     11  C   UNL     1      12.969   7.553  27.152  1.00  0.00    -0.027 C 
ATOM     12  C   UNL     1      14.122   6.280  30.102  1.00  0.00     0.008 C 
ATOM     13  C   UNL     1      12.758   9.119  32.124  1.00  0.00     0.008 C 
ATOM     14  C   UNL     1      15.803   6.188  27.125  1.00  0.00     0.017 C 
ATOM     15  C   UNL     1      15.200   7.946  25.196  1.00  0.00    -0.020 C 
ATOM     16  C   UNL     1      12.828   7.213  25.703  1.00  0.00     0.032 C 
ATOM     17  C   UNL     1      13.675   8.237  24.914  1.00  0.00     0.006 C 
ATOM     18  C   UNL     1      15.921   9.198  24.619  1.00  0.00     0.008 C 
ATOM     19  C   UNL     1      15.738   6.723  24.371  1.00  0.00     0.012 C 
ATOM     20  C   UNL     1      13.184   8.563  23.429  1.00  0.00    -0.025 C 
ATOM     21  C   UNL     1      15.692   9.405  23.116  1.00  0.00     0.005 C 
ATOM     22  C   UNL     1      14.220   9.522  22.650  1.00  0.00     0.003 C 
ATOM     23  C   UNL     1      12.840   7.238  22.672  1.00  0.00     0.010 C 
ATOM     24  C   UNL     1      11.843   9.358  23.577  1.00  0.00     0.012 C 
ATOM     25  C   UNL     1      14.093   9.536  21.041  1.00  0.00    -0.006 C 
ATOM     26  C   UNL     1      12.697   7.381  21.157  1.00  0.00     0.033 C 
ATOM     27  C   UNL     1      13.891   8.080  20.507  1.00  0.00     0.120 C 
ATOM     28  C   UNL     1      12.949  10.478  20.570  1.00  0.00     0.014 C 
ATOM     29  C   UNL     1      15.380  10.135  20.379  1.00  0.00     0.014 C 
ENDROOT
BRANCH   1  30
ATOM     30  C   UNL     1      14.962  11.070  29.686  1.00  0.00     0.048 C 
ATOM     31  O   UNL     1      15.814  11.951  29.966  1.00  0.00    -0.550 OA
ATOM     32  O   UNL     1      13.622  11.412  29.737  1.00  0.00    -0.550 OA
ENDBRANCH   1  30
BRANCH  27  33
ATOM     33  O   UNL     1      13.674   8.059  19.114  1.00  0.00    -0.393 OA
ATOM     34  H   UNL     1      14.542   7.975  18.654  1.00  0.00     0.210 HD
ENDBRANCH  27  33
TORSDOF 2
ENDMDL
MODEL 3
REMARK VINA RESULT:    -8.569      3.532      9.944
REMARK INTER + INTRA:          -9.618
REMARK INTER:                  -9.336
REMARK INTRA:                  -0.282
REMARK UNBOUND:                -0.298
REMARK SMILES C[C@H]1[C@H](C)CC[C@@]2(C(=O)[O-])CC[C@@]3(C)C(=CC[C@@H]4[C@]5(C)CC[C@@H](O)C(C)(C)[C@@H]5CC[C@]43C)[C@@H]12
REMARK SMILES IDX 7 1 6 2 11 3 33 4 5 5 12 6 15 7 2 8 3 9 13 10 16 11 1 12
REMARK SMILES IDX 4 13 14 14 31 15 17 16 18 17 30 18 32 19 19 20 29 21 28 22
REMARK SMILES IDX 21 23 20 24 25 25 22 26 23 27 26 28 27 29 8 30 9 31 10 32
REMARK SMILES IDX 24 33
REMARK H PARENT 24 34
REMARK Flexibility Score: inf
ROOT
ATOM      1  C   UNL     1      13.194   8.846  21.510  1.00  0.00     0.017 C 
ATOM      2  C   UNL     1      12.403   8.057  20.435  1.00  0.00     0.014 C 
ATOM      3  C   UNL     1      12.254   9.286  22.674  1.00  0.00     0.014 C 
ATOM      4  C   UNL     1      14.373   7.944  22.036  1.00  0.00     0.030 C 
ATOM      5  C   UNL     1      13.290   7.767  19.215  1.00  0.00     0.004 C 
ATOM      6  C   UNL     1      11.783   8.127  23.529  1.00  0.00     0.013 C 
ATOM      7  C   UNL     1      14.253   7.473  23.506  1.00  0.00    -0.063 C 
ATOM      8  C   UNL     1      14.825   6.763  21.078  1.00  0.00    -0.003 C 
ATOM      9  C   UNL     1      14.611   7.019  19.557  1.00  0.00    -0.011 C 
ATOM     10  C   UNL     1      12.933   7.418  24.320  1.00  0.00    -0.006 C 
ATOM     11  C   UNL     1      15.413   7.121  24.111  1.00  0.00    -0.027 C 
ATOM     12  C   UNL     1      14.289   5.353  21.416  1.00  0.00     0.008 C 
ATOM     13  C   UNL     1      15.845   7.693  18.943  1.00  0.00     0.008 C 
ATOM     14  C   UNL     1      12.518   5.902  24.290  1.00  0.00     0.017 C 
ATOM     15  C   UNL     1      13.145   7.972  25.870  1.00  0.00    -0.020 C 
ATOM     16  C   UNL     1      15.494   7.060  25.603  1.00  0.00     0.032 C 
ATOM     17  C   UNL     1      14.673   8.249  26.149  1.00  0.00     0.006 C 
ATOM     18  C   UNL     1      12.467   9.340  26.169  1.00  0.00     0.008 C 
ATOM     19  C   UNL     1      12.526   6.953  26.891  1.00  0.00     0.012 C 
ATOM     20  C   UNL     1      15.134   8.835  27.563  1.00  0.00    -0.025 C 
ATOM     21  C   UNL     1      12.660   9.821  27.613  1.00  0.00     0.005 C 
ATOM     22  C   UNL     1      14.122   9.966  28.104  1.00  0.00     0.003 C 
ATOM     23  C   UNL     1      15.393   7.667  28.571  1.00  0.00     0.010 C 
ATOM     24  C   UNL     1      16.515   9.531  27.317  1.00  0.00     0.012 C 
ATOM     25  C   UNL     1      14.201  10.284  29.685  1.00  0.00    -0.006 C 
ATOM     26  C   UNL     1      15.497   8.092  30.035  1.00  0.00     0.033 C 
ATOM     27  C   UNL     1      14.318   8.950  30.494  1.00  0.00     0.120 C 
ATOM     28  C   UNL     1      15.374  11.251  30.011  1.00  0.00     0.014 C 
ATOM     29  C   UNL     1      12.925  11.050  30.171  1.00  0.00     0.014 C 
ENDROOT
BRANCH   1  30
ATOM     30  C   UNL     1      13.663  10.164  20.879  1.00  0.00     0.048 C 
ATOM     31  O   UNL     1      12.866  10.988  20.364  1.00  0.00    -0.550 OA
ATOM     32  O   UNL     1      15.016  10.458  20.861  1.00  0.00    -0.550 OA
ENDBRANCH   1  30
BRANCH  27  33
ATOM     33  O   UNL     1      14.492   9.188  31.873  1.00  0.00    -0.393 OA
ATOM     34  H   UNL     1      14.172  10.095  32.086  1.00  0.00     0.210 HD
ENDBRANCH  27  33
TORSDOF 2
ENDMDL
MODEL 4
REMARK VINA RESULT:    -8.539      2.088      8.249
REMARK INTER + INTRA:          -9.586
REMARK INTER:                  -9.288
REMARK INTRA:                  -0.298
REMARK UNBOUND:                -0.298
REMARK SMILES C[C@H]1[C@H](C)CC[C@@]2(C(=O)[O-])CC[C@@]3(C)C(=CC[C@@H]4[C@]5(C)CC[C@@H](O)C(C)(C)[C@@H]5CC[C@]43C)[C@@H]12
REMARK SMILES IDX 7 1 6 2 11 3 33 4 5 5 12 6 15 7 2 8 3 9 13 10 16 11 1 12
REMARK SMILES IDX 4 13 14 14 31 15 17 16 18 17 30 18 32 19 19 20 29 21 28 22
REMARK SMILES IDX 21 23 20 24 25 25 22 26 23 27 26 28 27 29 8 30 9 31 10 32
REMARK SMILES IDX 24 33
REMARK H PARENT 24 34
REMARK Flexibility Score: inf
ROOT
ATOM      1  C   UNL     1      15.465   7.154  17.832  1.00  0.00     0.017 C 
ATOM      2  C   UNL     1      15.510   7.675  16.373  1.00  0.00     0.014 C 
ATOM      3  C   UNL     1      16.268   8.097  18.779  1.00  0.00     0.014 C 
ATOM      4  C   UNL     1      13.960   7.036  18.283  1.00  0.00     0.030 C 
ATOM      5  C   UNL     1      14.860   6.665  15.417  1.00  0.00     0.004 C 
ATOM      6  C   UNL     1      15.601   9.441  18.987  1.00  0.00     0.013 C 
ATOM      7  C   UNL     1      13.511   8.025  19.386  1.00  0.00    -0.063 C 
ATOM      8  C   UNL     1      12.891   6.936  17.116  1.00  0.00    -0.003 C 
ATOM      9  C   UNL     1      13.401   6.280  15.798  1.00  0.00    -0.011 C 
ATOM     10  C   UNL     1      14.229   9.356  19.738  1.00  0.00    -0.006 C 
ATOM     11  C   UNL     1      12.424   7.656  20.104  1.00  0.00    -0.027 C 
ATOM     12  C   UNL     1      12.137   8.236  16.753  1.00  0.00     0.008 C 
ATOM     13  C   UNL     1      13.181   4.762  15.830  1.00  0.00     0.008 C 
ATOM     14  C   UNL     1      13.361  10.465  19.040  1.00  0.00     0.017 C 
ATOM     15  C   UNL     1      14.327   9.584  21.378  1.00  0.00    -0.020 C 
ATOM     16  C   UNL     1      12.151   8.288  21.432  1.00  0.00     0.032 C 
ATOM     17  C   UNL     1      13.514   8.466  22.138  1.00  0.00     0.006 C 
ATOM     18  C   UNL     1      15.760   9.454  21.968  1.00  0.00     0.008 C 
ATOM     19  C   UNL     1      13.841  11.031  21.746  1.00  0.00     0.012 C 
ATOM     20  C   UNL     1      13.489   8.440  23.735  1.00  0.00    -0.025 C 
ATOM     21  C   UNL     1      15.829   9.689  23.482  1.00  0.00     0.005 C 
ATOM     22  C   UNL     1      14.933   8.784  24.364  1.00  0.00     0.003 C 
ATOM     23  C   UNL     1      12.324   9.335  24.271  1.00  0.00     0.010 C 
ATOM     24  C   UNL     1      13.148   6.966  24.142  1.00  0.00     0.012 C 
ATOM     25  C   UNL     1      14.936   9.249  25.909  1.00  0.00    -0.006 C 
ATOM     26  C   UNL     1      12.405   9.674  25.759  1.00  0.00     0.033 C 
ATOM     27  C   UNL     1      13.761  10.249  26.169  1.00  0.00     0.120 C 
ATOM     28  C   UNL     1      14.866   8.029  26.870  1.00  0.00     0.014 C 
ATOM     29  C   UNL     1      16.282   9.956  26.284  1.00  0.00     0.014 C 
ENDROOT
BRANCH   1  30
ATOM     30  C   UNL     1      16.227   5.823  17.882  1.00  0.00     0.048 C 
ATOM     31  O   UNL     1      15.699   4.757  18.288  1.00  0.00    -0.550 OA
ATOM     32  O   UNL     1      17.551   5.789  17.479  1.00  0.00    -0.550 OA
ENDBRANCH   1  30
BRANCH  27  33
ATOM     33  O   UNL     1      13.665  10.602  27.531  1.00  0.00    -0.393 OA
ATOM     34  H   UNL     1      14.503  10.354  27.987  1.00  0.00     0.210 HD
ENDBRANCH  27  33
TORSDOF 2
ENDMDL
MODEL 5
REMARK VINA RESULT:    -8.405      3.724      7.056
REMARK INTER + INTRA:          -9.441
REMARK INTER:                  -9.143
REMARK INTRA:                  -0.298
REMARK UNBOUND:                -0.298
REMARK SMILES C[C@H]1[C@H](C)CC[C@@]2(C(=O)[O-])CC[C@@]3(C)C(=CC[C@@H]4[C@]5(C)CC[C@@H](O)C(C)(C)[C@@H]5CC[C@]43C)[C@@H]12
REMARK SMILES IDX 7 1 6 2 11 3 33 4 5 5 12 6 15 7 2 8 3 9 13 10 16 11 1 12
REMARK SMILES IDX 4 13 14 14 31 15 17 16 18 17 30 18 32 19 19 20 29 21 28 22
REMARK SMILES IDX 21 23 20 24 25 25 22 26 23 27 26 28 27 29 8 30 9 31 10 32
REMARK SMILES IDX 24 33
REMARK H PARENT 24 34
REMARK Flexibility Score: inf
ROOT
ATOM      1  C   UNL     1      14.787   8.005  28.942  1.00  0.00     0.017 C 
ATOM      2  C   UNL     1      13.908   7.992  30.219  1.00  0.00     0.014 C 
ATOM      3  C   UNL     1      14.190   7.064  27.852  1.00  0.00     0.014 C 
ATOM      4  C   UNL     1      14.900   9.487  28.419  1.00  0.00     0.030 C 
ATOM      5  C   UNL     1      14.581   8.788  31.347  1.00  0.00     0.004 C 
ATOM      6  C   UNL     1      12.898   7.586  27.257  1.00  0.00     0.013 C 
ATOM      7  C   UNL     1      14.200   9.777  27.069  1.00  0.00    -0.063 C 
ATOM      8  C   UNL     1      14.608  10.624  29.485  1.00  0.00    -0.003 C 
ATOM      9  C   UNL     1      14.936  10.253  30.963  1.00  0.00    -0.011 C 
ATOM     10  C   UNL     1      13.068   8.916  26.447  1.00  0.00    -0.006 C 
ATOM     11  C   UNL     1      14.657  10.853  26.385  1.00  0.00    -0.027 C 
ATOM     12  C   UNL     1      13.204  11.269  29.445  1.00  0.00     0.008 C 
ATOM     13  C   UNL     1      16.388  10.616  31.301  1.00  0.00     0.008 C 
ATOM     14  C   UNL     1      11.751   9.711  26.769  1.00  0.00     0.017 C 
ATOM     15  C   UNL     1      13.284   8.706  24.816  1.00  0.00    -0.020 C 
ATOM     16  C   UNL     1      14.374  10.990  24.923  1.00  0.00     0.032 C 
ATOM     17  C   UNL     1      14.494   9.579  24.304  1.00  0.00     0.006 C 
ATOM     18  C   UNL     1      13.675   7.261  24.393  1.00  0.00     0.008 C 
ATOM     19  C   UNL     1      11.949   9.029  24.055  1.00  0.00     0.012 C 
ATOM     20  C   UNL     1      14.933   9.517  22.769  1.00  0.00    -0.025 C 
ATOM     21  C   UNL     1      13.849   7.086  22.878  1.00  0.00     0.005 C 
ATOM     22  C   UNL     1      14.879   8.014  22.189  1.00  0.00     0.003 C 
ATOM     23  C   UNL     1      14.120  10.559  21.934  1.00  0.00     0.010 C 
ATOM     24  C   UNL     1      16.431   9.975  22.725  1.00  0.00     0.012 C 
ATOM     25  C   UNL     1      14.834   7.881  20.582  1.00  0.00    -0.006 C 
ATOM     26  C   UNL     1      14.188  10.364  20.419  1.00  0.00     0.033 C 
ATOM     27  C   UNL     1      13.848   8.938  19.984  1.00  0.00     0.120 C 
ATOM     28  C   UNL     1      16.254   8.014  19.961  1.00  0.00     0.014 C 
ATOM     29  C   UNL     1      14.357   6.454  20.146  1.00  0.00     0.014 C 
ENDROOT
BRANCH   1  30
ATOM     30  C   UNL     1      16.140   7.373  29.292  1.00  0.00     0.048 C 
ATOM     31  O   UNL     1      17.232   7.971  29.116  1.00  0.00    -0.550 OA
ATOM     32  O   UNL     1      16.171   6.089  29.811  1.00  0.00    -0.550 OA
ENDBRANCH   1  30
BRANCH  27  33
ATOM     33  O   UNL     1      13.856   8.923  18.574  1.00  0.00    -0.393 OA
ATOM     34  H   UNL     1      14.721   8.570  18.261  1.00  0.00     0.210 HD
ENDBRANCH  27  33
TORSDOF 2
ENDMDL
MODEL 6
REMARK VINA RESULT:    -8.395      1.384      2.053
REMARK INTER + INTRA:          -9.429
REMARK INTER:                  -9.156
REMARK INTRA:                  -0.273
REMARK UNBOUND:                -0.298
REMARK SMILES C[C@H]1[C@H](C)CC[C@@]2(C(=O)[O-])CC[C@@]3(C)C(=CC[C@@H]4[C@]5(C)CC[C@@H](O)C(C)(C)[C@@H]5CC[C@]43C)[C@@H]12
REMARK SMILES IDX 7 1 6 2 11 3 33 4 5 5 12 6 15 7 2 8 3 9 13 10 16 11 1 12
REMARK SMILES IDX 4 13 14 14 31 15 17 16 18 17 30 18 32 19 19 20 29 21 28 22
REMARK SMILES IDX 21 23 20 24 25 25 22 26 23 27 26 28 27 29 8 30 9 31 10 32
REMARK SMILES IDX 24 33
REMARK H PARENT 24 34
REMARK Flexibility Score: inf
ROOT
ATOM      1  C   UNL     1      12.872   7.492  23.766  1.00  0.00     0.017 C 
ATOM      2  C   UNL     1      12.510   8.464  24.918  1.00  0.00     0.014 C 
ATOM      3  C   UNL     1      11.873   7.648  22.579  1.00  0.00     0.014 C 
ATOM      4  C   UNL     1      14.353   7.776  23.309  1.00  0.00     0.030 C 
ATOM      5  C   UNL     1      13.391   8.197  26.148  1.00  0.00     0.004 C 
ATOM      6  C   UNL     1      12.028   8.961  21.839  1.00  0.00     0.013 C 
ATOM      7  C   UNL     1      14.514   8.373  21.890  1.00  0.00    -0.063 C 
ATOM      8  C   UNL     1      15.276   8.517  24.364  1.00  0.00    -0.003 C 
ATOM      9  C   UNL     1      14.919   8.262  25.859  1.00  0.00    -0.011 C 
ATOM     10  C   UNL     1      13.400   9.112  21.100  1.00  0.00    -0.006 C 
ATOM     11  C   UNL     1      15.721   8.189  21.304  1.00  0.00    -0.027 C 
ATOM     12  C   UNL     1      15.475  10.038  24.163  1.00  0.00     0.008 C 
ATOM     13  C   UNL     1      15.672   7.037  26.392  1.00  0.00     0.008 C 
ATOM     14  C   UNL     1      13.744  10.636  21.274  1.00  0.00     0.017 C 
ATOM     15  C   UNL     1      13.376   8.659  19.505  1.00  0.00    -0.020 C 
ATOM     16  C   UNL     1      15.868   8.333  19.823  1.00  0.00     0.032 C 
ATOM     17  C   UNL     1      14.603   7.721  19.181  1.00  0.00     0.006 C 
ATOM     18  C   UNL     1      12.146   7.802  19.091  1.00  0.00     0.008 C 
ATOM     19  C   UNL     1      13.340   9.933  18.588  1.00  0.00     0.012 C 
ATOM     20  C   UNL     1      14.780   7.112  17.714  1.00  0.00    -0.025 C 
ATOM     21  C   UNL     1      12.135   7.413  17.607  1.00  0.00     0.005 C 
ATOM     22  C   UNL     1      13.372   6.641  17.085  1.00  0.00     0.003 C 
ATOM     23  C   UNL     1      15.588   8.103  16.814  1.00  0.00     0.010 C 
ATOM     24  C   UNL     1      15.664   5.830  17.878  1.00  0.00     0.012 C 
ATOM     25  C   UNL     1      13.343   6.461  15.482  1.00  0.00    -0.006 C 
ATOM     26  C   UNL     1      15.527   7.807  15.316  1.00  0.00     0.033 C 
ATOM     27  C   UNL     1      14.098   7.647  14.796  1.00  0.00     0.120 C 
ATOM     28  C   UNL     1      13.934   5.088  15.054  1.00  0.00     0.014 C 
ATOM     29  C   UNL     1      11.872   6.430  14.944  1.00  0.00     0.014 C 
ENDROOT
BRANCH   1  30
ATOM     30  C   UNL     1      12.648   6.060  24.268  1.00  0.00     0.048 C 
ATOM     31  O   UNL     1      11.527   5.650  24.664  1.00  0.00    -0.550 OA
ATOM     32  O   UNL     1      13.719   5.182  24.302  1.00  0.00    -0.550 OA
ENDBRANCH   1  30
BRANCH  27  33
ATOM     33  O   UNL     1      14.183   7.475  13.399  1.00  0.00    -0.393 OA
ATOM     34  H   UNL     1      15.114   7.624  13.112  1.00  0.00     0.210 HD
ENDBRANCH  27  33
TORSDOF 2
ENDMDL
MODEL 7
REMARK VINA RESULT:    -8.303      3.762     10.111
REMARK INTER + INTRA:          -9.329
REMARK INTER:                  -9.043
REMARK INTRA:                  -0.286
REMARK UNBOUND:                -0.298
REMARK SMILES C[C@H]1[C@H](C)CC[C@@]2(C(=O)[O-])CC[C@@]3(C)C(=CC[C@@H]4[C@]5(C)CC[C@@H](O)C(C)(C)[C@@H]5CC[C@]43C)[C@@H]12
REMARK SMILES IDX 7 1 6 2 11 3 33 4 5 5 12 6 15 7 2 8 3 9 13 10 16 11 1 12
REMARK SMILES IDX 4 13 14 14 31 15 17 16 18 17 30 18 32 19 19 20 29 21 28 22
REMARK SMILES IDX 21 23 20 24 25 25 22 26 23 27 26 28 27 29 8 30 9 31 10 32
REMARK SMILES IDX 24 33
REMARK H PARENT 24 34
REMARK Flexibility Score: inf
ROOT
ATOM      1  C   UNL     1      15.470   9.797  21.671  1.00  0.00     0.017 C 
ATOM      2  C   UNL     1      14.665  10.016  20.364  1.00  0.00     0.014 C 
ATOM      3  C   UNL     1      15.104  10.879  22.732  1.00  0.00     0.014 C 
ATOM      4  C   UNL     1      15.178   8.345  22.209  1.00  0.00     0.030 C 
ATOM      5  C   UNL     1      15.143   9.054  19.266  1.00  0.00     0.004 C 
ATOM      6  C   UNL     1      13.703  10.719  23.287  1.00  0.00     0.013 C 
ATOM      7  C   UNL     1      14.385   8.268  23.536  1.00  0.00    -0.063 C 
ATOM      8  C   UNL     1      14.635   7.305  21.142  1.00  0.00    -0.003 C 
ATOM      9  C   UNL     1      15.093   7.553  19.674  1.00  0.00    -0.011 C 
ATOM     10  C   UNL     1      13.497   9.404  24.112  1.00  0.00    -0.006 C 
ATOM     11  C   UNL     1      14.526   7.123  24.244  1.00  0.00    -0.027 C 
ATOM     12  C   UNL     1      13.110   7.047  21.139  1.00  0.00     0.008 C 
ATOM     13  C   UNL     1      16.411   6.821  19.389  1.00  0.00     0.008 C 
ATOM     14  C   UNL     1      12.029   8.972  23.752  1.00  0.00     0.017 C 
ATOM     15  C   UNL     1      13.709   9.578  25.748  1.00  0.00    -0.020 C 
ATOM     16  C   UNL     1      14.171   7.088  25.696  1.00  0.00     0.032 C 
ATOM     17  C   UNL     1      14.634   8.429  26.308  1.00  0.00     0.006 C 
ATOM     18  C   UNL     1      14.448  10.879  26.173  1.00  0.00     0.008 C 
ATOM     19  C   UNL     1      12.313   9.625  26.465  1.00  0.00     0.012 C 
ATOM     20  C   UNL     1      15.026   8.401  27.856  1.00  0.00    -0.025 C 
ATOM     21  C   UNL     1      14.614  11.028  27.691  1.00  0.00     0.005 C 
ATOM     22  C   UNL     1      15.347   9.876  28.422  1.00  0.00     0.003 C 
ATOM     23  C   UNL     1      13.945   7.619  28.672  1.00  0.00     0.010 C 
ATOM     24  C   UNL     1      16.351   7.571  27.955  1.00  0.00     0.012 C 
ATOM     25  C   UNL     1      15.288  10.042  30.026  1.00  0.00    -0.006 C 
ATOM     26  C   UNL     1      14.014   7.815  30.186  1.00  0.00     0.033 C 
ATOM     27  C   UNL     1      14.043   9.287  30.598  1.00  0.00     0.120 C 
ATOM     28  C   UNL     1      16.604   9.557  30.697  1.00  0.00     0.014 C 
ATOM     29  C   UNL     1      15.184  11.551  30.434  1.00  0.00     0.014 C 
ENDROOT
BRANCH   1  30
ATOM     30  C   UNL     1      16.951  10.050  21.362  1.00  0.00     0.048 C 
ATOM     31  O   UNL     1      17.832   9.164  21.501  1.00  0.00    -0.550 OA
ATOM     32  O   UNL     1      17.344  11.305  20.927  1.00  0.00    -0.550 OA
ENDBRANCH   1  30
BRANCH  27  33
ATOM     33  O   UNL     1      14.010   9.323  32.007  1.00  0.00    -0.393 OA
ATOM     34  H   UNL     1      13.574  10.157  32.298  1.00  0.00     0.210 HD
ENDBRANCH  27  33
TORSDOF 2
ENDMDL
MODEL 8
REMARK VINA RESULT:    -8.254      1.813      3.257
REMARK INTER + INTRA:          -9.276
REMARK INTER:                  -8.994
REMARK INTRA:                  -0.282
REMARK UNBOUND:                -0.298
REMARK SMILES C[C@H]1[C@H](C)CC[C@@]2(C(=O)[O-])CC[C@@]3(C)C(=CC[C@@H]4[C@]5(C)CC[C@@H](O)C(C)(C)[C@@H]5CC[C@]43C)[C@@H]12
REMARK SMILES IDX 7 1 6 2 11 3 33 4 5 5 12 6 15 7 2 8 3 9 13 10 16 11 1 12
REMARK SMILES IDX 4 13 14 14 31 15 17 16 18 17 30 18 32 19 19 20 29 21 28 22
REMARK SMILES IDX 21 23 20 24 25 25 22 26 23 27 26 28 27 29 8 30 9 31 10 32
REMARK SMILES IDX 24 33
REMARK H PARENT 24 34
REMARK Flexibility Score: inf
ROOT
ATOM      1  C   UNL     1      14.070   9.727  24.209  1.00  0.00     0.017 C 
ATOM      2  C   UNL     1      14.526  10.764  25.267  1.00  0.00     0.014 C 
ATOM      3  C   UNL     1      13.602  10.440  22.904  1.00  0.00     0.014 C 
ATOM      4  C   UNL     1      15.262   8.736  23.923  1.00  0.00     0.030 C 
ATOM      5  C   UNL     1      14.832  10.074  26.604  1.00  0.00     0.004 C 
ATOM      6  C   UNL     1      14.739  11.081  22.134  1.00  0.00     0.013 C 
ATOM      7  C   UNL     1      15.888   8.829  22.511  1.00  0.00    -0.063 C 
ATOM      8  C   UNL     1      16.373   8.643  25.051  1.00  0.00    -0.003 C 
ATOM      9  C   UNL     1      15.878   8.928  26.501  1.00  0.00    -0.011 C 
ATOM     10  C   UNL     1      15.772  10.052  21.562  1.00  0.00    -0.006 C 
ATOM     11  C   UNL     1      16.552   7.728  22.084  1.00  0.00    -0.027 C 
ATOM     12  C   UNL     1      17.672   9.448  24.813  1.00  0.00     0.008 C 
ATOM     13  C   UNL     1      15.403   7.633  27.172  1.00  0.00     0.008 C 
ATOM     14  C   UNL     1      17.149  10.795  21.712  1.00  0.00     0.017 C 
ATOM     15  C   UNL     1      15.485   9.587  19.995  1.00  0.00    -0.020 C 
ATOM     16  C   UNL     1      16.826   7.533  20.628  1.00  0.00     0.032 C 
ATOM     17  C   UNL     1      15.574   8.018  19.863  1.00  0.00     0.006 C 
ATOM     18  C   UNL     1      14.058   9.916  19.471  1.00  0.00     0.008 C 
ATOM     19  C   UNL     1      16.478  10.326  19.029  1.00  0.00     0.012 C 
ATOM     20  C   UNL     1      15.292   7.316  18.455  1.00  0.00    -0.025 C 
ATOM     21  C   UNL     1      13.824   9.496  18.014  1.00  0.00     0.005 C 
ATOM     22  C   UNL     1      14.055   8.001  17.680  1.00  0.00     0.003 C 
ATOM     23  C   UNL     1      16.611   7.237  17.619  1.00  0.00     0.010 C 
ATOM     24  C   UNL     1      14.874   5.842  18.778  1.00  0.00     0.012 C 
ATOM     25  C   UNL     1      13.974   7.715  16.093  1.00  0.00    -0.006 C 
ATOM     26  C   UNL     1      16.416   6.913  16.138  1.00  0.00     0.033 C 
ATOM     27  C   UNL     1      15.398   7.827  15.455  1.00  0.00     0.120 C 
ATOM     28  C   UNL     1      13.325   6.333  15.798  1.00  0.00     0.014 C 
ATOM     29  C   UNL     1      13.028   8.742  15.383  1.00  0.00     0.014 C 
ENDROOT
BRANCH   1  30
ATOM     30  C   UNL     1      12.809   9.034  24.739  1.00  0.00     0.048 C 
ATOM     31  O   UNL     1      11.780   9.671  25.081  1.00  0.00    -0.550 OA
ATOM     32  O   UNL     1      12.798   7.655  24.862  1.00  0.00    -0.550 OA
ENDBRANCH   1  30
BRANCH  27  33
ATOM     33  O   UNL     1      15.386   7.485  14.088  1.00  0.00    -0.393 OA
ATOM     34  H   UNL     1      16.215   6.998  13.870  1.00  0.00     0.210 HD
ENDBRANCH  27  33
TORSDOF 2
ENDMDL
MODEL 9
REMARK VINA RESULT:    -8.114      1.895      3.275
REMARK INTER + INTRA:          -9.123
REMARK INTER:                  -8.848
REMARK INTRA:                  -0.276
REMARK UNBOUND:                -0.298
REMARK SMILES C[C@H]1[C@H](C)CC[C@@]2(C(=O)[O-])CC[C@@]3(C)C(=CC[C@@H]4[C@]5(C)CC[C@@H](O)C(C)(C)[C@@H]5CC[C@]43C)[C@@H]12
REMARK SMILES IDX 7 1 6 2 11 3 33 4 5 5 12 6 15 7 2 8 3 9 13 10 16 11 1 12
REMARK SMILES IDX 4 13 14 14 31 15 17 16 18 17 30 18 32 19 19 20 29 21 28 22
REMARK SMILES IDX 21 23 20 24 25 25 22 26 23 27 26 28 27 29 8 30 9 31 10 32
REMARK SMILES IDX 24 33
REMARK H PARENT 24 34
REMARK Flexibility Score: inf
ROOT
ATOM      1  C   UNL     1      13.084   7.453  25.141  1.00  0.00     0.017 C 
ATOM      2  C   UNL     1      12.761   8.362  26.354  1.00  0.00     0.014 C 
ATOM      3  C   UNL     1      12.086   7.719  23.972  1.00  0.00     0.014 C 
ATOM      4  C   UNL     1      14.572   7.714  24.693  1.00  0.00     0.030 C 
ATOM      5  C   UNL     1      13.637   7.987  27.559  1.00  0.00     0.004 C 
ATOM      6  C   UNL     1      12.284   9.071  23.316  1.00  0.00     0.013 C 
ATOM      7  C   UNL     1      14.748   8.394  23.313  1.00  0.00    -0.063 C 
ATOM      8  C   UNL     1      15.525   8.354  25.787  1.00  0.00    -0.003 C 
ATOM      9  C   UNL     1      15.165   8.017  27.265  1.00  0.00    -0.011 C 
ATOM     10  C   UNL     1      13.658   9.220  22.580  1.00  0.00    -0.006 C 
ATOM     11  C   UNL     1      15.946   8.205  22.710  1.00  0.00    -0.027 C 
ATOM     12  C   UNL     1      15.777   9.876  25.682  1.00  0.00     0.008 C 
ATOM     13  C   UNL     1      15.877   6.735  27.715  1.00  0.00     0.008 C 
ATOM     14  C   UNL     1      14.056  10.717  22.848  1.00  0.00     0.017 C 
ATOM     15  C   UNL     1      13.611   8.871  20.958  1.00  0.00    -0.020 C 
ATOM     16  C   UNL     1      16.092   8.438  21.240  1.00  0.00     0.032 C 
ATOM     17  C   UNL     1      14.803   7.913  20.569  1.00  0.00     0.006 C 
ATOM     18  C   UNL     1      12.350   8.085  20.499  1.00  0.00     0.008 C 
ATOM     19  C   UNL     1      13.616  10.201  20.125  1.00  0.00     0.012 C 
ATOM     20  C   UNL     1      14.952   7.393  19.065  1.00  0.00    -0.025 C 
ATOM     21  C   UNL     1      12.319   7.792  18.993  1.00  0.00     0.005 C 
ATOM     22  C   UNL     1      13.526   7.012  18.416  1.00  0.00     0.003 C 
ATOM     23  C   UNL     1      15.791   8.410  18.224  1.00  0.00     0.010 C 
ATOM     24  C   UNL     1      15.791   6.072  19.141  1.00  0.00     0.012 C 
ATOM     25  C   UNL     1      13.484   6.936  16.805  1.00  0.00    -0.006 C 
ATOM     26  C   UNL     1      15.713   8.213  16.710  1.00  0.00     0.033 C 
ATOM     27  C   UNL     1      14.277   8.136  16.190  1.00  0.00     0.120 C 
ATOM     28  C   UNL     1      14.024   5.573  16.286  1.00  0.00     0.014 C 
ATOM     29  C   UNL     1      12.011   6.990  16.276  1.00  0.00     0.014 C 
ENDROOT
BRANCH   1  30
ATOM     30  C   UNL     1      12.812   6.001  25.552  1.00  0.00     0.048 C 
ATOM     31  O   UNL     1      11.709   5.629  26.029  1.00  0.00    -0.550 OA
ATOM     32  O   UNL     1      13.817   5.060  25.408  1.00  0.00    -0.550 OA
ENDBRANCH   1  30
BRANCH  27  33
ATOM     33  O   UNL     1      14.351   8.050  14.785  1.00  0.00    -0.393 OA
ATOM     34  H   UNL     1      14.692   8.903  14.428  1.00  0.00     0.210 HD
ENDBRANCH  27  33
TORSDOF 2
ENDMDL
