MODEL 1
REMARK VINA RESULT:    -6.736      0.000      0.000
REMARK INTER + INTRA:          -7.000
REMARK INTER:                  -7.327
REMARK INTRA:                   0.327
REMARK UNBOUND:                 0.327
REMARK SMILES CC1(C)CC[C@@]2(C(=O)[O-])CC[C@]3(C)C(=CC[C@H]4[C@@]5(C)CC[C@@H](O)C(C)(C)[C@H]5CC[C@@]43C)[C@@H]2C1
REMARK SMILES IDX 6 1 5 2 10 3 32 4 4 5 11 6 14 7 33 8 2 9 12 10 15 11 1 12
REMARK SMILES IDX 3 13 13 14 30 15 16 16 17 17 29 18 31 19 18 20 28 21 27 22
REMARK SMILES IDX 20 23 19 24 24 25 21 26 22 27 25 28 26 29 7 30 8 31 9 32
REMARK SMILES IDX 23 33
REMARK H PARENT 23 34
REMARK Flexibility Score: inf
ROOT
ATOM      1  C   UNL     1      -8.313 -15.694  16.330  1.00  0.00     0.017 C 
ATOM      2  C   UNL     1      -8.109 -14.377  17.125  1.00  0.00     0.014 C 
ATOM      3  C   UNL     1      -9.238 -16.670  17.101  1.00  0.00     0.014 C 
ATOM      4  C   UNL     1      -9.100 -15.304  15.035  1.00  0.00     0.028 C 
ATOM      5  C   UNL     1      -7.334 -13.316  16.302  1.00  0.00     0.007 C 
ATOM      6  C   UNL     1      -9.511 -17.999  16.337  1.00  0.00     0.013 C 
ATOM      7  C   UNL     1      -9.852 -16.448  14.337  1.00  0.00    -0.064 C 
ATOM      8  C   UNL     1      -8.330 -14.339  14.117  1.00  0.00     0.015 C 
ATOM      9  C   UNL     1      -7.914 -13.032  14.874  1.00  0.00    -0.035 C 
ATOM     10  C   UNL     1      -9.549 -17.920  14.746  1.00  0.00    -0.006 C 
ATOM     11  C   UNL     1     -11.016 -16.089  13.698  1.00  0.00    -0.027 C 
ATOM     12  C   UNL     1      -9.123 -12.071  14.994  1.00  0.00     0.011 C 
ATOM     13  C   UNL     1      -6.832 -12.314  14.037  1.00  0.00     0.011 C 
ATOM     14  C   UNL     1      -8.128 -18.314  14.197  1.00  0.00     0.017 C 
ATOM     15  C   UNL     1     -10.670 -18.888  14.120  1.00  0.00    -0.020 C 
ATOM     16  C   UNL     1     -12.237 -16.989  13.550  1.00  0.00     0.032 C 
ATOM     17  C   UNL     1     -12.074 -18.237  14.445  1.00  0.00     0.006 C 
ATOM     18  C   UNL     1     -10.612 -20.338  14.667  1.00  0.00     0.008 C 
ATOM     19  C   UNL     1     -10.448 -18.991  12.569  1.00  0.00     0.012 C 
ATOM     20  C   UNL     1     -13.315 -19.222  14.719  1.00  0.00    -0.025 C 
ATOM     21  C   UNL     1     -11.714 -21.245  14.066  1.00  0.00     0.005 C 
ATOM     22  C   UNL     1     -13.171 -20.654  14.029  1.00  0.00     0.003 C 
ATOM     23  C   UNL     1     -14.710 -18.560  14.436  1.00  0.00     0.010 C 
ATOM     24  C   UNL     1     -13.370 -19.468  16.278  1.00  0.00     0.012 C 
ATOM     25  C   UNL     1     -14.001 -20.966  12.689  1.00  0.00    -0.006 C 
ATOM     26  C   UNL     1     -15.249 -18.762  13.032  1.00  0.00     0.033 C 
ATOM     27  C   UNL     1     -15.392 -20.266  12.749  1.00  0.00     0.120 C 
ATOM     28  C   UNL     1     -14.249 -22.499  12.615  1.00  0.00     0.014 C 
ATOM     29  C   UNL     1     -13.314 -20.583  11.347  1.00  0.00     0.014 C 
ENDROOT
BRANCH   1  30
ATOM     30  C   UNL     1      -6.926 -16.328  16.168  1.00  0.00     0.048 C 
ATOM     31  O   UNL     1      -6.411 -16.976  17.119  1.00  0.00    -0.550 OA
ATOM     32  O   UNL     1      -6.149 -16.116  15.036  1.00  0.00    -0.550 OA
ENDBRANCH   1  30
BRANCH  27  33
ATOM     33  O   UNL     1     -16.101 -20.457  11.548  1.00  0.00    -0.393 OA
ATOM     34  H   UNL     1     -16.984 -20.846  11.791  1.00  0.00     0.210 HD
ENDBRANCH  27  33
TORSDOF 2
ENDMDL
MODEL 2
REMARK VINA RESULT:    -6.731     11.092     13.694
REMARK INTER + INTRA:          -6.994
REMARK INTER:                  -7.331
REMARK INTRA:                   0.338
REMARK UNBOUND:                 0.327
REMARK SMILES CC1(C)CC[C@@]2(C(=O)[O-])CC[C@]3(C)C(=CC[C@H]4[C@@]5(C)CC[C@@H](O)C(C)(C)[C@H]5CC[C@@]43C)[C@@H]2C1
REMARK SMILES IDX 6 1 5 2 10 3 32 4 4 5 11 6 14 7 33 8 2 9 12 10 15 11 1 12
REMARK SMILES IDX 3 13 13 14 30 15 16 16 17 17 29 18 31 19 18 20 28 21 27 22
REMARK SMILES IDX 20 23 19 24 24 25 21 26 22 27 25 28 26 29 7 30 8 31 9 32
REMARK SMILES IDX 23 33
REMARK H PARENT 23 34
REMARK Flexibility Score: inf
ROOT
ATOM      1  C   UNL     1     -12.580  -7.481  10.770  1.00  0.00     0.017 C 
ATOM      2  C   UNL     1     -11.906  -8.379  11.840  1.00  0.00     0.014 C 
ATOM      3  C   UNL     1     -11.703  -7.382   9.495  1.00  0.00     0.014 C 
ATOM      4  C   UNL     1     -13.880  -8.229  10.328  1.00  0.00     0.028 C 
ATOM      5  C   UNL     1     -12.839  -8.637  13.052  1.00  0.00     0.007 C 
ATOM      6  C   UNL     1     -12.344  -6.520   8.367  1.00  0.00     0.013 C 
ATOM      7  C   UNL     1     -14.457  -7.824   8.962  1.00  0.00    -0.064 C 
ATOM      8  C   UNL     1     -14.899  -8.413  11.465  1.00  0.00     0.015 C 
ATOM      9  C   UNL     1     -14.269  -9.165  12.687  1.00  0.00    -0.035 C 
ATOM     10  C   UNL     1     -13.933  -6.531   8.267  1.00  0.00    -0.006 C 
ATOM     11  C   UNL     1     -15.091  -8.826   8.265  1.00  0.00    -0.027 C 
ATOM     12  C   UNL     1     -14.196 -10.686  12.405  1.00  0.00     0.011 C 
ATOM     13  C   UNL     1     -15.194  -8.962  13.908  1.00  0.00     0.011 C 
ATOM     14  C   UNL     1     -14.487  -5.280   9.044  1.00  0.00     0.017 C 
ATOM     15  C   UNL     1     -14.443  -6.503   6.742  1.00  0.00    -0.020 C 
ATOM     16  C   UNL     1     -15.128  -8.936   6.745  1.00  0.00     0.032 C 
ATOM     17  C   UNL     1     -14.135  -7.927   6.127  1.00  0.00     0.006 C 
ATOM     18  C   UNL     1     -13.776  -5.394   5.888  1.00  0.00     0.008 C 
ATOM     19  C   UNL     1     -15.985  -6.209   6.724  1.00  0.00     0.012 C 
ATOM     20  C   UNL     1     -13.742  -8.006   4.570  1.00  0.00    -0.025 C 
ATOM     21  C   UNL     1     -14.266  -5.401   4.418  1.00  0.00     0.005 C 
ATOM     22  C   UNL     1     -14.312  -6.797   3.697  1.00  0.00     0.003 C 
ATOM     23  C   UNL     1     -14.041  -9.404   3.922  1.00  0.00     0.010 C 
ATOM     24  C   UNL     1     -12.167  -7.927   4.488  1.00  0.00     0.012 C 
ATOM     25  C   UNL     1     -15.596  -7.042   2.763  1.00  0.00    -0.006 C 
ATOM     26  C   UNL     1     -15.407  -9.538   3.275  1.00  0.00     0.033 C 
ATOM     27  C   UNL     1     -15.556  -8.482   2.169  1.00  0.00     0.120 C 
ATOM     28  C   UNL     1     -15.533  -6.041   1.574  1.00  0.00     0.014 C 
ATOM     29  C   UNL     1     -16.985  -6.820   3.427  1.00  0.00     0.014 C 
ENDROOT
BRANCH   1  30
ATOM     30  C   UNL     1     -12.727  -6.087  11.395  1.00  0.00     0.048 C 
ATOM     31  O   UNL     1     -11.727  -5.326  11.488  1.00  0.00    -0.550 OA
ATOM     32  O   UNL     1     -13.915  -5.667  11.981  1.00  0.00    -0.550 OA
ENDBRANCH   1  30
BRANCH  27  33
ATOM     33  O   UNL     1     -16.716  -8.746   1.415  1.00  0.00    -0.393 OA
ATOM     34  H   UNL     1     -16.766  -9.733   1.295  1.00  0.00     0.210 HD
ENDBRANCH  27  33
TORSDOF 2
ENDMDL
MODEL 3
REMARK VINA RESULT:    -6.687      2.230      7.932
REMARK INTER + INTRA:          -6.946
REMARK INTER:                  -7.286
REMARK INTRA:                   0.340
REMARK UNBOUND:                 0.327
REMARK SMILES CC1(C)CC[C@@]2(C(=O)[O-])CC[C@]3(C)C(=CC[C@H]4[C@@]5(C)CC[C@@H](O)C(C)(C)[C@H]5CC[C@@]43C)[C@@H]2C1
REMARK SMILES IDX 6 1 5 2 10 3 32 4 4 5 11 6 14 7 33 8 2 9 12 10 15 11 1 12
REMARK SMILES IDX 3 13 13 14 30 15 16 16 17 17 29 18 31 19 18 20 28 21 27 22
REMARK SMILES IDX 20 23 19 24 24 25 21 26 22 27 25 28 26 29 7 30 8 31 9 32
REMARK SMILES IDX 23 33
REMARK H PARENT 23 34
REMARK Flexibility Score: inf
ROOT
ATOM      1  C   UNL     1     -11.302 -19.473  13.795  1.00  0.00     0.017 C 
ATOM      2  C   UNL     1     -11.889 -20.290  12.614  1.00  0.00     0.014 C 
ATOM      3  C   UNL     1      -9.845 -19.034  13.498  1.00  0.00     0.014 C 
ATOM      4  C   UNL     1     -12.133 -18.151  13.867  1.00  0.00     0.028 C 
ATOM      5  C   UNL     1     -13.397 -20.591  12.809  1.00  0.00     0.007 C 
ATOM      6  C   UNL     1      -9.212 -18.179  14.634  1.00  0.00     0.013 C 
ATOM      7  C   UNL     1     -11.463 -16.976  14.597  1.00  0.00    -0.064 C 
ATOM      8  C   UNL     1     -13.623 -18.378  14.175  1.00  0.00     0.015 C 
ATOM      9  C   UNL     1     -14.287 -19.341  13.131  1.00  0.00    -0.035 C 
ATOM     10  C   UNL     1     -10.196 -17.240  15.463  1.00  0.00    -0.006 C 
ATOM     11  C   UNL     1     -11.778 -15.724  14.120  1.00  0.00    -0.027 C 
ATOM     12  C   UNL     1     -14.597 -18.581  11.818  1.00  0.00     0.011 C 
ATOM     13  C   UNL     1     -15.631 -19.830  13.714  1.00  0.00     0.011 C 
ATOM     14  C   UNL     1     -10.626 -18.005  16.769  1.00  0.00     0.017 C 
ATOM     15  C   UNL     1      -9.511 -15.837  15.847  1.00  0.00    -0.020 C 
ATOM     16  C   UNL     1     -10.835 -14.527  14.138  1.00  0.00     0.032 C 
ATOM     17  C   UNL     1      -9.411 -14.993  14.513  1.00  0.00     0.006 C 
ATOM     18  C   UNL     1      -8.109 -15.988  16.492  1.00  0.00     0.008 C 
ATOM     19  C   UNL     1     -10.408 -15.102  16.905  1.00  0.00     0.012 C 
ATOM     20  C   UNL     1      -8.149 -14.012  14.335  1.00  0.00    -0.025 C 
ATOM     21  C   UNL     1      -7.461 -14.623  16.832  1.00  0.00     0.005 C 
ATOM     22  C   UNL     1      -7.513 -13.519  15.714  1.00  0.00     0.003 C 
ATOM     23  C   UNL     1      -8.418 -12.825  13.343  1.00  0.00     0.010 C 
ATOM     24  C   UNL     1      -7.031 -14.833  13.582  1.00  0.00     0.012 C 
ATOM     25  C   UNL     1      -7.827 -12.032  16.235  1.00  0.00    -0.006 C 
ATOM     26  C   UNL     1      -8.936 -11.551  13.984  1.00  0.00     0.033 C 
ATOM     27  C   UNL     1      -7.924 -11.053  15.027  1.00  0.00     0.120 C 
ATOM     28  C   UNL     1      -6.640 -11.566  17.125  1.00  0.00     0.014 C 
ATOM     29  C   UNL     1      -9.103 -11.863  17.111  1.00  0.00     0.014 C 
ENDROOT
BRANCH   1  30
ATOM     30  C   UNL     1     -11.314 -20.400  15.018  1.00  0.00     0.048 C 
ATOM     31  O   UNL     1     -10.446 -21.307  15.133  1.00  0.00    -0.550 OA
ATOM     32  O   UNL     1     -12.331 -20.355  15.963  1.00  0.00    -0.550 OA
ENDBRANCH   1  30
BRANCH  27  33
ATOM     33  O   UNL     1      -8.283  -9.761  15.456  1.00  0.00    -0.393 OA
ATOM     34  H   UNL     1      -9.101  -9.504  14.951  1.00  0.00     0.210 HD
ENDBRANCH  27  33
TORSDOF 2
ENDMDL
MODEL 4
REMARK VINA RESULT:    -6.490     14.004     17.384
REMARK INTER + INTRA:          -6.732
REMARK INTER:                  -7.072
REMARK INTRA:                   0.340
REMARK UNBOUND:                 0.327
REMARK SMILES CC1(C)CC[C@@]2(C(=O)[O-])CC[C@]3(C)C(=CC[C@H]4[C@@]5(C)CC[C@@H](O)C(C)(C)[C@H]5CC[C@@]43C)[C@@H]2C1
REMARK SMILES IDX 6 1 5 2 10 3 32 4 4 5 11 6 14 7 33 8 2 9 12 10 15 11 1 12
REMARK SMILES IDX 3 13 13 14 30 15 16 16 17 17 29 18 31 19 18 20 28 21 27 22
REMARK SMILES IDX 20 23 19 24 24 25 21 26 22 27 25 28 26 29 7 30 8 31 9 32
REMARK SMILES IDX 23 33
REMARK H PARENT 23 34
REMARK Flexibility Score: inf
ROOT
ATOM      1  C   UNL     1     -18.689 -12.404  -0.299  1.00  0.00     0.017 C 
ATOM      2  C   UNL     1     -19.745 -13.474  -0.683  1.00  0.00     0.014 C 
ATOM      3  C   UNL     1     -19.363 -11.039  -0.003  1.00  0.00     0.014 C 
ATOM      4  C   UNL     1     -18.069 -12.870   1.059  1.00  0.00     0.028 C 
ATOM      5  C   UNL     1     -19.119 -14.886  -0.813  1.00  0.00     0.007 C 
ATOM      6  C   UNL     1     -18.356  -9.931   0.423  1.00  0.00     0.013 C 
ATOM      7  C   UNL     1     -17.382 -11.778   1.893  1.00  0.00    -0.064 C 
ATOM      8  C   UNL     1     -17.331 -14.217   0.966  1.00  0.00     0.015 C 
ATOM      9  C   UNL     1     -18.265 -15.349   0.417  1.00  0.00    -0.035 C 
ATOM     10  C   UNL     1     -17.068 -10.401   1.235  1.00  0.00    -0.006 C 
ATOM     11  C   UNL     1     -17.455 -11.940   3.257  1.00  0.00    -0.027 C 
ATOM     12  C   UNL     1     -19.210 -15.858   1.534  1.00  0.00     0.011 C 
ATOM     13  C   UNL     1     -17.378 -16.536  -0.019  1.00  0.00     0.011 C 
ATOM     14  C   UNL     1     -15.882 -10.585   0.218  1.00  0.00     0.017 C 
ATOM     15  C   UNL     1     -16.656  -9.347   2.377  1.00  0.00    -0.020 C 
ATOM     16  C   UNL     1     -17.509 -10.797   4.264  1.00  0.00     0.032 C 
ATOM     17  C   UNL     1     -17.741  -9.461   3.523  1.00  0.00     0.006 C 
ATOM     18  C   UNL     1     -16.568  -7.885   1.868  1.00  0.00     0.008 C 
ATOM     19  C   UNL     1     -15.230  -9.713   2.921  1.00  0.00     0.012 C 
ATOM     20  C   UNL     1     -18.127  -8.126   4.331  1.00  0.00    -0.025 C 
ATOM     21  C   UNL     1     -16.192  -6.886   2.990  1.00  0.00     0.005 C 
ATOM     22  C   UNL     1     -16.973  -7.023   4.347  1.00  0.00     0.003 C 
ATOM     23  C   UNL     1     -18.702  -8.409   5.764  1.00  0.00     0.010 C 
ATOM     24  C   UNL     1     -19.365  -7.483   3.593  1.00  0.00     0.012 C 
ATOM     25  C   UNL     1     -16.080  -6.840   5.671  1.00  0.00    -0.006 C 
ATOM     26  C   UNL     1     -17.675  -8.429   6.881  1.00  0.00     0.033 C 
ATOM     27  C   UNL     1     -16.956  -7.072   6.940  1.00  0.00     0.120 C 
ATOM     28  C   UNL     1     -15.567  -5.373   5.715  1.00  0.00     0.014 C 
ATOM     29  C   UNL     1     -14.812  -7.735   5.777  1.00  0.00     0.014 C 
ENDROOT
BRANCH   1  30
ATOM     30  C   UNL     1     -17.753 -12.258  -1.507  1.00  0.00     0.048 C 
ATOM     31  O   UNL     1     -18.138 -11.635  -2.533  1.00  0.00    -0.550 OA
ATOM     32  O   UNL     1     -16.520 -12.895  -1.561  1.00  0.00    -0.550 OA
ENDBRANCH   1  30
BRANCH  27  33
ATOM     33  O   UNL     1     -16.173  -7.001   8.108  1.00  0.00    -0.393 OA
ATOM     34  H   UNL     1     -16.735  -7.343   8.855  1.00  0.00     0.210 HD
ENDBRANCH  27  33
TORSDOF 2
ENDMDL
MODEL 5
REMARK VINA RESULT:    -6.484      1.943      8.078
REMARK INTER + INTRA:          -6.726
REMARK INTER:                  -7.066
REMARK INTRA:                   0.340
REMARK UNBOUND:                 0.327
REMARK SMILES CC1(C)CC[C@@]2(C(=O)[O-])CC[C@]3(C)C(=CC[C@H]4[C@@]5(C)CC[C@@H](O)C(C)(C)[C@H]5CC[C@@]43C)[C@@H]2C1
REMARK SMILES IDX 6 1 5 2 10 3 32 4 4 5 11 6 14 7 33 8 2 9 12 10 15 11 1 12
REMARK SMILES IDX 3 13 13 14 30 15 16 16 17 17 29 18 31 19 18 20 28 21 27 22
REMARK SMILES IDX 20 23 19 24 24 25 21 26 22 27 25 28 26 29 7 30 8 31 9 32
REMARK SMILES IDX 23 33
REMARK H PARENT 23 34
REMARK Flexibility Score: inf
ROOT
ATOM      1  C   UNL     1     -15.498 -16.893  12.292  1.00  0.00     0.017 C 
ATOM      2  C   UNL     1     -16.989 -17.099  12.669  1.00  0.00     0.014 C 
ATOM      3  C   UNL     1     -14.911 -15.649  13.008  1.00  0.00     0.014 C 
ATOM      4  C   UNL     1     -14.726 -18.119  12.881  1.00  0.00     0.028 C 
ATOM      5  C   UNL     1     -17.550 -18.431  12.108  1.00  0.00     0.007 C 
ATOM      6  C   UNL     1     -13.405 -15.408  12.697  1.00  0.00     0.013 C 
ATOM      7  C   UNL     1     -13.215 -17.925  13.086  1.00  0.00    -0.064 C 
ATOM      8  C   UNL     1     -15.159 -19.465  12.275  1.00  0.00     0.015 C 
ATOM      9  C   UNL     1     -16.699 -19.704  12.445  1.00  0.00    -0.035 C 
ATOM     10  C   UNL     1     -12.509 -16.699  12.434  1.00  0.00    -0.006 C 
ATOM     11  C   UNL     1     -12.669 -18.606  14.149  1.00  0.00    -0.027 C 
ATOM     12  C   UNL     1     -17.017 -20.165  13.889  1.00  0.00     0.011 C 
ATOM     13  C   UNL     1     -17.118 -20.843  11.490  1.00  0.00     0.011 C 
ATOM     14  C   UNL     1     -12.423 -16.932  10.880  1.00  0.00     0.017 C 
ATOM     15  C   UNL     1     -11.032 -16.545  13.051  1.00  0.00    -0.020 C 
ATOM     16  C   UNL     1     -11.486 -18.118  14.976  1.00  0.00     0.032 C 
ATOM     17  C   UNL     1     -11.176 -16.646  14.622  1.00  0.00     0.006 C 
ATOM     18  C   UNL     1     -10.334 -15.216  12.662  1.00  0.00     0.008 C 
ATOM     19  C   UNL     1     -10.123 -17.700  12.498  1.00  0.00     0.012 C 
ATOM     20  C   UNL     1     -10.175 -15.774  15.529  1.00  0.00    -0.025 C 
ATOM     21  C   UNL     1      -8.923 -15.080  13.286  1.00  0.00     0.005 C 
ATOM     22  C   UNL     1      -8.791 -15.426  14.814  1.00  0.00     0.003 C 
ATOM     23  C   UNL     1      -9.971 -16.358  16.972  1.00  0.00     0.010 C 
ATOM     24  C   UNL     1     -10.898 -14.401  15.821  1.00  0.00     0.012 C 
ATOM     25  C   UNL     1      -7.471 -16.248  15.217  1.00  0.00    -0.006 C 
ATOM     26  C   UNL     1      -8.800 -17.309  17.125  1.00  0.00     0.033 C 
ATOM     27  C   UNL     1      -7.499 -16.588  16.739  1.00  0.00     0.120 C 
ATOM     28  C   UNL     1      -6.234 -15.342  14.961  1.00  0.00     0.014 C 
ATOM     29  C   UNL     1      -7.206 -17.560  14.424  1.00  0.00     0.014 C 
ENDROOT
BRANCH   1  30
ATOM     30  C   UNL     1     -15.455 -16.673  10.774  1.00  0.00     0.048 C 
ATOM     31  O   UNL     1     -15.821 -15.572  10.284  1.00  0.00    -0.550 OA
ATOM     32  O   UNL     1     -15.134 -17.698   9.894  1.00  0.00    -0.550 OA
ENDBRANCH   1  30
BRANCH  27  33
ATOM     33  O   UNL     1      -6.393 -17.382  17.095  1.00  0.00    -0.393 OA
ATOM     34  H   UNL     1      -6.396 -17.455  18.088  1.00  0.00     0.210 HD
ENDBRANCH  27  33
TORSDOF 2
ENDMDL
MODEL 6
REMARK VINA RESULT:    -6.405     10.094     12.708
REMARK INTER + INTRA:          -6.640
REMARK INTER:                  -6.998
REMARK INTRA:                   0.359
REMARK UNBOUND:                 0.327
REMARK SMILES CC1(C)CC[C@@]2(C(=O)[O-])CC[C@]3(C)C(=CC[C@H]4[C@@]5(C)CC[C@@H](O)C(C)(C)[C@H]5CC[C@@]43C)[C@@H]2C1
REMARK SMILES IDX 6 1 5 2 10 3 32 4 4 5 11 6 14 7 33 8 2 9 12 10 15 11 1 12
REMARK SMILES IDX 3 13 13 14 30 15 16 16 17 17 29 18 31 19 18 20 28 21 27 22
REMARK SMILES IDX 20 23 19 24 24 25 21 26 22 27 25 28 26 29 7 30 8 31 9 32
REMARK SMILES IDX 23 33
REMARK H PARENT 23 34
REMARK Flexibility Score: inf
ROOT
ATOM      1  C   UNL     1     -12.350  -7.963  11.979  1.00  0.00     0.017 C 
ATOM      2  C   UNL     1     -11.345  -7.376  13.006  1.00  0.00     0.014 C 
ATOM      3  C   UNL     1     -13.481  -6.950  11.667  1.00  0.00     0.014 C 
ATOM      4  C   UNL     1     -11.557  -8.133  10.642  1.00  0.00     0.028 C 
ATOM      5  C   UNL     1     -10.113  -8.297  13.203  1.00  0.00     0.007 C 
ATOM      6  C   UNL     1     -14.503  -7.469  10.614  1.00  0.00     0.013 C 
ATOM      7  C   UNL     1     -12.407  -8.218   9.364  1.00  0.00    -0.064 C 
ATOM      8  C   UNL     1     -10.387  -9.127  10.744  1.00  0.00     0.015 C 
ATOM      9  C   UNL     1      -9.387  -8.725  11.882  1.00  0.00    -0.035 C 
ATOM     10  C   UNL     1     -13.943  -8.443   9.485  1.00  0.00    -0.006 C 
ATOM     11  C   UNL     1     -11.829  -7.692   8.232  1.00  0.00    -0.027 C 
ATOM     12  C   UNL     1      -8.466  -7.573  11.407  1.00  0.00     0.011 C 
ATOM     13  C   UNL     1      -8.489  -9.944  12.187  1.00  0.00     0.011 C 
ATOM     14  C   UNL     1     -14.203  -9.927   9.939  1.00  0.00     0.017 C 
ATOM     15  C   UNL     1     -14.635  -8.174   8.058  1.00  0.00    -0.020 C 
ATOM     16  C   UNL     1     -12.597  -7.031   7.094  1.00  0.00     0.032 C 
ATOM     17  C   UNL     1     -14.064  -6.800   7.521  1.00  0.00     0.006 C 
ATOM     18  C   UNL     1     -16.183  -8.123   8.120  1.00  0.00     0.008 C 
ATOM     19  C   UNL     1     -14.269  -9.349   7.083  1.00  0.00     0.012 C 
ATOM     20  C   UNL     1     -15.040  -5.869   6.647  1.00  0.00    -0.025 C 
ATOM     21  C   UNL     1     -16.824  -7.841   6.739  1.00  0.00     0.005 C 
ATOM     22  C   UNL     1     -16.198  -6.670   5.896  1.00  0.00     0.003 C 
ATOM     23  C   UNL     1     -14.274  -4.889   5.689  1.00  0.00     0.010 C 
ATOM     24  C   UNL     1     -15.746  -4.875   7.650  1.00  0.00     0.012 C 
ATOM     25  C   UNL     1     -16.059  -6.960   4.322  1.00  0.00    -0.006 C 
ATOM     26  C   UNL     1     -14.020  -5.419   4.290  1.00  0.00     0.033 C 
ATOM     27  C   UNL     1     -15.360  -5.757   3.619  1.00  0.00     0.120 C 
ATOM     28  C   UNL     1     -17.487  -7.092   3.721  1.00  0.00     0.014 C 
ATOM     29  C   UNL     1     -15.311  -8.265   3.924  1.00  0.00     0.014 C 
ENDROOT
BRANCH   1  30
ATOM     30  C   UNL     1     -12.954  -9.218  12.624  1.00  0.00     0.048 C 
ATOM     31  O   UNL     1     -13.970  -9.122  13.364  1.00  0.00    -0.550 OA
ATOM     32  O   UNL     1     -12.347 -10.462  12.518  1.00  0.00    -0.550 OA
ENDBRANCH   1  30
BRANCH  27  33
ATOM     33  O   UNL     1     -15.152  -6.027   2.253  1.00  0.00    -0.393 OA
ATOM     34  H   UNL     1     -15.243  -5.162   1.769  1.00  0.00     0.210 HD
ENDBRANCH  27  33
TORSDOF 2
ENDMDL
MODEL 7
REMARK VINA RESULT:    -6.384      3.316      4.595
REMARK INTER + INTRA:          -6.616
REMARK INTER:                  -6.947
REMARK INTRA:                   0.331
REMARK UNBOUND:                 0.327
REMARK SMILES CC1(C)CC[C@@]2(C(=O)[O-])CC[C@]3(C)C(=CC[C@H]4[C@@]5(C)CC[C@@H](O)C(C)(C)[C@H]5CC[C@@]43C)[C@@H]2C1
REMARK SMILES IDX 6 1 5 2 10 3 32 4 4 5 11 6 14 7 33 8 2 9 12 10 15 11 1 12
REMARK SMILES IDX 3 13 13 14 30 15 16 16 17 17 29 18 31 19 18 20 28 21 27 22
REMARK SMILES IDX 20 23 19 24 24 25 21 26 22 27 25 28 26 29 7 30 8 31 9 32
REMARK SMILES IDX 23 33
REMARK H PARENT 23 34
REMARK Flexibility Score: inf
ROOT
ATOM      1  C   UNL     1     -11.530 -13.387  12.488  1.00  0.00     0.017 C 
ATOM      2  C   UNL     1     -11.418 -12.004  13.182  1.00  0.00     0.014 C 
ATOM      3  C   UNL     1     -11.242 -14.536  13.488  1.00  0.00     0.014 C 
ATOM      4  C   UNL     1     -13.031 -13.550  12.081  1.00  0.00     0.028 C 
ATOM      5  C   UNL     1     -11.871 -10.849  12.252  1.00  0.00     0.007 C 
ATOM      6  C   UNL     1     -11.374 -15.953  12.858  1.00  0.00     0.013 C 
ATOM      7  C   UNL     1     -13.508 -14.991  11.838  1.00  0.00    -0.064 C 
ATOM      8  C   UNL     1     -13.510 -12.498  11.067  1.00  0.00     0.015 C 
ATOM      9  C   UNL     1     -13.281 -11.041  11.596  1.00  0.00    -0.035 C 
ATOM     10  C   UNL     1     -12.453 -16.129  11.699  1.00  0.00    -0.006 C 
ATOM     11  C   UNL     1     -14.821 -15.243  12.159  1.00  0.00    -0.027 C 
ATOM     12  C   UNL     1     -14.379 -10.661  12.621  1.00  0.00     0.011 C 
ATOM     13  C   UNL     1     -13.404 -10.069  10.401  1.00  0.00     0.011 C 
ATOM     14  C   UNL     1     -11.722 -15.974  10.315  1.00  0.00     0.017 C 
ATOM     15  C   UNL     1     -13.194 -17.554  11.775  1.00  0.00    -0.020 C 
ATOM     16  C   UNL     1     -15.347 -16.579  12.670  1.00  0.00     0.032 C 
ATOM     17  C   UNL     1     -14.162 -17.504  13.025  1.00  0.00     0.006 C 
ATOM     18  C   UNL     1     -12.219 -18.753  11.901  1.00  0.00     0.008 C 
ATOM     19  C   UNL     1     -14.005 -17.780  10.450  1.00  0.00     0.012 C 
ATOM     20  C   UNL     1     -14.395 -18.863  13.852  1.00  0.00    -0.025 C 
ATOM     21  C   UNL     1     -12.956 -20.112  11.995  1.00  0.00     0.005 C 
ATOM     22  C   UNL     1     -14.167 -20.190  12.995  1.00  0.00     0.003 C 
ATOM     23  C   UNL     1     -15.753 -18.888  14.640  1.00  0.00     0.010 C 
ATOM     24  C   UNL     1     -13.330 -18.881  15.017  1.00  0.00     0.012 C 
ATOM     25  C   UNL     1     -15.442 -21.008  12.462  1.00  0.00    -0.006 C 
ATOM     26  C   UNL     1     -16.924 -19.496  13.892  1.00  0.00     0.033 C 
ATOM     27  C   UNL     1     -16.592 -20.947  13.512  1.00  0.00     0.120 C 
ATOM     28  C   UNL     1     -15.032 -22.500  12.300  1.00  0.00     0.014 C 
ATOM     29  C   UNL     1     -16.013 -20.575  11.080  1.00  0.00     0.014 C 
ENDROOT
BRANCH   1  30
ATOM     30  C   UNL     1     -10.474 -13.406  11.374  1.00  0.00     0.048 C 
ATOM     31  O   UNL     1      -9.262 -13.606  11.654  1.00  0.00    -0.550 OA
ATOM     32  O   UNL     1     -10.790 -13.089  10.059  1.00  0.00    -0.550 OA
ENDBRANCH   1  30
BRANCH  27  33
ATOM     33  O   UNL     1     -17.748 -21.587  13.027  1.00  0.00    -0.393 OA
ATOM     34  H   UNL     1     -18.223 -20.930  12.449  1.00  0.00     0.210 HD
ENDBRANCH  27  33
TORSDOF 2
ENDMDL
MODEL 8
REMARK VINA RESULT:    -6.362      3.938      8.727
REMARK INTER + INTRA:          -6.593
REMARK INTER:                  -6.935
REMARK INTRA:                   0.342
REMARK UNBOUND:                 0.327
REMARK SMILES CC1(C)CC[C@@]2(C(=O)[O-])CC[C@]3(C)C(=CC[C@H]4[C@@]5(C)CC[C@@H](O)C(C)(C)[C@H]5CC[C@@]43C)[C@@H]2C1
REMARK SMILES IDX 6 1 5 2 10 3 32 4 4 5 11 6 14 7 33 8 2 9 12 10 15 11 1 12
REMARK SMILES IDX 3 13 13 14 30 15 16 16 17 17 29 18 31 19 18 20 28 21 27 22
REMARK SMILES IDX 20 23 19 24 24 25 21 26 22 27 25 28 26 29 7 30 8 31 9 32
REMARK SMILES IDX 23 33
REMARK H PARENT 23 34
REMARK Flexibility Score: inf
ROOT
ATOM      1  C   UNL     1     -14.263 -19.233  13.325  1.00  0.00     0.017 C 
ATOM      2  C   UNL     1     -13.979 -20.747  13.142  1.00  0.00     0.014 C 
ATOM      3  C   UNL     1     -12.960 -18.458  13.648  1.00  0.00     0.014 C 
ATOM      4  C   UNL     1     -14.732 -18.705  11.930  1.00  0.00     0.028 C 
ATOM      5  C   UNL     1     -15.231 -21.517  12.648  1.00  0.00     0.007 C 
ATOM      6  C   UNL     1     -13.175 -16.924  13.808  1.00  0.00     0.013 C 
ATOM      7  C   UNL     1     -14.599 -17.191  11.706  1.00  0.00    -0.064 C 
ATOM      8  C   UNL     1     -16.038 -19.351  11.436  1.00  0.00     0.015 C 
ATOM      9  C   UNL     1     -15.922 -20.913  11.378  1.00  0.00    -0.035 C 
ATOM     10  C   UNL     1     -14.323 -16.262  12.926  1.00  0.00    -0.006 C 
ATOM     11  C   UNL     1     -14.331 -16.804  10.413  1.00  0.00    -0.027 C 
ATOM     12  C   UNL     1     -15.141 -21.349  10.113  1.00  0.00     0.011 C 
ATOM     13  C   UNL     1     -17.347 -21.498  11.269  1.00  0.00     0.011 C 
ATOM     14  C   UNL     1     -15.629 -16.173  13.799  1.00  0.00     0.017 C 
ATOM     15  C   UNL     1     -13.912 -14.799  12.399  1.00  0.00    -0.020 C 
ATOM     16  C   UNL     1     -13.511 -15.578  10.028  1.00  0.00     0.032 C 
ATOM     17  C   UNL     1     -12.813 -15.004  11.281  1.00  0.00     0.006 C 
ATOM     18  C   UNL     1     -13.373 -13.868  13.515  1.00  0.00     0.008 C 
ATOM     19  C   UNL     1     -15.184 -14.092  11.808  1.00  0.00     0.012 C 
ATOM     20  C   UNL     1     -11.659 -13.892  11.145  1.00  0.00    -0.025 C 
ATOM     21  C   UNL     1     -12.964 -12.473  12.980  1.00  0.00     0.005 C 
ATOM     22  C   UNL     1     -12.087 -12.449  11.675  1.00  0.00     0.003 C 
ATOM     23  C   UNL     1     -11.013 -13.836   9.715  1.00  0.00     0.010 C 
ATOM     24  C   UNL     1     -10.452 -14.370  12.042  1.00  0.00     0.012 C 
ATOM     25  C   UNL     1     -12.473 -11.306  10.614  1.00  0.00    -0.006 C 
ATOM     26  C   UNL     1     -11.656 -12.855   8.753  1.00  0.00     0.033 C 
ATOM     27  C   UNL     1     -11.583 -11.437   9.341  1.00  0.00     0.120 C 
ATOM     28  C   UNL     1     -12.174  -9.921  11.256  1.00  0.00     0.014 C 
ATOM     29  C   UNL     1     -13.963 -11.252  10.169  1.00  0.00     0.014 C 
ENDROOT
BRANCH   1  30
ATOM     30  C   UNL     1     -15.234 -19.109  14.507  1.00  0.00     0.048 C 
ATOM     31  O   UNL     1     -14.793 -19.062  15.687  1.00  0.00    -0.550 OA
ATOM     32  O   UNL     1     -16.611 -19.164  14.334  1.00  0.00    -0.550 OA
ENDBRANCH   1  30
BRANCH  27  33
ATOM     33  O   UNL     1     -11.963 -10.498   8.364  1.00  0.00    -0.393 OA
ATOM     34  H   UNL     1     -12.727  -9.982   8.740  1.00  0.00     0.210 HD
ENDBRANCH  27  33
TORSDOF 2
ENDMDL
MODEL 9
REMARK VINA RESULT:    -6.353     11.397     15.177
REMARK INTER + INTRA:          -6.583
REMARK INTER:                  -6.943
REMARK INTRA:                   0.360
REMARK UNBOUND:                 0.327
REMARK SMILES CC1(C)CC[C@@]2(C(=O)[O-])CC[C@]3(C)C(=CC[C@H]4[C@@]5(C)CC[C@@H](O)C(C)(C)[C@H]5CC[C@@]43C)[C@@H]2C1
REMARK SMILES IDX 6 1 5 2 10 3 32 4 4 5 11 6 14 7 33 8 2 9 12 10 15 11 1 12
REMARK SMILES IDX 3 13 13 14 30 15 16 16 17 17 29 18 31 19 18 20 28 21 27 22
REMARK SMILES IDX 20 23 19 24 24 25 21 26 22 27 25 28 26 29 7 30 8 31 9 32
REMARK SMILES IDX 23 33
REMARK H PARENT 23 34
REMARK Flexibility Score: inf
ROOT
ATOM      1  C   UNL     1     -18.794  -9.203   4.656  1.00  0.00     0.017 C 
ATOM      2  C   UNL     1     -19.982 -10.176   4.437  1.00  0.00     0.014 C 
ATOM      3  C   UNL     1     -18.942  -8.438   5.997  1.00  0.00     0.014 C 
ATOM      4  C   UNL     1     -17.522 -10.097   4.821  1.00  0.00     0.028 C 
ATOM      5  C   UNL     1     -19.771 -11.078   3.194  1.00  0.00     0.007 C 
ATOM      6  C   UNL     1     -17.760  -7.469   6.291  1.00  0.00     0.013 C 
ATOM      7  C   UNL     1     -16.327  -9.440   5.530  1.00  0.00    -0.064 C 
ATOM      8  C   UNL     1     -17.193 -10.933   3.572  1.00  0.00     0.015 C 
ATOM      9  C   UNL     1     -18.401 -11.838   3.150  1.00  0.00    -0.035 C 
ATOM     10  C   UNL     1     -16.325  -7.898   5.749  1.00  0.00    -0.006 C 
ATOM     11  C   UNL     1     -15.539 -10.288   6.274  1.00  0.00    -0.027 C 
ATOM     12  C   UNL     1     -18.480 -13.089   4.059  1.00  0.00     0.011 C 
ATOM     13  C   UNL     1     -18.155 -12.326   1.705  1.00  0.00     0.011 C 
ATOM     14  C   UNL     1     -16.089  -7.191   4.363  1.00  0.00     0.017 C 
ATOM     15  C   UNL     1     -15.150  -7.507   6.774  1.00  0.00    -0.020 C 
ATOM     16  C   UNL     1     -14.794  -9.889   7.542  1.00  0.00     0.032 C 
ATOM     17  C   UNL     1     -15.266  -8.493   8.005  1.00  0.00     0.006 C 
ATOM     18  C   UNL     1     -15.215  -6.035   7.259  1.00  0.00     0.008 C 
ATOM     19  C   UNL     1     -13.765  -7.675   6.054  1.00  0.00     0.012 C 
ATOM     20  C   UNL     1     -14.874  -7.931   9.460  1.00  0.00    -0.025 C 
ATOM     21  C   UNL     1     -14.087  -5.689   8.262  1.00  0.00     0.005 C 
ATOM     22  C   UNL     1     -13.841  -6.715   9.427  1.00  0.00     0.003 C 
ATOM     23  C   UNL     1     -14.442  -9.056  10.467  1.00  0.00     0.010 C 
ATOM     24  C   UNL     1     -16.203  -7.386  10.116  1.00  0.00     0.012 C 
ATOM     25  C   UNL     1     -12.298  -6.988   9.783  1.00  0.00    -0.006 C 
ATOM     26  C   UNL     1     -12.954  -9.348  10.509  1.00  0.00     0.033 C 
ATOM     27  C   UNL     1     -12.191  -8.072  10.898  1.00  0.00     0.120 C 
ATOM     28  C   UNL     1     -11.687  -5.673  10.347  1.00  0.00     0.014 C 
ATOM     29  C   UNL     1     -11.379  -7.406   8.599  1.00  0.00     0.014 C 
ENDROOT
BRANCH   1  30
ATOM     30  C   UNL     1     -18.827  -8.202   3.493  1.00  0.00     0.048 C 
ATOM     31  O   UNL     1     -19.520  -7.153   3.581  1.00  0.00    -0.550 OA
ATOM     32  O   UNL     1     -18.205  -8.466   2.280  1.00  0.00    -0.550 OA
ENDBRANCH   1  30
BRANCH  27  33
ATOM     33  O   UNL     1     -10.845  -8.387  11.164  1.00  0.00    -0.393 OA
ATOM     34  H   UNL     1     -10.793  -9.376  11.263  1.00  0.00     0.210 HD
ENDBRANCH  27  33
TORSDOF 2
ENDMDL
