MODEL 1
REMARK VINA RESULT:    -2.880      0.000      0.000
REMARK INTER + INTRA:          -6.164
REMARK INTER:                  -5.574
REMARK INTRA:                  -0.591
REMARK UNBOUND:                -0.591
REMARK SMILES CCCCCCCCCCCCCCCCCC(=O)[O-]
REMARK SMILES IDX 10 1 11 2 12 3 13 4 14 5 15 6 16 7 17 8 18 9 19 10 20 11
REMARK SMILES IDX 9 12 8 13 7 14 6 15 5 16 4 17 3 18 2 19 1 20
REMARK H PARENT
REMARK Flexibility Score: inf
ROOT
ATOM      1  C   UNL     1      22.401  21.896  -9.747  1.00  0.00     0.000 C 
ENDROOT
BRANCH   1   2
ATOM      2  C   UNL     1      22.614  20.465 -10.269  1.00  0.00     0.000 C 
BRANCH   2   3
ATOM      3  C   UNL     1      21.401  19.934 -11.049  1.00  0.00     0.000 C 
BRANCH   3   4
ATOM      4  C   UNL     1      20.770  18.691 -10.396  1.00  0.00     0.000 C 
BRANCH   4   5
ATOM      5  C   UNL     1      19.486  18.239 -11.123  1.00  0.00     0.000 C 
BRANCH   5   6
ATOM      6  C   UNL     1      18.364  19.290 -11.101  1.00  0.00     0.000 C 
BRANCH   6   7
ATOM      7  C   UNL     1      17.213  18.916 -10.153  1.00  0.00     0.006 C 
BRANCH   7   8
ATOM      8  C   UNL     1      15.902  18.653 -10.906  1.00  0.00     0.053 C 
BRANCH   8   9
ATOM      9  C   UNL     1      14.745  19.367 -10.276  1.00  0.00     0.041 C 
ATOM     10  O   UNL     1      14.456  19.164  -9.068  1.00  0.00    -0.550 OA
ATOM     11  O   UNL     1      14.006  20.282 -11.015  1.00  0.00    -0.550 OA
ENDBRANCH   8   9
ENDBRANCH   7   8
ENDBRANCH   6   7
ENDBRANCH   5   6
ENDBRANCH   4   5
ENDBRANCH   3   4
ENDBRANCH   2   3
ENDBRANCH   1   2
BRANCH   1  12
ATOM     12  C   UNL     1      22.387  22.940 -10.876  1.00  0.00     0.000 C 
BRANCH  12  13
ATOM     13  C   UNL     1      23.716  23.706 -10.993  1.00  0.00    -0.000 C 
BRANCH  13  14
ATOM     14  C   UNL     1      24.840  23.066 -10.163  1.00  0.00    -0.000 C 
BRANCH  14  15
ATOM     15  C   UNL     1      26.234  23.589 -10.555  1.00  0.00    -0.000 C 
BRANCH  15  16
ATOM     16  C   UNL     1      26.224  25.076 -10.945  1.00  0.00    -0.000 C 
BRANCH  16  17
ATOM     17  C   UNL     1      27.642  25.648 -11.120  1.00  0.00    -0.000 C 
BRANCH  17  18
ATOM     18  C   UNL     1      27.679  27.187 -11.056  1.00  0.00    -0.000 C 
BRANCH  18  19
ATOM     19  C   UNL     1      27.372  27.789  -9.673  1.00  0.00    -0.003 C 
ATOM     20  C   UNL     1      27.327  29.317  -9.682  1.00  0.00     0.004 C 
ENDBRANCH  18  19
ENDBRANCH  17  18
ENDBRANCH  16  17
ENDBRANCH  15  16
ENDBRANCH  14  15
ENDBRANCH  13  14
ENDBRANCH  12  13
ENDBRANCH   1  12
TORSDOF 16
ENDMDL
MODEL 2
REMARK VINA RESULT:    -2.347     13.522     16.200
REMARK INTER + INTRA:          -5.133
REMARK INTER:                  -4.366
REMARK INTRA:                  -0.768
REMARK UNBOUND:                -0.591
REMARK SMILES CCCCCCCCCCCCCCCCCC(=O)[O-]
REMARK SMILES IDX 10 1 11 2 12 3 13 4 14 5 15 6 16 7 17 8 18 9 19 10 20 11
REMARK SMILES IDX 9 12 8 13 7 14 6 15 5 16 4 17 3 18 2 19 1 20
REMARK H PARENT
REMARK Flexibility Score: inf
ROOT
ATOM      1  C   UNL     1      28.935  25.858   2.552  1.00  0.00     0.000 C 
ENDROOT
BRANCH   1   2
ATOM      2  C   UNL     1      28.705  25.781   1.033  1.00  0.00     0.000 C 
BRANCH   2   3
ATOM      3  C   UNL     1      27.333  25.193   0.672  1.00  0.00     0.000 C 
BRANCH   3   4
ATOM      4  C   UNL     1      27.288  24.619  -0.757  1.00  0.00     0.000 C 
BRANCH   4   5
ATOM      5  C   UNL     1      28.524  25.028  -1.586  1.00  0.00     0.000 C 
BRANCH   5   6
ATOM      6  C   UNL     1      28.989  23.943  -2.573  1.00  0.00     0.000 C 
BRANCH   6   7
ATOM      7  C   UNL     1      28.829  22.519  -2.015  1.00  0.00     0.006 C 
BRANCH   7   8
ATOM      8  C   UNL     1      27.957  21.636  -2.918  1.00  0.00     0.053 C 
BRANCH   8   9
ATOM      9  C   UNL     1      28.461  20.226  -2.971  1.00  0.00     0.041 C 
ATOM     10  O   UNL     1      28.996  19.784  -4.021  1.00  0.00    -0.550 OA
ATOM     11  O   UNL     1      28.367  19.411  -1.851  1.00  0.00    -0.550 OA
ENDBRANCH   8   9
ENDBRANCH   7   8
ENDBRANCH   6   7
ENDBRANCH   5   6
ENDBRANCH   4   5
ENDBRANCH   3   4
ENDBRANCH   2   3
ENDBRANCH   1   2
BRANCH   1  12
ATOM     12  C   UNL     1      29.009  27.304   3.067  1.00  0.00     0.000 C 
BRANCH  12  13
ATOM     13  C   UNL     1      28.390  27.469   4.466  1.00  0.00    -0.000 C 
BRANCH  13  14
ATOM     14  C   UNL     1      27.510  28.725   4.576  1.00  0.00    -0.000 C 
BRANCH  14  15
ATOM     15  C   UNL     1      28.336  30.024   4.591  1.00  0.00    -0.000 C 
BRANCH  15  16
ATOM     16  C   UNL     1      29.125  30.213   5.897  1.00  0.00    -0.000 C 
BRANCH  16  17
ATOM     17  C   UNL     1      28.608  31.399   6.731  1.00  0.00    -0.000 C 
BRANCH  17  18
ATOM     18  C   UNL     1      28.792  31.191   8.246  1.00  0.00    -0.000 C 
BRANCH  18  19
ATOM     19  C   UNL     1      28.745  32.477   9.090  1.00  0.00    -0.003 C 
ATOM     20  C   UNL     1      29.102  33.731   8.291  1.00  0.00     0.004 C 
ENDBRANCH  18  19
ENDBRANCH  17  18
ENDBRANCH  16  17
ENDBRANCH  15  16
ENDBRANCH  14  15
ENDBRANCH  13  14
ENDBRANCH  12  13
ENDBRANCH   1  12
TORSDOF 16
ENDMDL
MODEL 3
REMARK VINA RESULT:    -2.344     12.707     15.181
REMARK INTER + INTRA:          -5.128
REMARK INTER:                  -4.461
REMARK INTRA:                  -0.667
REMARK UNBOUND:                -0.591
REMARK SMILES CCCCCCCCCCCCCCCCCC(=O)[O-]
REMARK SMILES IDX 10 1 11 2 12 3 13 4 14 5 15 6 16 7 17 8 18 9 19 10 20 11
REMARK SMILES IDX 9 12 8 13 7 14 6 15 5 16 4 17 3 18 2 19 1 20
REMARK H PARENT
REMARK Flexibility Score: inf
ROOT
ATOM      1  C   UNL     1      26.990  25.399   1.537  1.00  0.00     0.000 C 
ENDROOT
BRANCH   1   2
ATOM      2  C   UNL     1      27.595  24.994   0.182  1.00  0.00     0.000 C 
BRANCH   2   3
ATOM      3  C   UNL     1      26.533  24.516  -0.821  1.00  0.00     0.000 C 
BRANCH   3   4
ATOM      4  C   UNL     1      27.099  23.541  -1.869  1.00  0.00     0.000 C 
BRANCH   4   5
ATOM      5  C   UNL     1      28.615  23.733  -2.083  1.00  0.00     0.000 C 
BRANCH   5   6
ATOM      6  C   UNL     1      29.096  23.327  -3.487  1.00  0.00     0.000 C 
BRANCH   6   7
ATOM      7  C   UNL     1      28.641  21.913  -3.888  1.00  0.00     0.006 C 
BRANCH   7   8
ATOM      8  C   UNL     1      29.105  20.848  -2.885  1.00  0.00     0.053 C 
BRANCH   8   9
ATOM      9  C   UNL     1      28.244  19.623  -2.936  1.00  0.00     0.041 C 
ATOM     10  O   UNL     1      28.017  19.053  -4.036  1.00  0.00    -0.550 OA
ATOM     11  O   UNL     1      27.719  19.091  -1.765  1.00  0.00    -0.550 OA
ENDBRANCH   8   9
ENDBRANCH   7   8
ENDBRANCH   6   7
ENDBRANCH   5   6
ENDBRANCH   4   5
ENDBRANCH   3   4
ENDBRANCH   2   3
ENDBRANCH   1   2
BRANCH   1  12
ATOM     12  C   UNL     1      28.059  25.617   2.619  1.00  0.00     0.000 C 
BRANCH  12  13
ATOM     13  C   UNL     1      28.962  26.828   2.327  1.00  0.00    -0.000 C 
BRANCH  13  14
ATOM     14  C   UNL     1      29.125  27.749   3.548  1.00  0.00    -0.000 C 
BRANCH  14  15
ATOM     15  C   UNL     1      28.734  29.206   3.242  1.00  0.00    -0.000 C 
BRANCH  15  16
ATOM     16  C   UNL     1      28.759  30.105   4.489  1.00  0.00    -0.000 C 
BRANCH  16  17
ATOM     17  C   UNL     1      28.246  29.382   5.747  1.00  0.00    -0.000 C 
BRANCH  17  18
ATOM     18  C   UNL     1      28.593  30.128   7.049  1.00  0.00    -0.000 C 
BRANCH  18  19
ATOM     19  C   UNL     1      28.920  29.223   8.251  1.00  0.00    -0.003 C 
ATOM     20  C   UNL     1      27.701  28.925   9.125  1.00  0.00     0.004 C 
ENDBRANCH  18  19
ENDBRANCH  17  18
ENDBRANCH  16  17
ENDBRANCH  15  16
ENDBRANCH  14  15
ENDBRANCH  13  14
ENDBRANCH  12  13
ENDBRANCH   1  12
TORSDOF 16
ENDMDL
MODEL 4
REMARK VINA RESULT:    -1.992     10.767     13.358
REMARK INTER + INTRA:          -4.445
REMARK INTER:                  -3.730
REMARK INTRA:                  -0.716
REMARK UNBOUND:                -0.591
REMARK SMILES CCCCCCCCCCCCCCCCCC(=O)[O-]
REMARK SMILES IDX 10 1 11 2 12 3 13 4 14 5 15 6 16 7 17 8 18 9 19 10 20 11
REMARK SMILES IDX 9 12 8 13 7 14 6 15 5 16 4 17 3 18 2 19 1 20
REMARK H PARENT
REMARK Flexibility Score: inf
ROOT
ATOM      1  C   UNL     1      27.344  24.017  -1.240  1.00  0.00     0.000 C 
ENDROOT
BRANCH   1   2
ATOM      2  C   UNL     1      27.427  23.468  -2.674  1.00  0.00     0.000 C 
BRANCH   2   3
ATOM      3  C   UNL     1      28.445  22.324  -2.812  1.00  0.00     0.000 C 
BRANCH   3   4
ATOM      4  C   UNL     1      28.895  22.099  -4.266  1.00  0.00     0.000 C 
BRANCH   4   5
ATOM      5  C   UNL     1      29.079  23.427  -5.031  1.00  0.00     0.000 C 
BRANCH   5   6
ATOM      6  C   UNL     1      29.125  23.257  -6.559  1.00  0.00     0.000 C 
BRANCH   6   7
ATOM      7  C   UNL     1      29.017  24.594  -7.312  1.00  0.00     0.006 C 
BRANCH   7   8
ATOM      8  C   UNL     1      28.184  24.471  -8.595  1.00  0.00     0.053 C 
BRANCH   8   9
ATOM      9  C   UNL     1      28.648  25.424  -9.654  1.00  0.00     0.041 C 
ATOM     10  O   UNL     1      28.727  26.656  -9.407  1.00  0.00    -0.550 OA
ATOM     11  O   UNL     1      29.025  24.947 -10.903  1.00  0.00    -0.550 OA
ENDBRANCH   8   9
ENDBRANCH   7   8
ENDBRANCH   6   7
ENDBRANCH   5   6
ENDBRANCH   4   5
ENDBRANCH   3   4
ENDBRANCH   2   3
ENDBRANCH   1   2
BRANCH   1  12
ATOM     12  C   UNL     1      28.355  25.145  -0.979  1.00  0.00     0.000 C 
BRANCH  12  13
ATOM     13  C   UNL     1      28.734  25.272   0.507  1.00  0.00    -0.000 C 
BRANCH  13  14
ATOM     14  C   UNL     1      27.523  25.106   1.439  1.00  0.00    -0.000 C 
BRANCH  14  15
ATOM     15  C   UNL     1      27.894  25.275   2.923  1.00  0.00    -0.000 C 
BRANCH  15  16
ATOM     16  C   UNL     1      28.986  26.334   3.148  1.00  0.00    -0.000 C 
BRANCH  16  17
ATOM     17  C   UNL     1      28.537  27.449   4.109  1.00  0.00    -0.000 C 
BRANCH  17  18
ATOM     18  C   UNL     1      29.125  28.825   3.745  1.00  0.00    -0.000 C 
BRANCH  18  19
ATOM     19  C   UNL     1      28.194  30.021   4.013  1.00  0.00    -0.003 C 
ATOM     20  C   UNL     1      27.881  30.216   5.497  1.00  0.00     0.004 C 
ENDBRANCH  18  19
ENDBRANCH  17  18
ENDBRANCH  16  17
ENDBRANCH  15  16
ENDBRANCH  14  15
ENDBRANCH  13  14
ENDBRANCH  12  13
ENDBRANCH   1  12
TORSDOF 16
ENDMDL
MODEL 5
REMARK VINA RESULT:    -1.519     14.430     17.178
REMARK INTER + INTRA:          -3.531
REMARK INTER:                  -2.888
REMARK INTRA:                  -0.642
REMARK UNBOUND:                -0.591
REMARK SMILES CCCCCCCCCCCCCCCCCC(=O)[O-]
REMARK SMILES IDX 10 1 11 2 12 3 13 4 14 5 15 6 16 7 17 8 18 9 19 10 20 11
REMARK SMILES IDX 9 12 8 13 7 14 6 15 5 16 4 17 3 18 2 19 1 20
REMARK H PARENT
REMARK Flexibility Score: inf
ROOT
ATOM      1  C   UNL     1      28.249  27.412   3.156  1.00  0.00     0.000 C 
ENDROOT
BRANCH   1   2
ATOM      2  C   UNL     1      29.122  26.291   2.567  1.00  0.00     0.000 C 
BRANCH   2   3
ATOM      3  C   UNL     1      28.466  25.602   1.360  1.00  0.00     0.000 C 
BRANCH   3   4
ATOM      4  C   UNL     1      28.960  26.162   0.014  1.00  0.00     0.000 C 
BRANCH   4   5
ATOM      5  C   UNL     1      28.728  25.173  -1.148  1.00  0.00     0.000 C 
BRANCH   5   6
ATOM      6  C   UNL     1      27.365  24.464  -1.091  1.00  0.00     0.000 C 
BRANCH   6   7
ATOM      7  C   UNL     1      27.299  23.220  -1.993  1.00  0.00     0.006 C 
BRANCH   7   8
ATOM      8  C   UNL     1      28.684  22.605  -2.235  1.00  0.00     0.053 C 
BRANCH   8   9
ATOM      9  C   UNL     1      28.807  22.035  -3.615  1.00  0.00     0.041 C 
ATOM     10  O   UNL     1      28.906  22.800  -4.610  1.00  0.00    -0.550 OA
ATOM     11  O   UNL     1      28.846  20.659  -3.798  1.00  0.00    -0.550 OA
ENDBRANCH   8   9
ENDBRANCH   7   8
ENDBRANCH   6   7
ENDBRANCH   5   6
ENDBRANCH   4   5
ENDBRANCH   3   4
ENDBRANCH   2   3
ENDBRANCH   1   2
BRANCH   1  12
ATOM     12  C   UNL     1      28.919  28.123   4.341  1.00  0.00     0.000 C 
BRANCH  12  13
ATOM     13  C   UNL     1      27.903  28.666   5.361  1.00  0.00    -0.000 C 
BRANCH  13  14
ATOM     14  C   UNL     1      28.578  29.403   6.529  1.00  0.00    -0.000 C 
BRANCH  14  15
ATOM     15  C   UNL     1      28.206  28.804   7.898  1.00  0.00    -0.000 C 
BRANCH  15  16
ATOM     16  C   UNL     1      28.846  29.559   9.074  1.00  0.00    -0.000 C 
BRANCH  16  17
ATOM     17  C   UNL     1      29.065  31.051   8.767  1.00  0.00    -0.000 C 
BRANCH  17  18
ATOM     18  C   UNL     1      27.775  31.884   8.890  1.00  0.00    -0.000 C 
BRANCH  18  19
ATOM     19  C   UNL     1      27.865  33.311   8.321  1.00  0.00    -0.003 C 
ATOM     20  C   UNL     1      28.992  34.135   8.945  1.00  0.00     0.004 C 
ENDBRANCH  18  19
ENDBRANCH  17  18
ENDBRANCH  16  17
ENDBRANCH  15  16
ENDBRANCH  14  15
ENDBRANCH  13  14
ENDBRANCH  12  13
ENDBRANCH   1  12
TORSDOF 16
ENDMDL
MODEL 6
REMARK VINA RESULT:    -0.969      9.298     12.741
REMARK INTER + INTRA:          -2.467
REMARK INTER:                  -2.043
REMARK INTRA:                  -0.424
REMARK UNBOUND:                -0.591
REMARK SMILES CCCCCCCCCCCCCCCCCC(=O)[O-]
REMARK SMILES IDX 10 1 11 2 12 3 13 4 14 5 15 6 16 7 17 8 18 9 19 10 20 11
REMARK SMILES IDX 9 12 8 13 7 14 6 15 5 16 4 17 3 18 2 19 1 20
REMARK H PARENT
REMARK Flexibility Score: inf
ROOT
ATOM      1  C   UNL     1      28.957  27.032  -1.898  1.00  0.00     0.000 C 
ENDROOT
BRANCH   1   2
ATOM      2  C   UNL     1      28.197  27.895  -2.921  1.00  0.00     0.000 C 
BRANCH   2   3
ATOM      3  C   UNL     1      29.125  28.509  -3.981  1.00  0.00     0.000 C 
BRANCH   3   4
ATOM      4  C   UNL     1      28.711  28.143  -5.418  1.00  0.00     0.000 C 
BRANCH   4   5
ATOM      5  C   UNL     1      28.796  29.351  -6.374  1.00  0.00     0.000 C 
BRANCH   5   6
ATOM      6  C   UNL     1      29.096  28.964  -7.832  1.00  0.00     0.000 C 
BRANCH   6   7
ATOM      7  C   UNL     1      28.358  27.690  -8.276  1.00  0.00     0.006 C 
BRANCH   7   8
ATOM      8  C   UNL     1      29.093  26.958  -9.407  1.00  0.00     0.053 C 
BRANCH   8   9
ATOM      9  C   UNL     1      28.542  25.582  -9.631  1.00  0.00     0.041 C 
ATOM     10  O   UNL     1      27.752  25.364 -10.587  1.00  0.00    -0.550 OA
ATOM     11  O   UNL     1      28.927  24.536  -8.803  1.00  0.00    -0.550 OA
ENDBRANCH   8   9
ENDBRANCH   7   8
ENDBRANCH   6   7
ENDBRANCH   5   6
ENDBRANCH   4   5
ENDBRANCH   3   4
ENDBRANCH   2   3
ENDBRANCH   1   2
BRANCH   1  12
ATOM     12  C   UNL     1      28.065  25.963  -1.248  1.00  0.00     0.000 C 
BRANCH  12  13
ATOM     13  C   UNL     1      28.821  24.655  -0.956  1.00  0.00    -0.000 C 
BRANCH  13  14
ATOM     14  C   UNL     1      29.125  23.854  -2.232  1.00  0.00    -0.000 C 
BRANCH  14  15
ATOM     15  C   UNL     1      29.055  22.333  -2.002  1.00  0.00    -0.000 C 
BRANCH  15  16
ATOM     16  C   UNL     1      27.819  21.688  -2.651  1.00  0.00    -0.000 C 
BRANCH  16  17
ATOM     17  C   UNL     1      28.161  20.936  -3.949  1.00  0.00    -0.000 C 
BRANCH  17  18
ATOM     18  C   UNL     1      28.631  19.491  -3.698  1.00  0.00    -0.000 C 
BRANCH  18  19
ATOM     19  C   UNL     1      29.088  19.196  -2.258  1.00  0.00    -0.003 C 
ATOM     20  C   UNL     1      28.199  18.178  -1.544  1.00  0.00     0.004 C 
ENDBRANCH  18  19
ENDBRANCH  17  18
ENDBRANCH  16  17
ENDBRANCH  15  16
ENDBRANCH  14  15
ENDBRANCH  13  14
ENDBRANCH  12  13
ENDBRANCH   1  12
TORSDOF 16
ENDMDL
MODEL 7
REMARK VINA RESULT:    -0.938     12.765     15.294
REMARK INTER + INTRA:          -2.407
REMARK INTER:                  -1.859
REMARK INTRA:                  -0.548
REMARK UNBOUND:                -0.591
REMARK SMILES CCCCCCCCCCCCCCCCCC(=O)[O-]
REMARK SMILES IDX 10 1 11 2 12 3 13 4 14 5 15 6 16 7 17 8 18 9 19 10 20 11
REMARK SMILES IDX 9 12 8 13 7 14 6 15 5 16 4 17 3 18 2 19 1 20
REMARK H PARENT
REMARK Flexibility Score: inf
ROOT
ATOM      1  C   UNL     1      27.879  25.955   1.857  1.00  0.00     0.000 C 
ENDROOT
BRANCH   1   2
ATOM      2  C   UNL     1      28.135  24.812   0.861  1.00  0.00     0.000 C 
BRANCH   2   3
ATOM      3  C   UNL     1      27.235  24.899  -0.382  1.00  0.00     0.000 C 
BRANCH   3   4
ATOM      4  C   UNL     1      28.022  24.759  -1.698  1.00  0.00     0.000 C 
BRANCH   4   5
ATOM      5  C   UNL     1      28.649  23.358  -1.856  1.00  0.00     0.000 C 
BRANCH   5   6
ATOM      6  C   UNL     1      28.172  22.607  -3.110  1.00  0.00     0.000 C 
BRANCH   6   7
ATOM      7  C   UNL     1      28.943  21.298  -3.353  1.00  0.00     0.006 C 
BRANCH   7   8
ATOM      8  C   UNL     1      28.844  20.337  -2.161  1.00  0.00     0.053 C 
BRANCH   8   9
ATOM      9  C   UNL     1      28.521  18.940  -2.597  1.00  0.00     0.041 C 
ATOM     10  O   UNL     1      28.329  18.038  -1.740  1.00  0.00    -0.550 OA
ATOM     11  O   UNL     1      28.399  18.643  -3.948  1.00  0.00    -0.550 OA
ENDBRANCH   8   9
ENDBRANCH   7   8
ENDBRANCH   6   7
ENDBRANCH   5   6
ENDBRANCH   4   5
ENDBRANCH   3   4
ENDBRANCH   2   3
ENDBRANCH   1   2
BRANCH   1  12
ATOM     12  C   UNL     1      29.055  26.173   2.822  1.00  0.00     0.000 C 
BRANCH  12  13
ATOM     13  C   UNL     1      29.125  27.613   3.360  1.00  0.00    -0.000 C 
BRANCH  13  14
ATOM     14  C   UNL     1      29.101  27.669   4.896  1.00  0.00    -0.000 C 
BRANCH  14  15
ATOM     15  C   UNL     1      29.122  29.112   5.432  1.00  0.00    -0.000 C 
BRANCH  15  16
ATOM     16  C   UNL     1      27.757  29.568   5.971  1.00  0.00    -0.000 C 
BRANCH  16  17
ATOM     17  C   UNL     1      26.586  29.082   5.098  1.00  0.00    -0.000 C 
BRANCH  17  18
ATOM     18  C   UNL     1      25.723  28.013   5.795  1.00  0.00    -0.000 C 
BRANCH  18  19
ATOM     19  C   UNL     1      24.345  27.770   5.153  1.00  0.00    -0.003 C 
ATOM     20  C   UNL     1      23.299  27.272   6.150  1.00  0.00     0.004 C 
ENDBRANCH  18  19
ENDBRANCH  17  18
ENDBRANCH  16  17
ENDBRANCH  15  16
ENDBRANCH  14  15
ENDBRANCH  13  14
ENDBRANCH  12  13
ENDBRANCH   1  12
TORSDOF 16
ENDMDL
MODEL 8
REMARK VINA RESULT:    -0.879     11.132     14.285
REMARK INTER + INTRA:          -2.292
REMARK INTER:                  -1.637
REMARK INTRA:                  -0.655
REMARK UNBOUND:                -0.591
REMARK SMILES CCCCCCCCCCCCCCCCCC(=O)[O-]
REMARK SMILES IDX 10 1 11 2 12 3 13 4 14 5 15 6 16 7 17 8 18 9 19 10 20 11
REMARK SMILES IDX 9 12 8 13 7 14 6 15 5 16 4 17 3 18 2 19 1 20
REMARK H PARENT
REMARK Flexibility Score: inf
ROOT
ATOM      1  C   UNL     1      27.307  23.680  -2.210  1.00  0.00     0.000 C 
ENDROOT
BRANCH   1   2
ATOM      2  C   UNL     1      27.610  24.717  -1.115  1.00  0.00     0.000 C 
BRANCH   2   3
ATOM      3  C   UNL     1      28.674  24.230  -0.118  1.00  0.00     0.000 C 
BRANCH   3   4
ATOM      4  C   UNL     1      29.125  25.332   0.858  1.00  0.00     0.000 C 
BRANCH   4   5
ATOM      5  C   UNL     1      28.774  24.992   2.322  1.00  0.00     0.000 C 
BRANCH   5   6
ATOM      6  C   UNL     1      27.956  26.086   3.029  1.00  0.00     0.000 C 
BRANCH   6   7
ATOM      7  C   UNL     1      28.824  27.014   3.897  1.00  0.00     0.006 C 
BRANCH   7   8
ATOM      8  C   UNL     1      29.064  28.374   3.230  1.00  0.00     0.053 C 
BRANCH   8   9
ATOM      9  C   UNL     1      28.729  29.511   4.147  1.00  0.00     0.041 C 
ATOM     10  O   UNL     1      28.284  30.592   3.679  1.00  0.00    -0.550 OA
ATOM     11  O   UNL     1      28.878  29.365   5.520  1.00  0.00    -0.550 OA
ENDBRANCH   8   9
ENDBRANCH   7   8
ENDBRANCH   6   7
ENDBRANCH   5   6
ENDBRANCH   4   5
ENDBRANCH   3   4
ENDBRANCH   2   3
ENDBRANCH   1   2
BRANCH   1  12
ATOM     12  C   UNL     1      28.459  22.683  -2.415  1.00  0.00     0.000 C 
BRANCH  12  13
ATOM     13  C   UNL     1      28.688  22.335  -3.896  1.00  0.00    -0.000 C 
BRANCH  13  14
ATOM     14  C   UNL     1      28.691  23.580  -4.799  1.00  0.00    -0.000 C 
BRANCH  14  15
ATOM     15  C   UNL     1      29.124  23.260  -6.241  1.00  0.00    -0.000 C 
BRANCH  15  16
ATOM     16  C   UNL     1      28.557  24.252  -7.269  1.00  0.00    -0.000 C 
BRANCH  16  17
ATOM     17  C   UNL     1      29.056  23.971  -8.697  1.00  0.00    -0.000 C 
BRANCH  17  18
ATOM     18  C   UNL     1      28.081  24.468  -9.781  1.00  0.00    -0.000 C 
BRANCH  18  19
ATOM     19  C   UNL     1      27.604  23.390 -10.771  1.00  0.00    -0.003 C 
ATOM     20  C   UNL     1      26.084  23.359 -10.937  1.00  0.00     0.004 C 
ENDBRANCH  18  19
ENDBRANCH  17  18
ENDBRANCH  16  17
ENDBRANCH  15  16
ENDBRANCH  14  15
ENDBRANCH  13  14
ENDBRANCH  12  13
ENDBRANCH   1  12
TORSDOF 16
ENDMDL
