MODEL 1
REMARK VINA RESULT:    -3.435      0.000      0.000
REMARK INTER + INTRA:          -6.855
REMARK INTER:                  -5.443
REMARK INTRA:                  -1.412
REMARK UNBOUND:                -1.412
REMARK SMILES CCCCCCCCCCCC(=O)[O-]
REMARK SMILES IDX 7 1 8 2 9 3 10 4 11 5 12 6 13 7 14 8 6 9 5 10 4 11 3 12 2 13
REMARK SMILES IDX 1 14
REMARK H PARENT
REMARK Flexibility Score: inf
ROOT
ATOM      1  C   UNL     1     -16.578  -9.291 -21.409  1.00  0.00     0.000 C 
ENDROOT
BRANCH   1   2
ATOM      2  C   UNL     1     -15.630  -8.332 -20.665  1.00  0.00     0.000 C 
BRANCH   2   3
ATOM      3  C   UNL     1     -16.103  -6.868 -20.602  1.00  0.00     0.000 C 
BRANCH   3   4
ATOM      4  C   UNL     1     -15.532  -6.005 -21.741  1.00  0.00     0.006 C 
BRANCH   4   5
ATOM      5  C   UNL     1     -16.623  -5.522 -22.704  1.00  0.00     0.053 C 
BRANCH   5   6
ATOM      6  C   UNL     1     -16.573  -4.037 -22.899  1.00  0.00     0.041 C 
ATOM      7  O   UNL     1     -16.106  -3.295 -21.996  1.00  0.00    -0.550 OA
ATOM      8  O   UNL     1     -17.007  -3.477 -24.095  1.00  0.00    -0.550 OA
ENDBRANCH   5   6
ENDBRANCH   4   5
ENDBRANCH   3   4
ENDBRANCH   2   3
ENDBRANCH   1   2
BRANCH   1   9
ATOM      9  C   UNL     1     -17.992  -8.716 -21.590  1.00  0.00     0.000 C 
BRANCH   9  10
ATOM     10  C   UNL     1     -18.476  -8.897 -23.037  1.00  0.00    -0.000 C 
BRANCH  10  11
ATOM     11  C   UNL     1     -17.333  -9.241 -24.006  1.00  0.00    -0.000 C 
BRANCH  11  12
ATOM     12  C   UNL     1     -16.985  -8.074 -24.947  1.00  0.00    -0.000 C 
BRANCH  12  13
ATOM     13  C   UNL     1     -15.469  -7.890 -25.119  1.00  0.00    -0.003 C 
ATOM     14  C   UNL     1     -14.653  -8.872 -24.279  1.00  0.00     0.004 C 
ENDBRANCH  12  13
ENDBRANCH  11  12
ENDBRANCH  10  11
ENDBRANCH   9  10
ENDBRANCH   1   9
TORSDOF 10
ENDMDL
MODEL 2
REMARK VINA RESULT:    -3.123      2.370      4.337
REMARK INTER + INTRA:          -6.360
REMARK INTER:                  -5.631
REMARK INTRA:                  -0.729
REMARK UNBOUND:                -1.412
REMARK SMILES CCCCCCCCCCCC(=O)[O-]
REMARK SMILES IDX 7 1 8 2 9 3 10 4 11 5 12 6 13 7 14 8 6 9 5 10 4 11 3 12 2 13
REMARK SMILES IDX 1 14
REMARK H PARENT
REMARK Flexibility Score: inf
ROOT
ATOM      1  C   UNL     1     -16.607  -9.700 -21.155  1.00  0.00     0.000 C 
ENDROOT
BRANCH   1   2
ATOM      2  C   UNL     1     -18.022  -9.181 -21.469  1.00  0.00     0.000 C 
BRANCH   2   3
ATOM      3  C   UNL     1     -18.183  -8.534 -22.857  1.00  0.00     0.000 C 
BRANCH   3   4
ATOM      4  C   UNL     1     -17.465  -9.315 -23.971  1.00  0.00     0.006 C 
BRANCH   4   5
ATOM      5  C   UNL     1     -16.553  -8.415 -24.814  1.00  0.00     0.053 C 
BRANCH   5   6
ATOM      6  C   UNL     1     -15.105  -8.726 -24.588  1.00  0.00     0.041 C 
ATOM      7  O   UNL     1     -14.214  -8.014 -25.120  1.00  0.00    -0.550 OA
ATOM      8  O   UNL     1     -14.740  -9.781 -23.760  1.00  0.00    -0.550 OA
ENDBRANCH   5   6
ENDBRANCH   4   5
ENDBRANCH   3   4
ENDBRANCH   2   3
ENDBRANCH   1   2
BRANCH   1   9
ATOM      9  C   UNL     1     -15.619  -8.577 -20.806  1.00  0.00     0.000 C 
BRANCH   9  10
ATOM     10  C   UNL     1     -16.312  -7.470 -19.996  1.00  0.00    -0.000 C 
BRANCH  10  11
ATOM     11  C   UNL     1     -16.717  -6.266 -20.863  1.00  0.00    -0.000 C 
BRANCH  11  12
ATOM     12  C   UNL     1     -15.749  -6.030 -22.036  1.00  0.00    -0.000 C 
BRANCH  12  13
ATOM     13  C   UNL     1     -16.269  -4.972 -23.022  1.00  0.00    -0.003 C 
ATOM     14  C   UNL     1     -16.486  -3.607 -22.370  1.00  0.00     0.004 C 
ENDBRANCH  12  13
ENDBRANCH  11  12
ENDBRANCH  10  11
ENDBRANCH   9  10
ENDBRANCH   1   9
TORSDOF 10
ENDMDL
MODEL 3
REMARK VINA RESULT:    -3.073     15.487     17.715
REMARK INTER + INTRA:          -6.280
REMARK INTER:                  -6.027
REMARK INTRA:                  -0.253
REMARK UNBOUND:                -1.412
REMARK SMILES CCCCCCCCCCCC(=O)[O-]
REMARK SMILES IDX 7 1 8 2 9 3 10 4 11 5 12 6 13 7 14 8 6 9 5 10 4 11 3 12 2 13
REMARK SMILES IDX 1 14
REMARK H PARENT
REMARK Flexibility Score: inf
ROOT
ATOM      1  C   UNL     1     -10.604  -9.557  -6.523  1.00  0.00     0.000 C 
ENDROOT
BRANCH   1   2
ATOM      2  C   UNL     1      -9.119  -9.146  -6.519  1.00  0.00     0.000 C 
BRANCH   2   3
ATOM      3  C   UNL     1      -8.160 -10.167  -7.159  1.00  0.00     0.000 C 
BRANCH   3   4
ATOM      4  C   UNL     1      -6.685  -9.739  -7.073  1.00  0.00     0.006 C 
BRANCH   4   5
ATOM      5  C   UNL     1      -5.761 -10.691  -7.841  1.00  0.00     0.053 C 
BRANCH   5   6
ATOM      6  C   UNL     1      -4.782  -9.945  -8.695  1.00  0.00     0.041 C 
ATOM      7  O   UNL     1      -4.728  -8.688  -8.646  1.00  0.00    -0.550 OA
ATOM      8  O   UNL     1      -3.904 -10.640  -9.519  1.00  0.00    -0.550 OA
ENDBRANCH   5   6
ENDBRANCH   4   5
ENDBRANCH   3   4
ENDBRANCH   2   3
ENDBRANCH   1   2
BRANCH   1   9
ATOM      9  C   UNL     1     -11.518  -8.494  -7.152  1.00  0.00     0.000 C 
BRANCH   9  10
ATOM     10  C   UNL     1     -12.589  -8.032  -6.152  1.00  0.00    -0.000 C 
BRANCH  10  11
ATOM     11  C   UNL     1     -13.750  -7.285  -6.829  1.00  0.00    -0.000 C 
BRANCH  11  12
ATOM     12  C   UNL     1     -15.106  -7.569  -6.161  1.00  0.00    -0.000 C 
BRANCH  12  13
ATOM     13  C   UNL     1     -16.219  -7.845  -7.184  1.00  0.00    -0.003 C 
ATOM     14  C   UNL     1     -16.073  -7.015  -8.459  1.00  0.00     0.004 C 
ENDBRANCH  12  13
ENDBRANCH  11  12
ENDBRANCH  10  11
ENDBRANCH   9  10
ENDBRANCH   1   9
TORSDOF 10
ENDMDL
MODEL 4
REMARK VINA RESULT:    -3.061     15.667     17.430
REMARK INTER + INTRA:          -6.262
REMARK INTER:                  -5.761
REMARK INTRA:                  -0.501
REMARK UNBOUND:                -1.412
REMARK SMILES CCCCCCCCCCCC(=O)[O-]
REMARK SMILES IDX 7 1 8 2 9 3 10 4 11 5 12 6 13 7 14 8 6 9 5 10 4 11 3 12 2 13
REMARK SMILES IDX 1 14
REMARK H PARENT
REMARK Flexibility Score: inf
ROOT
ATOM      1  C   UNL     1     -10.119  -8.511  -7.246  1.00  0.00     0.000 C 
ENDROOT
BRANCH   1   2
ATOM      2  C   UNL     1     -11.494  -8.753  -6.597  1.00  0.00     0.000 C 
BRANCH   2   3
ATOM      3  C   UNL     1     -11.866  -7.769  -5.472  1.00  0.00     0.000 C 
BRANCH   3   4
ATOM      4  C   UNL     1     -13.161  -6.990  -5.760  1.00  0.00     0.006 C 
BRANCH   4   5
ATOM      5  C   UNL     1     -13.649  -7.191  -7.200  1.00  0.00     0.053 C 
BRANCH   5   6
ATOM      6  C   UNL     1     -15.125  -7.440  -7.255  1.00  0.00     0.041 C 
ATOM      7  O   UNL     1     -15.725  -7.917  -6.257  1.00  0.00    -0.550 OA
ATOM      8  O   UNL     1     -15.845  -7.109  -8.397  1.00  0.00    -0.550 OA
ENDBRANCH   5   6
ENDBRANCH   4   5
ENDBRANCH   3   4
ENDBRANCH   2   3
ENDBRANCH   1   2
BRANCH   1   9
ATOM      9  C   UNL     1      -8.949  -8.956  -6.356  1.00  0.00     0.000 C 
BRANCH   9  10
ATOM     10  C   UNL     1      -8.497 -10.380  -6.717  1.00  0.00    -0.000 C 
BRANCH  10  11
ATOM     11  C   UNL     1      -7.173 -10.401  -7.498  1.00  0.00    -0.000 C 
BRANCH  11  12
ATOM     12  C   UNL     1      -6.155  -9.378  -6.963  1.00  0.00    -0.000 C 
BRANCH  12  13
ATOM     13  C   UNL     1      -5.161  -8.919  -8.043  1.00  0.00    -0.003 C 
ATOM     14  C   UNL     1      -4.504 -10.086  -8.780  1.00  0.00     0.004 C 
ENDBRANCH  12  13
ENDBRANCH  11  12
ENDBRANCH  10  11
ENDBRANCH   9  10
ENDBRANCH   1   9
TORSDOF 10
ENDMDL
MODEL 5
REMARK VINA RESULT:    -2.962     18.202     20.008
REMARK INTER + INTRA:          -6.105
REMARK INTER:                  -5.116
REMARK INTRA:                  -0.989
REMARK UNBOUND:                -1.412
REMARK SMILES CCCCCCCCCCCC(=O)[O-]
REMARK SMILES IDX 7 1 8 2 9 3 10 4 11 5 12 6 13 7 14 8 6 9 5 10 4 11 3 12 2 13
REMARK SMILES IDX 1 14
REMARK H PARENT
REMARK Flexibility Score: inf
ROOT
ATOM      1  C   UNL     1      -4.392 -10.336  -8.949  1.00  0.00     0.000 C 
ENDROOT
BRANCH   1   2
ATOM      2  C   UNL     1      -5.433  -9.949  -7.882  1.00  0.00     0.000 C 
BRANCH   2   3
ATOM      3  C   UNL     1      -6.700 -10.824  -7.862  1.00  0.00     0.000 C 
BRANCH   3   4
ATOM      4  C   UNL     1      -7.678 -10.437  -6.739  1.00  0.00     0.006 C 
BRANCH   4   5
ATOM      5  C   UNL     1      -7.453  -9.003  -6.244  1.00  0.00     0.053 C 
BRANCH   5   6
ATOM      6  C   UNL     1      -8.710  -8.190  -6.308  1.00  0.00     0.041 C 
ATOM      7  O   UNL     1      -9.699  -8.605  -6.967  1.00  0.00    -0.550 OA
ATOM      8  O   UNL     1      -8.801  -6.992  -5.610  1.00  0.00    -0.550 OA
ENDBRANCH   5   6
ENDBRANCH   4   5
ENDBRANCH   3   4
ENDBRANCH   2   3
ENDBRANCH   1   2
BRANCH   1   9
ATOM      9  C   UNL     1      -3.139 -10.996  -8.354  1.00  0.00     0.000 C 
BRANCH   9  10
ATOM     10  C   UNL     1      -3.259 -11.121  -6.827  1.00  0.00    -0.000 C 
BRANCH  10  11
ATOM     11  C   UNL     1      -2.304 -10.178  -6.078  1.00  0.00    -0.000 C 
BRANCH  11  12
ATOM     12  C   UNL     1      -3.050  -9.120  -5.246  1.00  0.00    -0.000 C 
BRANCH  12  13
ATOM     13  C   UNL     1      -2.650  -7.685  -5.624  1.00  0.00    -0.003 C 
ATOM     14  C   UNL     1      -3.742  -6.949  -6.399  1.00  0.00     0.004 C 
ENDBRANCH  12  13
ENDBRANCH  11  12
ENDBRANCH  10  11
ENDBRANCH   9  10
ENDBRANCH   1   9
TORSDOF 10
ENDMDL
MODEL 6
REMARK VINA RESULT:    -2.942     17.065     19.182
REMARK INTER + INTRA:          -6.073
REMARK INTER:                  -5.490
REMARK INTRA:                  -0.583
REMARK UNBOUND:                -1.412
REMARK SMILES CCCCCCCCCCCC(=O)[O-]
REMARK SMILES IDX 7 1 8 2 9 3 10 4 11 5 12 6 13 7 14 8 6 9 5 10 4 11 3 12 2 13
REMARK SMILES IDX 1 14
REMARK H PARENT
REMARK Flexibility Score: inf
ROOT
ATOM      1  C   UNL     1      -5.649 -10.861  -7.524  1.00  0.00     0.000 C 
ENDROOT
BRANCH   1   2
ATOM      2  C   UNL     1      -7.187 -10.857  -7.580  1.00  0.00     0.000 C 
BRANCH   2   3
ATOM      3  C   UNL     1      -7.869  -9.813  -6.677  1.00  0.00     0.000 C 
BRANCH   3   4
ATOM      4  C   UNL     1      -9.387 -10.027  -6.552  1.00  0.00     0.006 C 
BRANCH   4   5
ATOM      5  C   UNL     1     -10.187  -8.847  -7.115  1.00  0.00     0.053 C 
BRANCH   5   6
ATOM      6  C   UNL     1     -11.635  -8.929  -6.740  1.00  0.00     0.041 C 
ATOM      7  O   UNL     1     -12.210 -10.047  -6.674  1.00  0.00    -0.550 OA
ATOM      8  O   UNL     1     -12.340  -7.773  -6.428  1.00  0.00    -0.550 OA
ENDBRANCH   5   6
ENDBRANCH   4   5
ENDBRANCH   3   4
ENDBRANCH   2   3
ENDBRANCH   1   2
BRANCH   1   9
ATOM      9  C   UNL     1      -5.005 -10.015  -8.632  1.00  0.00     0.000 C 
BRANCH   9  10
ATOM     10  C   UNL     1      -4.651  -8.612  -8.116  1.00  0.00    -0.000 C 
BRANCH  10  11
ATOM     11  C   UNL     1      -4.261  -8.609  -6.629  1.00  0.00    -0.000 C 
BRANCH  11  12
ATOM     12  C   UNL     1      -4.546  -7.259  -5.945  1.00  0.00    -0.000 C 
BRANCH  12  13
ATOM     13  C   UNL     1      -3.354  -6.293  -6.033  1.00  0.00    -0.003 C 
ATOM     14  C   UNL     1      -2.155  -6.753  -5.204  1.00  0.00     0.004 C 
ENDBRANCH  12  13
ENDBRANCH  11  12
ENDBRANCH  10  11
ENDBRANCH   9  10
ENDBRANCH   1   9
TORSDOF 10
ENDMDL
MODEL 7
REMARK VINA RESULT:    -2.897     17.416     19.584
REMARK INTER + INTRA:          -6.002
REMARK INTER:                  -5.115
REMARK INTRA:                  -0.886
REMARK UNBOUND:                -1.412
REMARK SMILES CCCCCCCCCCCC(=O)[O-]
REMARK SMILES IDX 7 1 8 2 9 3 10 4 11 5 12 6 13 7 14 8 6 9 5 10 4 11 3 12 2 13
REMARK SMILES IDX 1 14
REMARK H PARENT
REMARK Flexibility Score: inf
ROOT
ATOM      1  C   UNL     1      -5.636  -9.652  -7.910  1.00  0.00     0.000 C 
ENDROOT
BRANCH   1   2
ATOM      2  C   UNL     1      -4.214 -10.145  -8.236  1.00  0.00     0.000 C 
BRANCH   2   3
ATOM      3  C   UNL     1      -3.265 -10.241  -7.027  1.00  0.00     0.000 C 
BRANCH   3   4
ATOM      4  C   UNL     1      -3.754  -9.431  -5.814  1.00  0.00     0.006 C 
BRANCH   4   5
ATOM      5  C   UNL     1      -2.974  -8.123  -5.639  1.00  0.00     0.053 C 
BRANCH   5   6
ATOM      6  C   UNL     1      -3.801  -6.930  -6.007  1.00  0.00     0.041 C 
ATOM      7  O   UNL     1      -3.394  -6.122  -6.883  1.00  0.00    -0.550 OA
ATOM      8  O   UNL     1      -5.039  -6.729  -5.408  1.00  0.00    -0.550 OA
ENDBRANCH   5   6
ENDBRANCH   4   5
ENDBRANCH   3   4
ENDBRANCH   2   3
ENDBRANCH   1   2
BRANCH   1   9
ATOM      9  C   UNL     1      -6.647 -10.797  -7.750  1.00  0.00     0.000 C 
BRANCH   9  10
ATOM     10  C   UNL     1      -7.820 -10.373  -6.853  1.00  0.00    -0.000 C 
BRANCH  10  11
ATOM     11  C   UNL     1      -7.730  -8.901  -6.416  1.00  0.00    -0.000 C 
BRANCH  11  12
ATOM     12  C   UNL     1      -9.099  -8.198  -6.422  1.00  0.00    -0.000 C 
BRANCH  12  13
ATOM     13  C   UNL     1     -10.242  -9.141  -6.831  1.00  0.00    -0.003 C 
ATOM     14  C   UNL     1     -11.506  -8.393  -7.253  1.00  0.00     0.004 C 
ENDBRANCH  12  13
ENDBRANCH  11  12
ENDBRANCH  10  11
ENDBRANCH   9  10
ENDBRANCH   1   9
TORSDOF 10
ENDMDL
MODEL 8
REMARK VINA RESULT:    -2.876     16.361     18.051
REMARK INTER + INTRA:          -5.968
REMARK INTER:                  -5.360
REMARK INTRA:                  -0.609
REMARK UNBOUND:                -1.412
REMARK SMILES CCCCCCCCCCCC(=O)[O-]
REMARK SMILES IDX 7 1 8 2 9 3 10 4 11 5 12 6 13 7 14 8 6 9 5 10 4 11 3 12 2 13
REMARK SMILES IDX 1 14
REMARK H PARENT
REMARK Flexibility Score: inf
ROOT
ATOM      1  C   UNL     1      -9.157 -10.134  -6.667  1.00  0.00     0.000 C 
ENDROOT
BRANCH   1   2
ATOM      2  C   UNL     1      -9.606  -8.666  -6.779  1.00  0.00     0.000 C 
BRANCH   2   3
ATOM      3  C   UNL     1      -9.975  -7.994  -5.443  1.00  0.00     0.000 C 
BRANCH   3   4
ATOM      4  C   UNL     1     -11.475  -7.671  -5.328  1.00  0.00     0.006 C 
BRANCH   4   5
ATOM      5  C   UNL     1     -12.262  -8.132  -6.560  1.00  0.00     0.053 C 
BRANCH   5   6
ATOM      6  C   UNL     1     -13.520  -7.340  -6.743  1.00  0.00     0.041 C 
ATOM      7  O   UNL     1     -14.206  -6.999  -5.744  1.00  0.00    -0.550 OA
ATOM      8  O   UNL     1     -13.916  -6.945  -8.016  1.00  0.00    -0.550 OA
ENDBRANCH   5   6
ENDBRANCH   4   5
ENDBRANCH   3   4
ENDBRANCH   2   3
ENDBRANCH   1   2
BRANCH   1   9
ATOM      9  C   UNL     1      -7.730 -10.366  -7.187  1.00  0.00     0.000 C 
BRANCH   9  10
ATOM     10  C   UNL     1      -6.689  -9.908  -6.153  1.00  0.00    -0.000 C 
BRANCH  10  11
ATOM     11  C   UNL     1      -6.044  -8.561  -6.518  1.00  0.00    -0.000 C 
BRANCH  11  12
ATOM     12  C   UNL     1      -4.641  -8.724  -7.130  1.00  0.00    -0.000 C 
BRANCH  12  13
ATOM     13  C   UNL     1      -4.684  -8.928  -8.653  1.00  0.00    -0.003 C 
ATOM     14  C   UNL     1      -4.348 -10.359  -9.069  1.00  0.00     0.004 C 
ENDBRANCH  12  13
ENDBRANCH  11  12
ENDBRANCH  10  11
ENDBRANCH   9  10
ENDBRANCH   1   9
TORSDOF 10
ENDMDL
MODEL 9
REMARK VINA RESULT:    -2.821     17.113     19.022
REMARK INTER + INTRA:          -5.882
REMARK INTER:                  -5.351
REMARK INTRA:                  -0.531
REMARK UNBOUND:                -1.412
REMARK SMILES CCCCCCCCCCCC(=O)[O-]
REMARK SMILES IDX 7 1 8 2 9 3 10 4 11 5 12 6 13 7 14 8 6 9 5 10 4 11 3 12 2 13
REMARK SMILES IDX 1 14
REMARK H PARENT
REMARK Flexibility Score: inf
ROOT
ATOM      1  C   UNL     1      -8.016 -10.199  -6.810  1.00  0.00     0.000 C 
ENDROOT
BRANCH   1   2
ATOM      2  C   UNL     1      -6.489 -10.352  -6.687  1.00  0.00     0.000 C 
BRANCH   2   3
ATOM      3  C   UNL     1      -5.704 -10.112  -7.989  1.00  0.00     0.000 C 
BRANCH   3   4
ATOM      4  C   UNL     1      -4.933  -8.780  -7.988  1.00  0.00     0.006 C 
BRANCH   4   5
ATOM      5  C   UNL     1      -4.964  -8.095  -6.617  1.00  0.00     0.053 C 
BRANCH   5   6
ATOM      6  C   UNL     1      -3.668  -7.409  -6.310  1.00  0.00     0.041 C 
ATOM      7  O   UNL     1      -3.502  -6.200  -6.619  1.00  0.00    -0.550 OA
ATOM      8  O   UNL     1      -2.656  -8.095  -5.649  1.00  0.00    -0.550 OA
ENDBRANCH   5   6
ENDBRANCH   4   5
ENDBRANCH   3   4
ENDBRANCH   2   3
ENDBRANCH   1   2
BRANCH   1   9
ATOM      9  C   UNL     1      -8.575  -9.049  -5.957  1.00  0.00     0.000 C 
BRANCH   9  10
ATOM     10  C   UNL     1      -9.589  -8.217  -6.757  1.00  0.00    -0.000 C 
BRANCH  10  11
ATOM     11  C   UNL     1     -11.000  -8.258  -6.147  1.00  0.00    -0.000 C 
BRANCH  11  12
ATOM     12  C   UNL     1     -12.107  -8.178  -7.214  1.00  0.00    -0.000 C 
BRANCH  12  13
ATOM     13  C   UNL     1     -13.275  -7.277  -6.783  1.00  0.00    -0.003 C 
ATOM     14  C   UNL     1     -13.150  -6.794  -5.338  1.00  0.00     0.004 C 
ENDBRANCH  12  13
ENDBRANCH  11  12
ENDBRANCH  10  11
ENDBRANCH   9  10
ENDBRANCH   1   9
TORSDOF 10
ENDMDL
