MODEL 1
REMARK VINA RESULT:    -7.203      0.000      0.000
REMARK INTER + INTRA:         -11.649
REMARK INTER:                 -10.571
REMARK INTRA:                  -1.078
REMARK UNBOUND:                -1.078
REMARK SMILES O=c1c(O[C@@H]2O[C@H](CO)[C@H](O)[C@@H](O)[C@H]2O)c(-c2ccc(O)c(O)c2)oc2cc(O)cc(O)c12
REMARK SMILES IDX 4 1 3 2 16 3 25 4 2 5 26 6 1 7 33 8 27 9 31 10 28 11 30 12
REMARK SMILES IDX 17 13 18 14 19 15 20 16 24 17 22 18 21 19 23 21 32 23 29 25
REMARK SMILES IDX 5 27 14 28 6 29 12 30 7 31 10 32 15 33 13 35 8 37 9 38 11 40
REMARK H PARENT 21 20 23 22 32 24 29 26 15 34 13 36 9 39 11 41
REMARK Flexibility Score: inf
ROOT
ATOM      1  O   UNL     1      -6.727   7.820  13.191  1.00  0.00    -0.454 OA
ENDROOT
BRANCH   1   2
ATOM      2  C   UNL     1      -5.383   8.193  13.004  1.00  0.00     0.214 A 
ATOM      3  C   UNL     1      -4.397   7.572  13.794  1.00  0.00     0.180 A 
ATOM      4  O   UNL     1      -3.117   7.879  13.624  1.00  0.00    -0.452 OA
ATOM      5  C   UNL     1      -4.975   9.153  12.054  1.00  0.00     0.239 A 
ATOM      6  C   UNL     1      -2.687   8.757  12.728  1.00  0.00     0.146 A 
ATOM      7  O   UNL     1      -5.846   9.800  11.421  1.00  0.00    -0.285 OA
ATOM      8  C   UNL     1      -3.597   9.418  11.864  1.00  0.00     0.111 A 
ATOM      9  C   UNL     1      -1.318   9.024  12.660  1.00  0.00     0.094 A 
ATOM     10  C   UNL     1      -3.073  10.325  10.893  1.00  0.00     0.134 A 
ATOM     11  C   UNL     1      -0.824   9.955  11.747  1.00  0.00     0.123 A 
ATOM     12  C   UNL     1      -1.700  10.601  10.875  1.00  0.00     0.093 A 
BRANCH   3  13
ATOM     13  C   UNL     1      -4.734   6.542  14.803  1.00  0.00     0.025 A 
ATOM     14  C   UNL     1      -4.650   5.184  14.457  1.00  0.00     0.016 A 
ATOM     15  C   UNL     1      -4.965   4.194  15.393  1.00  0.00     0.051 A 
ATOM     16  C   UNL     1      -5.359   4.550  16.690  1.00  0.00     0.157 A 
ATOM     17  C   UNL     1      -5.102   6.891  16.113  1.00  0.00     0.062 A 
ATOM     18  C   UNL     1      -5.424   5.901  17.052  1.00  0.00     0.158 A 
BRANCH  16  19
ATOM     19  O   UNL     1      -5.682   3.568  17.624  1.00  0.00    -0.504 OA
ATOM     20  H   UNL     1      -5.382   2.607  17.508  1.00  0.00     0.293 HD
ENDBRANCH  16  19
BRANCH  18  21
ATOM     21  O   UNL     1      -5.807   6.253  18.344  1.00  0.00    -0.504 OA
ATOM     22  H   UNL     1      -5.596   5.661  19.140  1.00  0.00     0.293 HD
ENDBRANCH  18  21
ENDBRANCH   3  13
BRANCH  10  23
ATOM     23  O   UNL     1      -3.846  10.950   9.910  1.00  0.00    -0.507 OA
ATOM     24  H   UNL     1      -3.629  11.839   9.487  1.00  0.00     0.293 HD
ENDBRANCH  10  23
BRANCH  11  25
ATOM     25  O   UNL     1       0.538  10.242  11.690  1.00  0.00    -0.508 OA
ATOM     26  H   UNL     1       0.878  11.195  11.647  1.00  0.00     0.293 HD
ENDBRANCH  11  25
ENDBRANCH   1   2
BRANCH   1  27
ATOM     27  C   UNL     1      -7.618   7.333  12.182  1.00  0.00     0.339 C 
ATOM     28  C   UNL     1      -7.557   5.801  12.130  1.00  0.00     0.214 C 
ATOM     29  O   UNL     1      -8.944   7.816  12.359  1.00  0.00    -0.332 OA
ATOM     30  C   UNL     1      -8.171   5.208  13.404  1.00  0.00     0.180 C 
ATOM     31  C   UNL     1      -9.605   7.313  13.516  1.00  0.00     0.179 C 
ATOM     32  C   UNL     1      -9.591   5.764  13.596  1.00  0.00     0.177 C 
BRANCH  28  33
ATOM     33  O   UNL     1      -8.250   5.352  10.991  1.00  0.00    -0.384 OA
ATOM     34  H   UNL     1      -7.887   5.854  10.214  1.00  0.00     0.211 HD
ENDBRANCH  28  33
BRANCH  30  35
ATOM     35  O   UNL     1      -8.206   3.807  13.298  1.00  0.00    -0.387 OA
ATOM     36  H   UNL     1      -7.275   3.483  13.415  1.00  0.00     0.211 HD
ENDBRANCH  30  35
BRANCH  31  37
ATOM     37  C   UNL     1      -9.137   8.025  14.804  1.00  0.00     0.191 C 
BRANCH  37  38
ATOM     38  O   UNL     1      -9.804   7.494  15.921  1.00  0.00    -0.394 OA
ATOM     39  H   UNL     1     -10.351   6.727  15.606  1.00  0.00     0.210 HD
ENDBRANCH  37  38
ENDBRANCH  31  37
BRANCH  32  40
ATOM     40  O   UNL     1     -10.118   5.338  14.828  1.00  0.00    -0.387 OA
ATOM     41  H   UNL     1      -9.996   6.084  15.471  1.00  0.00     0.211 HD
ENDBRANCH  32  40
ENDBRANCH   1  27
TORSDOF 12
ENDMDL
MODEL 2
REMARK VINA RESULT:    -7.190      1.844      5.717
REMARK INTER + INTRA:         -11.630
REMARK INTER:                 -10.942
REMARK INTRA:                  -0.688
REMARK UNBOUND:                -1.078
REMARK SMILES O=c1c(O[C@@H]2O[C@H](CO)[C@H](O)[C@@H](O)[C@H]2O)c(-c2ccc(O)c(O)c2)oc2cc(O)cc(O)c12
REMARK SMILES IDX 4 1 3 2 16 3 25 4 2 5 26 6 1 7 33 8 27 9 31 10 28 11 30 12
REMARK SMILES IDX 17 13 18 14 19 15 20 16 24 17 22 18 21 19 23 21 32 23 29 25
REMARK SMILES IDX 5 27 14 28 6 29 12 30 7 31 10 32 15 33 13 35 8 37 9 38 11 40
REMARK H PARENT 21 20 23 22 32 24 29 26 15 34 13 36 9 39 11 41
REMARK Flexibility Score: inf
ROOT
ATOM      1  O   UNL     1      -5.916   7.352  14.334  1.00  0.00    -0.454 OA
ENDROOT
BRANCH   1   2
ATOM      2  C   UNL     1      -4.919   6.446  14.741  1.00  0.00     0.214 A 
ATOM      3  C   UNL     1      -3.597   6.664  14.310  1.00  0.00     0.180 A 
ATOM      4  O   UNL     1      -2.627   5.846  14.698  1.00  0.00    -0.452 OA
ATOM      5  C   UNL     1      -5.180   5.334  15.568  1.00  0.00     0.239 A 
ATOM      6  C   UNL     1      -2.823   4.803  15.494  1.00  0.00     0.146 A 
ATOM      7  O   UNL     1      -6.368   5.056  15.868  1.00  0.00    -0.285 OA
ATOM      8  C   UNL     1      -4.113   4.511  16.004  1.00  0.00     0.111 A 
ATOM      9  C   UNL     1      -1.730   3.992  15.811  1.00  0.00     0.094 A 
ATOM     10  C   UNL     1      -4.257   3.398  16.888  1.00  0.00     0.134 A 
ATOM     11  C   UNL     1      -1.895   2.873  16.627  1.00  0.00     0.123 A 
ATOM     12  C   UNL     1      -3.152   2.580  17.155  1.00  0.00     0.093 A 
BRANCH   3  13
ATOM     13  C   UNL     1      -3.230   7.815  13.454  1.00  0.00     0.025 A 
ATOM     14  C   UNL     1      -2.699   8.973  14.045  1.00  0.00     0.016 A 
ATOM     15  C   UNL     1      -2.348  10.073  13.256  1.00  0.00     0.051 A 
ATOM     16  C   UNL     1      -2.513  10.025  11.865  1.00  0.00     0.157 A 
ATOM     17  C   UNL     1      -3.367   7.763  12.057  1.00  0.00     0.062 A 
ATOM     18  C   UNL     1      -3.021   8.866  11.264  1.00  0.00     0.158 A 
BRANCH  16  19
ATOM     19  O   UNL     1      -2.173  11.121  11.076  1.00  0.00    -0.504 OA
ATOM     20  H   UNL     1      -2.123  12.057  11.461  1.00  0.00     0.293 HD
ENDBRANCH  16  19
BRANCH  18  21
ATOM     21  O   UNL     1      -3.177   8.817   9.881  1.00  0.00    -0.504 OA
ATOM     22  H   UNL     1      -3.369   7.946   9.399  1.00  0.00     0.293 HD
ENDBRANCH  18  21
ENDBRANCH   3  13
BRANCH  10  23
ATOM     23  O   UNL     1      -5.445   3.073  17.548  1.00  0.00    -0.507 OA
ATOM     24  H   UNL     1      -5.525   2.392  18.288  1.00  0.00     0.293 HD
ENDBRANCH  10  23
BRANCH  11  25
ATOM     25  O   UNL     1      -0.813   2.048  16.928  1.00  0.00    -0.508 OA
ATOM     26  H   UNL     1       0.133   2.297  16.665  1.00  0.00     0.293 HD
ENDBRANCH  11  25
ENDBRANCH   1   2
BRANCH   1  27
ATOM     27  C   UNL     1      -6.500   7.438  13.030  1.00  0.00     0.339 C 
ATOM     28  C   UNL     1      -6.656   6.031  12.437  1.00  0.00     0.214 C 
ATOM     29  O   UNL     1      -7.726   8.159  13.038  1.00  0.00    -0.332 OA
ATOM     30  C   UNL     1      -7.726   5.251  13.211  1.00  0.00     0.180 C 
ATOM     31  C   UNL     1      -8.789   7.509  13.729  1.00  0.00     0.179 C 
ATOM     32  C   UNL     1      -9.033   6.059  13.236  1.00  0.00     0.177 C 
BRANCH  28  33
ATOM     33  O   UNL     1      -7.008   6.141  11.080  1.00  0.00    -0.384 OA
ATOM     34  H   UNL     1      -7.029   7.111  10.864  1.00  0.00     0.211 HD
ENDBRANCH  28  33
BRANCH  30  35
ATOM     35  O   UNL     1      -7.934   4.005  12.594  1.00  0.00    -0.387 OA
ATOM     36  H   UNL     1      -8.554   3.493  13.175  1.00  0.00     0.211 HD
ENDBRANCH  30  35
BRANCH  31  37
ATOM     37  C   UNL     1      -8.655   7.651  15.260  1.00  0.00     0.191 C 
BRANCH  37  38
ATOM     38  O   UNL     1      -9.891   7.399  15.880  1.00  0.00    -0.394 OA
ATOM     39  H   UNL     1      -9.758   6.650  16.520  1.00  0.00     0.210 HD
ENDBRANCH  37  38
ENDBRANCH  31  37
BRANCH  32  40
ATOM     40  O   UNL     1      -9.983   5.423  14.054  1.00  0.00    -0.387 OA
ATOM     41  H   UNL     1     -10.404   6.126  14.613  1.00  0.00     0.211 HD
ENDBRANCH  32  40
ENDBRANCH   1  27
TORSDOF 12
ENDMDL
MODEL 3
REMARK VINA RESULT:    -6.936      1.991      5.977
REMARK INTER + INTRA:         -11.258
REMARK INTER:                  -9.705
REMARK INTRA:                  -1.553
REMARK UNBOUND:                -1.078
REMARK SMILES O=c1c(O[C@@H]2O[C@H](CO)[C@H](O)[C@@H](O)[C@H]2O)c(-c2ccc(O)c(O)c2)oc2cc(O)cc(O)c12
REMARK SMILES IDX 4 1 3 2 16 3 25 4 2 5 26 6 1 7 33 8 27 9 31 10 28 11 30 12
REMARK SMILES IDX 17 13 18 14 19 15 20 16 24 17 22 18 21 19 23 21 32 23 29 25
REMARK SMILES IDX 5 27 14 28 6 29 12 30 7 31 10 32 15 33 13 35 8 37 9 38 11 40
REMARK H PARENT 21 20 23 22 32 24 29 26 15 34 13 36 9 39 11 41
REMARK Flexibility Score: inf
ROOT
ATOM      1  O   UNL     1      -6.243   6.990  13.702  1.00  0.00    -0.454 OA
ENDROOT
BRANCH   1   2
ATOM      2  C   UNL     1      -5.220   6.195  14.251  1.00  0.00     0.214 A 
ATOM      3  C   UNL     1      -3.882   6.554  14.000  1.00  0.00     0.180 A 
ATOM      4  O   UNL     1      -2.892   5.843  14.525  1.00  0.00    -0.452 OA
ATOM      5  C   UNL     1      -5.472   5.061  15.051  1.00  0.00     0.239 A 
ATOM      6  C   UNL     1      -3.083   4.784  15.302  1.00  0.00     0.146 A 
ATOM      7  O   UNL     1      -6.653   4.658  15.192  1.00  0.00    -0.285 OA
ATOM      8  C   UNL     1      -4.392   4.356  15.638  1.00  0.00     0.111 A 
ATOM      9  C   UNL     1      -1.964   4.094  15.774  1.00  0.00     0.094 A 
ATOM     10  C   UNL     1      -4.536   3.233  16.509  1.00  0.00     0.134 A 
ATOM     11  C   UNL     1      -2.118   2.963  16.576  1.00  0.00     0.123 A 
ATOM     12  C   UNL     1      -3.397   2.538  16.934  1.00  0.00     0.093 A 
BRANCH   3  13
ATOM     13  C   UNL     1      -3.527   7.738  13.185  1.00  0.00     0.025 A 
ATOM     14  C   UNL     1      -3.800   7.735  11.808  1.00  0.00     0.016 A 
ATOM     15  C   UNL     1      -3.471   8.842  11.019  1.00  0.00     0.051 A 
ATOM     16  C   UNL     1      -2.874   9.969  11.599  1.00  0.00     0.157 A 
ATOM     17  C   UNL     1      -2.954   8.882  13.766  1.00  0.00     0.062 A 
ATOM     18  C   UNL     1      -2.618   9.990  12.976  1.00  0.00     0.158 A 
BRANCH  16  19
ATOM     19  O   UNL     1      -2.537  11.071  10.816  1.00  0.00    -0.504 OA
ATOM     20  H   UNL     1      -1.614  11.171  10.411  1.00  0.00     0.293 HD
ENDBRANCH  16  19
BRANCH  18  21
ATOM     21  O   UNL     1      -2.032  11.116  13.553  1.00  0.00    -0.504 OA
ATOM     22  H   UNL     1      -1.977  11.228  14.559  1.00  0.00     0.293 HD
ENDBRANCH  18  21
ENDBRANCH   3  13
BRANCH  10  23
ATOM     23  O   UNL     1      -5.762   2.783  17.008  1.00  0.00    -0.507 OA
ATOM     24  H   UNL     1      -6.314   2.046  16.598  1.00  0.00     0.293 HD
ENDBRANCH  10  23
BRANCH  11  25
ATOM     25  O   UNL     1      -1.006   2.258  17.031  1.00  0.00    -0.508 OA
ATOM     26  H   UNL     1      -1.061   1.272  17.259  1.00  0.00     0.293 HD
ENDBRANCH  11  25
ENDBRANCH   1   2
BRANCH   1  27
ATOM     27  C   UNL     1      -6.898   8.089  14.345  1.00  0.00     0.339 C 
ATOM     28  C   UNL     1      -6.882   9.316  13.424  1.00  0.00     0.214 C 
ATOM     29  O   UNL     1      -8.212   7.753  14.773  1.00  0.00    -0.332 OA
ATOM     30  C   UNL     1      -7.789   9.074  12.211  1.00  0.00     0.180 C 
ATOM     31  C   UNL     1      -9.135   7.517  13.714  1.00  0.00     0.179 C 
ATOM     32  C   UNL     1      -9.195   8.682  12.692  1.00  0.00     0.177 C 
BRANCH  28  33
ATOM     33  O   UNL     1      -7.313  10.441  14.149  1.00  0.00    -0.384 OA
ATOM     34  H   UNL     1      -7.024  10.307  15.090  1.00  0.00     0.211 HD
ENDBRANCH  28  33
BRANCH  30  35
ATOM     35  O   UNL     1      -7.848  10.242  11.431  1.00  0.00    -0.387 OA
ATOM     36  H   UNL     1      -6.930  10.413  11.094  1.00  0.00     0.211 HD
ENDBRANCH  30  35
BRANCH  31  37
ATOM     37  C   UNL     1      -8.947   6.120  13.084  1.00  0.00     0.191 C 
BRANCH  37  38
ATOM     38  O   UNL     1      -9.353   5.123  13.987  1.00  0.00    -0.394 OA
ATOM     39  H   UNL     1      -8.548   4.594  14.231  1.00  0.00     0.210 HD
ENDBRANCH  37  38
ENDBRANCH  31  37
BRANCH  32  40
ATOM     40  O   UNL     1     -10.002   8.325  11.598  1.00  0.00    -0.387 OA
ATOM     41  H   UNL     1     -10.816   7.893  11.965  1.00  0.00     0.211 HD
ENDBRANCH  32  40
ENDBRANCH   1  27
TORSDOF 12
ENDMDL
MODEL 4
REMARK VINA RESULT:    -6.897      2.015      5.756
REMARK INTER + INTRA:         -11.201
REMARK INTER:                 -10.031
REMARK INTRA:                  -1.169
REMARK UNBOUND:                -1.078
REMARK SMILES O=c1c(O[C@@H]2O[C@H](CO)[C@H](O)[C@@H](O)[C@H]2O)c(-c2ccc(O)c(O)c2)oc2cc(O)cc(O)c12
REMARK SMILES IDX 4 1 3 2 16 3 25 4 2 5 26 6 1 7 33 8 27 9 31 10 28 11 30 12
REMARK SMILES IDX 17 13 18 14 19 15 20 16 24 17 22 18 21 19 23 21 32 23 29 25
REMARK SMILES IDX 5 27 14 28 6 29 12 30 7 31 10 32 15 33 13 35 8 37 9 38 11 40
REMARK H PARENT 21 20 23 22 32 24 29 26 15 34 13 36 9 39 11 41
REMARK Flexibility Score: inf
ROOT
ATOM      1  O   UNL     1      -5.976   6.987  13.817  1.00  0.00    -0.454 OA
ENDROOT
BRANCH   1   2
ATOM      2  C   UNL     1      -4.967   6.176  14.370  1.00  0.00     0.214 A 
ATOM      3  C   UNL     1      -3.623   6.536  14.159  1.00  0.00     0.180 A 
ATOM      4  O   UNL     1      -2.648   5.810  14.690  1.00  0.00    -0.452 OA
ATOM      5  C   UNL     1      -5.240   5.023  15.137  1.00  0.00     0.239 A 
ATOM      6  C   UNL     1      -2.859   4.733  15.435  1.00  0.00     0.146 A 
ATOM      7  O   UNL     1      -6.426   4.620  15.240  1.00  0.00    -0.285 OA
ATOM      8  C   UNL     1      -4.176   4.301  15.731  1.00  0.00     0.111 A 
ATOM      9  C   UNL     1      -1.753   4.028  15.916  1.00  0.00     0.094 A 
ATOM     10  C   UNL     1      -4.343   3.158  16.571  1.00  0.00     0.134 A 
ATOM     11  C   UNL     1      -1.928   2.879  16.686  1.00  0.00     0.123 A 
ATOM     12  C   UNL     1      -3.216   2.449  17.004  1.00  0.00     0.093 A 
BRANCH   3  13
ATOM     13  C   UNL     1      -3.247   7.739  13.382  1.00  0.00     0.025 A 
ATOM     14  C   UNL     1      -3.460   7.758  11.994  1.00  0.00     0.016 A 
ATOM     15  C   UNL     1      -3.110   8.883  11.241  1.00  0.00     0.051 A 
ATOM     16  C   UNL     1      -2.552  10.006  11.866  1.00  0.00     0.157 A 
ATOM     17  C   UNL     1      -2.713   8.879  14.007  1.00  0.00     0.062 A 
ATOM     18  C   UNL     1      -2.356  10.004  13.253  1.00  0.00     0.158 A 
BRANCH  16  19
ATOM     19  O   UNL     1      -2.193  11.125  11.118  1.00  0.00    -0.504 OA
ATOM     20  H   UNL     1      -2.316  12.065  11.477  1.00  0.00     0.293 HD
ENDBRANCH  16  19
BRANCH  18  21
ATOM     21  O   UNL     1      -1.809  11.125  13.875  1.00  0.00    -0.504 OA
ATOM     22  H   UNL     1      -1.898  11.275  14.873  1.00  0.00     0.293 HD
ENDBRANCH  18  21
ENDBRANCH   3  13
BRANCH  10  23
ATOM     23  O   UNL     1      -5.581   2.699  17.030  1.00  0.00    -0.507 OA
ATOM     24  H   UNL     1      -5.823   1.729  17.161  1.00  0.00     0.293 HD
ENDBRANCH  10  23
BRANCH  11  25
ATOM     25  O   UNL     1      -0.828   2.159  17.149  1.00  0.00    -0.508 OA
ATOM     26  H   UNL     1      -0.005   2.625  17.513  1.00  0.00     0.293 HD
ENDBRANCH  11  25
ENDBRANCH   1   2
BRANCH   1  27
ATOM     27  C   UNL     1      -6.608   6.801  12.547  1.00  0.00     0.339 C 
ATOM     28  C   UNL     1      -7.843   5.905  12.706  1.00  0.00     0.214 C 
ATOM     29  O   UNL     1      -6.917   8.038  11.916  1.00  0.00    -0.332 OA
ATOM     30  C   UNL     1      -8.931   6.645  13.494  1.00  0.00     0.180 C 
ATOM     31  C   UNL     1      -7.928   8.799  12.572  1.00  0.00     0.179 C 
ATOM     32  C   UNL     1      -9.229   7.992  12.817  1.00  0.00     0.177 C 
BRANCH  28  33
ATOM     33  O   UNL     1      -8.315   5.542  11.432  1.00  0.00    -0.384 OA
ATOM     34  H   UNL     1      -8.534   6.384  10.953  1.00  0.00     0.211 HD
ENDBRANCH  28  33
BRANCH  30  35
ATOM     35  O   UNL     1     -10.092   5.855  13.542  1.00  0.00    -0.387 OA
ATOM     36  H   UNL     1     -10.788   6.388  14.008  1.00  0.00     0.211 HD
ENDBRANCH  30  35
BRANCH  31  37
ATOM     37  C   UNL     1      -7.383   9.530  13.818  1.00  0.00     0.191 C 
BRANCH  37  38
ATOM     38  O   UNL     1      -6.090  10.019  13.566  1.00  0.00    -0.394 OA
ATOM     39  H   UNL     1      -5.873  10.674  14.280  1.00  0.00     0.210 HD
ENDBRANCH  37  38
ENDBRANCH  31  37
BRANCH  32  40
ATOM     40  O   UNL     1     -10.124   8.742  13.598  1.00  0.00    -0.387 OA
ATOM     41  H   UNL     1     -10.004   9.694  13.347  1.00  0.00     0.211 HD
ENDBRANCH  32  40
ENDBRANCH   1  27
TORSDOF 12
ENDMDL
MODEL 5
REMARK VINA RESULT:    -6.690      1.257      2.503
REMARK INTER + INTRA:         -10.896
REMARK INTER:                  -9.841
REMARK INTRA:                  -1.055
REMARK UNBOUND:                -1.078
REMARK SMILES O=c1c(O[C@@H]2O[C@H](CO)[C@H](O)[C@@H](O)[C@H]2O)c(-c2ccc(O)c(O)c2)oc2cc(O)cc(O)c12
REMARK SMILES IDX 4 1 3 2 16 3 25 4 2 5 26 6 1 7 33 8 27 9 31 10 28 11 30 12
REMARK SMILES IDX 17 13 18 14 19 15 20 16 24 17 22 18 21 19 23 21 32 23 29 25
REMARK SMILES IDX 5 27 14 28 6 29 12 30 7 31 10 32 15 33 13 35 8 37 9 38 11 40
REMARK H PARENT 21 20 23 22 32 24 29 26 15 34 13 36 9 39 11 41
REMARK Flexibility Score: inf
ROOT
ATOM      1  O   UNL     1      -6.311   6.401  12.778  1.00  0.00    -0.454 OA
ENDROOT
BRANCH   1   2
ATOM      2  C   UNL     1      -5.098   7.104  12.897  1.00  0.00     0.214 A 
ATOM      3  C   UNL     1      -4.292   6.869  14.026  1.00  0.00     0.180 A 
ATOM      4  O   UNL     1      -3.129   7.494  14.156  1.00  0.00    -0.452 OA
ATOM      5  C   UNL     1      -4.646   8.028  11.931  1.00  0.00     0.239 A 
ATOM      6  C   UNL     1      -2.654   8.351  13.262  1.00  0.00     0.146 A 
ATOM      7  O   UNL     1      -5.400   8.338  10.975  1.00  0.00    -0.285 OA
ATOM      8  C   UNL     1      -3.376   8.638  12.076  1.00  0.00     0.111 A 
ATOM      9  C   UNL     1      -1.430   8.974  13.520  1.00  0.00     0.094 A 
ATOM     10  C   UNL     1      -2.797   9.540  11.131  1.00  0.00     0.134 A 
ATOM     11  C   UNL     1      -0.903   9.898  12.618  1.00  0.00     0.123 A 
ATOM     12  C   UNL     1      -1.589  10.178  11.436  1.00  0.00     0.093 A 
BRANCH   3  13
ATOM     13  C   UNL     1      -4.681   5.905  15.080  1.00  0.00     0.025 A 
ATOM     14  C   UNL     1      -4.495   4.530  14.860  1.00  0.00     0.016 A 
ATOM     15  C   UNL     1      -4.857   3.602  15.841  1.00  0.00     0.051 A 
ATOM     16  C   UNL     1      -5.401   4.036  17.058  1.00  0.00     0.157 A 
ATOM     17  C   UNL     1      -5.200   6.335  16.313  1.00  0.00     0.062 A 
ATOM     18  C   UNL     1      -5.569   5.406  17.295  1.00  0.00     0.158 A 
BRANCH  16  19
ATOM     19  O   UNL     1      -5.771   3.114  18.034  1.00  0.00    -0.504 OA
ATOM     20  H   UNL     1      -6.588   2.525  17.925  1.00  0.00     0.293 HD
ENDBRANCH  16  19
BRANCH  18  21
ATOM     21  O   UNL     1      -6.102   5.836  18.509  1.00  0.00    -0.504 OA
ATOM     22  H   UNL     1      -7.034   5.570  18.804  1.00  0.00     0.293 HD
ENDBRANCH  18  21
ENDBRANCH   3  13
BRANCH  10  23
ATOM     23  O   UNL     1      -3.348   9.817   9.877  1.00  0.00    -0.507 OA
ATOM     24  H   UNL     1      -3.656   9.119   9.217  1.00  0.00     0.293 HD
ENDBRANCH  10  23
BRANCH  11  25
ATOM     25  O   UNL     1       0.305  10.538  12.881  1.00  0.00    -0.508 OA
ATOM     26  H   UNL     1       0.430  11.120  13.701  1.00  0.00     0.293 HD
ENDBRANCH  11  25
ENDBRANCH   1   2
BRANCH   1  27
ATOM     27  C   UNL     1      -7.441   6.511  13.649  1.00  0.00     0.339 C 
ATOM     28  C   UNL     1      -7.658   7.980  14.037  1.00  0.00     0.214 C 
ATOM     29  O   UNL     1      -8.609   5.922  13.090  1.00  0.00    -0.332 OA
ATOM     30  C   UNL     1      -8.123   8.781  12.815  1.00  0.00     0.180 C 
ATOM     31  C   UNL     1      -9.125   6.603  11.950  1.00  0.00     0.179 C 
ATOM     32  C   UNL     1      -9.367   8.113  12.205  1.00  0.00     0.177 C 
BRANCH  28  33
ATOM     33  O   UNL     1      -8.614   8.047  15.066  1.00  0.00    -0.384 OA
ATOM     34  H   UNL     1      -8.866   7.112  15.289  1.00  0.00     0.211 HD
ENDBRANCH  28  33
BRANCH  30  35
ATOM     35  O   UNL     1      -8.420  10.098  13.205  1.00  0.00    -0.387 OA
ATOM     36  H   UNL     1      -8.588  10.617  12.376  1.00  0.00     0.211 HD
ENDBRANCH  30  35
BRANCH  31  37
ATOM     37  C   UNL     1      -8.314   6.290  10.674  1.00  0.00     0.191 C 
BRANCH  37  38
ATOM     38  O   UNL     1      -7.903   4.945  10.678  1.00  0.00    -0.394 OA
ATOM     39  H   UNL     1      -7.319   4.814  11.471  1.00  0.00     0.210 HD
ENDBRANCH  37  38
ENDBRANCH  31  37
BRANCH  32  40
ATOM     40  O   UNL     1      -9.726   8.755  11.008  1.00  0.00    -0.387 OA
ATOM     41  H   UNL     1      -8.886   9.059  10.576  1.00  0.00     0.211 HD
ENDBRANCH  32  40
ENDBRANCH   1  27
TORSDOF 12
ENDMDL
MODEL 6
REMARK VINA RESULT:    -6.614      2.058      7.009
REMARK INTER + INTRA:         -10.786
REMARK INTER:                  -9.449
REMARK INTRA:                  -1.337
REMARK UNBOUND:                -1.078
REMARK SMILES O=c1c(O[C@@H]2O[C@H](CO)[C@H](O)[C@@H](O)[C@H]2O)c(-c2ccc(O)c(O)c2)oc2cc(O)cc(O)c12
REMARK SMILES IDX 4 1 3 2 16 3 25 4 2 5 26 6 1 7 33 8 27 9 31 10 28 11 30 12
REMARK SMILES IDX 17 13 18 14 19 15 20 16 24 17 22 18 21 19 23 21 32 23 29 25
REMARK SMILES IDX 5 27 14 28 6 29 12 30 7 31 10 32 15 33 13 35 8 37 9 38 11 40
REMARK H PARENT 21 20 23 22 32 24 29 26 15 34 13 36 9 39 11 41
REMARK Flexibility Score: inf
ROOT
ATOM      1  O   UNL     1      -4.130   6.625  13.682  1.00  0.00    -0.454 OA
ENDROOT
BRANCH   1   2
ATOM      2  C   UNL     1      -4.322   5.589  14.616  1.00  0.00     0.214 A 
ATOM      3  C   UNL     1      -5.634   5.149  14.872  1.00  0.00     0.180 A 
ATOM      4  O   UNL     1      -5.848   4.155  15.725  1.00  0.00    -0.452 OA
ATOM      5  C   UNL     1      -3.258   4.963  15.300  1.00  0.00     0.239 A 
ATOM      6  C   UNL     1      -4.878   3.523  16.372  1.00  0.00     0.146 A 
ATOM      7  O   UNL     1      -2.094   5.417  15.173  1.00  0.00    -0.285 OA
ATOM      8  C   UNL     1      -3.519   3.872  16.165  1.00  0.00     0.111 A 
ATOM      9  C   UNL     1      -5.225   2.512  17.271  1.00  0.00     0.094 A 
ATOM     10  C   UNL     1      -2.515   3.132  16.859  1.00  0.00     0.134 A 
ATOM     11  C   UNL     1      -4.238   1.835  17.989  1.00  0.00     0.123 A 
ATOM     12  C   UNL     1      -2.895   2.150  17.784  1.00  0.00     0.093 A 
BRANCH   3  13
ATOM     13  C   UNL     1      -6.807   5.737  14.187  1.00  0.00     0.025 A 
ATOM     14  C   UNL     1      -7.137   5.306  12.892  1.00  0.00     0.016 A 
ATOM     15  C   UNL     1      -8.239   5.850  12.225  1.00  0.00     0.051 A 
ATOM     16  C   UNL     1      -9.031   6.824  12.848  1.00  0.00     0.157 A 
ATOM     17  C   UNL     1      -7.621   6.694  14.817  1.00  0.00     0.062 A 
ATOM     18  C   UNL     1      -8.723   7.244  14.148  1.00  0.00     0.158 A 
BRANCH  16  19
ATOM     19  O   UNL     1     -10.125   7.375  12.184  1.00  0.00    -0.504 OA
ATOM     20  H   UNL     1     -10.864   7.853  12.685  1.00  0.00     0.293 HD
ENDBRANCH  16  19
BRANCH  18  21
ATOM     21  O   UNL     1      -9.516   8.207  14.769  1.00  0.00    -0.504 OA
ATOM     22  H   UNL     1      -9.361   9.198  14.623  1.00  0.00     0.293 HD
ENDBRANCH  18  21
ENDBRANCH   3  13
BRANCH  10  23
ATOM     23  O   UNL     1      -1.142   3.297  16.657  1.00  0.00    -0.507 OA
ATOM     24  H   UNL     1      -0.448   3.292  17.389  1.00  0.00     0.293 HD
ENDBRANCH  10  23
BRANCH  11  25
ATOM     25  O   UNL     1      -4.580   0.841  18.903  1.00  0.00    -0.508 OA
ATOM     26  H   UNL     1      -5.509   0.787  19.304  1.00  0.00     0.293 HD
ENDBRANCH  11  25
ENDBRANCH   1   2
BRANCH   1  27
ATOM     27  C   UNL     1      -4.258   8.027  13.937  1.00  0.00     0.339 C 
ATOM     28  C   UNL     1      -2.878   8.696  13.867  1.00  0.00     0.214 C 
ATOM     29  O   UNL     1      -5.202   8.647  13.072  1.00  0.00    -0.332 OA
ATOM     30  C   UNL     1      -2.362   8.684  12.423  1.00  0.00     0.180 C 
ATOM     31  C   UNL     1      -4.807   8.692  11.704  1.00  0.00     0.179 C 
ATOM     32  C   UNL     1      -3.407   9.328  11.499  1.00  0.00     0.177 C 
BRANCH  28  33
ATOM     33  O   UNL     1      -2.981  10.014  14.345  1.00  0.00    -0.384 OA
ATOM     34  H   UNL     1      -3.220  10.586  13.568  1.00  0.00     0.211 HD
ENDBRANCH  28  33
BRANCH  30  35
ATOM     35  O   UNL     1      -1.149   9.390  12.354  1.00  0.00    -0.387 OA
ATOM     36  H   UNL     1      -1.361  10.348  12.508  1.00  0.00     0.211 HD
ENDBRANCH  30  35
BRANCH  31  37
ATOM     37  C   UNL     1      -5.003   7.331  11.001  1.00  0.00     0.191 C 
BRANCH  37  38
ATOM     38  O   UNL     1      -3.762   6.697  10.820  1.00  0.00    -0.394 OA
ATOM     39  H   UNL     1      -3.937   5.728  10.690  1.00  0.00     0.210 HD
ENDBRANCH  37  38
ENDBRANCH  31  37
BRANCH  32  40
ATOM     40  O   UNL     1      -3.012   9.203  10.156  1.00  0.00    -0.387 OA
ATOM     41  H   UNL     1      -2.857   8.238   9.985  1.00  0.00     0.211 HD
ENDBRANCH  32  40
ENDBRANCH   1  27
TORSDOF 12
ENDMDL
MODEL 7
REMARK VINA RESULT:    -5.950      2.040      6.622
REMARK INTER + INTRA:          -9.810
REMARK INTER:                  -8.385
REMARK INTRA:                  -1.426
REMARK UNBOUND:                -1.078
REMARK SMILES O=c1c(O[C@@H]2O[C@H](CO)[C@H](O)[C@@H](O)[C@H]2O)c(-c2ccc(O)c(O)c2)oc2cc(O)cc(O)c12
REMARK SMILES IDX 4 1 3 2 16 3 25 4 2 5 26 6 1 7 33 8 27 9 31 10 28 11 30 12
REMARK SMILES IDX 17 13 18 14 19 15 20 16 24 17 22 18 21 19 23 21 32 23 29 25
REMARK SMILES IDX 5 27 14 28 6 29 12 30 7 31 10 32 15 33 13 35 8 37 9 38 11 40
REMARK H PARENT 21 20 23 22 32 24 29 26 15 34 13 36 9 39 11 41
REMARK Flexibility Score: inf
ROOT
ATOM      1  O   UNL     1      -4.200   7.407  13.904  1.00  0.00    -0.454 OA
ENDROOT
BRANCH   1   2
ATOM      2  C   UNL     1      -4.463   6.279  14.704  1.00  0.00     0.214 A 
ATOM      3  C   UNL     1      -5.803   5.938  14.966  1.00  0.00     0.180 A 
ATOM      4  O   UNL     1      -6.087   4.865  15.693  1.00  0.00    -0.452 OA
ATOM      5  C   UNL     1      -3.445   5.467  15.248  1.00  0.00     0.239 A 
ATOM      6  C   UNL     1      -5.164   4.061  16.203  1.00  0.00     0.146 A 
ATOM      7  O   UNL     1      -2.245   5.818  15.122  1.00  0.00    -0.285 OA
ATOM      8  C   UNL     1      -3.785   4.300  15.975  1.00  0.00     0.111 A 
ATOM      9  C   UNL     1      -5.580   2.977  16.980  1.00  0.00     0.094 A 
ATOM     10  C   UNL     1      -2.838   3.379  16.517  1.00  0.00     0.134 A 
ATOM     11  C   UNL     1      -4.643   2.117  17.554  1.00  0.00     0.123 A 
ATOM     12  C   UNL     1      -3.283   2.324  17.324  1.00  0.00     0.093 A 
BRANCH   3  13
ATOM     13  C   UNL     1      -6.933   6.725  14.422  1.00  0.00     0.025 A 
ATOM     14  C   UNL     1      -7.048   8.085  14.750  1.00  0.00     0.016 A 
ATOM     15  C   UNL     1      -8.109   8.847  14.249  1.00  0.00     0.051 A 
ATOM     16  C   UNL     1      -9.062   8.260  13.406  1.00  0.00     0.157 A 
ATOM     17  C   UNL     1      -7.877   6.149  13.554  1.00  0.00     0.062 A 
ATOM     18  C   UNL     1      -8.944   6.909  13.055  1.00  0.00     0.158 A 
BRANCH  16  19
ATOM     19  O   UNL     1     -10.125   9.012  12.912  1.00  0.00    -0.504 OA
ATOM     20  H   UNL     1     -10.745   8.649  12.197  1.00  0.00     0.293 HD
ENDBRANCH  16  19
BRANCH  18  21
ATOM     21  O   UNL     1      -9.888   6.329  12.210  1.00  0.00    -0.504 OA
ATOM     22  H   UNL     1     -10.178   6.781  11.350  1.00  0.00     0.293 HD
ENDBRANCH  18  21
ENDBRANCH   3  13
BRANCH  10  23
ATOM     23  O   UNL     1      -1.463   3.435  16.270  1.00  0.00    -0.507 OA
ATOM     24  H   UNL     1      -0.849   4.165  16.597  1.00  0.00     0.293 HD
ENDBRANCH  10  23
BRANCH  11  25
ATOM     25  O   UNL     1      -5.052   1.048  18.347  1.00  0.00    -0.508 OA
ATOM     26  H   UNL     1      -5.056   1.109  19.358  1.00  0.00     0.293 HD
ENDBRANCH  11  25
ENDBRANCH   1   2
BRANCH   1  27
ATOM     27  C   UNL     1      -3.563   7.404  12.622  1.00  0.00     0.339 C 
ATOM     28  C   UNL     1      -4.572   6.994  11.541  1.00  0.00     0.214 C 
ATOM     29  O   UNL     1      -2.937   8.648  12.332  1.00  0.00    -0.332 OA
ATOM     30  C   UNL     1      -5.629   8.091  11.366  1.00  0.00     0.180 C 
ATOM     31  C   UNL     1      -3.841   9.733  12.142  1.00  0.00     0.179 C 
ATOM     32  C   UNL     1      -4.934   9.433  11.084  1.00  0.00     0.177 C 
BRANCH  28  33
ATOM     33  O   UNL     1      -3.887   6.769  10.334  1.00  0.00    -0.384 OA
ATOM     34  H   UNL     1      -3.007   6.373  10.570  1.00  0.00     0.211 HD
ENDBRANCH  28  33
BRANCH  30  35
ATOM     35  O   UNL     1      -6.483   7.751  10.303  1.00  0.00    -0.387 OA
ATOM     36  H   UNL     1      -6.015   7.064   9.761  1.00  0.00     0.211 HD
ENDBRANCH  30  35
BRANCH  31  37
ATOM     37  C   UNL     1      -4.379  10.277  13.483  1.00  0.00     0.191 C 
BRANCH  37  38
ATOM     38  O   UNL     1      -3.363  10.264  14.454  1.00  0.00    -0.394 OA
ATOM     39  H   UNL     1      -2.499  10.132  13.981  1.00  0.00     0.210 HD
ENDBRANCH  37  38
ENDBRANCH  31  37
BRANCH  32  40
ATOM     40  O   UNL     1      -5.879  10.473  11.055  1.00  0.00    -0.387 OA
ATOM     41  H   UNL     1      -5.416  11.278  10.704  1.00  0.00     0.211 HD
ENDBRANCH  32  40
ENDBRANCH   1  27
TORSDOF 12
ENDMDL
MODEL 8
REMARK VINA RESULT:    -5.842     12.775     17.619
REMARK INTER + INTRA:          -9.652
REMARK INTER:                  -8.300
REMARK INTRA:                  -1.352
REMARK UNBOUND:                -1.078
REMARK SMILES O=c1c(O[C@@H]2O[C@H](CO)[C@H](O)[C@@H](O)[C@H]2O)c(-c2ccc(O)c(O)c2)oc2cc(O)cc(O)c12
REMARK SMILES IDX 4 1 3 2 16 3 25 4 2 5 26 6 1 7 33 8 27 9 31 10 28 11 30 12
REMARK SMILES IDX 17 13 18 14 19 15 20 16 24 17 22 18 21 19 23 21 32 23 29 25
REMARK SMILES IDX 5 27 14 28 6 29 12 30 7 31 10 32 15 33 13 35 8 37 9 38 11 40
REMARK H PARENT 21 20 23 22 32 24 29 26 15 34 13 36 9 39 11 41
REMARK Flexibility Score: inf
ROOT
ATOM      1  O   UNL     1      -5.355  -7.748  22.370  1.00  0.00    -0.454 OA
ENDROOT
BRANCH   1   2
ATOM      2  C   UNL     1      -4.734  -7.129  23.471  1.00  0.00     0.214 A 
ATOM      3  C   UNL     1      -4.586  -5.730  23.461  1.00  0.00     0.180 A 
ATOM      4  O   UNL     1      -4.030  -5.112  24.495  1.00  0.00    -0.452 OA
ATOM      5  C   UNL     1      -4.262  -7.846  24.592  1.00  0.00     0.239 A 
ATOM      6  C   UNL     1      -3.595  -5.742  25.578  1.00  0.00     0.146 A 
ATOM      7  O   UNL     1      -4.281  -9.102  24.571  1.00  0.00    -0.285 OA
ATOM      8  C   UNL     1      -3.722  -7.149  25.700  1.00  0.00     0.111 A 
ATOM      9  C   UNL     1      -2.999  -4.990  26.593  1.00  0.00     0.094 A 
ATOM     10  C   UNL     1      -3.271  -7.769  26.905  1.00  0.00     0.134 A 
ATOM     11  C   UNL     1      -2.508  -5.614  27.740  1.00  0.00     0.123 A 
ATOM     12  C   UNL     1      -2.641  -6.994  27.887  1.00  0.00     0.093 A 
BRANCH   3  13
ATOM     13  C   UNL     1      -5.067  -4.898  22.334  1.00  0.00     0.025 A 
ATOM     14  C   UNL     1      -4.230  -4.687  21.226  1.00  0.00     0.016 A 
ATOM     15  C   UNL     1      -4.664  -3.904  20.152  1.00  0.00     0.051 A 
ATOM     16  C   UNL     1      -5.942  -3.330  20.167  1.00  0.00     0.157 A 
ATOM     17  C   UNL     1      -6.358  -4.344  22.331  1.00  0.00     0.062 A 
ATOM     18  C   UNL     1      -6.792  -3.554  21.258  1.00  0.00     0.158 A 
BRANCH  16  19
ATOM     19  O   UNL     1      -6.374  -2.542  19.103  1.00  0.00    -0.504 OA
ATOM     20  H   UNL     1      -7.078  -2.870  18.452  1.00  0.00     0.293 HD
ENDBRANCH  16  19
BRANCH  18  21
ATOM     21  O   UNL     1      -8.066  -2.990  21.268  1.00  0.00    -0.504 OA
ATOM     22  H   UNL     1      -8.578  -2.850  22.131  1.00  0.00     0.293 HD
ENDBRANCH  18  21
ENDBRANCH   3  13
BRANCH  10  23
ATOM     23  O   UNL     1      -3.443  -9.125  27.198  1.00  0.00    -0.507 OA
ATOM     24  H   UNL     1      -3.442  -9.866  26.514  1.00  0.00     0.293 HD
ENDBRANCH  10  23
BRANCH  11  25
ATOM     25  O   UNL     1      -1.892  -4.871  28.745  1.00  0.00    -0.508 OA
ATOM     26  H   UNL     1      -2.432  -4.346  29.422  1.00  0.00     0.293 HD
ENDBRANCH  11  25
ENDBRANCH   1   2
BRANCH   1  27
ATOM     27  C   UNL     1      -6.470  -8.644  22.421  1.00  0.00     0.339 C 
ATOM     28  C   UNL     1      -7.638  -7.980  23.163  1.00  0.00     0.214 C 
ATOM     29  O   UNL     1      -6.845  -9.108  21.130  1.00  0.00    -0.332 OA
ATOM     30  C   UNL     1      -8.200  -6.824  22.327  1.00  0.00     0.180 C 
ATOM     31  C   UNL     1      -7.390  -8.105  20.278  1.00  0.00     0.179 C 
ATOM     32  C   UNL     1      -8.571  -7.336  20.926  1.00  0.00     0.177 C 
BRANCH  28  33
ATOM     33  O   UNL     1      -8.632  -8.942  23.410  1.00  0.00    -0.384 OA
ATOM     34  H   UNL     1      -8.542  -9.215  24.361  1.00  0.00     0.211 HD
ENDBRANCH  28  33
BRANCH  30  35
ATOM     35  O   UNL     1      -9.333  -6.292  22.967  1.00  0.00    -0.387 OA
ATOM     36  H   UNL     1      -9.039  -5.967  23.857  1.00  0.00     0.211 HD
ENDBRANCH  30  35
BRANCH  31  37
ATOM     37  C   UNL     1      -6.292  -7.203  19.673  1.00  0.00     0.191 C 
BRANCH  37  38
ATOM     38  O   UNL     1      -6.755  -6.607  18.487  1.00  0.00    -0.394 OA
ATOM     39  H   UNL     1      -6.495  -5.648  18.513  1.00  0.00     0.210 HD
ENDBRANCH  37  38
ENDBRANCH  31  37
BRANCH  32  40
ATOM     40  O   UNL     1      -8.961  -6.266  20.103  1.00  0.00    -0.387 OA
ATOM     41  H   UNL     1      -9.171  -6.645  19.211  1.00  0.00     0.211 HD
ENDBRANCH  32  40
ENDBRANCH   1  27
TORSDOF 12
ENDMDL
MODEL 9
REMARK VINA RESULT:    -5.835     11.811     16.044
REMARK INTER + INTRA:          -9.641
REMARK INTER:                  -7.850
REMARK INTRA:                  -1.791
REMARK UNBOUND:                -1.078
REMARK SMILES O=c1c(O[C@@H]2O[C@H](CO)[C@H](O)[C@@H](O)[C@H]2O)c(-c2ccc(O)c(O)c2)oc2cc(O)cc(O)c12
REMARK SMILES IDX 4 1 3 2 16 3 25 4 2 5 26 6 1 7 33 8 27 9 31 10 28 11 30 12
REMARK SMILES IDX 17 13 18 14 19 15 20 16 24 17 22 18 21 19 23 21 32 23 29 25
REMARK SMILES IDX 5 27 14 28 6 29 12 30 7 31 10 32 15 33 13 35 8 37 9 38 11 40
REMARK H PARENT 21 20 23 22 32 24 29 26 15 34 13 36 9 39 11 41
REMARK Flexibility Score: inf
ROOT
ATOM      1  O   UNL     1      -7.885  -5.417  23.375  1.00  0.00    -0.454 OA
ENDROOT
BRANCH   1   2
ATOM      2  C   UNL     1      -7.504  -4.615  22.282  1.00  0.00     0.214 A 
ATOM      3  C   UNL     1      -6.201  -4.754  21.768  1.00  0.00     0.180 A 
ATOM      4  O   UNL     1      -5.819  -4.033  20.721  1.00  0.00    -0.452 OA
ATOM      5  C   UNL     1      -8.372  -3.685  21.671  1.00  0.00     0.239 A 
ATOM      6  C   UNL     1      -6.608  -3.166  20.101  1.00  0.00     0.146 A 
ATOM      7  O   UNL     1      -9.497  -3.464  22.185  1.00  0.00    -0.285 OA
ATOM      8  C   UNL     1      -7.947  -2.971  20.524  1.00  0.00     0.111 A 
ATOM      9  C   UNL     1      -6.087  -2.440  19.028  1.00  0.00     0.094 A 
ATOM     10  C   UNL     1      -8.762  -2.052  19.795  1.00  0.00     0.134 A 
ATOM     11  C   UNL     1      -6.874  -1.502  18.360  1.00  0.00     0.123 A 
ATOM     12  C   UNL     1      -8.200  -1.310  18.748  1.00  0.00     0.093 A 
BRANCH   3  13
ATOM     13  C   UNL     1      -5.232  -5.717  22.337  1.00  0.00     0.025 A 
ATOM     14  C   UNL     1      -4.840  -6.831  21.578  1.00  0.00     0.016 A 
ATOM     15  C   UNL     1      -3.926  -7.754  22.096  1.00  0.00     0.051 A 
ATOM     16  C   UNL     1      -3.386  -7.570  23.376  1.00  0.00     0.157 A 
ATOM     17  C   UNL     1      -4.665  -5.523  23.608  1.00  0.00     0.062 A 
ATOM     18  C   UNL     1      -3.754  -6.450  24.132  1.00  0.00     0.158 A 
BRANCH  16  19
ATOM     19  O   UNL     1      -2.483  -8.492  23.900  1.00  0.00    -0.504 OA
ATOM     20  H   UNL     1      -1.609  -8.703  23.433  1.00  0.00     0.293 HD
ENDBRANCH  16  19
BRANCH  18  21
ATOM     21  O   UNL     1      -3.210  -6.264  25.401  1.00  0.00    -0.504 OA
ATOM     22  H   UNL     1      -2.334  -6.698  25.672  1.00  0.00     0.293 HD
ENDBRANCH  18  21
ENDBRANCH   3  13
BRANCH  10  23
ATOM     23  O   UNL     1     -10.125  -1.855  20.035  1.00  0.00    -0.507 OA
ATOM     24  H   UNL     1     -10.785  -2.589  20.242  1.00  0.00     0.293 HD
ENDBRANCH  10  23
BRANCH  11  25
ATOM     25  O   UNL     1      -6.352  -0.759  17.304  1.00  0.00    -0.508 OA
ATOM     26  H   UNL     1      -6.214  -1.167  16.386  1.00  0.00     0.293 HD
ENDBRANCH  11  25
ENDBRANCH   1   2
BRANCH   1  27
ATOM     27  C   UNL     1      -8.570  -6.672  23.304  1.00  0.00     0.339 C 
ATOM     28  C   UNL     1      -7.649  -7.796  23.796  1.00  0.00     0.214 C 
ATOM     29  O   UNL     1      -9.810  -6.646  24.002  1.00  0.00    -0.332 OA
ATOM     30  C   UNL     1      -7.406  -7.654  25.303  1.00  0.00     0.180 C 
ATOM     31  C   UNL     1      -9.688  -6.524  25.416  1.00  0.00     0.179 C 
ATOM     32  C   UNL     1      -8.755  -7.596  26.038  1.00  0.00     0.177 C 
BRANCH  28  33
ATOM     33  O   UNL     1      -8.243  -9.037  23.505  1.00  0.00    -0.384 OA
ATOM     34  H   UNL     1      -7.743  -9.425  22.739  1.00  0.00     0.211 HD
ENDBRANCH  28  33
BRANCH  30  35
ATOM     35  O   UNL     1      -6.649  -8.746  25.760  1.00  0.00    -0.387 OA
ATOM     36  H   UNL     1      -5.842  -8.376  26.204  1.00  0.00     0.211 HD
ENDBRANCH  30  35
BRANCH  31  37
ATOM     37  C   UNL     1      -9.376  -5.075  25.846  1.00  0.00     0.191 C 
BRANCH  37  38
ATOM     38  O   UNL     1     -10.045  -4.166  25.009  1.00  0.00    -0.394 OA
ATOM     39  H   UNL     1      -9.435  -3.948  24.256  1.00  0.00     0.210 HD
ENDBRANCH  37  38
ENDBRANCH  31  37
BRANCH  32  40
ATOM     40  O   UNL     1      -8.555  -7.330  27.403  1.00  0.00    -0.387 OA
ATOM     41  H   UNL     1      -9.179  -6.600  27.653  1.00  0.00     0.211 HD
ENDBRANCH  32  40
ENDBRANCH   1  27
TORSDOF 12
ENDMDL
