MODEL 1
REMARK VINA RESULT:    -3.368      0.000      0.000
REMARK INTER + INTRA:          -8.523
REMARK INTER:                  -6.322
REMARK INTRA:                  -2.201
REMARK UNBOUND:                -2.201
REMARK SMILES CCCCCCCCC=CCCCCCCCC(=O)[O-]
REMARK SMILES IDX 10 1 9 2 11 3 12 4 13 5 14 6 15 7 16 8 17 9 18 10 19 11
REMARK SMILES IDX 20 12 8 13 7 14 6 15 5 16 4 17 3 18 2 19 1 20
REMARK H PARENT
REMARK Flexibility Score: inf
ROOT
ATOM      1  C   UNL     1       8.795  -3.340  20.258  1.00  0.00    -0.031 C 
ATOM      2  C   UNL     1      10.111  -3.090  20.305  1.00  0.00    -0.031 C 
ENDROOT
BRANCH   1   3
ATOM      3  C   UNL     1       7.779  -2.303  20.653  1.00  0.00     0.027 C 
BRANCH   3   4
ATOM      4  C   UNL     1       7.163  -1.583  19.439  1.00  0.00     0.004 C 
BRANCH   4   5
ATOM      5  C   UNL     1       5.962  -2.311  18.802  1.00  0.00     0.000 C 
BRANCH   5   6
ATOM      6  C   UNL     1       5.133  -1.459  17.825  1.00  0.00     0.000 C 
BRANCH   6   7
ATOM      7  C   UNL     1       5.557  -1.651  16.359  1.00  0.00     0.000 C 
BRANCH   7   8
ATOM      8  C   UNL     1       6.204  -0.391  15.752  1.00  0.00     0.006 C 
BRANCH   8   9
ATOM      9  C   UNL     1       5.610   0.020  14.394  1.00  0.00     0.053 C 
BRANCH   9  10
ATOM     10  C   UNL     1       4.131   0.245  14.456  1.00  0.00     0.041 C 
ATOM     11  O   UNL     1       3.359  -0.404  13.702  1.00  0.00    -0.550 OA
ATOM     12  O   UNL     1       3.604   1.167  15.350  1.00  0.00    -0.550 OA
ENDBRANCH   9  10
ENDBRANCH   8   9
ENDBRANCH   7   8
ENDBRANCH   6   7
ENDBRANCH   5   6
ENDBRANCH   4   5
ENDBRANCH   3   4
ENDBRANCH   1   3
BRANCH   2  13
ATOM     13  C   UNL     1      11.108  -4.149  19.914  1.00  0.00     0.027 C 
BRANCH  13  14
ATOM     14  C   UNL     1      11.078  -5.354  20.865  1.00  0.00     0.004 C 
BRANCH  14  15
ATOM     15  C   UNL     1      10.290  -6.536  20.273  1.00  0.00     0.000 C 
BRANCH  15  16
ATOM     16  C   UNL     1      10.328  -6.560  18.738  1.00  0.00     0.000 C 
BRANCH  16  17
ATOM     17  C   UNL     1       8.955  -6.268  18.107  1.00  0.00    -0.000 C 
BRANCH  17  18
ATOM     18  C   UNL     1       9.061  -5.518  16.767  1.00  0.00    -0.000 C 
BRANCH  18  19
ATOM     19  C   UNL     1       8.336  -4.161  16.730  1.00  0.00    -0.003 C 
ATOM     20  C   UNL     1       9.292  -2.975  16.605  1.00  0.00     0.004 C 
ENDBRANCH  18  19
ENDBRANCH  17  18
ENDBRANCH  16  17
ENDBRANCH  15  16
ENDBRANCH  14  15
ENDBRANCH  13  14
ENDBRANCH   2  13
TORSDOF 15
ENDMDL
MODEL 2
REMARK VINA RESULT:    -3.307      1.060      2.377
REMARK INTER + INTRA:          -8.409
REMARK INTER:                  -5.962
REMARK INTRA:                  -2.447
REMARK UNBOUND:                -2.201
REMARK SMILES CCCCCCCCC=CCCCCCCCC(=O)[O-]
REMARK SMILES IDX 10 1 9 2 11 3 12 4 13 5 14 6 15 7 16 8 17 9 18 10 19 11
REMARK SMILES IDX 20 12 8 13 7 14 6 15 5 16 4 17 3 18 2 19 1 20
REMARK H PARENT
REMARK Flexibility Score: inf
ROOT
ATOM      1  C   UNL     1      10.002  -3.865  20.475  1.00  0.00    -0.031 C 
ATOM      2  C   UNL     1      10.784  -4.935  20.270  1.00  0.00    -0.031 C 
ENDROOT
BRANCH   1   3
ATOM      3  C   UNL     1      10.554  -2.465  20.444  1.00  0.00     0.027 C 
BRANCH   3   4
ATOM      4  C   UNL     1       9.458  -1.399  20.263  1.00  0.00     0.004 C 
BRANCH   4   5
ATOM      5  C   UNL     1       8.025  -1.900  20.534  1.00  0.00     0.000 C 
BRANCH   5   6
ATOM      6  C   UNL     1       6.928  -1.202  19.711  1.00  0.00     0.000 C 
BRANCH   6   7
ATOM      7  C   UNL     1       6.025  -2.194  18.958  1.00  0.00     0.000 C 
BRANCH   7   8
ATOM      8  C   UNL     1       5.062  -1.500  17.976  1.00  0.00     0.006 C 
BRANCH   8   9
ATOM      9  C   UNL     1       5.464  -1.654  16.499  1.00  0.00     0.053 C 
BRANCH   9  10
ATOM     10  C   UNL     1       5.259  -0.397  15.712  1.00  0.00     0.041 C 
ATOM     11  O   UNL     1       4.307  -0.311  14.891  1.00  0.00    -0.550 OA
ATOM     12  O   UNL     1       6.114   0.682  15.887  1.00  0.00    -0.550 OA
ENDBRANCH   9  10
ENDBRANCH   8   9
ENDBRANCH   7   8
ENDBRANCH   6   7
ENDBRANCH   5   6
ENDBRANCH   4   5
ENDBRANCH   3   4
ENDBRANCH   1   3
BRANCH   2  13
ATOM     13  C   UNL     1      10.209  -6.325  20.316  1.00  0.00     0.027 C 
BRANCH  13  14
ATOM     14  C   UNL     1      10.026  -6.925  18.915  1.00  0.00     0.004 C 
BRANCH  14  15
ATOM     15  C   UNL     1       8.630  -6.629  18.339  1.00  0.00     0.000 C 
BRANCH  15  16
ATOM     16  C   UNL     1       8.688  -5.789  17.054  1.00  0.00     0.000 C 
BRANCH  16  17
ATOM     17  C   UNL     1       8.304  -4.318  17.291  1.00  0.00    -0.000 C 
BRANCH  17  18
ATOM     18  C   UNL     1       8.666  -3.408  16.103  1.00  0.00    -0.000 C 
BRANCH  18  19
ATOM     19  C   UNL     1       9.793  -2.399  16.386  1.00  0.00    -0.003 C 
ATOM     20  C   UNL     1       9.276  -0.987  16.664  1.00  0.00     0.004 C 
ENDBRANCH  18  19
ENDBRANCH  17  18
ENDBRANCH  16  17
ENDBRANCH  15  16
ENDBRANCH  14  15
ENDBRANCH  13  14
ENDBRANCH   2  13
TORSDOF 15
ENDMDL
MODEL 3
REMARK VINA RESULT:    -3.292      3.670      6.858
REMARK INTER + INTRA:          -8.381
REMARK INTER:                  -5.700
REMARK INTRA:                  -2.680
REMARK UNBOUND:                -2.201
REMARK SMILES CCCCCCCCC=CCCCCCCCC(=O)[O-]
REMARK SMILES IDX 10 1 9 2 11 3 12 4 13 5 14 6 15 7 16 8 17 9 18 10 19 11
REMARK SMILES IDX 20 12 8 13 7 14 6 15 5 16 4 17 3 18 2 19 1 20
REMARK H PARENT
REMARK Flexibility Score: inf
ROOT
ATOM      1  C   UNL     1       7.064  -1.899  19.603  1.00  0.00    -0.031 C 
ATOM      2  C   UNL     1       6.056  -2.373  18.858  1.00  0.00    -0.031 C 
ENDROOT
BRANCH   1   3
ATOM      3  C   UNL     1       7.888  -2.800  20.483  1.00  0.00     0.027 C 
BRANCH   3   4
ATOM      4  C   UNL     1       9.402  -2.567  20.320  1.00  0.00     0.004 C 
BRANCH   4   5
ATOM      5  C   UNL     1      10.259  -3.848  20.385  1.00  0.00     0.000 C 
BRANCH   5   6
ATOM      6  C   UNL     1      10.221  -4.717  19.117  1.00  0.00     0.000 C 
BRANCH   6   7
ATOM      7  C   UNL     1       9.364  -5.983  19.287  1.00  0.00     0.000 C 
BRANCH   7   8
ATOM      8  C   UNL     1       8.282  -6.125  18.198  1.00  0.00     0.006 C 
BRANCH   8   9
ATOM      9  C   UNL     1       8.714  -6.994  17.004  1.00  0.00     0.053 C 
BRANCH   9  10
ATOM     10  C   UNL     1       8.878  -8.436  17.369  1.00  0.00     0.041 C 
ATOM     11  O   UNL     1      10.016  -8.892  17.655  1.00  0.00    -0.550 OA
ATOM     12  O   UNL     1       7.773  -9.277  17.400  1.00  0.00    -0.550 OA
ENDBRANCH   9  10
ENDBRANCH   8   9
ENDBRANCH   7   8
ENDBRANCH   6   7
ENDBRANCH   5   6
ENDBRANCH   4   5
ENDBRANCH   3   4
ENDBRANCH   1   3
BRANCH   2  13
ATOM     13  C   UNL     1       5.240  -1.448  17.994  1.00  0.00     0.027 C 
BRANCH  13  14
ATOM     14  C   UNL     1       5.388  -1.770  16.500  1.00  0.00     0.004 C 
BRANCH  14  15
ATOM     15  C   UNL     1       5.708  -0.514  15.669  1.00  0.00     0.000 C 
BRANCH  15  16
ATOM     16  C   UNL     1       6.849   0.318  16.275  1.00  0.00     0.000 C 
BRANCH  16  17
ATOM     17  C   UNL     1       8.235  -0.128  15.777  1.00  0.00    -0.000 C 
BRANCH  17  18
ATOM     18  C   UNL     1       9.131  -0.664  16.909  1.00  0.00    -0.000 C 
BRANCH  18  19
ATOM     19  C   UNL     1       9.719  -2.064  16.656  1.00  0.00    -0.003 C 
ATOM     20  C   UNL     1       8.685  -3.060  16.131  1.00  0.00     0.004 C 
ENDBRANCH  18  19
ENDBRANCH  17  18
ENDBRANCH  16  17
ENDBRANCH  15  16
ENDBRANCH  14  15
ENDBRANCH  13  14
ENDBRANCH   2  13
TORSDOF 15
ENDMDL
MODEL 4
REMARK VINA RESULT:    -3.291      3.136      4.539
REMARK INTER + INTRA:          -8.377
REMARK INTER:                  -7.032
REMARK INTRA:                  -1.346
REMARK UNBOUND:                -2.201
REMARK SMILES CCCCCCCCC=CCCCCCCCC(=O)[O-]
REMARK SMILES IDX 10 1 9 2 11 3 12 4 13 5 14 6 15 7 16 8 17 9 18 10 19 11
REMARK SMILES IDX 20 12 8 13 7 14 6 15 5 16 4 17 3 18 2 19 1 20
REMARK H PARENT
REMARK Flexibility Score: inf
ROOT
ATOM      1  C   UNL     1       9.633  -5.695  19.752  1.00  0.00    -0.031 C 
ATOM      2  C   UNL     1       9.075  -5.479  18.553  1.00  0.00    -0.031 C 
ENDROOT
BRANCH   1   3
ATOM      3  C   UNL     1      10.623  -4.731  20.348  1.00  0.00     0.027 C 
BRANCH   3   4
ATOM      4  C   UNL     1      10.243  -3.259  20.099  1.00  0.00     0.004 C 
BRANCH   4   5
ATOM      5  C   UNL     1       9.382  -2.623  21.210  1.00  0.00     0.000 C 
BRANCH   5   6
ATOM      6  C   UNL     1       8.020  -2.081  20.743  1.00  0.00     0.000 C 
BRANCH   6   7
ATOM      7  C   UNL     1       7.884  -2.050  19.211  1.00  0.00     0.000 C 
BRANCH   7   8
ATOM      8  C   UNL     1       6.625  -2.781  18.707  1.00  0.00     0.006 C 
BRANCH   8   9
ATOM      9  C   UNL     1       5.687  -1.897  17.868  1.00  0.00     0.053 C 
BRANCH   9  10
ATOM     10  C   UNL     1       5.962  -1.994  16.399  1.00  0.00     0.041 C 
ATOM     11  O   UNL     1       5.072  -1.682  15.565  1.00  0.00    -0.550 OA
ATOM     12  O   UNL     1       7.204  -2.424  15.950  1.00  0.00    -0.550 OA
ENDBRANCH   9  10
ENDBRANCH   8   9
ENDBRANCH   7   8
ENDBRANCH   6   7
ENDBRANCH   5   6
ENDBRANCH   4   5
ENDBRANCH   3   4
ENDBRANCH   1   3
BRANCH   2  13
ATOM     13  C   UNL     1       8.094  -6.464  17.974  1.00  0.00     0.027 C 
BRANCH  13  14
ATOM     14  C   UNL     1       8.737  -7.365  16.910  1.00  0.00     0.004 C 
BRANCH  14  15
ATOM     15  C   UNL     1       8.805  -8.834  17.364  1.00  0.00     0.000 C 
BRANCH  15  16
ATOM     16  C   UNL     1       7.576  -9.645  16.924  1.00  0.00     0.000 C 
BRANCH  16  17
ATOM     17  C   UNL     1       7.287  -9.512  15.418  1.00  0.00    -0.000 C 
BRANCH  17  18
ATOM     18  C   UNL     1       5.826  -9.126  15.123  1.00  0.00    -0.000 C 
BRANCH  18  19
ATOM     19  C   UNL     1       5.351  -9.449  13.696  1.00  0.00    -0.003 C 
ATOM     20  C   UNL     1       4.069  -8.711  13.311  1.00  0.00     0.004 C 
ENDBRANCH  18  19
ENDBRANCH  17  18
ENDBRANCH  16  17
ENDBRANCH  15  16
ENDBRANCH  14  15
ENDBRANCH  13  14
ENDBRANCH   2  13
TORSDOF 15
ENDMDL
MODEL 5
REMARK VINA RESULT:    -3.282      4.972      7.115
REMARK INTER + INTRA:          -8.361
REMARK INTER:                  -6.162
REMARK INTRA:                  -2.199
REMARK UNBOUND:                -2.201
REMARK SMILES CCCCCCCCC=CCCCCCCCC(=O)[O-]
REMARK SMILES IDX 10 1 9 2 11 3 12 4 13 5 14 6 15 7 16 8 17 9 18 10 19 11
REMARK SMILES IDX 20 12 8 13 7 14 6 15 5 16 4 17 3 18 2 19 1 20
REMARK H PARENT
REMARK Flexibility Score: inf
ROOT
ATOM      1  C   UNL     1      10.469  -2.743  19.921  1.00  0.00    -0.031 C 
ATOM      2  C   UNL     1      10.233  -3.851  20.637  1.00  0.00    -0.031 C 
ENDROOT
BRANCH   1   3
ATOM      3  C   UNL     1       9.764  -1.446  20.216  1.00  0.00     0.027 C 
BRANCH   3   4
ATOM      4  C   UNL     1       8.525  -1.635  21.111  1.00  0.00     0.004 C 
BRANCH   4   5
ATOM      5  C   UNL     1       8.378  -0.586  22.233  1.00  0.00     0.000 C 
BRANCH   5   6
ATOM      6  C   UNL     1       9.564  -0.512  23.210  1.00  0.00     0.000 C 
BRANCH   6   7
ATOM      7  C   UNL     1       9.576  -1.671  24.221  1.00  0.00     0.000 C 
BRANCH   7   8
ATOM      8  C   UNL     1       8.756  -1.368  25.490  1.00  0.00     0.006 C 
BRANCH   8   9
ATOM      9  C   UNL     1       7.453  -2.179  25.596  1.00  0.00     0.053 C 
BRANCH   9  10
ATOM     10  C   UNL     1       7.464  -3.139  26.746  1.00  0.00     0.041 C 
ATOM     11  O   UNL     1       8.011  -2.819  27.834  1.00  0.00    -0.550 OA
ATOM     12  O   UNL     1       6.864  -4.385  26.618  1.00  0.00    -0.550 OA
ENDBRANCH   9  10
ENDBRANCH   8   9
ENDBRANCH   7   8
ENDBRANCH   6   7
ENDBRANCH   5   6
ENDBRANCH   4   5
ENDBRANCH   3   4
ENDBRANCH   1   3
BRANCH   2  13
ATOM     13  C   UNL     1      10.944  -5.138  20.315  1.00  0.00     0.027 C 
BRANCH  13  14
ATOM     14  C   UNL     1      10.579  -5.670  18.921  1.00  0.00     0.004 C 
BRANCH  14  15
ATOM     15  C   UNL     1       9.240  -6.428  18.927  1.00  0.00     0.000 C 
BRANCH  15  16
ATOM     16  C   UNL     1       8.190  -5.778  18.013  1.00  0.00     0.000 C 
BRANCH  16  17
ATOM     17  C   UNL     1       8.750  -4.578  17.229  1.00  0.00    -0.000 C 
BRANCH  17  18
ATOM     18  C   UNL     1       7.851  -3.331  17.326  1.00  0.00    -0.000 C 
BRANCH  18  19
ATOM     19  C   UNL     1       6.873  -3.333  18.515  1.00  0.00    -0.003 C 
ATOM     20  C   UNL     1       5.949  -2.115  18.531  1.00  0.00     0.004 C 
ENDBRANCH  18  19
ENDBRANCH  17  18
ENDBRANCH  16  17
ENDBRANCH  15  16
ENDBRANCH  14  15
ENDBRANCH  13  14
ENDBRANCH   2  13
TORSDOF 15
ENDMDL
MODEL 6
REMARK VINA RESULT:    -3.187      1.696      3.080
REMARK INTER + INTRA:          -8.183
REMARK INTER:                  -5.906
REMARK INTRA:                  -2.278
REMARK UNBOUND:                -2.201
REMARK SMILES CCCCCCCCC=CCCCCCCCC(=O)[O-]
REMARK SMILES IDX 10 1 9 2 11 3 12 4 13 5 14 6 15 7 16 8 17 9 18 10 19 11
REMARK SMILES IDX 20 12 8 13 7 14 6 15 5 16 4 17 3 18 2 19 1 20
REMARK H PARENT
REMARK Flexibility Score: inf
ROOT
ATOM      1  C   UNL     1       6.891  -3.259  18.227  1.00  0.00    -0.031 C 
ATOM      2  C   UNL     1       7.748  -2.948  17.244  1.00  0.00    -0.031 C 
ENDROOT
BRANCH   1   3
ATOM      3  C   UNL     1       5.951  -2.237  18.808  1.00  0.00     0.027 C 
BRANCH   3   4
ATOM      4  C   UNL     1       6.683  -0.989  19.335  1.00  0.00     0.004 C 
BRANCH   4   5
ATOM      5  C   UNL     1       6.062   0.352  18.895  1.00  0.00     0.000 C 
BRANCH   5   6
ATOM      6  C   UNL     1       4.529   0.343  18.758  1.00  0.00     0.000 C 
BRANCH   6   7
ATOM      7  C   UNL     1       4.018   1.343  17.707  1.00  0.00     0.000 C 
BRANCH   7   8
ATOM      8  C   UNL     1       4.935   1.432  16.471  1.00  0.00     0.006 C 
BRANCH   8   9
ATOM      9  C   UNL     1       4.493   0.533  15.304  1.00  0.00     0.053 C 
BRANCH   9  10
ATOM     10  C   UNL     1       5.376  -0.664  15.131  1.00  0.00     0.041 C 
ATOM     11  O   UNL     1       4.926  -1.820  15.344  1.00  0.00    -0.550 OA
ATOM     12  O   UNL     1       6.696  -0.504  14.730  1.00  0.00    -0.550 OA
ENDBRANCH   9  10
ENDBRANCH   8   9
ENDBRANCH   7   8
ENDBRANCH   6   7
ENDBRANCH   5   6
ENDBRANCH   4   5
ENDBRANCH   3   4
ENDBRANCH   1   3
BRANCH   2  13
ATOM     13  C   UNL     1       8.686  -3.986  16.687  1.00  0.00     0.027 C 
BRANCH  13  14
ATOM     14  C   UNL     1       8.492  -5.358  17.349  1.00  0.00     0.004 C 
BRANCH  14  15
ATOM     15  C   UNL     1       9.834  -6.065  17.611  1.00  0.00     0.000 C 
BRANCH  15  16
ATOM     16  C   UNL     1      10.070  -6.349  19.102  1.00  0.00     0.000 C 
BRANCH  16  17
ATOM     17  C   UNL     1       9.625  -5.183  20.004  1.00  0.00    -0.000 C 
BRANCH  17  18
ATOM     18  C   UNL     1      10.740  -4.145  20.230  1.00  0.00    -0.000 C 
BRANCH  18  19
ATOM     19  C   UNL     1      10.295  -2.680  20.077  1.00  0.00    -0.003 C 
ATOM     20  C   UNL     1       9.426  -2.195  21.238  1.00  0.00     0.004 C 
ENDBRANCH  18  19
ENDBRANCH  17  18
ENDBRANCH  16  17
ENDBRANCH  15  16
ENDBRANCH  14  15
ENDBRANCH  13  14
ENDBRANCH   2  13
TORSDOF 15
ENDMDL
MODEL 7
REMARK VINA RESULT:    -3.160      3.257      4.527
REMARK INTER + INTRA:          -8.132
REMARK INTER:                  -6.458
REMARK INTRA:                  -1.675
REMARK UNBOUND:                -2.201
REMARK SMILES CCCCCCCCC=CCCCCCCCC(=O)[O-]
REMARK SMILES IDX 10 1 9 2 11 3 12 4 13 5 14 6 15 7 16 8 17 9 18 10 19 11
REMARK SMILES IDX 20 12 8 13 7 14 6 15 5 16 4 17 3 18 2 19 1 20
REMARK H PARENT
REMARK Flexibility Score: inf
ROOT
ATOM      1  C   UNL     1      10.683  -3.721  20.214  1.00  0.00    -0.031 C 
ATOM      2  C   UNL     1      11.080  -4.831  20.853  1.00  0.00    -0.031 C 
ENDROOT
BRANCH   1   3
ATOM      3  C   UNL     1      10.803  -2.360  20.846  1.00  0.00     0.027 C 
BRANCH   3   4
ATOM      4  C   UNL     1       9.479  -1.876  21.466  1.00  0.00     0.004 C 
BRANCH   4   5
ATOM      5  C   UNL     1       8.226  -2.625  20.971  1.00  0.00     0.000 C 
BRANCH   5   6
ATOM      6  C   UNL     1       7.318  -1.816  20.027  1.00  0.00     0.000 C 
BRANCH   6   7
ATOM      7  C   UNL     1       6.573  -2.701  19.013  1.00  0.00     0.000 C 
BRANCH   7   8
ATOM      8  C   UNL     1       7.522  -3.577  18.172  1.00  0.00     0.006 C 
BRANCH   8   9
ATOM      9  C   UNL     1       7.678  -3.104  16.717  1.00  0.00     0.053 C 
BRANCH   9  10
ATOM     10  C   UNL     1       8.991  -3.504  16.118  1.00  0.00     0.041 C 
ATOM     11  O   UNL     1      10.039  -3.485  16.816  1.00  0.00    -0.550 OA
ATOM     12  O   UNL     1       9.057  -3.905  14.790  1.00  0.00    -0.550 OA
ENDBRANCH   9  10
ENDBRANCH   8   9
ENDBRANCH   7   8
ENDBRANCH   6   7
ENDBRANCH   5   6
ENDBRANCH   4   5
ENDBRANCH   3   4
ENDBRANCH   1   3
BRANCH   2  13
ATOM     13  C   UNL     1      10.939  -6.182  20.203  1.00  0.00     0.027 C 
BRANCH  13  14
ATOM     14  C   UNL     1       9.578  -6.356  19.513  1.00  0.00     0.004 C 
BRANCH  14  15
ATOM     15  C   UNL     1       9.728  -6.789  18.044  1.00  0.00     0.000 C 
BRANCH  15  16
ATOM     16  C   UNL     1       8.374  -7.019  17.356  1.00  0.00     0.000 C 
BRANCH  16  17
ATOM     17  C   UNL     1       8.056  -8.512  17.158  1.00  0.00    -0.000 C 
BRANCH  17  18
ATOM     18  C   UNL     1       6.834  -8.746  16.251  1.00  0.00    -0.000 C 
BRANCH  18  19
ATOM     19  C   UNL     1       6.391 -10.215  16.134  1.00  0.00    -0.003 C 
ATOM     20  C   UNL     1       5.647 -10.513  14.833  1.00  0.00     0.004 C 
ENDBRANCH  18  19
ENDBRANCH  17  18
ENDBRANCH  16  17
ENDBRANCH  15  16
ENDBRANCH  14  15
ENDBRANCH  13  14
ENDBRANCH   2  13
TORSDOF 15
ENDMDL
MODEL 8
REMARK VINA RESULT:    -3.155      2.132      3.516
REMARK INTER + INTRA:          -8.123
REMARK INTER:                  -6.581
REMARK INTRA:                  -1.541
REMARK UNBOUND:                -2.201
REMARK SMILES CCCCCCCCC=CCCCCCCCC(=O)[O-]
REMARK SMILES IDX 10 1 9 2 11 3 12 4 13 5 14 6 15 7 16 8 17 9 18 10 19 11
REMARK SMILES IDX 20 12 8 13 7 14 6 15 5 16 4 17 3 18 2 19 1 20
REMARK H PARENT
REMARK Flexibility Score: inf
ROOT
ATOM      1  C   UNL     1      10.944  -3.267  21.187  1.00  0.00    -0.031 C 
ATOM      2  C   UNL     1      11.086  -4.275  20.314  1.00  0.00    -0.031 C 
ENDROOT
BRANCH   1   3
ATOM      3  C   UNL     1      11.125  -1.831  20.772  1.00  0.00     0.027 C 
BRANCH   3   4
ATOM      4  C   UNL     1       9.797  -1.052  20.739  1.00  0.00     0.004 C 
BRANCH   4   5
ATOM      5  C   UNL     1       8.619  -1.761  21.438  1.00  0.00     0.000 C 
BRANCH   5   6
ATOM      6  C   UNL     1       7.588  -2.394  20.486  1.00  0.00     0.000 C 
BRANCH   6   7
ATOM      7  C   UNL     1       7.901  -2.124  19.004  1.00  0.00     0.000 C 
BRANCH   7   8
ATOM      8  C   UNL     1       6.888  -2.785  18.049  1.00  0.00     0.006 C 
BRANCH   8   9
ATOM      9  C   UNL     1       5.609  -1.959  17.832  1.00  0.00     0.053 C 
BRANCH   9  10
ATOM     10  C   UNL     1       5.574  -1.289  16.494  1.00  0.00     0.041 C 
ATOM     11  O   UNL     1       4.973  -1.830  15.529  1.00  0.00    -0.550 OA
ATOM     12  O   UNL     1       6.201  -0.063  16.312  1.00  0.00    -0.550 OA
ENDBRANCH   9  10
ENDBRANCH   8   9
ENDBRANCH   7   8
ENDBRANCH   6   7
ENDBRANCH   5   6
ENDBRANCH   4   5
ENDBRANCH   3   4
ENDBRANCH   1   3
BRANCH   2  13
ATOM     13  C   UNL     1      10.910  -5.703  20.757  1.00  0.00     0.027 C 
BRANCH  13  14
ATOM     14  C   UNL     1       9.975  -6.488  19.825  1.00  0.00     0.004 C 
BRANCH  14  15
ATOM     15  C   UNL     1       9.329  -5.583  18.761  1.00  0.00     0.000 C 
BRANCH  15  16
ATOM     16  C   UNL     1       8.141  -6.256  18.058  1.00  0.00     0.000 C 
BRANCH  16  17
ATOM     17  C   UNL     1       8.531  -7.574  17.366  1.00  0.00    -0.000 C 
BRANCH  17  18
ATOM     18  C   UNL     1       7.336  -8.268  16.687  1.00  0.00    -0.000 C 
BRANCH  18  19
ATOM     19  C   UNL     1       7.681  -9.582  15.964  1.00  0.00    -0.003 C 
ATOM     20  C   UNL     1       6.482 -10.521  15.826  1.00  0.00     0.004 C 
ENDBRANCH  18  19
ENDBRANCH  17  18
ENDBRANCH  16  17
ENDBRANCH  15  16
ENDBRANCH  14  15
ENDBRANCH  13  14
ENDBRANCH   2  13
TORSDOF 15
ENDMDL
MODEL 9
REMARK VINA RESULT:    -3.090      4.752      7.439
REMARK INTER + INTRA:          -8.000
REMARK INTER:                  -6.096
REMARK INTRA:                  -1.904
REMARK UNBOUND:                -2.201
REMARK SMILES CCCCCCCCC=CCCCCCCCC(=O)[O-]
REMARK SMILES IDX 10 1 9 2 11 3 12 4 13 5 14 6 15 7 16 8 17 9 18 10 19 11
REMARK SMILES IDX 20 12 8 13 7 14 6 15 5 16 4 17 3 18 2 19 1 20
REMARK H PARENT
REMARK Flexibility Score: inf
ROOT
ATOM      1  C   UNL     1       7.401  -1.846  19.969  1.00  0.00    -0.031 C 
ATOM      2  C   UNL     1       6.607  -2.626  19.223  1.00  0.00    -0.031 C 
ENDROOT
BRANCH   1   3
ATOM      3  C   UNL     1       8.111  -2.374  21.187  1.00  0.00     0.027 C 
BRANCH   3   4
ATOM      4  C   UNL     1       9.478  -1.703  21.415  1.00  0.00     0.004 C 
BRANCH   4   5
ATOM      5  C   UNL     1       9.519  -0.721  22.604  1.00  0.00     0.000 C 
BRANCH   5   6
ATOM      6  C   UNL     1      10.192  -1.270  23.874  1.00  0.00     0.000 C 
BRANCH   6   7
ATOM      7  C   UNL     1       9.426  -0.907  25.158  1.00  0.00     0.000 C 
BRANCH   7   8
ATOM      8  C   UNL     1       8.408  -1.986  25.574  1.00  0.00     0.006 C 
BRANCH   8   9
ATOM      9  C   UNL     1       6.975  -1.453  25.750  1.00  0.00     0.053 C 
BRANCH   9  10
ATOM     10  C   UNL     1       6.058  -2.459  26.372  1.00  0.00     0.041 C 
ATOM     11  O   UNL     1       5.672  -2.315  27.562  1.00  0.00    -0.550 OA
ATOM     12  O   UNL     1       5.624  -3.554  25.637  1.00  0.00    -0.550 OA
ENDBRANCH   9  10
ENDBRANCH   8   9
ENDBRANCH   7   8
ENDBRANCH   6   7
ENDBRANCH   5   6
ENDBRANCH   4   5
ENDBRANCH   3   4
ENDBRANCH   1   3
BRANCH   2  13
ATOM     13  C   UNL     1       5.901  -2.070  18.015  1.00  0.00     0.027 C 
BRANCH  13  14
ATOM     14  C   UNL     1       6.799  -2.063  16.769  1.00  0.00     0.004 C 
BRANCH  14  15
ATOM     15  C   UNL     1       7.738  -3.281  16.730  1.00  0.00     0.000 C 
BRANCH  15  16
ATOM     16  C   UNL     1       9.219  -2.887  16.831  1.00  0.00     0.000 C 
BRANCH  16  17
ATOM     17  C   UNL     1       9.974  -3.690  17.906  1.00  0.00    -0.000 C 
BRANCH  17  18
ATOM     18  C   UNL     1       9.260  -5.003  18.280  1.00  0.00    -0.000 C 
BRANCH  18  19
ATOM     19  C   UNL     1       9.544  -5.506  19.706  1.00  0.00    -0.003 C 
ATOM     20  C   UNL     1      10.842  -4.947  20.290  1.00  0.00     0.004 C 
ENDBRANCH  18  19
ENDBRANCH  17  18
ENDBRANCH  16  17
ENDBRANCH  15  16
ENDBRANCH  14  15
ENDBRANCH  13  14
ENDBRANCH   2  13
TORSDOF 15
ENDMDL
