MODEL 1
REMARK VINA RESULT:    -4.473      0.000      0.000
REMARK INTER + INTRA:         -14.631
REMARK INTER:                 -11.271
REMARK INTRA:                  -3.360
REMARK UNBOUND:                -3.360
REMARK SMILES CCCCCCCCCCCCCCCCCCCCCCCCCCCC(=O)[O-]
REMARK SMILES IDX 15 1 16 2 17 3 18 4 19 5 20 6 21 7 22 8 23 9 24 10 25 11
REMARK SMILES IDX 26 12 27 13 28 14 29 15 30 16 14 17 13 18 12 19 11 20 10 21
REMARK SMILES IDX 9 22 8 23 7 24 6 25 5 26 4 27 3 28 2 29 1 30
REMARK H PARENT
REMARK Flexibility Score: inf
ROOT
ATOM      1  C   UNL     1      11.808  10.076  12.007  1.00  0.00     0.000 C 
ENDROOT
BRANCH   1   2
ATOM      2  C   UNL     1      10.573  10.312  11.123  1.00  0.00     0.000 C 
BRANCH   2   3
ATOM      3  C   UNL     1       9.282  10.079  11.917  1.00  0.00     0.000 C 
BRANCH   3   4
ATOM      4  C   UNL     1       8.949  11.291  12.801  1.00  0.00     0.000 C 
BRANCH   4   5
ATOM      5  C   UNL     1       9.086  12.622  12.042  1.00  0.00     0.000 C 
BRANCH   5   6
ATOM      6  C   UNL     1       9.424  13.794  12.974  1.00  0.00     0.000 C 
BRANCH   6   7
ATOM      7  C   UNL     1       9.982  14.984  12.184  1.00  0.00     0.000 C 
BRANCH   7   8
ATOM      8  C   UNL     1      11.269  14.598  11.447  1.00  0.00     0.000 C 
BRANCH   8   9
ATOM      9  C   UNL     1      11.330  15.250  10.060  1.00  0.00     0.000 C 
BRANCH   9  10
ATOM     10  C   UNL     1      10.022  15.018   9.288  1.00  0.00     0.000 C 
BRANCH  10  11
ATOM     11  C   UNL     1      10.241  14.066   8.103  1.00  0.00     0.000 C 
BRANCH  11  12
ATOM     12  C   UNL     1      10.337  12.593   8.531  1.00  0.00     0.006 C 
BRANCH  12  13
ATOM     13  C   UNL     1      11.326  11.788   7.678  1.00  0.00     0.053 C 
BRANCH  13  14
ATOM     14  C   UNL     1      12.606  11.555   8.422  1.00  0.00     0.041 C 
ATOM     15  O   UNL     1      13.097  12.467   9.140  1.00  0.00    -0.550 OA
ATOM     16  O   UNL     1      13.251  10.327   8.334  1.00  0.00    -0.550 OA
ENDBRANCH  13  14
ENDBRANCH  12  13
ENDBRANCH  11  12
ENDBRANCH  10  11
ENDBRANCH   9  10
ENDBRANCH   8   9
ENDBRANCH   7   8
ENDBRANCH   6   7
ENDBRANCH   5   6
ENDBRANCH   4   5
ENDBRANCH   3   4
ENDBRANCH   2   3
ENDBRANCH   1   2
BRANCH   1  17
ATOM     17  C   UNL     1      12.612  11.368  12.258  1.00  0.00     0.000 C 
BRANCH  17  18
ATOM     18  C   UNL     1      12.797  11.711  13.748  1.00  0.00     0.000 C 
BRANCH  18  19
ATOM     19  C   UNL     1      13.971  11.000  14.442  1.00  0.00     0.000 C 
BRANCH  19  20
ATOM     20  C   UNL     1      14.800  11.948  15.325  1.00  0.00     0.000 C 
BRANCH  20  21
ATOM     21  C   UNL     1      14.496  11.794  16.828  1.00  0.00     0.000 C 
BRANCH  21  22
ATOM     22  C   UNL     1      15.339  12.683  17.762  1.00  0.00    -0.000 C 
BRANCH  22  23
ATOM     23  C   UNL     1      15.955  11.908  18.937  1.00  0.00    -0.000 C 
BRANCH  23  24
ATOM     24  C   UNL     1      17.318  12.489  19.332  1.00  0.00    -0.000 C 
BRANCH  24  25
ATOM     25  C   UNL     1      18.440  11.882  18.475  1.00  0.00    -0.000 C 
BRANCH  25  26
ATOM     26  C   UNL     1      19.023  12.876  17.456  1.00  0.00    -0.000 C 
BRANCH  26  27
ATOM     27  C   UNL     1      19.388  12.266  16.092  1.00  0.00    -0.000 C 
BRANCH  27  28
ATOM     28  C   UNL     1      18.201  12.245  15.111  1.00  0.00    -0.000 C 
BRANCH  28  29
ATOM     29  C   UNL     1      18.635  12.482  13.656  1.00  0.00    -0.003 C 
ATOM     30  C   UNL     1      17.674  13.397  12.898  1.00  0.00     0.004 C 
ENDBRANCH  28  29
ENDBRANCH  27  28
ENDBRANCH  26  27
ENDBRANCH  25  26
ENDBRANCH  24  25
ENDBRANCH  23  24
ENDBRANCH  22  23
ENDBRANCH  21  22
ENDBRANCH  20  21
ENDBRANCH  19  20
ENDBRANCH  18  19
ENDBRANCH  17  18
ENDBRANCH   1  17
TORSDOF 26
ENDMDL
MODEL 2
REMARK VINA RESULT:    -4.435      1.887      8.867
REMARK INTER + INTRA:         -14.536
REMARK INTER:                 -11.187
REMARK INTRA:                  -3.349
REMARK UNBOUND:                -3.360
REMARK SMILES CCCCCCCCCCCCCCCCCCCCCCCCCCCC(=O)[O-]
REMARK SMILES IDX 15 1 16 2 17 3 18 4 19 5 20 6 21 7 22 8 23 9 24 10 25 11
REMARK SMILES IDX 26 12 27 13 28 14 29 15 30 16 14 17 13 18 12 19 11 20 10 21
REMARK SMILES IDX 9 22 8 23 7 24 6 25 5 26 4 27 3 28 2 29 1 30
REMARK H PARENT
REMARK Flexibility Score: inf
ROOT
ATOM      1  C   UNL     1      12.017  10.406  12.553  1.00  0.00     0.000 C 
ENDROOT
BRANCH   1   2
ATOM      2  C   UNL     1      12.483  11.850  12.305  1.00  0.00     0.000 C 
BRANCH   2   3
ATOM      3  C   UNL     1      13.669  12.203  13.211  1.00  0.00     0.000 C 
BRANCH   3   4
ATOM      4  C   UNL     1      13.828  11.175  14.342  1.00  0.00     0.000 C 
BRANCH   4   5
ATOM      5  C   UNL     1      14.705  11.702  15.490  1.00  0.00     0.000 C 
BRANCH   5   6
ATOM      6  C   UNL     1      13.872  12.193  16.683  1.00  0.00     0.000 C 
BRANCH   6   7
ATOM      7  C   UNL     1      14.619  11.975  18.004  1.00  0.00     0.000 C 
BRANCH   7   8
ATOM      8  C   UNL     1      16.083  12.414  17.885  1.00  0.00     0.000 C 
BRANCH   8   9
ATOM      9  C   UNL     1      16.879  12.034  19.140  1.00  0.00     0.000 C 
BRANCH   9  10
ATOM     10  C   UNL     1      18.350  11.760  18.793  1.00  0.00     0.000 C 
BRANCH  10  11
ATOM     11  C   UNL     1      18.833  12.682  17.664  1.00  0.00     0.000 C 
BRANCH  11  12
ATOM     12  C   UNL     1      19.132  11.924  16.362  1.00  0.00     0.006 C 
BRANCH  12  13
ATOM     13  C   UNL     1      19.215  12.849  15.139  1.00  0.00     0.053 C 
BRANCH  13  14
ATOM     14  C   UNL     1      18.346  12.344  14.029  1.00  0.00     0.041 C 
ATOM     15  O   UNL     1      18.040  11.123  13.967  1.00  0.00    -0.550 OA
ATOM     16  O   UNL     1      17.863  13.223  13.066  1.00  0.00    -0.550 OA
ENDBRANCH  13  14
ENDBRANCH  12  13
ENDBRANCH  11  12
ENDBRANCH  10  11
ENDBRANCH   9  10
ENDBRANCH   8   9
ENDBRANCH   7   8
ENDBRANCH   6   7
ENDBRANCH   5   6
ENDBRANCH   4   5
ENDBRANCH   3   4
ENDBRANCH   2   3
ENDBRANCH   1   2
BRANCH   1  17
ATOM     17  C   UNL     1      10.984   9.930  11.512  1.00  0.00     0.000 C 
BRANCH  17  18
ATOM     18  C   UNL     1       9.523  10.228  11.899  1.00  0.00     0.000 C 
BRANCH  18  19
ATOM     19  C   UNL     1       9.082  11.690  11.713  1.00  0.00     0.000 C 
BRANCH  19  20
ATOM     20  C   UNL     1       9.023  12.465  13.040  1.00  0.00     0.000 C 
BRANCH  20  21
ATOM     21  C   UNL     1       9.424  13.946  12.893  1.00  0.00     0.000 C 
BRANCH  21  22
ATOM     22  C   UNL     1       9.589  14.440  11.443  1.00  0.00    -0.000 C 
BRANCH  22  23
ATOM     23  C   UNL     1      11.027  14.868  11.112  1.00  0.00    -0.000 C 
BRANCH  23  24
ATOM     24  C   UNL     1      11.157  15.291   9.644  1.00  0.00    -0.000 C 
BRANCH  24  25
ATOM     25  C   UNL     1       9.830  15.084   8.896  1.00  0.00    -0.000 C 
BRANCH  25  26
ATOM     26  C   UNL     1       9.936  14.051   7.759  1.00  0.00    -0.000 C 
BRANCH  26  27
ATOM     27  C   UNL     1       9.325  12.676   8.076  1.00  0.00    -0.000 C 
BRANCH  27  28
ATOM     28  C   UNL     1      10.388  11.574   8.239  1.00  0.00    -0.000 C 
BRANCH  28  29
ATOM     29  C   UNL     1      11.813  12.087   7.975  1.00  0.00    -0.003 C 
ATOM     30  C   UNL     1      12.861  11.375   8.830  1.00  0.00     0.004 C 
ENDBRANCH  28  29
ENDBRANCH  27  28
ENDBRANCH  26  27
ENDBRANCH  25  26
ENDBRANCH  24  25
ENDBRANCH  23  24
ENDBRANCH  22  23
ENDBRANCH  21  22
ENDBRANCH  20  21
ENDBRANCH  19  20
ENDBRANCH  18  19
ENDBRANCH  17  18
ENDBRANCH   1  17
TORSDOF 26
ENDMDL
MODEL 3
REMARK VINA RESULT:    -4.363      3.322      9.250
REMARK INTER + INTRA:         -14.354
REMARK INTER:                 -10.696
REMARK INTRA:                  -3.657
REMARK UNBOUND:                -3.360
REMARK SMILES CCCCCCCCCCCCCCCCCCCCCCCCCCCC(=O)[O-]
REMARK SMILES IDX 15 1 16 2 17 3 18 4 19 5 20 6 21 7 22 8 23 9 24 10 25 11
REMARK SMILES IDX 26 12 27 13 28 14 29 15 30 16 14 17 13 18 12 19 11 20 10 21
REMARK SMILES IDX 9 22 8 23 7 24 6 25 5 26 4 27 3 28 2 29 1 30
REMARK H PARENT
REMARK Flexibility Score: inf
ROOT
ATOM      1  C   UNL     1      16.220  11.995  15.124  1.00  0.00     0.000 C 
ENDROOT
BRANCH   1   2
ATOM      2  C   UNL     1      17.222  12.153  13.968  1.00  0.00     0.000 C 
BRANCH   2   3
ATOM      3  C   UNL     1      18.629  11.727  14.405  1.00  0.00     0.000 C 
BRANCH   3   4
ATOM      4  C   UNL     1      19.039  12.424  15.712  1.00  0.00     0.000 C 
BRANCH   4   5
ATOM      5  C   UNL     1      19.666  11.448  16.721  1.00  0.00     0.000 C 
BRANCH   5   6
ATOM      6  C   UNL     1      19.086  11.614  18.133  1.00  0.00     0.000 C 
BRANCH   6   7
ATOM      7  C   UNL     1      18.204  12.866  18.223  1.00  0.00     0.000 C 
BRANCH   7   8
ATOM      8  C   UNL     1      17.160  12.721  19.336  1.00  0.00     0.000 C 
BRANCH   8   9
ATOM      9  C   UNL     1      16.072  11.713  18.947  1.00  0.00     0.000 C 
BRANCH   9  10
ATOM     10  C   UNL     1      14.943  12.399  18.165  1.00  0.00     0.000 C 
BRANCH  10  11
ATOM     11  C   UNL     1      13.600  11.690  18.397  1.00  0.00     0.000 C 
BRANCH  11  12
ATOM     12  C   UNL     1      12.400  12.506  17.894  1.00  0.00     0.006 C 
BRANCH  12  13
ATOM     13  C   UNL     1      11.051  11.884  18.282  1.00  0.00     0.053 C 
BRANCH  13  14
ATOM     14  C   UNL     1      10.403  12.663  19.386  1.00  0.00     0.041 C 
ATOM     15  O   UNL     1       9.662  13.646  19.119  1.00  0.00    -0.550 OA
ATOM     16  O   UNL     1      10.608  12.296  20.712  1.00  0.00    -0.550 OA
ENDBRANCH  13  14
ENDBRANCH  12  13
ENDBRANCH  11  12
ENDBRANCH  10  11
ENDBRANCH   9  10
ENDBRANCH   8   9
ENDBRANCH   7   8
ENDBRANCH   6   7
ENDBRANCH   5   6
ENDBRANCH   4   5
ENDBRANCH   3   4
ENDBRANCH   2   3
ENDBRANCH   1   2
BRANCH   1  17
ATOM     17  C   UNL     1      15.041  11.068  14.764  1.00  0.00     0.000 C 
BRANCH  17  18
ATOM     18  C   UNL     1      13.754  11.817  14.369  1.00  0.00     0.000 C 
BRANCH  18  19
ATOM     19  C   UNL     1      12.793  11.032  13.461  1.00  0.00     0.000 C 
BRANCH  19  20
ATOM     20  C   UNL     1      11.323  11.437  13.661  1.00  0.00     0.000 C 
BRANCH  20  21
ATOM     21  C   UNL     1      10.356  10.682  12.731  1.00  0.00     0.000 C 
BRANCH  21  22
ATOM     22  C   UNL     1      10.998  10.079  11.466  1.00  0.00    -0.000 C 
BRANCH  22  23
ATOM     23  C   UNL     1      10.828  10.968  10.224  1.00  0.00    -0.000 C 
BRANCH  23  24
ATOM     24  C   UNL     1      12.106  10.985   9.375  1.00  0.00    -0.000 C 
BRANCH  24  25
ATOM     25  C   UNL     1      12.659  12.414   9.249  1.00  0.00    -0.000 C 
BRANCH  25  26
ATOM     26  C   UNL     1      13.396  12.887  10.514  1.00  0.00    -0.000 C 
BRANCH  26  27
ATOM     27  C   UNL     1      12.647  13.946  11.341  1.00  0.00    -0.000 C 
BRANCH  27  28
ATOM     28  C   UNL     1      11.771  14.869  10.476  1.00  0.00    -0.000 C 
BRANCH  28  29
ATOM     29  C   UNL     1      10.270  14.684  10.751  1.00  0.00    -0.003 C 
ATOM     30  C   UNL     1       9.953  14.597  12.244  1.00  0.00     0.004 C 
ENDBRANCH  28  29
ENDBRANCH  27  28
ENDBRANCH  26  27
ENDBRANCH  25  26
ENDBRANCH  24  25
ENDBRANCH  23  24
ENDBRANCH  22  23
ENDBRANCH  21  22
ENDBRANCH  20  21
ENDBRANCH  19  20
ENDBRANCH  18  19
ENDBRANCH  17  18
ENDBRANCH   1  17
TORSDOF 26
ENDMDL
MODEL 4
REMARK VINA RESULT:    -4.293      3.520      8.627
REMARK INTER + INTRA:         -14.177
REMARK INTER:                 -10.458
REMARK INTRA:                  -3.720
REMARK UNBOUND:                -3.360
REMARK SMILES CCCCCCCCCCCCCCCCCCCCCCCCCCCC(=O)[O-]
REMARK SMILES IDX 15 1 16 2 17 3 18 4 19 5 20 6 21 7 22 8 23 9 24 10 25 11
REMARK SMILES IDX 26 12 27 13 28 14 29 15 30 16 14 17 13 18 12 19 11 20 10 21
REMARK SMILES IDX 9 22 8 23 7 24 6 25 5 26 4 27 3 28 2 29 1 30
REMARK H PARENT
REMARK Flexibility Score: inf
ROOT
ATOM      1  C   UNL     1       9.970  11.759  15.492  1.00  0.00     0.000 C 
ENDROOT
BRANCH   1   2
ATOM      2  C   UNL     1       9.466  11.258  16.855  1.00  0.00     0.000 C 
BRANCH   2   3
ATOM      3  C   UNL     1       9.055  12.434  17.749  1.00  0.00     0.000 C 
BRANCH   3   4
ATOM      4  C   UNL     1      10.232  12.909  18.616  1.00  0.00     0.000 C 
BRANCH   4   5
ATOM      5  C   UNL     1      10.861  11.762  19.424  1.00  0.00     0.000 C 
BRANCH   5   6
ATOM      6  C   UNL     1      12.284  11.427  18.952  1.00  0.00     0.000 C 
BRANCH   6   7
ATOM      7  C   UNL     1      12.788  12.463  17.941  1.00  0.00     0.000 C 
BRANCH   7   8
ATOM      8  C   UNL     1      14.183  12.092  17.423  1.00  0.00     0.000 C 
BRANCH   8   9
ATOM      9  C   UNL     1      14.196  11.986  15.893  1.00  0.00     0.000 C 
BRANCH   9  10
ATOM     10  C   UNL     1      15.586  11.578  15.385  1.00  0.00     0.000 C 
BRANCH  10  11
ATOM     11  C   UNL     1      16.694  12.166  16.272  1.00  0.00     0.000 C 
BRANCH  11  12
ATOM     12  C   UNL     1      18.030  12.325  15.530  1.00  0.00     0.006 C 
BRANCH  12  13
ATOM     13  C   UNL     1      19.189  12.701  16.465  1.00  0.00     0.053 C 
BRANCH  13  14
ATOM     14  C   UNL     1      19.542  11.555  17.362  1.00  0.00     0.041 C 
ATOM     15  O   UNL     1      19.270  11.603  18.592  1.00  0.00    -0.550 OA
ATOM     16  O   UNL     1      20.163  10.425  16.840  1.00  0.00    -0.550 OA
ENDBRANCH  13  14
ENDBRANCH  12  13
ENDBRANCH  11  12
ENDBRANCH  10  11
ENDBRANCH   9  10
ENDBRANCH   8   9
ENDBRANCH   7   8
ENDBRANCH   6   7
ENDBRANCH   5   6
ENDBRANCH   4   5
ENDBRANCH   3   4
ENDBRANCH   2   3
ENDBRANCH   1   2
BRANCH   1  17
ATOM     17  C   UNL     1       9.217  11.118  14.309  1.00  0.00     0.000 C 
BRANCH  17  18
ATOM     18  C   UNL     1       8.875  12.105  13.176  1.00  0.00     0.000 C 
BRANCH  18  19
ATOM     19  C   UNL     1       9.416  13.532  13.366  1.00  0.00     0.000 C 
BRANCH  19  20
ATOM     20  C   UNL     1       9.396  14.352  12.066  1.00  0.00     0.000 C 
BRANCH  20  21
ATOM     21  C   UNL     1      10.777  14.921  11.689  1.00  0.00     0.000 C 
BRANCH  21  22
ATOM     22  C   UNL     1      11.063  15.005  10.177  1.00  0.00    -0.000 C 
BRANCH  22  23
ATOM     23  C   UNL     1      11.986  13.885   9.676  1.00  0.00    -0.000 C 
BRANCH  23  24
ATOM     24  C   UNL     1      11.385  13.173   8.458  1.00  0.00    -0.000 C 
BRANCH  24  25
ATOM     25  C   UNL     1      11.242  11.665   8.721  1.00  0.00    -0.000 C 
BRANCH  25  26
ATOM     26  C   UNL     1      10.098  11.331   9.695  1.00  0.00    -0.000 C 
BRANCH  26  27
ATOM     27  C   UNL     1      10.452  10.302  10.781  1.00  0.00    -0.000 C 
BRANCH  27  28
ATOM     28  C   UNL     1      11.963  10.230  11.066  1.00  0.00    -0.000 C 
BRANCH  28  29
ATOM     29  C   UNL     1      12.308  10.611  12.515  1.00  0.00    -0.003 C 
ATOM     30  C   UNL     1      12.844  12.037  12.635  1.00  0.00     0.004 C 
ENDBRANCH  28  29
ENDBRANCH  27  28
ENDBRANCH  26  27
ENDBRANCH  25  26
ENDBRANCH  24  25
ENDBRANCH  23  24
ENDBRANCH  22  23
ENDBRANCH  21  22
ENDBRANCH  20  21
ENDBRANCH  19  20
ENDBRANCH  18  19
ENDBRANCH  17  18
ENDBRANCH   1  17
TORSDOF 26
ENDMDL
MODEL 5
REMARK VINA RESULT:    -4.285      1.871      9.349
REMARK INTER + INTRA:         -14.159
REMARK INTER:                 -10.844
REMARK INTRA:                  -3.315
REMARK UNBOUND:                -3.360
REMARK SMILES CCCCCCCCCCCCCCCCCCCCCCCCCCCC(=O)[O-]
REMARK SMILES IDX 15 1 16 2 17 3 18 4 19 5 20 6 21 7 22 8 23 9 24 10 25 11
REMARK SMILES IDX 26 12 27 13 28 14 29 15 30 16 14 17 13 18 12 19 11 20 10 21
REMARK SMILES IDX 9 22 8 23 7 24 6 25 5 26 4 27 3 28 2 29 1 30
REMARK H PARENT
REMARK Flexibility Score: inf
ROOT
ATOM      1  C   UNL     1      13.472  12.396  13.447  1.00  0.00     0.000 C 
ENDROOT
BRANCH   1   2
ATOM      2  C   UNL     1      14.184  11.207  14.112  1.00  0.00     0.000 C 
BRANCH   2   3
ATOM      3  C   UNL     1      14.767  11.613  15.471  1.00  0.00     0.000 C 
BRANCH   3   4
ATOM      4  C   UNL     1      13.670  12.138  16.411  1.00  0.00     0.000 C 
BRANCH   4   5
ATOM      5  C   UNL     1      14.193  12.385  17.836  1.00  0.00     0.000 C 
BRANCH   5   6
ATOM      6  C   UNL     1      15.690  12.071  17.971  1.00  0.00     0.000 C 
BRANCH   6   7
ATOM      7  C   UNL     1      16.051  11.724  19.421  1.00  0.00     0.000 C 
BRANCH   7   8
ATOM      8  C   UNL     1      17.497  12.127  19.737  1.00  0.00     0.000 C 
BRANCH   8   9
ATOM      9  C   UNL     1      18.253  12.522  18.463  1.00  0.00     0.000 C 
BRANCH   9  10
ATOM     10  C   UNL     1      19.337  11.488  18.126  1.00  0.00     0.000 C 
BRANCH  10  11
ATOM     11  C   UNL     1      20.119  11.896  16.869  1.00  0.00     0.000 C 
BRANCH  11  12
ATOM     12  C   UNL     1      19.286  12.748  15.899  1.00  0.00     0.006 C 
BRANCH  12  13
ATOM     13  C   UNL     1      18.648  11.918  14.775  1.00  0.00     0.053 C 
BRANCH  13  14
ATOM     14  C   UNL     1      18.405  12.763  13.561  1.00  0.00     0.041 C 
ATOM     15  O   UNL     1      19.375  13.268  12.935  1.00  0.00    -0.550 OA
ATOM     16  O   UNL     1      17.108  12.984  13.114  1.00  0.00    -0.550 OA
ENDBRANCH  13  14
ENDBRANCH  12  13
ENDBRANCH  11  12
ENDBRANCH  10  11
ENDBRANCH   9  10
ENDBRANCH   8   9
ENDBRANCH   7   8
ENDBRANCH   6   7
ENDBRANCH   5   6
ENDBRANCH   4   5
ENDBRANCH   3   4
ENDBRANCH   2   3
ENDBRANCH   1   2
BRANCH   1  17
ATOM     17  C   UNL     1      12.641  11.977  12.217  1.00  0.00     0.000 C 
BRANCH  17  18
ATOM     18  C   UNL     1      12.064  10.551  12.309  1.00  0.00     0.000 C 
BRANCH  18  19
ATOM     19  C   UNL     1      11.636   9.931  10.968  1.00  0.00     0.000 C 
BRANCH  19  20
ATOM     20  C   UNL     1      10.990  10.956  10.021  1.00  0.00     0.000 C 
BRANCH  20  21
ATOM     21  C   UNL     1      11.866  11.284   8.797  1.00  0.00     0.000 C 
BRANCH  21  22
ATOM     22  C   UNL     1      11.096  11.741   7.542  1.00  0.00    -0.000 C 
BRANCH  22  23
ATOM     23  C   UNL     1       9.859  12.591   7.871  1.00  0.00    -0.000 C 
BRANCH  23  24
ATOM     24  C   UNL     1      10.064  14.053   7.456  1.00  0.00    -0.000 C 
BRANCH  24  25
ATOM     25  C   UNL     1       9.781  15.000   8.634  1.00  0.00    -0.000 C 
BRANCH  25  26
ATOM     26  C   UNL     1      11.049  15.377   9.419  1.00  0.00    -0.000 C 
BRANCH  26  27
ATOM     27  C   UNL     1      11.027  14.992  10.908  1.00  0.00    -0.000 C 
BRANCH  27  28
ATOM     28  C   UNL     1       9.774  14.187  11.298  1.00  0.00    -0.000 C 
BRANCH  28  29
ATOM     29  C   UNL     1       9.464  14.269  12.801  1.00  0.00    -0.003 C 
ATOM     30  C   UNL     1       9.291  12.891  13.440  1.00  0.00     0.004 C 
ENDBRANCH  28  29
ENDBRANCH  27  28
ENDBRANCH  26  27
ENDBRANCH  25  26
ENDBRANCH  24  25
ENDBRANCH  23  24
ENDBRANCH  22  23
ENDBRANCH  21  22
ENDBRANCH  20  21
ENDBRANCH  19  20
ENDBRANCH  18  19
ENDBRANCH  17  18
ENDBRANCH   1  17
TORSDOF 26
ENDMDL
MODEL 6
REMARK VINA RESULT:    -4.220      3.962      6.138
REMARK INTER + INTRA:         -13.994
REMARK INTER:                 -10.999
REMARK INTRA:                  -2.996
REMARK UNBOUND:                -3.360
REMARK SMILES CCCCCCCCCCCCCCCCCCCCCCCCCCCC(=O)[O-]
REMARK SMILES IDX 15 1 16 2 17 3 18 4 19 5 20 6 21 7 22 8 23 9 24 10 25 11
REMARK SMILES IDX 26 12 27 13 28 14 29 15 30 16 14 17 13 18 12 19 11 20 10 21
REMARK SMILES IDX 9 22 8 23 7 24 6 25 5 26 4 27 3 28 2 29 1 30
REMARK H PARENT
REMARK Flexibility Score: inf
ROOT
ATOM      1  C   UNL     1      13.006  13.918  10.601  1.00  0.00     0.000 C 
ENDROOT
BRANCH   1   2
ATOM      2  C   UNL     1      11.739  14.784  10.683  1.00  0.00     0.000 C 
BRANCH   2   3
ATOM      3  C   UNL     1      10.511  13.924  11.007  1.00  0.00     0.000 C 
BRANCH   3   4
ATOM      4  C   UNL     1       9.495  14.704  11.855  1.00  0.00     0.000 C 
BRANCH   4   5
ATOM      5  C   UNL     1       8.947  13.869  13.024  1.00  0.00     0.000 C 
BRANCH   5   6
ATOM      6  C   UNL     1       9.782  12.605  13.281  1.00  0.00     0.000 C 
BRANCH   6   7
ATOM      7  C   UNL     1       8.881  11.383  13.494  1.00  0.00     0.000 C 
BRANCH   7   8
ATOM      8  C   UNL     1       8.916  10.925  14.957  1.00  0.00     0.000 C 
BRANCH   8   9
ATOM      9  C   UNL     1      10.028  11.639  15.735  1.00  0.00     0.000 C 
BRANCH   9  10
ATOM     10  C   UNL     1       9.926  11.337  17.237  1.00  0.00     0.000 C 
BRANCH  10  11
ATOM     11  C   UNL     1      10.065  12.620  18.069  1.00  0.00     0.000 C 
BRANCH  11  12
ATOM     12  C   UNL     1      11.091  12.486  19.205  1.00  0.00     0.006 C 
BRANCH  12  13
ATOM     13  C   UNL     1      11.442  11.025  19.520  1.00  0.00     0.053 C 
BRANCH  13  14
ATOM     14  C   UNL     1      11.234  10.729  20.974  1.00  0.00     0.041 C 
ATOM     15  O   UNL     1      11.533   9.597  21.441  1.00  0.00    -0.550 OA
ATOM     16  O   UNL     1      10.720  11.707  21.819  1.00  0.00    -0.550 OA
ENDBRANCH  13  14
ENDBRANCH  12  13
ENDBRANCH  11  12
ENDBRANCH  10  11
ENDBRANCH   9  10
ENDBRANCH   8   9
ENDBRANCH   7   8
ENDBRANCH   6   7
ENDBRANCH   5   6
ENDBRANCH   4   5
ENDBRANCH   3   4
ENDBRANCH   2   3
ENDBRANCH   1   2
BRANCH   1  17
ATOM     17  C   UNL     1      12.931  12.672  11.506  1.00  0.00     0.000 C 
BRANCH  17  18
ATOM     18  C   UNL     1      13.830  12.751  12.755  1.00  0.00     0.000 C 
BRANCH  18  19
ATOM     19  C   UNL     1      13.401  11.852  13.927  1.00  0.00     0.000 C 
BRANCH  19  20
ATOM     20  C   UNL     1      14.570  11.498  14.862  1.00  0.00     0.000 C 
BRANCH  20  21
ATOM     21  C   UNL     1      14.311  11.892  16.329  1.00  0.00     0.000 C 
BRANCH  21  22
ATOM     22  C   UNL     1      15.551  12.369  17.109  1.00  0.00    -0.000 C 
BRANCH  22  23
ATOM     23  C   UNL     1      15.510  11.987  18.597  1.00  0.00    -0.000 C 
BRANCH  23  24
ATOM     24  C   UNL     1      16.923  11.766  19.152  1.00  0.00    -0.000 C 
BRANCH  24  25
ATOM     25  C   UNL     1      17.975  12.427  18.248  1.00  0.00    -0.000 C 
BRANCH  25  26
ATOM     26  C   UNL     1      19.247  11.576  18.086  1.00  0.00    -0.000 C 
BRANCH  26  27
ATOM     27  C   UNL     1      19.964  11.735  16.734  1.00  0.00    -0.000 C 
BRANCH  27  28
ATOM     28  C   UNL     1      19.019  11.554  15.533  1.00  0.00    -0.000 C 
BRANCH  28  29
ATOM     29  C   UNL     1      18.806  12.860  14.749  1.00  0.00    -0.003 C 
ATOM     30  C   UNL     1      18.007  12.649  13.464  1.00  0.00     0.004 C 
ENDBRANCH  28  29
ENDBRANCH  27  28
ENDBRANCH  26  27
ENDBRANCH  25  26
ENDBRANCH  24  25
ENDBRANCH  23  24
ENDBRANCH  22  23
ENDBRANCH  21  22
ENDBRANCH  20  21
ENDBRANCH  19  20
ENDBRANCH  18  19
ENDBRANCH  17  18
ENDBRANCH   1  17
TORSDOF 26
ENDMDL
MODEL 7
REMARK VINA RESULT:    -4.171      1.987      8.789
REMARK INTER + INTRA:         -13.870
REMARK INTER:                 -10.259
REMARK INTRA:                  -3.611
REMARK UNBOUND:                -3.360
REMARK SMILES CCCCCCCCCCCCCCCCCCCCCCCCCCCC(=O)[O-]
REMARK SMILES IDX 15 1 16 2 17 3 18 4 19 5 20 6 21 7 22 8 23 9 24 10 25 11
REMARK SMILES IDX 26 12 27 13 28 14 29 15 30 16 14 17 13 18 12 19 11 20 10 21
REMARK SMILES IDX 9 22 8 23 7 24 6 25 5 26 4 27 3 28 2 29 1 30
REMARK H PARENT
REMARK Flexibility Score: inf
ROOT
ATOM      1  C   UNL     1      13.779  11.961  13.694  1.00  0.00     0.000 C 
ENDROOT
BRANCH   1   2
ATOM      2  C   UNL     1      14.456  11.600  15.026  1.00  0.00     0.000 C 
BRANCH   2   3
ATOM      3  C   UNL     1      13.431  11.569  16.167  1.00  0.00     0.000 C 
BRANCH   3   4
ATOM      4  C   UNL     1      13.960  12.305  17.408  1.00  0.00     0.000 C 
BRANCH   4   5
ATOM      5  C   UNL     1      15.494  12.248  17.509  1.00  0.00     0.000 C 
BRANCH   5   6
ATOM      6  C   UNL     1      16.003  12.670  18.895  1.00  0.00     0.000 C 
BRANCH   6   7
ATOM      7  C   UNL     1      16.519  11.461  19.685  1.00  0.00     0.000 C 
BRANCH   7   8
ATOM      8  C   UNL     1      18.047  11.364  19.604  1.00  0.00     0.000 C 
BRANCH   8   9
ATOM      9  C   UNL     1      18.591  12.172  18.420  1.00  0.00     0.000 C 
BRANCH   9  10
ATOM     10  C   UNL     1      19.759  11.438  17.745  1.00  0.00     0.000 C 
BRANCH  10  11
ATOM     11  C   UNL     1      19.803  11.737  16.239  1.00  0.00     0.000 C 
BRANCH  11  12
ATOM     12  C   UNL     1      18.509  12.381  15.721  1.00  0.00     0.006 C 
BRANCH  12  13
ATOM     13  C   UNL     1      18.098  11.861  14.335  1.00  0.00     0.053 C 
BRANCH  13  14
ATOM     14  C   UNL     1      18.190  12.950  13.310  1.00  0.00     0.041 C 
ATOM     15  O   UNL     1      17.143  13.473  12.844  1.00  0.00    -0.550 OA
ATOM     16  O   UNL     1      19.433  13.396  12.875  1.00  0.00    -0.550 OA
ENDBRANCH  13  14
ENDBRANCH  12  13
ENDBRANCH  11  12
ENDBRANCH  10  11
ENDBRANCH   9  10
ENDBRANCH   8   9
ENDBRANCH   7   8
ENDBRANCH   6   7
ENDBRANCH   5   6
ENDBRANCH   4   5
ENDBRANCH   3   4
ENDBRANCH   2   3
ENDBRANCH   1   2
BRANCH   1  17
ATOM     17  C   UNL     1      12.632  10.996  13.332  1.00  0.00     0.000 C 
BRANCH  17  18
ATOM     18  C   UNL     1      11.229  11.624  13.437  1.00  0.00     0.000 C 
BRANCH  18  19
ATOM     19  C   UNL     1      10.297  11.345  12.246  1.00  0.00     0.000 C 
BRANCH  19  20
ATOM     20  C   UNL     1       9.620  12.619  11.712  1.00  0.00     0.000 C 
BRANCH  20  21
ATOM     21  C   UNL     1       9.785  13.830  12.649  1.00  0.00     0.000 C 
BRANCH  21  22
ATOM     22  C   UNL     1      10.718  14.941  12.129  1.00  0.00    -0.000 C 
BRANCH  22  23
ATOM     23  C   UNL     1      10.716  15.060  10.597  1.00  0.00    -0.000 C 
BRANCH  23  24
ATOM     24  C   UNL     1      12.139  14.982  10.032  1.00  0.00    -0.000 C 
BRANCH  24  25
ATOM     25  C   UNL     1      12.972  13.936  10.791  1.00  0.00    -0.000 C 
BRANCH  25  26
ATOM     26  C   UNL     1      13.096  12.602  10.033  1.00  0.00    -0.000 C 
BRANCH  26  27
ATOM     27  C   UNL     1      12.410  12.574   8.656  1.00  0.00    -0.000 C 
BRANCH  27  28
ATOM     28  C   UNL     1      11.253  11.560   8.588  1.00  0.00    -0.000 C 
BRANCH  28  29
ATOM     29  C   UNL     1      10.144  11.997   7.616  1.00  0.00    -0.003 C 
ATOM     30  C   UNL     1      10.237  13.478   7.247  1.00  0.00     0.004 C 
ENDBRANCH  28  29
ENDBRANCH  27  28
ENDBRANCH  26  27
ENDBRANCH  25  26
ENDBRANCH  24  25
ENDBRANCH  23  24
ENDBRANCH  22  23
ENDBRANCH  21  22
ENDBRANCH  20  21
ENDBRANCH  19  20
ENDBRANCH  18  19
ENDBRANCH  17  18
ENDBRANCH   1  17
TORSDOF 26
ENDMDL
MODEL 8
REMARK VINA RESULT:    -4.142      3.574      9.437
REMARK INTER + INTRA:         -13.796
REMARK INTER:                 -10.311
REMARK INTRA:                  -3.486
REMARK UNBOUND:                -3.360
REMARK SMILES CCCCCCCCCCCCCCCCCCCCCCCCCCCC(=O)[O-]
REMARK SMILES IDX 15 1 16 2 17 3 18 4 19 5 20 6 21 7 22 8 23 9 24 10 25 11
REMARK SMILES IDX 26 12 27 13 28 14 29 15 30 16 14 17 13 18 12 19 11 20 10 21
REMARK SMILES IDX 9 22 8 23 7 24 6 25 5 26 4 27 3 28 2 29 1 30
REMARK H PARENT
REMARK Flexibility Score: inf
ROOT
ATOM      1  C   UNL     1      15.287  12.016  14.758  1.00  0.00     0.000 C 
ENDROOT
BRANCH   1   2
ATOM      2  C   UNL     1      16.680  11.375  14.659  1.00  0.00     0.000 C 
BRANCH   2   3
ATOM      3  C   UNL     1      17.768  12.450  14.549  1.00  0.00     0.000 C 
BRANCH   3   4
ATOM      4  C   UNL     1      18.991  12.091  15.407  1.00  0.00     0.000 C 
BRANCH   4   5
ATOM      5  C   UNL     1      18.955  12.772  16.786  1.00  0.00     0.000 C 
BRANCH   5   6
ATOM      6  C   UNL     1      18.577  11.795  17.910  1.00  0.00     0.000 C 
BRANCH   6   7
ATOM      7  C   UNL     1      17.855  12.521  19.051  1.00  0.00     0.000 C 
BRANCH   7   8
ATOM      8  C   UNL     1      16.446  11.954  19.258  1.00  0.00     0.000 C 
BRANCH   8   9
ATOM      9  C   UNL     1      15.505  12.379  18.124  1.00  0.00     0.000 C 
BRANCH   9  10
ATOM     10  C   UNL     1      14.151  11.665  18.239  1.00  0.00     0.000 C 
BRANCH  10  11
ATOM     11  C   UNL     1      13.021  12.526  17.653  1.00  0.00     0.000 C 
BRANCH  11  12
ATOM     12  C   UNL     1      11.709  12.406  18.444  1.00  0.00     0.006 C 
BRANCH  12  13
ATOM     13  C   UNL     1      11.636  11.123  19.284  1.00  0.00     0.053 C 
BRANCH  13  14
ATOM     14  C   UNL     1      11.035  11.400  20.629  1.00  0.00     0.041 C 
ATOM     15  O   UNL     1      11.112  10.542  21.548  1.00  0.00    -0.550 OA
ATOM     16  O   UNL     1      10.400  12.613  20.872  1.00  0.00    -0.550 OA
ENDBRANCH  13  14
ENDBRANCH  12  13
ENDBRANCH  11  12
ENDBRANCH  10  11
ENDBRANCH   9  10
ENDBRANCH   8   9
ENDBRANCH   7   8
ENDBRANCH   6   7
ENDBRANCH   5   6
ENDBRANCH   4   5
ENDBRANCH   3   4
ENDBRANCH   2   3
ENDBRANCH   1   2
BRANCH   1  17
ATOM     17  C   UNL     1      14.153  11.024  14.431  1.00  0.00     0.000 C 
BRANCH  17  18
ATOM     18  C   UNL     1      13.044  11.613  13.538  1.00  0.00     0.000 C 
BRANCH  18  19
ATOM     19  C   UNL     1      12.249  10.582  12.718  1.00  0.00     0.000 C 
BRANCH  19  20
ATOM     20  C   UNL     1      10.739  10.870  12.707  1.00  0.00     0.000 C 
BRANCH  20  21
ATOM     21  C   UNL     1      10.399  12.332  13.055  1.00  0.00     0.000 C 
BRANCH  21  22
ATOM     22  C   UNL     1       9.143  12.896  12.363  1.00  0.00    -0.000 C 
BRANCH  22  23
ATOM     23  C   UNL     1       9.339  14.324  11.830  1.00  0.00    -0.000 C 
BRANCH  23  24
ATOM     24  C   UNL     1      10.795  14.780  11.987  1.00  0.00    -0.000 C 
BRANCH  24  25
ATOM     25  C   UNL     1      11.434  15.052  10.616  1.00  0.00    -0.000 C 
BRANCH  25  26
ATOM     26  C   UNL     1      10.474  14.788   9.443  1.00  0.00    -0.000 C 
BRANCH  26  27
ATOM     27  C   UNL     1      10.922  13.677   8.478  1.00  0.00    -0.000 C 
BRANCH  27  28
ATOM     28  C   UNL     1      10.382  12.291   8.872  1.00  0.00    -0.000 C 
BRANCH  28  29
ATOM     29  C   UNL     1      11.505  11.286   9.178  1.00  0.00    -0.003 C 
ATOM     30  C   UNL     1      12.881  11.948   9.246  1.00  0.00     0.004 C 
ENDBRANCH  28  29
ENDBRANCH  27  28
ENDBRANCH  26  27
ENDBRANCH  25  26
ENDBRANCH  24  25
ENDBRANCH  23  24
ENDBRANCH  22  23
ENDBRANCH  21  22
ENDBRANCH  20  21
ENDBRANCH  19  20
ENDBRANCH  18  19
ENDBRANCH  17  18
ENDBRANCH   1  17
TORSDOF 26
ENDMDL
MODEL 9
REMARK VINA RESULT:    -4.122      4.062      9.054
REMARK INTER + INTRA:         -13.748
REMARK INTER:                 -10.798
REMARK INTRA:                  -2.950
REMARK UNBOUND:                -3.360
REMARK SMILES CCCCCCCCCCCCCCCCCCCCCCCCCCCC(=O)[O-]
REMARK SMILES IDX 15 1 16 2 17 3 18 4 19 5 20 6 21 7 22 8 23 9 24 10 25 11
REMARK SMILES IDX 26 12 27 13 28 14 29 15 30 16 14 17 13 18 12 19 11 20 10 21
REMARK SMILES IDX 9 22 8 23 7 24 6 25 5 26 4 27 3 28 2 29 1 30
REMARK H PARENT
REMARK Flexibility Score: inf
ROOT
ATOM      1  C   UNL     1      18.612  12.560  14.818  1.00  0.00     0.000 C 
ENDROOT
BRANCH   1   2
ATOM      2  C   UNL     1      19.234  12.048  16.127  1.00  0.00     0.000 C 
BRANCH   2   3
ATOM      3  C   UNL     1      18.719  12.854  17.326  1.00  0.00     0.000 C 
BRANCH   3   4
ATOM      4  C   UNL     1      18.180  11.927  18.427  1.00  0.00     0.000 C 
BRANCH   4   5
ATOM      5  C   UNL     1      17.002  12.554  19.191  1.00  0.00     0.000 C 
BRANCH   5   6
ATOM      6  C   UNL     1      15.670  11.852  18.889  1.00  0.00     0.000 C 
BRANCH   6   7
ATOM      7  C   UNL     1      14.757  12.744  18.039  1.00  0.00     0.000 C 
BRANCH   7   8
ATOM      8  C   UNL     1      13.493  11.987  17.613  1.00  0.00     0.000 C 
BRANCH   8   9
ATOM      9  C   UNL     1      12.257  12.512  18.353  1.00  0.00     0.000 C 
BRANCH   9  10
ATOM     10  C   UNL     1      10.972  11.896  17.779  1.00  0.00     0.000 C 
BRANCH  10  11
ATOM     11  C   UNL     1       9.737  12.363  18.565  1.00  0.00     0.000 C 
BRANCH  11  12
ATOM     12  C   UNL     1       9.093  11.237  19.387  1.00  0.00     0.006 C 
BRANCH  12  13
ATOM     13  C   UNL     1       9.792   9.884  19.194  1.00  0.00     0.053 C 
BRANCH  13  14
ATOM     14  C   UNL     1      10.394   9.408  20.481  1.00  0.00     0.041 C 
ATOM     15  O   UNL     1      11.119  10.178  21.166  1.00  0.00    -0.550 OA
ATOM     16  O   UNL     1      10.147   8.116  20.931  1.00  0.00    -0.550 OA
ENDBRANCH  13  14
ENDBRANCH  12  13
ENDBRANCH  11  12
ENDBRANCH  10  11
ENDBRANCH   9  10
ENDBRANCH   8   9
ENDBRANCH   7   8
ENDBRANCH   6   7
ENDBRANCH   5   6
ENDBRANCH   4   5
ENDBRANCH   3   4
ENDBRANCH   2   3
ENDBRANCH   1   2
BRANCH   1  17
ATOM     17  C   UNL     1      17.438  11.683  14.337  1.00  0.00     0.000 C 
BRANCH  17  18
ATOM     18  C   UNL     1      16.104  11.978  15.049  1.00  0.00     0.000 C 
BRANCH  18  19
ATOM     19  C   UNL     1      14.912  11.125  14.582  1.00  0.00     0.000 C 
BRANCH  19  20
ATOM     20  C   UNL     1      13.797  11.965  13.937  1.00  0.00     0.000 C 
BRANCH  20  21
ATOM     21  C   UNL     1      12.635  11.113  13.393  1.00  0.00     0.000 C 
BRANCH  21  22
ATOM     22  C   UNL     1      11.229  11.559  13.838  1.00  0.00    -0.000 C 
BRANCH  22  23
ATOM     23  C   UNL     1      10.369  12.084  12.678  1.00  0.00    -0.000 C 
BRANCH  23  24
ATOM     24  C   UNL     1       9.500  13.267  13.122  1.00  0.00    -0.000 C 
BRANCH  24  25
ATOM     25  C   UNL     1       9.538  14.396  12.081  1.00  0.00    -0.000 C 
BRANCH  25  26
ATOM     26  C   UNL     1      10.950  14.968  11.866  1.00  0.00    -0.000 C 
BRANCH  26  27
ATOM     27  C   UNL     1      11.561  14.684  10.483  1.00  0.00    -0.000 C 
BRANCH  27  28
ATOM     28  C   UNL     1      12.957  14.041  10.567  1.00  0.00    -0.000 C 
BRANCH  28  29
ATOM     29  C   UNL     1      12.976  12.602  10.027  1.00  0.00    -0.003 C 
ATOM     30  C   UNL     1      12.250  12.468   8.689  1.00  0.00     0.004 C 
ENDBRANCH  28  29
ENDBRANCH  27  28
ENDBRANCH  26  27
ENDBRANCH  25  26
ENDBRANCH  24  25
ENDBRANCH  23  24
ENDBRANCH  22  23
ENDBRANCH  21  22
ENDBRANCH  20  21
ENDBRANCH  19  20
ENDBRANCH  18  19
ENDBRANCH  17  18
ENDBRANCH   1  17
TORSDOF 26
ENDMDL
