MODEL 1
REMARK VINA RESULT:    23.807      0.000      0.000
REMARK INTER + INTRA:          29.013
REMARK INTER:                  28.679
REMARK INTRA:                   0.334
REMARK UNBOUND:                 0.334
REMARK SMILES O=c1c(O)c(-c2ccc(O)c(O)c2)oc2cc(O)cc(O)c12
REMARK SMILES IDX 5 1 3 2 2 3 1 4 22 5 20 6 19 7 17 8 16 9 15 10 14 11 6 12
REMARK SMILES IDX 7 13 8 14 9 15 13 16 11 17 10 18 12 20 4 22 21 24 18 26
REMARK H PARENT 10 19 12 21 4 23 21 25 18 27
REMARK Flexibility Score: inf
ROOT
ATOM      1  C   UNL     1     138.698 139.018 129.207  1.00  0.00     0.180 A 
ATOM      2  C   UNL     1     137.392 139.341 128.797  1.00  0.00     0.208 A 
ATOM      3  C   UNL     1     137.111 139.426 127.423  1.00  0.00     0.238 A 
ATOM      4  O   UNL     1     135.955 139.768 127.063  1.00  0.00    -0.285 OA
ATOM      5  C   UNL     1     138.134 139.172 126.478  1.00  0.00     0.111 A 
ATOM      6  C   UNL     1     137.952 139.189 125.062  1.00  0.00     0.134 A 
ATOM      7  C   UNL     1     139.063 139.052 124.221  1.00  0.00     0.093 A 
ATOM      8  C   UNL     1     140.338 138.832 124.741  1.00  0.00     0.123 A 
ATOM      9  C   UNL     1     140.518 138.752 126.123  1.00  0.00     0.094 A 
ATOM     10  C   UNL     1     139.435 138.922 126.989  1.00  0.00     0.146 A 
ATOM     11  O   UNL     1     139.651 138.850 128.297  1.00  0.00    -0.452 OA
ENDROOT
BRANCH   1  12
ATOM     12  C   UNL     1     139.064 138.886 130.635  1.00  0.00     0.025 A 
ATOM     13  C   UNL     1     140.412 138.982 131.014  1.00  0.00     0.016 A 
ATOM     14  C   UNL     1     140.783 138.839 132.354  1.00  0.00     0.051 A 
ATOM     15  C   UNL     1     139.817 138.583 133.331  1.00  0.00     0.157 A 
ATOM     16  C   UNL     1     138.096 138.607 131.617  1.00  0.00     0.062 A 
ATOM     17  C   UNL     1     138.467 138.462 132.962  1.00  0.00     0.158 A 
BRANCH  15  18
ATOM     18  O   UNL     1     140.217 138.449 134.660  1.00  0.00    -0.504 OA
ATOM     19  H   UNL     1     139.631 138.747 135.431  1.00  0.00     0.293 HD
ENDBRANCH  15  18
BRANCH  17  20
ATOM     20  O   UNL     1     137.501 138.193 133.930  1.00  0.00    -0.504 OA
ATOM     21  H   UNL     1     137.714 137.645 134.756  1.00  0.00     0.293 HD
ENDBRANCH  17  20
ENDBRANCH   1  12
BRANCH   2  22
ATOM     22  O   UNL     1     136.403 139.610 129.747  1.00  0.00    -0.502 OA
ATOM     23  H   UNL     1     135.416 139.498 129.550  1.00  0.00     0.293 HD
ENDBRANCH   2  22
BRANCH   6  24
ATOM     24  O   UNL     1     136.707 139.311 124.437  1.00  0.00    -0.507 OA
ATOM     25  H   UNL     1     135.936 138.674 124.565  1.00  0.00     0.293 HD
ENDBRANCH   6  24
BRANCH   8  26
ATOM     26  O   UNL     1     141.418 138.683 123.875  1.00  0.00    -0.508 OA
ATOM     27  H   UNL     1     142.136 139.393 123.797  1.00  0.00     0.293 HD
ENDBRANCH   8  26
TORSDOF 6
ENDMDL
MODEL 2
REMARK VINA RESULT:    24.310     15.658     16.639
REMARK INTER + INTRA:          29.619
REMARK INTER:                  29.301
REMARK INTRA:                   0.318
REMARK UNBOUND:                 0.334
REMARK SMILES O=c1c(O)c(-c2ccc(O)c(O)c2)oc2cc(O)cc(O)c12
REMARK SMILES IDX 5 1 3 2 2 3 1 4 22 5 20 6 19 7 17 8 16 9 15 10 14 11 6 12
REMARK SMILES IDX 7 13 8 14 9 15 13 16 11 17 10 18 12 20 4 22 21 24 18 26
REMARK H PARENT 10 19 12 21 4 23 21 25 18 27
REMARK Flexibility Score: inf
ROOT
ATOM      1  C   UNL     1     127.597 127.252 131.538  1.00  0.00     0.180 A 
ATOM      2  C   UNL     1     128.892 126.848 131.169  1.00  0.00     0.208 A 
ATOM      3  C   UNL     1     129.206 126.732 129.805  1.00  0.00     0.238 A 
ATOM      4  O   UNL     1     130.350 126.318 129.481  1.00  0.00    -0.285 OA
ATOM      5  C   UNL     1     128.227 127.035 128.828  1.00  0.00     0.111 A 
ATOM      6  C   UNL     1     128.448 126.991 127.418  1.00  0.00     0.134 A 
ATOM      7  C   UNL     1     127.371 127.183 126.545  1.00  0.00     0.093 A 
ATOM      8  C   UNL     1     126.098 127.484 127.026  1.00  0.00     0.123 A 
ATOM      9  C   UNL     1     125.883 127.589 128.401  1.00  0.00     0.094 A 
ATOM     10  C   UNL     1     126.929 127.366 129.300  1.00  0.00     0.146 A 
ATOM     11  O   UNL     1     126.681 127.465 130.599  1.00  0.00    -0.452 OA
ENDROOT
BRANCH   1  12
ATOM     12  C   UNL     1     127.198 127.421 132.954  1.00  0.00     0.025 A 
ATOM     13  C   UNL     1     125.838 127.386 133.298  1.00  0.00     0.016 A 
ATOM     14  C   UNL     1     125.438 127.564 134.624  1.00  0.00     0.051 A 
ATOM     15  C   UNL     1     126.387 127.797 135.624  1.00  0.00     0.157 A 
ATOM     16  C   UNL     1     128.150 127.676 133.957  1.00  0.00     0.062 A 
ATOM     17  C   UNL     1     127.751 127.857 135.290  1.00  0.00     0.158 A 
BRANCH  15  18
ATOM     18  O   UNL     1     125.958 127.968 136.939  1.00  0.00    -0.504 OA
ATOM     19  H   UNL     1     125.076 128.414 137.163  1.00  0.00     0.293 HD
ENDBRANCH  15  18
BRANCH  17  20
ATOM     20  O   UNL     1     128.701 128.102 136.279  1.00  0.00    -0.504 OA
ATOM     21  H   UNL     1     129.285 128.931 136.261  1.00  0.00     0.293 HD
ENDBRANCH  17  20
ENDBRANCH   1  12
BRANCH   2  22
ATOM     22  O   UNL     1     129.836 126.533 132.150  1.00  0.00    -0.502 OA
ATOM     23  H   UNL     1     130.238 125.608 132.239  1.00  0.00     0.293 HD
ENDBRANCH   2  22
BRANCH   6  24
ATOM     24  O   UNL     1     129.701 126.789 126.831  1.00  0.00    -0.507 OA
ATOM     25  H   UNL     1     130.297 125.996 127.008  1.00  0.00     0.293 HD
ENDBRANCH   6  24
BRANCH   8  26
ATOM     26  O   UNL     1     125.052 127.686 126.127  1.00  0.00    -0.508 OA
ATOM     27  H   UNL     1     124.381 128.434 126.255  1.00  0.00     0.293 HD
ENDBRANCH   8  26
TORSDOF 6
ENDMDL
MODEL 3
REMARK VINA RESULT:    24.315      2.606      4.671
REMARK INTER + INTRA:          29.625
REMARK INTER:                  29.330
REMARK INTRA:                   0.295
REMARK UNBOUND:                 0.334
REMARK SMILES O=c1c(O)c(-c2ccc(O)c(O)c2)oc2cc(O)cc(O)c12
REMARK SMILES IDX 5 1 3 2 2 3 1 4 22 5 20 6 19 7 17 8 16 9 15 10 14 11 6 12
REMARK SMILES IDX 7 13 8 14 9 15 13 16 11 17 10 18 12 20 4 22 21 24 18 26
REMARK H PARENT 10 19 12 21 4 23 21 25 18 27
REMARK Flexibility Score: inf
ROOT
ATOM      1  C   UNL     1     138.799 138.860 133.877  1.00  0.00     0.180 A 
ATOM      2  C   UNL     1     137.504 139.267 133.512  1.00  0.00     0.208 A 
ATOM      3  C   UNL     1     137.187 139.391 132.150  1.00  0.00     0.238 A 
ATOM      4  O   UNL     1     136.043 139.807 131.830  1.00  0.00    -0.285 OA
ATOM      5  C   UNL     1     138.164 139.091 131.169  1.00  0.00     0.111 A 
ATOM      6  C   UNL     1     137.941 139.143 129.760  1.00  0.00     0.134 A 
ATOM      7  C   UNL     1     139.016 138.954 128.883  1.00  0.00     0.093 A 
ATOM      8  C   UNL     1     140.289 138.650 129.360  1.00  0.00     0.123 A 
ATOM      9  C   UNL     1     140.506 138.537 130.734  1.00  0.00     0.094 A 
ATOM     10  C   UNL     1     139.462 138.757 131.636  1.00  0.00     0.146 A 
ATOM     11  O   UNL     1     139.713 138.650 132.935  1.00  0.00    -0.452 OA
ENDROOT
BRANCH   1  12
ATOM     12  C   UNL     1     139.200 138.682 135.291  1.00  0.00     0.025 A 
ATOM     13  C   UNL     1     140.557 138.769 135.640  1.00  0.00     0.016 A 
ATOM     14  C   UNL     1     140.961 138.584 136.965  1.00  0.00     0.051 A 
ATOM     15  C   UNL     1     140.019 138.295 137.957  1.00  0.00     0.157 A 
ATOM     16  C   UNL     1     138.257 138.371 136.286  1.00  0.00     0.062 A 
ATOM     17  C   UNL     1     138.660 138.184 137.617  1.00  0.00     0.158 A 
BRANCH  15  18
ATOM     18  O   UNL     1     140.451 138.119 139.271  1.00  0.00    -0.504 OA
ATOM     19  H   UNL     1     139.927 137.566 139.939  1.00  0.00     0.293 HD
ENDBRANCH  15  18
BRANCH  17  20
ATOM     20  O   UNL     1     137.718 137.883 138.598  1.00  0.00    -0.504 OA
ATOM     21  H   UNL     1     137.008 138.551 138.876  1.00  0.00     0.293 HD
ENDBRANCH  17  20
ENDBRANCH   1  12
BRANCH   2  22
ATOM     22  O   UNL     1     136.562 139.578 134.496  1.00  0.00    -0.502 OA
ATOM     23  H   UNL     1     136.129 140.490 134.565  1.00  0.00     0.293 HD
ENDBRANCH   2  22
BRANCH   6  24
ATOM     24  O   UNL     1     136.687 139.349 129.176  1.00  0.00    -0.507 OA
ATOM     25  H   UNL     1     135.844 139.563 129.686  1.00  0.00     0.293 HD
ENDBRANCH   6  24
BRANCH   8  26
ATOM     26  O   UNL     1     141.333 138.451 128.458  1.00  0.00    -0.508 OA
ATOM     27  H   UNL     1     141.392 138.973 127.592  1.00  0.00     0.293 HD
ENDBRANCH   8  26
TORSDOF 6
ENDMDL
MODEL 4
REMARK VINA RESULT:    24.333     15.943     18.454
REMARK INTER + INTRA:          29.647
REMARK INTER:                  29.245
REMARK INTRA:                   0.401
REMARK UNBOUND:                 0.334
REMARK SMILES O=c1c(O)c(-c2ccc(O)c(O)c2)oc2cc(O)cc(O)c12
REMARK SMILES IDX 5 1 3 2 2 3 1 4 22 5 20 6 19 7 17 8 16 9 15 10 14 11 6 12
REMARK SMILES IDX 7 13 8 14 9 15 13 16 11 17 10 18 12 20 4 22 21 24 18 26
REMARK H PARENT 10 19 12 21 4 23 21 25 18 27
REMARK Flexibility Score: inf
ROOT
ATOM      1  C   UNL     1     127.117 127.527 134.019  1.00  0.00     0.180 A 
ATOM      2  C   UNL     1     125.796 127.673 134.477  1.00  0.00     0.208 A 
ATOM      3  C   UNL     1     125.552 127.693 135.860  1.00  0.00     0.238 A 
ATOM      4  O   UNL     1     124.362 127.770 136.264  1.00  0.00    -0.285 OA
ATOM      5  C   UNL     1     126.633 127.584 136.768  1.00  0.00     0.111 A 
ATOM      6  C   UNL     1     126.508 127.633 138.189  1.00  0.00     0.134 A 
ATOM      7  C   UNL     1     127.628 127.382 138.990  1.00  0.00     0.093 A 
ATOM      8  C   UNL     1     128.881 127.150 138.425  1.00  0.00     0.123 A 
ATOM      9  C   UNL     1     129.027 127.159 137.037  1.00  0.00     0.094 A 
ATOM     10  C   UNL     1     127.921 127.370 136.210  1.00  0.00     0.146 A 
ATOM     11  O   UNL     1     128.102 127.359 134.895  1.00  0.00    -0.452 OA
ENDROOT
BRANCH   1  12
ATOM     12  C   UNL     1     127.455 127.521 132.578  1.00  0.00     0.025 A 
ATOM     13  C   UNL     1     126.572 128.109 131.659  1.00  0.00     0.016 A 
ATOM     14  C   UNL     1     126.860 128.097 130.292  1.00  0.00     0.051 A 
ATOM     15  C   UNL     1     128.025 127.484 129.821  1.00  0.00     0.157 A 
ATOM     16  C   UNL     1     128.616 126.887 132.101  1.00  0.00     0.062 A 
ATOM     17  C   UNL     1     128.907 126.872 130.728  1.00  0.00     0.158 A 
BRANCH  15  18
ATOM     18  O   UNL     1     128.288 127.491 128.452  1.00  0.00    -0.504 OA
ATOM     19  H   UNL     1     128.662 126.680 127.972  1.00  0.00     0.293 HD
ENDBRANCH  15  18
BRANCH  17  20
ATOM     20  O   UNL     1     130.063 126.248 130.264  1.00  0.00    -0.504 OA
ATOM     21  H   UNL     1     130.711 126.723 129.645  1.00  0.00     0.293 HD
ENDBRANCH  17  20
ENDBRANCH   1  12
BRANCH   2  22
ATOM     22  O   UNL     1     124.741 127.758 133.564  1.00  0.00    -0.502 OA
ATOM     23  H   UNL     1     124.010 127.059 133.512  1.00  0.00     0.293 HD
ENDBRANCH   2  22
BRANCH   6  24
ATOM     24  O   UNL     1     125.320 127.948 138.856  1.00  0.00    -0.507 OA
ATOM     25  H   UNL     1     124.805 127.311 139.445  1.00  0.00     0.293 HD
ENDBRANCH   6  24
BRANCH   8  26
ATOM     26  O   UNL     1     129.978 126.921 139.253  1.00  0.00    -0.508 OA
ATOM     27  H   UNL     1     130.924 127.109 138.943  1.00  0.00     0.293 HD
ENDBRANCH   8  26
TORSDOF 6
ENDMDL
MODEL 5
REMARK VINA RESULT:    24.353      4.681     10.772
REMARK INTER + INTRA:          29.670
REMARK INTER:                  29.260
REMARK INTRA:                   0.410
REMARK UNBOUND:                 0.334
REMARK SMILES O=c1c(O)c(-c2ccc(O)c(O)c2)oc2cc(O)cc(O)c12
REMARK SMILES IDX 5 1 3 2 2 3 1 4 22 5 20 6 19 7 17 8 16 9 15 10 14 11 6 12
REMARK SMILES IDX 7 13 8 14 9 15 13 16 11 17 10 18 12 20 4 22 21 24 18 26
REMARK H PARENT 10 19 12 21 4 23 21 25 18 27
REMARK Flexibility Score: inf
ROOT
ATOM      1  C   UNL     1     139.148 138.636 136.303  1.00  0.00     0.180 A 
ATOM      2  C   UNL     1     140.465 138.441 136.755  1.00  0.00     0.208 A 
ATOM      3  C   UNL     1     140.712 138.407 138.137  1.00  0.00     0.238 A 
ATOM      4  O   UNL     1     141.900 138.286 138.536  1.00  0.00    -0.285 OA
ATOM      5  C   UNL     1     139.639 138.553 139.050  1.00  0.00     0.111 A 
ATOM      6  C   UNL     1     139.769 138.494 140.470  1.00  0.00     0.134 A 
ATOM      7  C   UNL     1     138.661 138.782 141.277  1.00  0.00     0.093 A 
ATOM      8  C   UNL     1     137.416 139.061 140.717  1.00  0.00     0.123 A 
ATOM      9  C   UNL     1     137.263 139.062 139.330  1.00  0.00     0.094 A 
ATOM     10  C   UNL     1     138.358 138.815 138.497  1.00  0.00     0.146 A 
ATOM     11  O   UNL     1     138.173 138.836 137.184  1.00  0.00    -0.452 OA
ENDROOT
BRANCH   1  12
ATOM     12  C   UNL     1     138.805 138.659 134.863  1.00  0.00     0.025 A 
ATOM     13  C   UNL     1     139.669 138.055 133.937  1.00  0.00     0.016 A 
ATOM     14  C   UNL     1     139.376 138.083 132.572  1.00  0.00     0.051 A 
ATOM     15  C   UNL     1     138.225 138.727 132.109  1.00  0.00     0.157 A 
ATOM     16  C   UNL     1     137.658 139.325 134.395  1.00  0.00     0.062 A 
ATOM     17  C   UNL     1     137.362 139.355 133.023  1.00  0.00     0.158 A 
BRANCH  15  18
ATOM     18  O   UNL     1     137.957 138.736 130.741  1.00  0.00    -0.504 OA
ATOM     19  H   UNL     1     138.135 137.929 130.153  1.00  0.00     0.293 HD
ENDBRANCH  15  18
BRANCH  17  20
ATOM     20  O   UNL     1     136.221 140.011 132.567  1.00  0.00    -0.504 OA
ATOM     21  H   UNL     1     136.208 140.502 131.680  1.00  0.00     0.293 HD
ENDBRANCH  17  20
ENDBRANCH   1  12
BRANCH   2  22
ATOM     22  O   UNL     1     141.512 138.321 135.838  1.00  0.00    -0.502 OA
ATOM     23  H   UNL     1     142.476 138.505 136.087  1.00  0.00     0.293 HD
ENDBRANCH   2  22
BRANCH   6  24
ATOM     24  O   UNL     1     140.947 138.133 141.131  1.00  0.00    -0.507 OA
ATOM     25  H   UNL     1     141.715 137.635 140.708  1.00  0.00     0.293 HD
ENDBRANCH   6  24
BRANCH   8  26
ATOM     26  O   UNL     1     136.331 139.326 141.550  1.00  0.00    -0.508 OA
ATOM     27  H   UNL     1     135.766 140.159 141.435  1.00  0.00     0.293 HD
ENDBRANCH   8  26
TORSDOF 6
ENDMDL
MODEL 6
REMARK VINA RESULT:    24.381      6.003      9.426
REMARK INTER + INTRA:          29.704
REMARK INTER:                  29.386
REMARK INTRA:                   0.318
REMARK UNBOUND:                 0.334
REMARK SMILES O=c1c(O)c(-c2ccc(O)c(O)c2)oc2cc(O)cc(O)c12
REMARK SMILES IDX 5 1 3 2 2 3 1 4 22 5 20 6 19 7 17 8 16 9 15 10 14 11 6 12
REMARK SMILES IDX 7 13 8 14 9 15 13 16 11 17 10 18 12 20 4 22 21 24 18 26
REMARK H PARENT 10 19 12 21 4 23 21 25 18 27
REMARK Flexibility Score: inf
ROOT
ATOM      1  C   UNL     1     138.937 138.694 138.626  1.00  0.00     0.180 A 
ATOM      2  C   UNL     1     137.662 139.162 138.262  1.00  0.00     0.208 A 
ATOM      3  C   UNL     1     137.350 139.297 136.899  1.00  0.00     0.238 A 
ATOM      4  O   UNL     1     136.227 139.768 136.580  1.00  0.00    -0.285 OA
ATOM      5  C   UNL     1     138.310 138.948 135.918  1.00  0.00     0.111 A 
ATOM      6  C   UNL     1     138.087 139.007 134.509  1.00  0.00     0.134 A 
ATOM      7  C   UNL     1     139.151 138.763 133.632  1.00  0.00     0.093 A 
ATOM      8  C   UNL     1     140.409 138.399 134.108  1.00  0.00     0.123 A 
ATOM      9  C   UNL     1     140.622 138.280 135.482  1.00  0.00     0.094 A 
ATOM     10  C   UNL     1     139.591 138.552 136.385  1.00  0.00     0.146 A 
ATOM     11  O   UNL     1     139.838 138.437 137.683  1.00  0.00    -0.452 OA
ENDROOT
BRANCH   1  12
ATOM     12  C   UNL     1     139.331 138.501 140.040  1.00  0.00     0.025 A 
ATOM     13  C   UNL     1     140.692 138.473 140.380  1.00  0.00     0.016 A 
ATOM     14  C   UNL     1     141.087 138.271 141.705  1.00  0.00     0.051 A 
ATOM     15  C   UNL     1     140.130 138.080 142.706  1.00  0.00     0.157 A 
ATOM     16  C   UNL     1     138.370 138.288 141.045  1.00  0.00     0.062 A 
ATOM     17  C   UNL     1     138.765 138.084 142.376  1.00  0.00     0.158 A 
BRANCH  15  18
ATOM     18  O   UNL     1     140.555 137.884 144.020  1.00  0.00    -0.504 OA
ATOM     19  H   UNL     1     140.928 138.640 144.583  1.00  0.00     0.293 HD
ENDBRANCH  15  18
BRANCH  17  20
ATOM     20  O   UNL     1     137.807 137.880 143.367  1.00  0.00    -0.504 OA
ATOM     21  H   UNL     1     137.469 138.642 143.944  1.00  0.00     0.293 HD
ENDBRANCH  17  20
ENDBRANCH   1  12
BRANCH   2  22
ATOM     22  O   UNL     1     136.738 139.521 139.246  1.00  0.00    -0.502 OA
ATOM     23  H   UNL     1     137.005 140.020 140.086  1.00  0.00     0.293 HD
ENDBRANCH   2  22
BRANCH   6  24
ATOM     24  O   UNL     1     136.844 139.271 133.926  1.00  0.00    -0.507 OA
ATOM     25  H   UNL     1     136.142 138.575 133.728  1.00  0.00     0.293 HD
ENDBRANCH   6  24
BRANCH   8  26
ATOM     26  O   UNL     1     141.440 138.147 133.206  1.00  0.00    -0.508 OA
ATOM     27  H   UNL     1     142.387 138.458 133.383  1.00  0.00     0.293 HD
ENDBRANCH   8  26
TORSDOF 6
ENDMDL
MODEL 7
REMARK VINA RESULT:    24.500     16.288     17.892
REMARK INTER + INTRA:          29.848
REMARK INTER:                  29.522
REMARK INTRA:                   0.326
REMARK UNBOUND:                 0.334
REMARK SMILES O=c1c(O)c(-c2ccc(O)c(O)c2)oc2cc(O)cc(O)c12
REMARK SMILES IDX 5 1 3 2 2 3 1 4 22 5 20 6 19 7 17 8 16 9 15 10 14 11 6 12
REMARK SMILES IDX 7 13 8 14 9 15 13 16 11 17 10 18 12 20 4 22 21 24 18 26
REMARK H PARENT 10 19 12 21 4 23 21 25 18 27
REMARK Flexibility Score: inf
ROOT
ATOM      1  C   UNL     1     127.332 127.488 136.126  1.00  0.00     0.180 A 
ATOM      2  C   UNL     1     128.625 127.096 135.739  1.00  0.00     0.208 A 
ATOM      3  C   UNL     1     128.919 126.976 134.371  1.00  0.00     0.238 A 
ATOM      4  O   UNL     1     130.063 126.573 134.032  1.00  0.00    -0.285 OA
ATOM      5  C   UNL     1     127.922 127.264 133.407  1.00  0.00     0.111 A 
ATOM      6  C   UNL     1     128.122 127.215 131.995  1.00  0.00     0.134 A 
ATOM      7  C   UNL     1     127.029 127.391 131.137  1.00  0.00     0.093 A 
ATOM      8  C   UNL     1     125.761 127.680 131.636  1.00  0.00     0.123 A 
ATOM      9  C   UNL     1     125.566 127.790 133.014  1.00  0.00     0.094 A 
ATOM     10  C   UNL     1     126.629 127.583 133.898  1.00  0.00     0.146 A 
ATOM     11  O   UNL     1     126.399 127.687 135.200  1.00  0.00    -0.452 OA
ENDROOT
BRANCH   1  12
ATOM     12  C   UNL     1     126.953 127.660 137.547  1.00  0.00     0.025 A 
ATOM     13  C   UNL     1     125.598 127.622 137.911  1.00  0.00     0.016 A 
ATOM     14  C   UNL     1     125.216 127.804 139.242  1.00  0.00     0.051 A 
ATOM     15  C   UNL     1     126.180 128.041 140.227  1.00  0.00     0.157 A 
ATOM     16  C   UNL     1     127.919 127.920 138.535  1.00  0.00     0.062 A 
ATOM     17  C   UNL     1     127.538 128.104 139.873  1.00  0.00     0.158 A 
BRANCH  15  18
ATOM     18  O   UNL     1     125.769 128.216 141.548  1.00  0.00    -0.504 OA
ATOM     19  H   UNL     1     124.806 128.081 141.834  1.00  0.00     0.293 HD
ENDBRANCH  15  18
BRANCH  17  20
ATOM     20  O   UNL     1     128.502 128.355 140.848  1.00  0.00    -0.504 OA
ATOM     21  H   UNL     1     128.510 129.220 141.378  1.00  0.00     0.293 HD
ENDBRANCH  17  20
ENDBRANCH   1  12
BRANCH   2  22
ATOM     22  O   UNL     1     129.587 126.796 136.707  1.00  0.00    -0.502 OA
ATOM     23  H   UNL     1     129.751 125.853 137.036  1.00  0.00     0.293 HD
ENDBRANCH   2  22
BRANCH   6  24
ATOM     24  O   UNL     1     129.368 127.023 131.389  1.00  0.00    -0.507 OA
ATOM     25  H   UNL     1     129.536 126.418 130.600  1.00  0.00     0.293 HD
ENDBRANCH   6  24
BRANCH   8  26
ATOM     26  O   UNL     1     124.700 127.867 130.753  1.00  0.00    -0.508 OA
ATOM     27  H   UNL     1     123.744 127.663 131.021  1.00  0.00     0.293 HD
ENDBRANCH   8  26
TORSDOF 6
ENDMDL
MODEL 8
REMARK VINA RESULT:    24.509      1.981      7.974
REMARK INTER + INTRA:          29.858
REMARK INTER:                  29.448
REMARK INTRA:                   0.410
REMARK UNBOUND:                 0.334
REMARK SMILES O=c1c(O)c(-c2ccc(O)c(O)c2)oc2cc(O)cc(O)c12
REMARK SMILES IDX 5 1 3 2 2 3 1 4 22 5 20 6 19 7 17 8 16 9 15 10 14 11 6 12
REMARK SMILES IDX 7 13 8 14 9 15 13 16 11 17 10 18 12 20 4 22 21 24 18 26
REMARK H PARENT 10 19 12 21 4 23 21 25 18 27
REMARK Flexibility Score: inf
ROOT
ATOM      1  C   UNL     1     139.034 138.810 131.717  1.00  0.00     0.180 A 
ATOM      2  C   UNL     1     140.355 138.677 132.179  1.00  0.00     0.208 A 
ATOM      3  C   UNL     1     140.595 138.659 133.562  1.00  0.00     0.238 A 
ATOM      4  O   UNL     1     141.784 138.594 133.969  1.00  0.00    -0.285 OA
ATOM      5  C   UNL     1     139.509 138.757 134.467  1.00  0.00     0.111 A 
ATOM      6  C   UNL     1     139.631 138.708 135.888  1.00  0.00     0.134 A 
ATOM      7  C   UNL     1     138.506 138.947 136.686  1.00  0.00     0.093 A 
ATOM      8  C   UNL     1     137.253 139.166 136.117  1.00  0.00     0.123 A 
ATOM      9  C   UNL     1     137.110 139.156 134.729  1.00  0.00     0.094 A 
ATOM     10  C   UNL     1     138.221 138.958 133.904  1.00  0.00     0.146 A 
ATOM     11  O   UNL     1     138.045 138.966 132.589  1.00  0.00    -0.452 OA
ENDROOT
BRANCH   1  12
ATOM     12  C   UNL     1     138.701 138.812 130.274  1.00  0.00     0.025 A 
ATOM     13  C   UNL     1     139.600 138.248 129.356  1.00  0.00     0.016 A 
ATOM     14  C   UNL     1     139.315 138.258 127.988  1.00  0.00     0.051 A 
ATOM     15  C   UNL     1     138.138 138.845 127.516  1.00  0.00     0.157 A 
ATOM     16  C   UNL     1     137.526 139.420 129.796  1.00  0.00     0.062 A 
ATOM     17  C   UNL     1     137.239 139.433 128.422  1.00  0.00     0.158 A 
BRANCH  15  18
ATOM     18  O   UNL     1     137.879 138.837 126.146  1.00  0.00    -0.504 OA
ATOM     19  H   UNL     1     137.551 138.007 125.665  1.00  0.00     0.293 HD
ENDBRANCH  15  18
BRANCH  17  20
ATOM     20  O   UNL     1     136.070 140.032 127.956  1.00  0.00    -0.504 OA
ATOM     21  H   UNL     1     135.158 139.752 128.298  1.00  0.00     0.293 HD
ENDBRANCH  17  20
ENDBRANCH   1  12
BRANCH   2  22
ATOM     22  O   UNL     1     141.414 138.603 131.269  1.00  0.00    -0.502 OA
ATOM     23  H   UNL     1     141.595 137.777 130.712  1.00  0.00     0.293 HD
ENDBRANCH   2  22
BRANCH   6  24
ATOM     24  O   UNL     1     140.820 138.405 136.559  1.00  0.00    -0.507 OA
ATOM     25  H   UNL     1     141.665 138.954 136.508  1.00  0.00     0.293 HD
ENDBRANCH   6  24
BRANCH   8  26
ATOM     26  O   UNL     1     136.151 139.383 136.942  1.00  0.00    -0.508 OA
ATOM     27  H   UNL     1     136.210 139.269 137.946  1.00  0.00     0.293 HD
ENDBRANCH   8  26
TORSDOF 6
ENDMDL
MODEL 9
REMARK VINA RESULT:    24.636     15.513     17.580
REMARK INTER + INTRA:          30.012
REMARK INTER:                  29.611
REMARK INTRA:                   0.401
REMARK UNBOUND:                 0.334
REMARK SMILES O=c1c(O)c(-c2ccc(O)c(O)c2)oc2cc(O)cc(O)c12
REMARK SMILES IDX 5 1 3 2 2 3 1 4 22 5 20 6 19 7 17 8 16 9 15 10 14 11 6 12
REMARK SMILES IDX 7 13 8 14 9 15 13 16 11 17 10 18 12 20 4 22 21 24 18 26
REMARK H PARENT 10 19 12 21 4 23 21 25 18 27
REMARK Flexibility Score: inf
ROOT
ATOM      1  C   UNL     1     127.312 127.323 129.447  1.00  0.00     0.180 A 
ATOM      2  C   UNL     1     125.988 127.419 129.909  1.00  0.00     0.208 A 
ATOM      3  C   UNL     1     125.749 127.446 131.293  1.00  0.00     0.238 A 
ATOM      4  O   UNL     1     124.559 127.478 131.701  1.00  0.00    -0.285 OA
ATOM      5  C   UNL     1     126.838 127.391 132.197  1.00  0.00     0.111 A 
ATOM      6  C   UNL     1     126.716 127.452 133.618  1.00  0.00     0.134 A 
ATOM      7  C   UNL     1     127.849 127.257 134.417  1.00  0.00     0.093 A 
ATOM      8  C   UNL     1     129.108 127.070 133.849  1.00  0.00     0.123 A 
ATOM      9  C   UNL     1     129.248 127.069 132.460  1.00  0.00     0.094 A 
ATOM     10  C   UNL     1     128.131 127.224 131.635  1.00  0.00     0.146 A 
ATOM     11  O   UNL     1     128.306 127.207 130.320  1.00  0.00    -0.452 OA
ENDROOT
BRANCH   1  12
ATOM     12  C   UNL     1     127.644 127.315 128.004  1.00  0.00     0.025 A 
ATOM     13  C   UNL     1     126.733 127.854 127.083  1.00  0.00     0.016 A 
ATOM     14  C   UNL     1     127.016 127.839 125.715  1.00  0.00     0.051 A 
ATOM     15  C   UNL     1     128.204 127.270 125.245  1.00  0.00     0.157 A 
ATOM     16  C   UNL     1     128.829 126.725 127.529  1.00  0.00     0.062 A 
ATOM     17  C   UNL     1     129.114 126.706 126.156  1.00  0.00     0.158 A 
BRANCH  15  18
ATOM     18  O   UNL     1     128.461 127.272 123.875  1.00  0.00    -0.504 OA
ATOM     19  H   UNL     1     129.156 126.663 123.457  1.00  0.00     0.293 HD
ENDBRANCH  15  18
BRANCH  17  20
ATOM     20  O   UNL     1     130.294 126.126 125.693  1.00  0.00    -0.504 OA
ATOM     21  H   UNL     1     131.188 126.596 125.781  1.00  0.00     0.293 HD
ENDBRANCH  17  20
ENDBRANCH   1  12
BRANCH   2  22
ATOM     22  O   UNL     1     124.927 127.450 129.000  1.00  0.00    -0.502 OA
ATOM     23  H   UNL     1     124.645 126.637 128.466  1.00  0.00     0.293 HD
ENDBRANCH   2  22
BRANCH   6  24
ATOM     24  O   UNL     1     125.519 127.725 134.287  1.00  0.00    -0.507 OA
ATOM     25  H   UNL     1     124.944 127.032 134.742  1.00  0.00     0.293 HD
ENDBRANCH   6  24
BRANCH   8  26
ATOM     26  O   UNL     1     130.217 126.896 134.674  1.00  0.00    -0.508 OA
ATOM     27  H   UNL     1     130.987 127.554 134.672  1.00  0.00     0.293 HD
ENDBRANCH   8  26
TORSDOF 6
ENDMDL
