MODEL 1
REMARK VINA RESULT:    -4.646      0.000      0.000
REMARK INTER + INTRA:         -10.823
REMARK INTER:                  -8.991
REMARK INTRA:                  -1.832
REMARK UNBOUND:                -1.832
REMARK SMILES CCCCCCCCCCCCCCCCCC(=O)[O-]
REMARK SMILES IDX 10 1 11 2 12 3 13 4 14 5 15 6 16 7 17 8 18 9 19 10 20 11
REMARK SMILES IDX 9 12 8 13 7 14 6 15 5 16 4 17 3 18 2 19 1 20
REMARK H PARENT
REMARK Flexibility Score: inf
ROOT
ATOM      1  C   UNL     1       0.057  47.962  22.869  1.00  0.00     0.000 C 
ENDROOT
BRANCH   1   2
ATOM      2  C   UNL     1      -0.471  46.543  23.128  1.00  0.00     0.000 C 
BRANCH   2   3
ATOM      3  C   UNL     1      -0.632  46.284  24.635  1.00  0.00     0.000 C 
BRANCH   3   4
ATOM      4  C   UNL     1      -1.566  47.300  25.312  1.00  0.00     0.000 C 
BRANCH   4   5
ATOM      5  C   UNL     1      -2.848  46.650  25.863  1.00  0.00     0.000 C 
BRANCH   5   6
ATOM      6  C   UNL     1      -3.718  46.029  24.758  1.00  0.00     0.000 C 
BRANCH   6   7
ATOM      7  C   UNL     1      -5.220  46.232  25.006  1.00  0.00     0.006 C 
BRANCH   7   8
ATOM      8  C   UNL     1      -5.914  44.898  25.290  1.00  0.00     0.053 C 
BRANCH   8   9
ATOM      9  C   UNL     1      -5.688  43.939  24.163  1.00  0.00     0.041 C 
ATOM     10  O   UNL     1      -5.126  42.832  24.374  1.00  0.00    -0.550 OA
ATOM     11  O   UNL     1      -6.138  44.249  22.887  1.00  0.00    -0.550 OA
ENDBRANCH   8   9
ENDBRANCH   7   8
ENDBRANCH   6   7
ENDBRANCH   5   6
ENDBRANCH   4   5
ENDBRANCH   3   4
ENDBRANCH   2   3
ENDBRANCH   1   2
BRANCH   1  12
ATOM     12  C   UNL     1       1.011  48.019  21.666  1.00  0.00     0.000 C 
BRANCH  12  13
ATOM     13  C   UNL     1       2.136  49.052  21.851  1.00  0.00    -0.000 C 
BRANCH  13  14
ATOM     14  C   UNL     1       1.777  50.420  21.237  1.00  0.00    -0.000 C 
BRANCH  14  15
ATOM     15  C   UNL     1       1.474  51.510  22.284  1.00  0.00    -0.000 C 
BRANCH  15  16
ATOM     16  C   UNL     1       2.627  51.813  23.259  1.00  0.00    -0.000 C 
BRANCH  16  17
ATOM     17  C   UNL     1       2.196  51.735  24.734  1.00  0.00    -0.000 C 
BRANCH  17  18
ATOM     18  C   UNL     1       0.954  50.852  24.935  1.00  0.00    -0.000 C 
BRANCH  18  19
ATOM     19  C   UNL     1       1.185  49.728  25.956  1.00  0.00    -0.003 C 
ATOM     20  C   UNL     1       2.611  49.190  25.870  1.00  0.00     0.004 C 
ENDBRANCH  18  19
ENDBRANCH  17  18
ENDBRANCH  16  17
ENDBRANCH  15  16
ENDBRANCH  14  15
ENDBRANCH  13  14
ENDBRANCH  12  13
ENDBRANCH   1  12
TORSDOF 16
ENDMDL
MODEL 2
REMARK VINA RESULT:    -4.639      1.954      3.892
REMARK INTER + INTRA:         -10.810
REMARK INTER:                  -8.601
REMARK INTRA:                  -2.208
REMARK UNBOUND:                -1.832
REMARK SMILES CCCCCCCCCCCCCCCCCC(=O)[O-]
REMARK SMILES IDX 10 1 11 2 12 3 13 4 14 5 15 6 16 7 17 8 18 9 19 10 20 11
REMARK SMILES IDX 9 12 8 13 7 14 6 15 5 16 4 17 3 18 2 19 1 20
REMARK H PARENT
REMARK Flexibility Score: inf
ROOT
ATOM      1  C   UNL     1       0.543  51.269  22.011  1.00  0.00     0.000 C 
ENDROOT
BRANCH   1   2
ATOM      2  C   UNL     1       1.814  50.625  21.436  1.00  0.00     0.000 C 
BRANCH   2   3
ATOM      3  C   UNL     1       2.043  49.229  22.039  1.00  0.00     0.000 C 
BRANCH   3   4
ATOM      4  C   UNL     1       1.107  48.167  21.440  1.00  0.00     0.000 C 
BRANCH   4   5
ATOM      5  C   UNL     1       0.327  47.392  22.517  1.00  0.00     0.000 C 
BRANCH   5   6
ATOM      6  C   UNL     1      -0.284  48.314  23.583  1.00  0.00     0.000 C 
BRANCH   6   7
ATOM      7  C   UNL     1      -0.560  47.584  24.907  1.00  0.00     0.006 C 
BRANCH   7   8
ATOM      8  C   UNL     1      -0.869  46.106  24.663  1.00  0.00     0.053 C 
BRANCH   8   9
ATOM      9  C   UNL     1      -2.348  45.885  24.585  1.00  0.00     0.041 C 
ATOM     10  O   UNL     1      -3.145  46.785  24.963  1.00  0.00    -0.550 OA
ATOM     11  O   UNL     1      -2.847  44.704  24.055  1.00  0.00    -0.550 OA
ENDBRANCH   8   9
ENDBRANCH   7   8
ENDBRANCH   6   7
ENDBRANCH   5   6
ENDBRANCH   4   5
ENDBRANCH   3   4
ENDBRANCH   2   3
ENDBRANCH   1   2
BRANCH   1  12
ATOM     12  C   UNL     1       0.700  52.783  22.221  1.00  0.00     0.000 C 
BRANCH  12  13
ATOM     13  C   UNL     1       2.134  53.272  21.951  1.00  0.00    -0.000 C 
BRANCH  13  14
ATOM     14  C   UNL     1       2.823  53.787  23.231  1.00  0.00    -0.000 C 
BRANCH  14  15
ATOM     15  C   UNL     1       3.072  52.691  24.286  1.00  0.00    -0.000 C 
BRANCH  15  16
ATOM     16  C   UNL     1       2.137  52.740  25.508  1.00  0.00    -0.000 C 
BRANCH  16  17
ATOM     17  C   UNL     1       1.661  51.345  25.951  1.00  0.00    -0.000 C 
BRANCH  17  18
ATOM     18  C   UNL     1       2.554  50.221  25.404  1.00  0.00    -0.000 C 
BRANCH  18  19
ATOM     19  C   UNL     1       2.549  48.972  26.298  1.00  0.00    -0.003 C 
ATOM     20  C   UNL     1       3.681  49.024  27.322  1.00  0.00     0.004 C 
ENDBRANCH  18  19
ENDBRANCH  17  18
ENDBRANCH  16  17
ENDBRANCH  15  16
ENDBRANCH  14  15
ENDBRANCH  13  14
ENDBRANCH  12  13
ENDBRANCH   1  12
TORSDOF 16
ENDMDL
MODEL 3
REMARK VINA RESULT:    -4.574      1.171      1.770
REMARK INTER + INTRA:         -10.684
REMARK INTER:                  -9.244
REMARK INTRA:                  -1.440
REMARK UNBOUND:                -1.832
REMARK SMILES CCCCCCCCCCCCCCCCCC(=O)[O-]
REMARK SMILES IDX 10 1 11 2 12 3 13 4 14 5 15 6 16 7 17 8 18 9 19 10 20 11
REMARK SMILES IDX 9 12 8 13 7 14 6 15 5 16 4 17 3 18 2 19 1 20
REMARK H PARENT
REMARK Flexibility Score: inf
ROOT
ATOM      1  C   UNL     1       0.891  48.008  21.697  1.00  0.00     0.000 C 
ENDROOT
BRANCH   1   2
ATOM      2  C   UNL     1       0.043  47.954  22.977  1.00  0.00     0.000 C 
BRANCH   2   3
ATOM      3  C   UNL     1      -0.489  46.534  23.224  1.00  0.00     0.000 C 
BRANCH   3   4
ATOM      4  C   UNL     1      -0.884  46.299  24.691  1.00  0.00     0.000 C 
BRANCH   4   5
ATOM      5  C   UNL     1      -2.406  46.364  24.912  1.00  0.00     0.000 C 
BRANCH   5   6
ATOM      6  C   UNL     1      -3.148  45.186  24.262  1.00  0.00     0.000 C 
BRANCH   6   7
ATOM      7  C   UNL     1      -4.659  45.214  24.539  1.00  0.00     0.006 C 
BRANCH   7   8
ATOM      8  C   UNL     1      -5.338  43.951  24.005  1.00  0.00     0.053 C 
BRANCH   8   9
ATOM      9  C   UNL     1      -6.497  43.571  24.873  1.00  0.00     0.041 C 
ATOM     10  O   UNL     1      -6.849  44.318  25.824  1.00  0.00    -0.550 OA
ATOM     11  O   UNL     1      -7.216  42.415  24.605  1.00  0.00    -0.550 OA
ENDBRANCH   8   9
ENDBRANCH   7   8
ENDBRANCH   6   7
ENDBRANCH   5   6
ENDBRANCH   4   5
ENDBRANCH   3   4
ENDBRANCH   2   3
ENDBRANCH   1   2
BRANCH   1  12
ATOM     12  C   UNL     1       2.124  48.912  21.851  1.00  0.00     0.000 C 
BRANCH  12  13
ATOM     13  C   UNL     1       1.802  50.398  21.619  1.00  0.00    -0.000 C 
BRANCH  13  14
ATOM     14  C   UNL     1       2.405  51.302  22.713  1.00  0.00    -0.000 C 
BRANCH  14  15
ATOM     15  C   UNL     1       1.349  51.966  23.620  1.00  0.00    -0.000 C 
BRANCH  15  16
ATOM     16  C   UNL     1       0.939  51.138  24.853  1.00  0.00    -0.000 C 
BRANCH  16  17
ATOM     17  C   UNL     1       2.067  50.222  25.359  1.00  0.00    -0.000 C 
BRANCH  17  18
ATOM     18  C   UNL     1       1.531  48.936  26.006  1.00  0.00    -0.000 C 
BRANCH  18  19
ATOM     19  C   UNL     1       2.590  48.211  26.850  1.00  0.00    -0.003 C 
ATOM     20  C   UNL     1       3.659  49.182  27.344  1.00  0.00     0.004 C 
ENDBRANCH  18  19
ENDBRANCH  17  18
ENDBRANCH  16  17
ENDBRANCH  15  16
ENDBRANCH  14  15
ENDBRANCH  13  14
ENDBRANCH  12  13
ENDBRANCH   1  12
TORSDOF 16
ENDMDL
MODEL 4
REMARK VINA RESULT:    -4.520      3.569      7.263
REMARK INTER + INTRA:         -10.581
REMARK INTER:                  -8.910
REMARK INTRA:                  -1.670
REMARK UNBOUND:                -1.832
REMARK SMILES CCCCCCCCCCCCCCCCCC(=O)[O-]
REMARK SMILES IDX 10 1 11 2 12 3 13 4 14 5 15 6 16 7 17 8 18 9 19 10 20 11
REMARK SMILES IDX 9 12 8 13 7 14 6 15 5 16 4 17 3 18 2 19 1 20
REMARK H PARENT
REMARK Flexibility Score: inf
ROOT
ATOM      1  C   UNL     1       0.780  50.656  21.842  1.00  0.00     0.000 C 
ENDROOT
BRANCH   1   2
ATOM      2  C   UNL     1       1.404  52.048  21.659  1.00  0.00     0.000 C 
BRANCH   2   3
ATOM      3  C   UNL     1       2.446  52.332  22.752  1.00  0.00     0.000 C 
BRANCH   3   4
ATOM      4  C   UNL     1       1.806  52.780  24.075  1.00  0.00     0.000 C 
BRANCH   4   5
ATOM      5  C   UNL     1       2.353  52.007  25.289  1.00  0.00     0.000 C 
BRANCH   5   6
ATOM      6  C   UNL     1       2.443  50.495  25.035  1.00  0.00     0.000 C 
BRANCH   6   7
ATOM      7  C   UNL     1       1.413  49.697  25.851  1.00  0.00     0.006 C 
BRANCH   7   8
ATOM      8  C   UNL     1       2.061  48.474  26.504  1.00  0.00     0.053 C 
BRANCH   8   9
ATOM      9  C   UNL     1       2.626  48.832  27.843  1.00  0.00     0.041 C 
ATOM     10  O   UNL     1       3.861  49.040  27.975  1.00  0.00    -0.550 OA
ATOM     11  O   UNL     1       1.783  48.979  28.936  1.00  0.00    -0.550 OA
ENDBRANCH   8   9
ENDBRANCH   7   8
ENDBRANCH   6   7
ENDBRANCH   5   6
ENDBRANCH   4   5
ENDBRANCH   3   4
ENDBRANCH   2   3
ENDBRANCH   1   2
BRANCH   1  12
ATOM     12  C   UNL     1       1.637  49.546  21.212  1.00  0.00     0.000 C 
BRANCH  12  13
ATOM     13  C   UNL     1       1.158  48.137  21.602  1.00  0.00    -0.000 C 
BRANCH  13  14
ATOM     14  C   UNL     1       0.303  48.147  22.886  1.00  0.00    -0.000 C 
BRANCH  14  15
ATOM     15  C   UNL     1      -0.420  46.814  23.160  1.00  0.00    -0.000 C 
BRANCH  15  16
ATOM     16  C   UNL     1      -0.547  46.437  24.648  1.00  0.00    -0.000 C 
BRANCH  16  17
ATOM     17  C   UNL     1      -2.005  46.431  25.139  1.00  0.00    -0.000 C 
BRANCH  17  18
ATOM     18  C   UNL     1      -2.851  45.350  24.448  1.00  0.00    -0.000 C 
BRANCH  18  19
ATOM     19  C   UNL     1      -4.354  45.665  24.477  1.00  0.00    -0.003 C 
ATOM     20  C   UNL     1      -5.187  44.388  24.402  1.00  0.00     0.004 C 
ENDBRANCH  18  19
ENDBRANCH  17  18
ENDBRANCH  16  17
ENDBRANCH  15  16
ENDBRANCH  14  15
ENDBRANCH  13  14
ENDBRANCH  12  13
ENDBRANCH   1  12
TORSDOF 16
ENDMDL
MODEL 5
REMARK VINA RESULT:    -4.508      3.511      7.743
REMARK INTER + INTRA:         -10.557
REMARK INTER:                  -9.062
REMARK INTRA:                  -1.495
REMARK UNBOUND:                -1.832
REMARK SMILES CCCCCCCCCCCCCCCCCC(=O)[O-]
REMARK SMILES IDX 10 1 11 2 12 3 13 4 14 5 15 6 16 7 17 8 18 9 19 10 20 11
REMARK SMILES IDX 9 12 8 13 7 14 6 15 5 16 4 17 3 18 2 19 1 20
REMARK H PARENT
REMARK Flexibility Score: inf
ROOT
ATOM      1  C   UNL     1       1.020  48.151  21.637  1.00  0.00     0.000 C 
ENDROOT
BRANCH   1   2
ATOM      2  C   UNL     1       2.123  49.212  21.771  1.00  0.00     0.000 C 
BRANCH   2   3
ATOM      3  C   UNL     1       1.538  50.629  21.661  1.00  0.00     0.000 C 
BRANCH   3   4
ATOM      4  C   UNL     1       2.295  51.648  22.528  1.00  0.00     0.000 C 
BRANCH   4   5
ATOM      5  C   UNL     1       1.537  52.007  23.819  1.00  0.00     0.000 C 
BRANCH   5   6
ATOM      6  C   UNL     1       2.201  51.425  25.075  1.00  0.00     0.000 C 
BRANCH   6   7
ATOM      7  C   UNL     1       1.502  50.153  25.579  1.00  0.00     0.006 C 
BRANCH   7   8
ATOM      8  C   UNL     1       2.505  49.012  25.761  1.00  0.00     0.053 C 
BRANCH   8   9
ATOM      9  C   UNL     1       2.962  48.938  27.185  1.00  0.00     0.041 C 
ATOM     10  O   UNL     1       4.192  48.940  27.457  1.00  0.00    -0.550 OA
ATOM     11  O   UNL     1       2.030  48.912  28.213  1.00  0.00    -0.550 OA
ENDBRANCH   8   9
ENDBRANCH   7   8
ENDBRANCH   6   7
ENDBRANCH   5   6
ENDBRANCH   4   5
ENDBRANCH   3   4
ENDBRANCH   2   3
ENDBRANCH   1   2
BRANCH   1  12
ATOM     12  C   UNL     1       0.214  47.980  22.934  1.00  0.00     0.000 C 
BRANCH  12  13
ATOM     13  C   UNL     1      -0.501  46.620  23.012  1.00  0.00    -0.000 C 
BRANCH  13  14
ATOM     14  C   UNL     1      -0.775  46.189  24.468  1.00  0.00    -0.000 C 
BRANCH  14  15
ATOM     15  C   UNL     1      -1.626  47.198  25.263  1.00  0.00    -0.000 C 
BRANCH  15  16
ATOM     16  C   UNL     1      -3.132  46.880  25.315  1.00  0.00    -0.000 C 
BRANCH  16  17
ATOM     17  C   UNL     1      -3.488  45.565  24.599  1.00  0.00    -0.000 C 
BRANCH  17  18
ATOM     18  C   UNL     1      -4.985  45.230  24.702  1.00  0.00    -0.000 C 
BRANCH  18  19
ATOM     19  C   UNL     1      -5.399  44.078  23.774  1.00  0.00    -0.003 C 
ATOM     20  C   UNL     1      -6.532  44.500  22.843  1.00  0.00     0.004 C 
ENDBRANCH  18  19
ENDBRANCH  17  18
ENDBRANCH  16  17
ENDBRANCH  15  16
ENDBRANCH  14  15
ENDBRANCH  13  14
ENDBRANCH  12  13
ENDBRANCH   1  12
TORSDOF 16
ENDMDL
MODEL 6
REMARK VINA RESULT:    -4.451      4.673      7.564
REMARK INTER + INTRA:         -10.447
REMARK INTER:                  -8.272
REMARK INTRA:                  -2.175
REMARK UNBOUND:                -1.832
REMARK SMILES CCCCCCCCCCCCCCCCCC(=O)[O-]
REMARK SMILES IDX 10 1 11 2 12 3 13 4 14 5 15 6 16 7 17 8 18 9 19 10 20 11
REMARK SMILES IDX 9 12 8 13 7 14 6 15 5 16 4 17 3 18 2 19 1 20
REMARK H PARENT
REMARK Flexibility Score: inf
ROOT
ATOM      1  C   UNL     1      -0.502  46.717  23.388  1.00  0.00     0.000 C 
ENDROOT
BRANCH   1   2
ATOM      2  C   UNL     1      -0.062  48.162  23.105  1.00  0.00     0.000 C 
BRANCH   2   3
ATOM      3  C   UNL     1       0.919  48.216  21.923  1.00  0.00     0.000 C 
BRANCH   3   4
ATOM      4  C   UNL     1       2.087  49.184  22.169  1.00  0.00     0.000 C 
BRANCH   4   5
ATOM      5  C   UNL     1       2.021  50.432  21.271  1.00  0.00     0.000 C 
BRANCH   5   6
ATOM      6  C   UNL     1       1.325  51.618  21.956  1.00  0.00     0.000 C 
BRANCH   6   7
ATOM      7  C   UNL     1       1.852  51.872  23.376  1.00  0.00     0.006 C 
BRANCH   7   8
ATOM      8  C   UNL     1       3.180  52.631  23.340  1.00  0.00     0.053 C 
BRANCH   8   9
ATOM      9  C   UNL     1       2.959  54.056  22.938  1.00  0.00     0.041 C 
ATOM     10  O   UNL     1       3.724  54.606  22.102  1.00  0.00    -0.550 OA
ATOM     11  O   UNL     1       1.881  54.763  23.451  1.00  0.00    -0.550 OA
ENDBRANCH   8   9
ENDBRANCH   7   8
ENDBRANCH   6   7
ENDBRANCH   5   6
ENDBRANCH   4   5
ENDBRANCH   3   4
ENDBRANCH   2   3
ENDBRANCH   1   2
BRANCH   1  12
ATOM     12  C   UNL     1      -0.903  46.506  24.856  1.00  0.00     0.000 C 
BRANCH  12  13
ATOM     13  C   UNL     1      -2.151  47.315  25.251  1.00  0.00    -0.000 C 
BRANCH  13  14
ATOM     14  C   UNL     1      -1.894  48.221  26.472  1.00  0.00    -0.000 C 
BRANCH  14  15
ATOM     15  C   UNL     1      -1.772  49.717  26.120  1.00  0.00    -0.000 C 
BRANCH  15  16
ATOM     16  C   UNL     1      -0.331  50.218  25.907  1.00  0.00    -0.000 C 
BRANCH  16  17
ATOM     17  C   UNL     1       0.710  49.384  26.674  1.00  0.00    -0.000 C 
BRANCH  17  18
ATOM     18  C   UNL     1       2.067  49.336  25.953  1.00  0.00    -0.000 C 
BRANCH  18  19
ATOM     19  C   UNL     1       3.098  48.468  26.689  1.00  0.00    -0.003 C 
ATOM     20  C   UNL     1       3.670  49.200  27.900  1.00  0.00     0.004 C 
ENDBRANCH  18  19
ENDBRANCH  17  18
ENDBRANCH  16  17
ENDBRANCH  15  16
ENDBRANCH  14  15
ENDBRANCH  13  14
ENDBRANCH  12  13
ENDBRANCH   1  12
TORSDOF 16
ENDMDL
MODEL 7
REMARK VINA RESULT:    -4.436      4.336      5.917
REMARK INTER + INTRA:         -10.417
REMARK INTER:                  -7.803
REMARK INTRA:                  -2.614
REMARK UNBOUND:                -1.832
REMARK SMILES CCCCCCCCCCCCCCCCCC(=O)[O-]
REMARK SMILES IDX 10 1 11 2 12 3 13 4 14 5 15 6 16 7 17 8 18 9 19 10 20 11
REMARK SMILES IDX 9 12 8 13 7 14 6 15 5 16 4 17 3 18 2 19 1 20
REMARK H PARENT
REMARK Flexibility Score: inf
ROOT
ATOM      1  C   UNL     1       2.194  49.118  21.791  1.00  0.00     0.000 C 
ENDROOT
BRANCH   1   2
ATOM      2  C   UNL     1       1.068  48.079  21.674  1.00  0.00     0.000 C 
BRANCH   2   3
ATOM      3  C   UNL     1      -0.015  48.322  22.737  1.00  0.00     0.000 C 
BRANCH   3   4
ATOM      4  C   UNL     1      -0.243  47.096  23.638  1.00  0.00     0.000 C 
BRANCH   4   5
ATOM      5  C   UNL     1      -0.137  47.435  25.136  1.00  0.00     0.000 C 
BRANCH   5   6
ATOM      6  C   UNL     1       0.307  48.885  25.384  1.00  0.00     0.000 C 
BRANCH   6   7
ATOM      7  C   UNL     1       1.835  49.034  25.437  1.00  0.00     0.006 C 
BRANCH   7   8
ATOM      8  C   UNL     1       2.250  50.051  26.502  1.00  0.00     0.053 C 
BRANCH   8   9
ATOM      9  C   UNL     1       2.836  49.356  27.691  1.00  0.00     0.041 C 
ATOM     10  O   UNL     1       2.087  48.922  28.606  1.00  0.00    -0.550 OA
ATOM     11  O   UNL     1       4.207  49.148  27.768  1.00  0.00    -0.550 OA
ENDBRANCH   8   9
ENDBRANCH   7   8
ENDBRANCH   6   7
ENDBRANCH   5   6
ENDBRANCH   4   5
ENDBRANCH   3   4
ENDBRANCH   2   3
ENDBRANCH   1   2
BRANCH   1  12
ATOM     12  C   UNL     1       1.668  50.560  21.721  1.00  0.00     0.000 C 
BRANCH  12  13
ATOM     13  C   UNL     1       2.381  51.498  22.711  1.00  0.00    -0.000 C 
BRANCH  13  14
ATOM     14  C   UNL     1       2.153  52.985  22.369  1.00  0.00    -0.000 C 
BRANCH  14  15
ATOM     15  C   UNL     1       1.431  53.209  21.025  1.00  0.00    -0.000 C 
BRANCH  15  16
ATOM     16  C   UNL     1       0.099  53.974  21.122  1.00  0.00    -0.000 C 
BRANCH  16  17
ATOM     17  C   UNL     1      -0.597  53.790  22.483  1.00  0.00    -0.000 C 
BRANCH  17  18
ATOM     18  C   UNL     1      -1.544  52.580  22.497  1.00  0.00    -0.000 C 
BRANCH  18  19
ATOM     19  C   UNL     1      -1.403  51.731  23.768  1.00  0.00    -0.003 C 
ATOM     20  C   UNL     1      -0.594  52.467  24.834  1.00  0.00     0.004 C 
ENDBRANCH  18  19
ENDBRANCH  17  18
ENDBRANCH  16  17
ENDBRANCH  15  16
ENDBRANCH  14  15
ENDBRANCH  13  14
ENDBRANCH  12  13
ENDBRANCH   1  12
TORSDOF 16
ENDMDL
MODEL 8
REMARK VINA RESULT:    -4.411      4.338      6.843
REMARK INTER + INTRA:         -10.368
REMARK INTER:                  -8.250
REMARK INTRA:                  -2.119
REMARK UNBOUND:                -1.832
REMARK SMILES CCCCCCCCCCCCCCCCCC(=O)[O-]
REMARK SMILES IDX 10 1 11 2 12 3 13 4 14 5 15 6 16 7 17 8 18 9 19 10 20 11
REMARK SMILES IDX 9 12 8 13 7 14 6 15 5 16 4 17 3 18 2 19 1 20
REMARK H PARENT
REMARK Flexibility Score: inf
ROOT
ATOM      1  C   UNL     1      -0.658  46.975  25.224  1.00  0.00     0.000 C 
ENDROOT
BRANCH   1   2
ATOM      2  C   UNL     1      -1.167  46.084  24.082  1.00  0.00     0.000 C 
BRANCH   2   3
ATOM      3  C   UNL     1      -0.481  46.445  22.755  1.00  0.00     0.000 C 
BRANCH   3   4
ATOM      4  C   UNL     1       0.217  47.814  22.805  1.00  0.00     0.000 C 
BRANCH   4   5
ATOM      5  C   UNL     1       1.090  48.080  21.565  1.00  0.00     0.000 C 
BRANCH   5   6
ATOM      6  C   UNL     1       1.918  49.367  21.691  1.00  0.00     0.000 C 
BRANCH   6   7
ATOM      7  C   UNL     1       1.099  50.546  22.237  1.00  0.00     0.006 C 
BRANCH   7   8
ATOM      8  C   UNL     1       1.451  51.844  21.506  1.00  0.00     0.053 C 
BRANCH   8   9
ATOM      9  C   UNL     1       2.080  52.822  22.448  1.00  0.00     0.041 C 
ATOM     10  O   UNL     1       2.302  52.498  23.645  1.00  0.00    -0.550 OA
ATOM     11  O   UNL     1       2.461  54.077  21.994  1.00  0.00    -0.550 OA
ENDBRANCH   8   9
ENDBRANCH   7   8
ENDBRANCH   6   7
ENDBRANCH   5   6
ENDBRANCH   4   5
ENDBRANCH   3   4
ENDBRANCH   2   3
ENDBRANCH   1   2
BRANCH   1  12
ATOM     12  C   UNL     1      -1.790  47.770  25.894  1.00  0.00     0.000 C 
BRANCH  12  13
ATOM     13  C   UNL     1      -1.478  49.273  25.995  1.00  0.00    -0.000 C 
BRANCH  13  14
ATOM     14  C   UNL     1      -0.152  49.544  26.735  1.00  0.00    -0.000 C 
BRANCH  14  15
ATOM     15  C   UNL     1       0.949  50.143  25.836  1.00  0.00    -0.000 C 
BRANCH  15  16
ATOM     16  C   UNL     1       2.217  49.280  25.699  1.00  0.00    -0.000 C 
BRANCH  16  17
ATOM     17  C   UNL     1       2.567  48.525  26.994  1.00  0.00    -0.000 C 
BRANCH  17  18
ATOM     18  C   UNL     1       3.853  49.054  27.649  1.00  0.00    -0.000 C 
BRANCH  18  19
ATOM     19  C   UNL     1       3.577  49.876  28.917  1.00  0.00    -0.003 C 
ATOM     20  C   UNL     1       2.208  49.541  29.503  1.00  0.00     0.004 C 
ENDBRANCH  18  19
ENDBRANCH  17  18
ENDBRANCH  16  17
ENDBRANCH  15  16
ENDBRANCH  14  15
ENDBRANCH  13  14
ENDBRANCH  12  13
ENDBRANCH   1  12
TORSDOF 16
ENDMDL
MODEL 9
REMARK VINA RESULT:    -4.401      1.214      1.599
REMARK INTER + INTRA:         -10.349
REMARK INTER:                  -8.616
REMARK INTRA:                  -1.734
REMARK UNBOUND:                -1.832
REMARK SMILES CCCCCCCCCCCCCCCCCC(=O)[O-]
REMARK SMILES IDX 10 1 11 2 12 3 13 4 14 5 15 6 16 7 17 8 18 9 19 10 20 11
REMARK SMILES IDX 9 12 8 13 7 14 6 15 5 16 4 17 3 18 2 19 1 20
REMARK H PARENT
REMARK Flexibility Score: inf
ROOT
ATOM      1  C   UNL     1      -0.195  48.494  23.438  1.00  0.00     0.000 C 
ENDROOT
BRANCH   1   2
ATOM      2  C   UNL     1      -0.650  47.813  24.738  1.00  0.00     0.000 C 
BRANCH   2   3
ATOM      3  C   UNL     1      -0.516  46.286  24.635  1.00  0.00     0.000 C 
BRANCH   3   4
ATOM      4  C   UNL     1      -1.877  45.581  24.519  1.00  0.00     0.000 C 
BRANCH   4   5
ATOM      5  C   UNL     1      -3.000  46.336  25.253  1.00  0.00     0.000 C 
BRANCH   5   6
ATOM      6  C   UNL     1      -4.365  46.179  24.567  1.00  0.00     0.000 C 
BRANCH   6   7
ATOM      7  C   UNL     1      -4.815  44.712  24.476  1.00  0.00     0.006 C 
BRANCH   7   8
ATOM      8  C   UNL     1      -6.294  44.616  24.093  1.00  0.00     0.053 C 
BRANCH   8   9
ATOM      9  C   UNL     1      -7.015  43.687  25.019  1.00  0.00     0.041 C 
ATOM     10  O   UNL     1      -7.408  44.092  26.145  1.00  0.00    -0.550 OA
ATOM     11  O   UNL     1      -7.293  42.387  24.621  1.00  0.00    -0.550 OA
ENDBRANCH   8   9
ENDBRANCH   7   8
ENDBRANCH   6   7
ENDBRANCH   5   6
ENDBRANCH   4   5
ENDBRANCH   3   4
ENDBRANCH   2   3
ENDBRANCH   1   2
BRANCH   1  12
ATOM     12  C   UNL     1       0.278  47.481  22.384  1.00  0.00     0.000 C 
BRANCH  12  13
ATOM     13  C   UNL     1       1.204  48.113  21.330  1.00  0.00    -0.000 C 
BRANCH  13  14
ATOM     14  C   UNL     1       2.136  49.180  21.939  1.00  0.00    -0.000 C 
BRANCH  14  15
ATOM     15  C   UNL     1       1.846  50.611  21.444  1.00  0.00    -0.000 C 
BRANCH  15  16
ATOM     16  C   UNL     1       2.165  51.726  22.458  1.00  0.00    -0.000 C 
BRANCH  16  17
ATOM     17  C   UNL     1       0.961  52.087  23.345  1.00  0.00    -0.000 C 
BRANCH  17  18
ATOM     18  C   UNL     1       1.122  51.579  24.787  1.00  0.00    -0.000 C 
BRANCH  18  19
ATOM     19  C   UNL     1       2.540  51.065  25.078  1.00  0.00    -0.003 C 
ATOM     20  C   UNL     1       2.505  49.658  25.670  1.00  0.00     0.004 C 
ENDBRANCH  18  19
ENDBRANCH  17  18
ENDBRANCH  16  17
ENDBRANCH  15  16
ENDBRANCH  14  15
ENDBRANCH  13  14
ENDBRANCH  12  13
ENDBRANCH   1  12
TORSDOF 16
ENDMDL
