MODEL 1
REMARK VINA RESULT:     3.482      0.000      0.000
REMARK INTER + INTRA:           3.925
REMARK INTER:                   4.093
REMARK INTRA:                  -0.168
REMARK UNBOUND:                -0.168
REMARK SMILES O=c1c(O)c(-c2ccc(O)cc2)oc2cc(O)cc(O)c12
REMARK SMILES IDX 5 1 3 2 2 3 1 4 21 5 19 6 18 7 16 8 15 9 14 10 13 11 6 12
REMARK SMILES IDX 7 13 8 14 9 15 12 16 11 17 10 18 4 20 20 22 17 24
REMARK H PARENT 10 19 4 21 20 23 17 25
REMARK Flexibility Score: inf
ROOT
ATOM      1  C   UNL     1       0.586  60.202  -3.138  1.00  0.00     0.180 A 
ATOM      2  C   UNL     1      -0.722  60.012  -3.626  1.00  0.00     0.208 A 
ATOM      3  C   UNL     1      -0.897  59.641  -4.968  1.00  0.00     0.238 A 
ATOM      4  O   UNL     1      -2.064  59.479  -5.419  1.00  0.00    -0.285 OA
ATOM      5  C   UNL     1       0.231  59.448  -5.791  1.00  0.00     0.111 A 
ATOM      6  C   UNL     1       0.140  59.071  -7.153  1.00  0.00     0.134 A 
ATOM      7  C   UNL     1       1.311  58.889  -7.903  1.00  0.00     0.093 A 
ATOM      8  C   UNL     1       2.567  59.076  -7.322  1.00  0.00     0.123 A 
ATOM      9  C   UNL     1       2.663  59.450  -5.977  1.00  0.00     0.094 A 
ATOM     10  C   UNL     1       1.508  59.637  -5.212  1.00  0.00     0.146 A 
ATOM     11  O   UNL     1       1.627  59.997  -3.940  1.00  0.00    -0.452 OA
ENDROOT
BRANCH   1  12
ATOM     12  C   UNL     1       0.853  60.612  -1.739  1.00  0.00     0.021 A 
ATOM     13  C   UNL     1       1.332  61.906  -1.479  1.00  0.00     0.016 A 
ATOM     14  C   UNL     1       1.571  62.322  -0.165  1.00  0.00     0.047 A 
ATOM     15  C   UNL     1       1.318  61.457   0.903  1.00  0.00     0.115 A 
ATOM     16  C   UNL     1       0.582  59.753  -0.659  1.00  0.00     0.016 A 
ATOM     17  C   UNL     1       0.821  60.171   0.654  1.00  0.00     0.047 A 
BRANCH  15  18
ATOM     18  O   UNL     1       1.561  61.884   2.206  1.00  0.00    -0.508 OA
ATOM     19  H   UNL     1       1.563  62.869   2.449  1.00  0.00     0.293 HD
ENDBRANCH  15  18
ENDBRANCH   1  12
BRANCH   2  20
ATOM     20  O   UNL     1      -1.821  60.162  -2.776  1.00  0.00    -0.502 OA
ATOM     21  H   UNL     1      -2.021  59.509  -2.027  1.00  0.00     0.293 HD
ENDBRANCH   2  20
BRANCH   6  22
ATOM     22  O   UNL     1      -1.099  58.875  -7.763  1.00  0.00    -0.507 OA
ATOM     23  H   UNL     1      -1.957  58.824  -7.226  1.00  0.00     0.293 HD
ENDBRANCH   6  22
BRANCH   8  24
ATOM     24  O   UNL     1       3.715  58.888  -8.089  1.00  0.00    -0.508 OA
ATOM     25  H   UNL     1       4.628  59.172  -7.754  1.00  0.00     0.293 HD
ENDBRANCH   8  24
TORSDOF 5
ENDMDL
MODEL 2
REMARK VINA RESULT:     4.299      2.822      6.111
REMARK INTER + INTRA:           4.884
REMARK INTER:                   4.711
REMARK INTRA:                   0.174
REMARK UNBOUND:                -0.168
REMARK SMILES O=c1c(O)c(-c2ccc(O)cc2)oc2cc(O)cc(O)c12
REMARK SMILES IDX 5 1 3 2 2 3 1 4 21 5 19 6 18 7 16 8 15 9 14 10 13 11 6 12
REMARK SMILES IDX 7 13 8 14 9 15 12 16 11 17 10 18 4 20 20 22 17 24
REMARK H PARENT 10 19 4 21 20 23 17 25
REMARK Flexibility Score: inf
ROOT
ATOM      1  C   UNL     1      -0.132  59.424  -5.829  1.00  0.00     0.180 A 
ATOM      2  C   UNL     1      -1.262  59.368  -6.668  1.00  0.00     0.208 A 
ATOM      3  C   UNL     1      -2.530  59.210  -6.089  1.00  0.00     0.238 A 
ATOM      4  O   UNL     1      -3.547  59.147  -6.831  1.00  0.00    -0.285 OA
ATOM      5  C   UNL     1      -2.651  59.131  -4.686  1.00  0.00     0.111 A 
ATOM      6  C   UNL     1      -3.893  58.975  -4.024  1.00  0.00     0.134 A 
ATOM      7  C   UNL     1      -3.931  58.915  -2.623  1.00  0.00     0.093 A 
ATOM      8  C   UNL     1      -2.756  59.007  -1.873  1.00  0.00     0.123 A 
ATOM      9  C   UNL     1      -1.526  59.159  -2.522  1.00  0.00     0.094 A 
ATOM     10  C   UNL     1      -1.467  59.220  -3.918  1.00  0.00     0.146 A 
ATOM     11  O   UNL     1      -0.286  59.361  -4.509  1.00  0.00    -0.452 OA
ENDROOT
BRANCH   1  12
ATOM     12  C   UNL     1       1.241  59.569  -6.364  1.00  0.00     0.021 A 
ATOM     13  C   UNL     1       2.188  60.314  -5.643  1.00  0.00     0.016 A 
ATOM     14  C   UNL     1       3.497  60.447  -6.119  1.00  0.00     0.047 A 
ATOM     15  C   UNL     1       3.878  59.825  -7.312  1.00  0.00     0.115 A 
ATOM     16  C   UNL     1       1.636  58.930  -7.554  1.00  0.00     0.016 A 
ATOM     17  C   UNL     1       2.945  59.064  -8.027  1.00  0.00     0.047 A 
BRANCH  15  18
ATOM     18  O   UNL     1       5.184  59.967  -7.774  1.00  0.00    -0.508 OA
ATOM     19  H   UNL     1       5.885  59.253  -7.608  1.00  0.00     0.293 HD
ENDBRANCH  15  18
ENDBRANCH   1  12
BRANCH   2  20
ATOM     20  O   UNL     1      -1.119  59.497  -8.052  1.00  0.00    -0.502 OA
ATOM     21  H   UNL     1      -0.990  60.396  -8.503  1.00  0.00     0.293 HD
ENDBRANCH   2  20
BRANCH   6  22
ATOM     22  O   UNL     1      -5.085  58.882  -4.744  1.00  0.00    -0.507 OA
ATOM     23  H   UNL     1      -5.164  59.230  -5.692  1.00  0.00     0.293 HD
ENDBRANCH   6  22
BRANCH   8  24
ATOM     24  O   UNL     1      -2.821  58.944  -0.483  1.00  0.00    -0.508 OA
ATOM     25  H   UNL     1      -2.309  58.244   0.040  1.00  0.00     0.293 HD
ENDBRANCH   8  24
TORSDOF 5
ENDMDL
MODEL 3
REMARK VINA RESULT:     4.466      1.481      3.400
REMARK INTER + INTRA:           5.081
REMARK INTER:                   5.328
REMARK INTRA:                  -0.247
REMARK UNBOUND:                -0.168
REMARK SMILES O=c1c(O)c(-c2ccc(O)cc2)oc2cc(O)cc(O)c12
REMARK SMILES IDX 5 1 3 2 2 3 1 4 21 5 19 6 18 7 16 8 15 9 14 10 13 11 6 12
REMARK SMILES IDX 7 13 8 14 9 15 12 16 11 17 10 18 4 20 20 22 17 24
REMARK H PARENT 10 19 4 21 20 23 17 25
REMARK Flexibility Score: inf
ROOT
ATOM      1  C   UNL     1       0.146  60.367  -3.030  1.00  0.00     0.180 A 
ATOM      2  C   UNL     1       1.018  59.985  -4.068  1.00  0.00     0.208 A 
ATOM      3  C   UNL     1       0.474  59.614  -5.308  1.00  0.00     0.238 A 
ATOM      4  O   UNL     1       1.244  59.259  -6.241  1.00  0.00    -0.285 OA
ATOM      5  C   UNL     1      -0.923  59.650  -5.495  1.00  0.00     0.111 A 
ATOM      6  C   UNL     1      -1.549  59.295  -6.714  1.00  0.00     0.134 A 
ATOM      7  C   UNL     1      -2.946  59.367  -6.825  1.00  0.00     0.093 A 
ATOM      8  C   UNL     1      -3.726  59.785  -5.744  1.00  0.00     0.123 A 
ATOM      9  C   UNL     1      -3.113  60.135  -4.537  1.00  0.00     0.094 A 
ATOM     10  C   UNL     1      -1.722  60.069  -4.406  1.00  0.00     0.146 A 
ATOM     11  O   UNL     1      -1.166  60.403  -3.248  1.00  0.00    -0.452 OA
ENDROOT
BRANCH   1  12
ATOM     12  C   UNL     1       0.641  60.753  -1.688  1.00  0.00     0.021 A 
ATOM     13  C   UNL     1       1.167  62.039  -1.490  1.00  0.00     0.016 A 
ATOM     14  C   UNL     1       1.620  62.433  -0.227  1.00  0.00     0.047 A 
ATOM     15  C   UNL     1       1.538  61.552   0.856  1.00  0.00     0.115 A 
ATOM     16  C   UNL     1       0.543  59.877  -0.590  1.00  0.00     0.016 A 
ATOM     17  C   UNL     1       0.996  60.273   0.672  1.00  0.00     0.047 A 
BRANCH  15  18
ATOM     18  O   UNL     1       1.994  61.957   2.108  1.00  0.00    -0.508 OA
ATOM     19  H   UNL     1       1.369  62.019   2.905  1.00  0.00     0.293 HD
ENDBRANCH  15  18
ENDBRANCH   1  12
BRANCH   2  20
ATOM     20  O   UNL     1       2.401  60.005  -3.871  1.00  0.00    -0.502 OA
ATOM     21  H   UNL     1       2.822  60.311  -3.002  1.00  0.00     0.293 HD
ENDBRANCH   2  20
BRANCH   6  22
ATOM     22  O   UNL     1      -0.798  58.875  -7.813  1.00  0.00    -0.507 OA
ATOM     23  H   UNL     1       0.019  58.286  -7.707  1.00  0.00     0.293 HD
ENDBRANCH   6  22
BRANCH   8  24
ATOM     24  O   UNL     1      -5.111  59.847  -5.880  1.00  0.00    -0.508 OA
ATOM     25  H   UNL     1      -5.567  59.636  -6.760  1.00  0.00     0.293 HD
ENDBRANCH   8  24
TORSDOF 5
ENDMDL
