MODEL 1
REMARK VINA RESULT:    -6.863      0.000      0.000
REMARK INTER + INTRA:          -8.549
REMARK INTER:                  -8.268
REMARK INTRA:                  -0.281
REMARK UNBOUND:                -0.281
REMARK SMILES O=c1c(O)c(-c2ccc(O)c(O)c2)oc2cc(O)cc(O)c12
REMARK SMILES IDX 5 1 3 2 2 3 1 4 22 5 20 6 19 7 17 8 16 9 15 10 14 11 6 12
REMARK SMILES IDX 7 13 8 14 9 15 13 16 11 17 10 18 12 20 4 22 21 24 18 26
REMARK H PARENT 10 19 12 21 4 23 21 25 18 27
REMARK Flexibility Score: inf
ROOT
ATOM      1  C   UNL     1      -0.530   3.424  12.955  1.00  0.00     0.180 A 
ATOM      2  C   UNL     1       0.500   4.019  13.704  1.00  0.00     0.208 A 
ATOM      3  C   UNL     1       0.956   5.296  13.341  1.00  0.00     0.238 A 
ATOM      4  O   UNL     1       1.915   5.800  13.982  1.00  0.00    -0.285 OA
ATOM      5  C   UNL     1       0.367   5.969  12.243  1.00  0.00     0.111 A 
ATOM      6  C   UNL     1       0.724   7.282  11.811  1.00  0.00     0.134 A 
ATOM      7  C   UNL     1       0.166   7.797  10.634  1.00  0.00     0.093 A 
ATOM      8  C   UNL     1      -0.781   7.074   9.910  1.00  0.00     0.123 A 
ATOM      9  C   UNL     1      -1.181   5.815  10.356  1.00  0.00     0.094 A 
ATOM     10  C   UNL     1      -0.616   5.258  11.507  1.00  0.00     0.146 A 
ATOM     11  O   UNL     1      -1.017   4.053  11.891  1.00  0.00    -0.452 OA
ENDROOT
BRANCH   1  12
ATOM     12  C   UNL     1      -1.081   2.091  13.291  1.00  0.00     0.025 A 
ATOM     13  C   UNL     1      -1.947   1.912  14.385  1.00  0.00     0.016 A 
ATOM     14  C   UNL     1      -2.474   0.651  14.668  1.00  0.00     0.051 A 
ATOM     15  C   UNL     1      -2.156  -0.448  13.859  1.00  0.00     0.157 A 
ATOM     16  C   UNL     1      -0.783   0.992  12.470  1.00  0.00     0.062 A 
ATOM     17  C   UNL     1      -1.309  -0.274  12.753  1.00  0.00     0.158 A 
BRANCH  15  18
ATOM     18  O   UNL     1      -2.682  -1.706  14.147  1.00  0.00    -0.504 OA
ATOM     19  H   UNL     1      -3.667  -1.836  14.350  1.00  0.00     0.293 HD
ENDBRANCH  15  18
BRANCH  17  20
ATOM     20  O   UNL     1      -0.979  -1.345  11.923  1.00  0.00    -0.504 OA
ATOM     21  H   UNL     1      -1.499  -1.552  11.078  1.00  0.00     0.293 HD
ENDBRANCH  17  20
ENDBRANCH   1  12
BRANCH   2  22
ATOM     22  O   UNL     1       1.082   3.328  14.770  1.00  0.00    -0.502 OA
ATOM     23  H   UNL     1       1.761   3.755  15.390  1.00  0.00     0.293 HD
ENDBRANCH   2  22
BRANCH   6  24
ATOM     24  O   UNL     1       1.592   8.125  12.511  1.00  0.00    -0.507 OA
ATOM     25  H   UNL     1       2.489   8.436  12.171  1.00  0.00     0.293 HD
ENDBRANCH   6  24
BRANCH   8  26
ATOM     26  O   UNL     1      -1.326   7.624   8.752  1.00  0.00    -0.508 OA
ATOM     27  H   UNL     1      -2.249   8.043   8.747  1.00  0.00     0.293 HD
ENDBRANCH   8  26
TORSDOF 6
ENDMDL
MODEL 2
REMARK VINA RESULT:    -6.604      1.202      2.975
REMARK INTER + INTRA:          -8.236
REMARK INTER:                  -7.976
REMARK INTRA:                  -0.260
REMARK UNBOUND:                -0.281
REMARK SMILES O=c1c(O)c(-c2ccc(O)c(O)c2)oc2cc(O)cc(O)c12
REMARK SMILES IDX 5 1 3 2 2 3 1 4 22 5 20 6 19 7 17 8 16 9 15 10 14 11 6 12
REMARK SMILES IDX 7 13 8 14 9 15 13 16 11 17 10 18 12 20 4 22 21 24 18 26
REMARK H PARENT 10 19 12 21 4 23 21 25 18 27
REMARK Flexibility Score: inf
ROOT
ATOM      1  C   UNL     1      -0.622   3.580  12.857  1.00  0.00     0.180 A 
ATOM      2  C   UNL     1      -1.154   4.328  11.793  1.00  0.00     0.208 A 
ATOM      3  C   UNL     1      -0.592   5.579  11.492  1.00  0.00     0.238 A 
ATOM      4  O   UNL     1      -1.108   6.268  10.574  1.00  0.00    -0.285 OA
ATOM      5  C   UNL     1       0.504   6.060  12.249  1.00  0.00     0.111 A 
ATOM      6  C   UNL     1       1.176   7.295  12.007  1.00  0.00     0.134 A 
ATOM      7  C   UNL     1       2.164   7.730  12.899  1.00  0.00     0.093 A 
ATOM      8  C   UNL     1       2.548   6.946  13.987  1.00  0.00     0.123 A 
ATOM      9  C   UNL     1       1.939   5.710  14.199  1.00  0.00     0.094 A 
ATOM     10  C   UNL     1       0.924   5.265  13.347  1.00  0.00     0.146 A 
ATOM     11  O   UNL     1       0.363   4.086  13.589  1.00  0.00    -0.452 OA
ENDROOT
BRANCH   1  12
ATOM     12  C   UNL     1      -1.144   2.242  13.219  1.00  0.00     0.025 A 
ATOM     13  C   UNL     1      -1.981   2.060  14.334  1.00  0.00     0.016 A 
ATOM     14  C   UNL     1      -2.481   0.792  14.641  1.00  0.00     0.051 A 
ATOM     15  C   UNL     1      -2.164  -0.308  13.835  1.00  0.00     0.157 A 
ATOM     16  C   UNL     1      -0.847   1.140  12.401  1.00  0.00     0.062 A 
ATOM     17  C   UNL     1      -1.346  -0.132  12.707  1.00  0.00     0.158 A 
BRANCH  15  18
ATOM     18  O   UNL     1      -2.663  -1.572  14.146  1.00  0.00    -0.504 OA
ATOM     19  H   UNL     1      -3.486  -1.690  14.726  1.00  0.00     0.293 HD
ENDBRANCH  15  18
BRANCH  17  20
ATOM     20  O   UNL     1      -1.018  -1.205  11.879  1.00  0.00    -0.504 OA
ATOM     21  H   UNL     1      -0.061  -1.410  11.617  1.00  0.00     0.293 HD
ENDBRANCH  17  20
ENDBRANCH   1  12
BRANCH   2  22
ATOM     22  O   UNL     1      -2.250   3.845  11.073  1.00  0.00    -0.502 OA
ATOM     23  H   UNL     1      -2.731   4.401  10.376  1.00  0.00     0.293 HD
ENDBRANCH   2  22
BRANCH   6  24
ATOM     24  O   UNL     1       0.934   8.112  10.898  1.00  0.00    -0.507 OA
ATOM     25  H   UNL     1       0.044   8.535  10.681  1.00  0.00     0.293 HD
ENDBRANCH   6  24
BRANCH   8  26
ATOM     26  O   UNL     1       3.545   7.404  14.845  1.00  0.00    -0.508 OA
ATOM     27  H   UNL     1       3.506   8.329  15.257  1.00  0.00     0.293 HD
ENDBRANCH   8  26
TORSDOF 6
ENDMDL
MODEL 3
REMARK VINA RESULT:    -6.505      1.891      2.519
REMARK INTER + INTRA:          -8.117
REMARK INTER:                  -7.788
REMARK INTRA:                  -0.329
REMARK UNBOUND:                -0.281
REMARK SMILES O=c1c(O)c(-c2ccc(O)c(O)c2)oc2cc(O)cc(O)c12
REMARK SMILES IDX 5 1 3 2 2 3 1 4 22 5 20 6 19 7 17 8 16 9 15 10 14 11 6 12
REMARK SMILES IDX 7 13 8 14 9 15 13 16 11 17 10 18 12 20 4 22 21 24 18 26
REMARK H PARENT 10 19 12 21 4 23 21 25 18 27
REMARK Flexibility Score: inf
ROOT
ATOM      1  C   UNL     1      -1.629   3.479  12.031  1.00  0.00     0.180 A 
ATOM      2  C   UNL     1      -0.491   4.277  11.825  1.00  0.00     0.208 A 
ATOM      3  C   UNL     1      -0.623   5.483  11.119  1.00  0.00     0.238 A 
ATOM      4  O   UNL     1       0.409   6.166  10.891  1.00  0.00    -0.285 OA
ATOM      5  C   UNL     1      -1.895   5.883  10.640  1.00  0.00     0.111 A 
ATOM      6  C   UNL     1      -2.151   7.104   9.946  1.00  0.00     0.134 A 
ATOM      7  C   UNL     1      -3.421   7.336   9.404  1.00  0.00     0.093 A 
ATOM      8  C   UNL     1      -4.460   6.423   9.585  1.00  0.00     0.123 A 
ATOM      9  C   UNL     1      -4.235   5.254  10.313  1.00  0.00     0.094 A 
ATOM     10  C   UNL     1      -2.969   4.977  10.835  1.00  0.00     0.146 A 
ATOM     11  O   UNL     1      -2.795   3.849  11.512  1.00  0.00    -0.452 OA
ENDROOT
BRANCH   1  12
ATOM     12  C   UNL     1      -1.574   2.207  12.788  1.00  0.00     0.025 A 
ATOM     13  C   UNL     1      -1.811   2.169  14.173  1.00  0.00     0.016 A 
ATOM     14  C   UNL     1      -1.778   0.955  14.862  1.00  0.00     0.051 A 
ATOM     15  C   UNL     1      -1.522  -0.240  14.178  1.00  0.00     0.157 A 
ATOM     16  C   UNL     1      -1.340   1.004  12.103  1.00  0.00     0.062 A 
ATOM     17  C   UNL     1      -1.305  -0.214  12.790  1.00  0.00     0.158 A 
BRANCH  15  18
ATOM     18  O   UNL     1      -1.487  -1.451  14.869  1.00  0.00    -0.504 OA
ATOM     19  H   UNL     1      -2.333  -1.970  15.072  1.00  0.00     0.293 HD
ENDBRANCH  15  18
BRANCH  17  20
ATOM     20  O   UNL     1      -1.055  -1.387  12.078  1.00  0.00    -0.504 OA
ATOM     21  H   UNL     1      -0.114  -1.707  11.881  1.00  0.00     0.293 HD
ENDBRANCH  17  20
ENDBRANCH   1  12
BRANCH   2  22
ATOM     22  O   UNL     1       0.757   3.853  12.288  1.00  0.00    -0.502 OA
ATOM     23  H   UNL     1       1.627   4.166  11.872  1.00  0.00     0.293 HD
ENDBRANCH   2  22
BRANCH   6  24
ATOM     24  O   UNL     1      -1.210   8.125   9.787  1.00  0.00    -0.507 OA
ATOM     25  H   UNL     1      -0.221   7.978   9.645  1.00  0.00     0.293 HD
ENDBRANCH   6  24
BRANCH   8  26
ATOM     26  O   UNL     1      -5.715   6.693   9.045  1.00  0.00    -0.508 OA
ATOM     27  H   UNL     1      -5.818   7.158   8.150  1.00  0.00     0.293 HD
ENDBRANCH   8  26
TORSDOF 6
ENDMDL
MODEL 4
REMARK VINA RESULT:    -6.293      1.671      1.679
REMARK INTER + INTRA:          -7.862
REMARK INTER:                  -7.550
REMARK INTRA:                  -0.312
REMARK UNBOUND:                -0.281
REMARK SMILES O=c1c(O)c(-c2ccc(O)c(O)c2)oc2cc(O)cc(O)c12
REMARK SMILES IDX 5 1 3 2 2 3 1 4 22 5 20 6 19 7 17 8 16 9 15 10 14 11 6 12
REMARK SMILES IDX 7 13 8 14 9 15 13 16 11 17 10 18 12 20 4 22 21 24 18 26
REMARK H PARENT 10 19 12 21 4 23 21 25 18 27
REMARK Flexibility Score: inf
ROOT
ATOM      1  C   UNL     1      -0.989   3.115  13.685  1.00  0.00     0.180 A 
ATOM      2  C   UNL     1       0.138   3.714  14.274  1.00  0.00     0.208 A 
ATOM      3  C   UNL     1       0.276   5.109  14.218  1.00  0.00     0.238 A 
ATOM      4  O   UNL     1       1.315   5.633  14.698  1.00  0.00    -0.285 OA
ATOM      5  C   UNL     1      -0.721   5.891  13.586  1.00  0.00     0.111 A 
ATOM      6  C   UNL     1      -0.703   7.316  13.506  1.00  0.00     0.134 A 
ATOM      7  C   UNL     1      -1.675   7.977  12.745  1.00  0.00     0.093 A 
ATOM      8  C   UNL     1      -2.701   7.271  12.116  1.00  0.00     0.123 A 
ATOM      9  C   UNL     1      -2.762   5.883  12.239  1.00  0.00     0.094 A 
ATOM     10  C   UNL     1      -1.785   5.192  12.961  1.00  0.00     0.146 A 
ATOM     11  O   UNL     1      -1.875   3.870  13.044  1.00  0.00    -0.452 OA
ENDROOT
BRANCH   1  12
ATOM     12  C   UNL     1      -1.218   1.653  13.726  1.00  0.00     0.025 A 
ATOM     13  C   UNL     1      -1.751   1.027  14.867  1.00  0.00     0.016 A 
ATOM     14  C   UNL     1      -1.981  -0.350  14.874  1.00  0.00     0.051 A 
ATOM     15  C   UNL     1      -1.696  -1.121  13.740  1.00  0.00     0.157 A 
ATOM     16  C   UNL     1      -0.954   0.879  12.585  1.00  0.00     0.062 A 
ATOM     17  C   UNL     1      -1.183  -0.501  12.589  1.00  0.00     0.158 A 
BRANCH  15  18
ATOM     18  O   UNL     1      -1.924  -2.496  13.751  1.00  0.00    -0.504 OA
ATOM     19  H   UNL     1      -2.722  -2.898  14.231  1.00  0.00     0.293 HD
ENDBRANCH  15  18
BRANCH  17  20
ATOM     20  O   UNL     1      -0.895  -1.239  11.441  1.00  0.00    -0.504 OA
ATOM     21  H   UNL     1      -0.754  -0.799  10.539  1.00  0.00     0.293 HD
ENDBRANCH  17  20
ENDBRANCH   1  12
BRANCH   2  22
ATOM     22  O   UNL     1       1.121   2.921  14.873  1.00  0.00    -0.502 OA
ATOM     23  H   UNL     1       1.489   2.086  14.433  1.00  0.00     0.293 HD
ENDBRANCH   2  22
BRANCH   6  24
ATOM     24  O   UNL     1       0.224   8.124  14.171  1.00  0.00    -0.507 OA
ATOM     25  H   UNL     1       1.218   7.952  14.202  1.00  0.00     0.293 HD
ENDBRANCH   6  24
BRANCH   8  26
ATOM     26  O   UNL     1      -3.660   7.963  11.380  1.00  0.00    -0.508 OA
ATOM     27  H   UNL     1      -3.478   8.888  11.009  1.00  0.00     0.293 HD
ENDBRANCH   8  26
TORSDOF 6
ENDMDL
MODEL 5
REMARK VINA RESULT:    -6.229      1.735      6.737
REMARK INTER + INTRA:          -7.785
REMARK INTER:                  -7.496
REMARK INTRA:                  -0.289
REMARK UNBOUND:                -0.281
REMARK SMILES O=c1c(O)c(-c2ccc(O)c(O)c2)oc2cc(O)cc(O)c12
REMARK SMILES IDX 5 1 3 2 2 3 1 4 22 5 20 6 19 7 17 8 16 9 15 10 14 11 6 12
REMARK SMILES IDX 7 13 8 14 9 15 13 16 11 17 10 18 12 20 4 22 21 24 18 26
REMARK H PARENT 10 19 12 21 4 23 21 25 18 27
REMARK Flexibility Score: inf
ROOT
ATOM      1  C   UNL     1      -1.030   4.899  11.369  1.00  0.00     0.180 A 
ATOM      2  C   UNL     1      -0.983   5.438  12.666  1.00  0.00     0.208 A 
ATOM      3  C   UNL     1      -0.970   4.566  13.766  1.00  0.00     0.238 A 
ATOM      4  O   UNL     1      -0.983   5.056  14.925  1.00  0.00    -0.285 OA
ATOM      5  C   UNL     1      -0.990   3.165  13.555  1.00  0.00     0.111 A 
ATOM      6  C   UNL     1      -0.941   2.189  14.596  1.00  0.00     0.134 A 
ATOM      7  C   UNL     1      -1.098   0.834  14.279  1.00  0.00     0.093 A 
ATOM      8  C   UNL     1      -1.238   0.416  12.956  1.00  0.00     0.123 A 
ATOM      9  C   UNL     1      -1.227   1.357  11.927  1.00  0.00     0.094 A 
ATOM     10  C   UNL     1      -1.109   2.719  12.214  1.00  0.00     0.146 A 
ATOM     11  O   UNL     1      -1.114   3.583  11.206  1.00  0.00    -0.452 OA
ENDROOT
BRANCH   1  12
ATOM     12  C   UNL     1      -1.020   5.752  10.159  1.00  0.00     0.025 A 
ATOM     13  C   UNL     1       0.147   5.923   9.393  1.00  0.00     0.016 A 
ATOM     14  C   UNL     1       0.127   6.713   8.242  1.00  0.00     0.051 A 
ATOM     15  C   UNL     1      -1.059   7.335   7.831  1.00  0.00     0.157 A 
ATOM     16  C   UNL     1      -2.211   6.360   9.730  1.00  0.00     0.062 A 
ATOM     17  C   UNL     1      -2.235   7.153   8.578  1.00  0.00     0.158 A 
BRANCH  15  18
ATOM     18  O   UNL     1      -1.076   8.125   6.682  1.00  0.00    -0.504 OA
ATOM     19  H   UNL     1      -0.232   8.557   6.324  1.00  0.00     0.293 HD
ENDBRANCH  15  18
BRANCH  17  20
ATOM     20  O   UNL     1      -3.434   7.751   8.192  1.00  0.00    -0.504 OA
ATOM     21  H   UNL     1      -3.570   8.755   8.226  1.00  0.00     0.293 HD
ENDBRANCH  17  20
ENDBRANCH   1  12
BRANCH   2  22
ATOM     22  O   UNL     1      -0.985   6.823  12.851  1.00  0.00    -0.502 OA
ATOM     23  H   UNL     1      -0.384   7.283  13.524  1.00  0.00     0.293 HD
ENDBRANCH   2  22
BRANCH   6  24
ATOM     24  O   UNL     1      -0.714   2.493  15.941  1.00  0.00    -0.507 OA
ATOM     25  H   UNL     1       0.190   2.471  16.390  1.00  0.00     0.293 HD
ENDBRANCH   6  24
BRANCH   8  26
ATOM     26  O   UNL     1      -1.376  -0.942  12.676  1.00  0.00    -0.508 OA
ATOM     27  H   UNL     1      -2.209  -1.309  12.230  1.00  0.00     0.293 HD
ENDBRANCH   8  26
TORSDOF 6
ENDMDL
MODEL 6
REMARK VINA RESULT:    -5.854      3.959      6.756
REMARK INTER + INTRA:          -7.333
REMARK INTER:                  -7.165
REMARK INTRA:                  -0.168
REMARK UNBOUND:                -0.281
REMARK SMILES O=c1c(O)c(-c2ccc(O)c(O)c2)oc2cc(O)cc(O)c12
REMARK SMILES IDX 5 1 3 2 2 3 1 4 22 5 20 6 19 7 17 8 16 9 15 10 14 11 6 12
REMARK SMILES IDX 7 13 8 14 9 15 13 16 11 17 10 18 12 20 4 22 21 24 18 26
REMARK H PARENT 10 19 12 21 4 23 21 25 18 27
REMARK Flexibility Score: inf
ROOT
ATOM      1  C   UNL     1      -3.724   5.305  11.968  1.00  0.00     0.180 A 
ATOM      2  C   UNL     1      -2.724   5.485  10.997  1.00  0.00     0.208 A 
ATOM      3  C   UNL     1      -1.536   4.744  11.097  1.00  0.00     0.238 A 
ATOM      4  O   UNL     1      -0.623   4.950  10.256  1.00  0.00    -0.285 OA
ATOM      5  C   UNL     1      -1.369   3.821  12.158  1.00  0.00     0.111 A 
ATOM      6  C   UNL     1      -0.223   2.988  12.335  1.00  0.00     0.134 A 
ATOM      7  C   UNL     1      -0.109   2.207  13.491  1.00  0.00     0.093 A 
ATOM      8  C   UNL     1      -1.126   2.179  14.445  1.00  0.00     0.123 A 
ATOM      9  C   UNL     1      -2.277   2.943  14.253  1.00  0.00     0.094 A 
ATOM     10  C   UNL     1      -2.404   3.761  13.126  1.00  0.00     0.146 A 
ATOM     11  O   UNL     1      -3.511   4.480  12.986  1.00  0.00    -0.452 OA
ENDROOT
BRANCH   1  12
ATOM     12  C   UNL     1      -5.014   6.031  11.915  1.00  0.00     0.025 A 
ATOM     13  C   UNL     1      -5.354   6.989  12.886  1.00  0.00     0.016 A 
ATOM     14  C   UNL     1      -6.565   7.680  12.803  1.00  0.00     0.051 A 
ATOM     15  C   UNL     1      -7.449   7.433  11.744  1.00  0.00     0.157 A 
ATOM     16  C   UNL     1      -5.893   5.804  10.844  1.00  0.00     0.062 A 
ATOM     17  C   UNL     1      -7.108   6.492  10.759  1.00  0.00     0.158 A 
BRANCH  15  18
ATOM     18  O   UNL     1      -8.659   8.122  11.666  1.00  0.00    -0.504 OA
ATOM     19  H   UNL     1      -9.068   8.374  10.774  1.00  0.00     0.293 HD
ENDBRANCH  15  18
BRANCH  17  20
ATOM     20  O   UNL     1      -7.962   6.229   9.688  1.00  0.00    -0.504 OA
ATOM     21  H   UNL     1      -7.942   6.777   8.836  1.00  0.00     0.293 HD
ENDBRANCH  17  20
ENDBRANCH   1  12
BRANCH   2  22
ATOM     22  O   UNL     1      -2.901   6.417   9.971  1.00  0.00    -0.502 OA
ATOM     23  H   UNL     1      -3.763   6.936   9.850  1.00  0.00     0.293 HD
ENDBRANCH   2  22
BRANCH   6  24
ATOM     24  O   UNL     1       0.809   2.872  11.399  1.00  0.00    -0.507 OA
ATOM     25  H   UNL     1       0.846   3.367  10.520  1.00  0.00     0.293 HD
ENDBRANCH   6  24
BRANCH   8  26
ATOM     26  O   UNL     1      -0.985   1.379  15.576  1.00  0.00    -0.508 OA
ATOM     27  H   UNL     1      -1.506   1.565  16.425  1.00  0.00     0.293 HD
ENDBRANCH   8  26
TORSDOF 6
ENDMDL
MODEL 7
REMARK VINA RESULT:    -5.778      2.194      3.977
REMARK INTER + INTRA:          -7.241
REMARK INTER:                  -6.918
REMARK INTRA:                  -0.323
REMARK UNBOUND:                -0.281
REMARK SMILES O=c1c(O)c(-c2ccc(O)c(O)c2)oc2cc(O)cc(O)c12
REMARK SMILES IDX 5 1 3 2 2 3 1 4 22 5 20 6 19 7 17 8 16 9 15 10 14 11 6 12
REMARK SMILES IDX 7 13 8 14 9 15 13 16 11 17 10 18 12 20 4 22 21 24 18 26
REMARK H PARENT 10 19 12 21 4 23 21 25 18 27
REMARK Flexibility Score: inf
ROOT
ATOM      1  C   UNL     1       0.380   4.393  13.868  1.00  0.00     0.180 A 
ATOM      2  C   UNL     1       0.247   5.294  12.797  1.00  0.00     0.208 A 
ATOM      3  C   UNL     1       1.232   6.274  12.604  1.00  0.00     0.238 A 
ATOM      4  O   UNL     1       1.078   7.111  11.677  1.00  0.00    -0.285 OA
ATOM      5  C   UNL     1       2.347   6.334  13.475  1.00  0.00     0.111 A 
ATOM      6  C   UNL     1       3.425   7.261  13.349  1.00  0.00     0.134 A 
ATOM      7  C   UNL     1       4.410   7.314  14.343  1.00  0.00     0.093 A 
ATOM      8  C   UNL     1       4.391   6.431  15.423  1.00  0.00     0.123 A 
ATOM      9  C   UNL     1       3.375   5.482  15.524  1.00  0.00     0.094 A 
ATOM     10  C   UNL     1       2.358   5.428  14.567  1.00  0.00     0.146 A 
ATOM     11  O   UNL     1       1.404   4.516  14.706  1.00  0.00    -0.452 OA
ENDROOT
BRANCH   1  12
ATOM     12  C   UNL     1      -0.604   3.316  14.121  1.00  0.00     0.025 A 
ATOM     13  C   UNL     1      -1.738   3.535  14.922  1.00  0.00     0.016 A 
ATOM     14  C   UNL     1      -2.666   2.511  15.127  1.00  0.00     0.051 A 
ATOM     15  C   UNL     1      -2.483   1.260  14.526  1.00  0.00     0.157 A 
ATOM     16  C   UNL     1      -0.436   2.067  13.503  1.00  0.00     0.062 A 
ATOM     17  C   UNL     1      -1.363   1.039  13.707  1.00  0.00     0.158 A 
BRANCH  15  18
ATOM     18  O   UNL     1      -3.409   0.239  14.734  1.00  0.00    -0.504 OA
ATOM     19  H   UNL     1      -4.298   0.415  15.188  1.00  0.00     0.293 HD
ENDBRANCH  15  18
BRANCH  17  20
ATOM     20  O   UNL     1      -1.155  -0.194  13.088  1.00  0.00    -0.504 OA
ATOM     21  H   UNL     1      -0.227  -0.564  12.924  1.00  0.00     0.293 HD
ENDBRANCH  17  20
ENDBRANCH   1  12
BRANCH   2  22
ATOM     22  O   UNL     1      -0.873   5.231  11.963  1.00  0.00    -0.502 OA
ATOM     23  H   UNL     1      -1.808   5.440  12.291  1.00  0.00     0.293 HD
ENDBRANCH   2  22
BRANCH   6  24
ATOM     24  O   UNL     1       3.589   8.125  12.262  1.00  0.00    -0.507 OA
ATOM     25  H   UNL     1       4.094   7.897  11.419  1.00  0.00     0.293 HD
ENDBRANCH   6  24
BRANCH   8  26
ATOM     26  O   UNL     1       5.396   6.502  16.385  1.00  0.00    -0.508 OA
ATOM     27  H   UNL     1       6.127   7.202  16.337  1.00  0.00     0.293 HD
ENDBRANCH   8  26
TORSDOF 6
ENDMDL
MODEL 8
REMARK VINA RESULT:    -5.570      4.738      6.071
REMARK INTER + INTRA:          -6.990
REMARK INTER:                  -6.844
REMARK INTRA:                  -0.147
REMARK UNBOUND:                -0.281
REMARK SMILES O=c1c(O)c(-c2ccc(O)c(O)c2)oc2cc(O)cc(O)c12
REMARK SMILES IDX 5 1 3 2 2 3 1 4 22 5 20 6 19 7 17 8 16 9 15 10 14 11 6 12
REMARK SMILES IDX 7 13 8 14 9 15 13 16 11 17 10 18 12 20 4 22 21 24 18 26
REMARK H PARENT 10 19 12 21 4 23 21 25 18 27
REMARK Flexibility Score: inf
ROOT
ATOM      1  C   UNL     1      -4.146   5.238  12.010  1.00  0.00     0.180 A 
ATOM      2  C   UNL     1      -4.565   6.410  12.663  1.00  0.00     0.208 A 
ATOM      3  C   UNL     1      -5.740   7.046  12.235  1.00  0.00     0.238 A 
ATOM      4  O   UNL     1      -6.079   8.125  12.787  1.00  0.00    -0.285 OA
ATOM      5  C   UNL     1      -6.491   6.495  11.168  1.00  0.00     0.111 A 
ATOM      6  C   UNL     1      -7.719   7.034  10.678  1.00  0.00     0.134 A 
ATOM      7  C   UNL     1      -8.308   6.481   9.534  1.00  0.00     0.093 A 
ATOM      8  C   UNL     1      -7.750   5.370   8.903  1.00  0.00     0.123 A 
ATOM      9  C   UNL     1      -6.583   4.798   9.409  1.00  0.00     0.094 A 
ATOM     10  C   UNL     1      -5.952   5.350  10.527  1.00  0.00     0.146 A 
ATOM     11  O   UNL     1      -4.837   4.782  10.971  1.00  0.00    -0.452 OA
ENDROOT
BRANCH   1  12
ATOM     12  C   UNL     1      -2.932   4.496  12.420  1.00  0.00     0.025 A 
ATOM     13  C   UNL     1      -2.804   3.962  13.715  1.00  0.00     0.016 A 
ATOM     14  C   UNL     1      -1.660   3.245  14.072  1.00  0.00     0.051 A 
ATOM     15  C   UNL     1      -0.633   3.040  13.141  1.00  0.00     0.157 A 
ATOM     16  C   UNL     1      -1.910   4.269  11.484  1.00  0.00     0.062 A 
ATOM     17  C   UNL     1      -0.762   3.553  11.839  1.00  0.00     0.158 A 
BRANCH  15  18
ATOM     18  O   UNL     1       0.509   2.326  13.502  1.00  0.00    -0.504 OA
ATOM     19  H   UNL     1       1.184   2.023  12.810  1.00  0.00     0.293 HD
ENDBRANCH  15  18
BRANCH  17  20
ATOM     20  O   UNL     1       0.238   3.359  10.887  1.00  0.00    -0.504 OA
ATOM     21  H   UNL     1       0.324   3.952  10.069  1.00  0.00     0.293 HD
ENDBRANCH  17  20
ENDBRANCH   1  12
BRANCH   2  22
ATOM     22  O   UNL     1      -3.797   6.949  13.698  1.00  0.00    -0.502 OA
ATOM     23  H   UNL     1      -2.857   6.629  13.902  1.00  0.00     0.293 HD
ENDBRANCH   2  22
BRANCH   6  24
ATOM     24  O   UNL     1      -8.409   8.086  11.288  1.00  0.00    -0.507 OA
ATOM     25  H   UNL     1      -9.246   8.513  10.921  1.00  0.00     0.293 HD
ENDBRANCH   6  24
BRANCH   8  26
ATOM     26  O   UNL     1      -8.372   4.836   7.776  1.00  0.00    -0.508 OA
ATOM     27  H   UNL     1      -9.048   4.085   7.849  1.00  0.00     0.293 HD
ENDBRANCH   8  26
TORSDOF 6
ENDMDL
MODEL 9
REMARK VINA RESULT:    -5.566      2.280      3.538
REMARK INTER + INTRA:          -6.986
REMARK INTER:                  -6.758
REMARK INTRA:                  -0.228
REMARK UNBOUND:                -0.281
REMARK SMILES O=c1c(O)c(-c2ccc(O)c(O)c2)oc2cc(O)cc(O)c12
REMARK SMILES IDX 5 1 3 2 2 3 1 4 22 5 20 6 19 7 17 8 16 9 15 10 14 11 6 12
REMARK SMILES IDX 7 13 8 14 9 15 13 16 11 17 10 18 12 20 4 22 21 24 18 26
REMARK H PARENT 10 19 12 21 4 23 21 25 18 27
REMARK Flexibility Score: inf
ROOT
ATOM      1  C   UNL     1      -1.819   4.407  11.296  1.00  0.00     0.180 A 
ATOM      2  C   UNL     1      -3.066   4.972  10.982  1.00  0.00     0.208 A 
ATOM      3  C   UNL     1      -3.122   6.032  10.063  1.00  0.00     0.238 A 
ATOM      4  O   UNL     1      -4.236   6.570   9.827  1.00  0.00    -0.285 OA
ATOM      5  C   UNL     1      -1.932   6.503   9.458  1.00  0.00     0.111 A 
ATOM      6  C   UNL     1      -1.876   7.545   8.483  1.00  0.00     0.134 A 
ATOM      7  C   UNL     1      -0.631   8.018   8.049  1.00  0.00     0.093 A 
ATOM      8  C   UNL     1       0.556   7.445   8.505  1.00  0.00     0.123 A 
ATOM      9  C   UNL     1       0.511   6.386   9.412  1.00  0.00     0.094 A 
ATOM     10  C   UNL     1      -0.715   5.916   9.891  1.00  0.00     0.146 A 
ATOM     11  O   UNL     1      -0.714   4.914  10.761  1.00  0.00    -0.452 OA
ENDROOT
BRANCH   1  12
ATOM     12  C   UNL     1      -1.682   3.271  12.236  1.00  0.00     0.025 A 
ATOM     13  C   UNL     1      -1.885   3.435  13.617  1.00  0.00     0.016 A 
ATOM     14  C   UNL     1      -1.775   2.344  14.482  1.00  0.00     0.051 A 
ATOM     15  C   UNL     1      -1.472   1.071  13.980  1.00  0.00     0.157 A 
ATOM     16  C   UNL     1      -1.401   1.989  11.735  1.00  0.00     0.062 A 
ATOM     17  C   UNL     1      -1.288   0.894  12.599  1.00  0.00     0.158 A 
BRANCH  15  18
ATOM     18  O   UNL     1      -1.360  -0.016  14.846  1.00  0.00    -0.504 OA
ATOM     19  H   UNL     1      -1.208   0.112  15.840  1.00  0.00     0.293 HD
ENDBRANCH  15  18
BRANCH  17  20
ATOM     20  O   UNL     1      -0.994  -0.361  12.067  1.00  0.00    -0.504 OA
ATOM     21  H   UNL     1      -1.499  -0.743  11.276  1.00  0.00     0.293 HD
ENDBRANCH  17  20
ENDBRANCH   1  12
BRANCH   2  22
ATOM     22  O   UNL     1      -4.226   4.506  11.607  1.00  0.00    -0.502 OA
ATOM     23  H   UNL     1      -4.336   3.543  11.900  1.00  0.00     0.293 HD
ENDBRANCH   2  22
BRANCH   6  24
ATOM     24  O   UNL     1      -3.003   8.125   7.894  1.00  0.00    -0.507 OA
ATOM     25  H   UNL     1      -3.934   8.094   8.283  1.00  0.00     0.293 HD
ENDBRANCH   6  24
BRANCH   8  26
ATOM     26  O   UNL     1       1.776   7.931   8.040  1.00  0.00    -0.508 OA
ATOM     27  H   UNL     1       2.185   8.780   8.413  1.00  0.00     0.293 HD
ENDBRANCH   8  26
TORSDOF 6
ENDMDL
