MODEL 1
REMARK VINA RESULT:    -3.827      0.000      0.000
REMARK INTER + INTRA:         -12.019
REMARK INTER:                  -8.301
REMARK INTRA:                  -3.718
REMARK UNBOUND:                -3.718
REMARK SMILES CCCCCCCCCCCCCCCCCCCCCC(=O)[O-]
REMARK SMILES IDX 12 1 11 2 10 3 9 4 8 5 7 6 6 7 5 8 4 9 3 10 2 11 1 12 13 13
REMARK SMILES IDX 14 14 15 15 16 16 17 17 18 18 19 19 20 20 21 21 22 22 23 23
REMARK SMILES IDX 24 24
REMARK H PARENT
REMARK Flexibility Score: inf
ROOT
ATOM      1  C   UNL     1      10.301   1.934  -0.639  1.00  0.00     0.000 C 
ENDROOT
BRANCH   1   2
ATOM      2  C   UNL     1      11.823   1.795  -0.826  1.00  0.00     0.000 C 
BRANCH   2   3
ATOM      3  C   UNL     1      12.272   2.026  -2.276  1.00  0.00     0.000 C 
BRANCH   3   4
ATOM      4  C   UNL     1      11.078   1.983  -3.237  1.00  0.00    -0.000 C 
BRANCH   4   5
ATOM      5  C   UNL     1      11.520   1.554  -4.643  1.00  0.00    -0.000 C 
BRANCH   5   6
ATOM      6  C   UNL     1      11.166   2.593  -5.723  1.00  0.00    -0.000 C 
BRANCH   6   7
ATOM      7  C   UNL     1      10.957   4.029  -5.201  1.00  0.00    -0.000 C 
BRANCH   7   8
ATOM      8  C   UNL     1       9.576   4.644  -5.500  1.00  0.00    -0.000 C 
BRANCH   8   9
ATOM      9  C   UNL     1       9.127   5.749  -4.527  1.00  0.00    -0.000 C 
BRANCH   9  10
ATOM     10  C   UNL     1      10.287   6.658  -4.083  1.00  0.00    -0.000 C 
BRANCH  10  11
ATOM     11  C   UNL     1      10.353   6.822  -2.556  1.00  0.00    -0.003 C 
ATOM     12  C   UNL     1      11.208   5.749  -1.881  1.00  0.00     0.004 C 
ENDBRANCH  10  11
ENDBRANCH   9  10
ENDBRANCH   8   9
ENDBRANCH   7   8
ENDBRANCH   6   7
ENDBRANCH   5   6
ENDBRANCH   4   5
ENDBRANCH   3   4
ENDBRANCH   2   3
ENDBRANCH   1   2
BRANCH   1  13
ATOM     13  C   UNL     1       9.866   2.981   0.404  1.00  0.00     0.000 C 
BRANCH  13  14
ATOM     14  C   UNL     1       8.668   3.856  -0.009  1.00  0.00     0.000 C 
BRANCH  14  15
ATOM     15  C   UNL     1       8.260   3.694  -1.489  1.00  0.00     0.000 C 
BRANCH  15  16
ATOM     16  C   UNL     1       6.974   4.467  -1.831  1.00  0.00     0.000 C 
BRANCH  16  17
ATOM     17  C   UNL     1       6.605   5.505  -0.757  1.00  0.00     0.000 C 
BRANCH  17  18
ATOM     18  C   UNL     1       6.682   6.949  -1.283  1.00  0.00     0.000 C 
BRANCH  18  19
ATOM     19  C   UNL     1       7.764   7.786  -0.581  1.00  0.00     0.000 C 
BRANCH  19  20
ATOM     20  C   UNL     1       8.021   7.427   0.896  1.00  0.00     0.006 C 
BRANCH  20  21
ATOM     21  C   UNL     1       9.506   7.196   1.236  1.00  0.00     0.053 C 
BRANCH  21  22
ATOM     22  C   UNL     1       9.691   6.478   2.540  1.00  0.00     0.041 C 
ATOM     23  O   UNL     1      10.715   5.771   2.735  1.00  0.00    -0.550 OA
ATOM     24  O   UNL     1       8.755   6.623   3.557  1.00  0.00    -0.550 OA
ENDBRANCH  21  22
ENDBRANCH  20  21
ENDBRANCH  19  20
ENDBRANCH  18  19
ENDBRANCH  17  18
ENDBRANCH  16  17
ENDBRANCH  15  16
ENDBRANCH  14  15
ENDBRANCH  13  14
ENDBRANCH   1  13
TORSDOF 20
ENDMDL
MODEL 2
REMARK VINA RESULT:    -3.799      1.621      3.134
REMARK INTER + INTRA:         -11.957
REMARK INTER:                  -8.989
REMARK INTRA:                  -2.968
REMARK UNBOUND:                -3.718
REMARK SMILES CCCCCCCCCCCCCCCCCCCCCC(=O)[O-]
REMARK SMILES IDX 12 1 11 2 10 3 9 4 8 5 7 6 6 7 5 8 4 9 3 10 2 11 1 12 13 13
REMARK SMILES IDX 14 14 15 15 16 16 17 17 18 18 19 19 20 20 21 21 22 22 23 23
REMARK SMILES IDX 24 24
REMARK H PARENT
REMARK Flexibility Score: inf
ROOT
ATOM      1  C   UNL     1      11.114   1.603  -3.416  1.00  0.00     0.000 C 
ENDROOT
BRANCH   1   2
ATOM      2  C   UNL     1      11.548   0.800  -4.656  1.00  0.00     0.000 C 
BRANCH   2   3
ATOM      3  C   UNL     1      11.244   1.523  -5.975  1.00  0.00     0.000 C 
BRANCH   3   4
ATOM      4  C   UNL     1      11.628   3.006  -5.892  1.00  0.00    -0.000 C 
BRANCH   4   5
ATOM      5  C   UNL     1      10.404   3.904  -6.124  1.00  0.00    -0.000 C 
BRANCH   5   6
ATOM      6  C   UNL     1      10.727   5.402  -5.979  1.00  0.00    -0.000 C 
BRANCH   6   7
ATOM      7  C   UNL     1      10.439   5.998  -4.587  1.00  0.00    -0.000 C 
BRANCH   7   8
ATOM      8  C   UNL     1       9.708   5.058  -3.608  1.00  0.00    -0.000 C 
BRANCH   8   9
ATOM      9  C   UNL     1       9.716   5.514  -2.137  1.00  0.00    -0.000 C 
BRANCH   9  10
ATOM     10  C   UNL     1      10.771   6.597  -1.854  1.00  0.00    -0.000 C 
BRANCH  10  11
ATOM     11  C   UNL     1      10.217   7.748  -1.000  1.00  0.00    -0.003 C 
ATOM     12  C   UNL     1       8.702   7.909  -1.133  1.00  0.00     0.004 C 
ENDBRANCH  10  11
ENDBRANCH   9  10
ENDBRANCH   8   9
ENDBRANCH   7   8
ENDBRANCH   6   7
ENDBRANCH   5   6
ENDBRANCH   4   5
ENDBRANCH   3   4
ENDBRANCH   2   3
ENDBRANCH   1   2
BRANCH   1  13
ATOM     13  C   UNL     1      12.253   1.971  -2.447  1.00  0.00     0.000 C 
BRANCH  13  14
ATOM     14  C   UNL     1      11.880   1.927  -0.953  1.00  0.00     0.000 C 
BRANCH  14  15
ATOM     15  C   UNL     1      10.374   2.125  -0.681  1.00  0.00     0.000 C 
BRANCH  15  16
ATOM     16  C   UNL     1      10.111   2.966   0.580  1.00  0.00     0.000 C 
BRANCH  16  17
ATOM     17  C   UNL     1       8.648   3.431   0.687  1.00  0.00     0.000 C 
BRANCH  17  18
ATOM     18  C   UNL     1       8.522   4.843   1.285  1.00  0.00     0.000 C 
BRANCH  18  19
ATOM     19  C   UNL     1       9.869   5.418   1.756  1.00  0.00     0.000 C 
BRANCH  19  20
ATOM     20  C   UNL     1       9.778   6.494   2.856  1.00  0.00     0.006 C 
BRANCH  20  21
ATOM     21  C   UNL     1       8.816   7.650   2.525  1.00  0.00     0.053 C 
BRANCH  21  22
ATOM     22  C   UNL     1       7.758   7.834   3.572  1.00  0.00     0.041 C 
ATOM     23  O   UNL     1       6.926   6.917   3.801  1.00  0.00    -0.550 OA
ATOM     24  O   UNL     1       7.715   9.001   4.325  1.00  0.00    -0.550 OA
ENDBRANCH  21  22
ENDBRANCH  20  21
ENDBRANCH  19  20
ENDBRANCH  18  19
ENDBRANCH  17  18
ENDBRANCH  16  17
ENDBRANCH  15  16
ENDBRANCH  14  15
ENDBRANCH  13  14
ENDBRANCH   1  13
TORSDOF 20
ENDMDL
MODEL 3
REMARK VINA RESULT:    -3.663      1.144      4.509
REMARK INTER + INTRA:         -11.663
REMARK INTER:                  -8.235
REMARK INTRA:                  -3.428
REMARK UNBOUND:                -3.718
REMARK SMILES CCCCCCCCCCCCCCCCCCCCCC(=O)[O-]
REMARK SMILES IDX 12 1 11 2 10 3 9 4 8 5 7 6 6 7 5 8 4 9 3 10 2 11 1 12 13 13
REMARK SMILES IDX 14 14 15 15 16 16 17 17 18 18 19 19 20 20 21 21 22 22 23 23
REMARK SMILES IDX 24 24
REMARK H PARENT
REMARK Flexibility Score: inf
ROOT
ATOM      1  C   UNL     1      10.917   3.522  -4.475  1.00  0.00     0.000 C 
ENDROOT
BRANCH   1   2
ATOM      2  C   UNL     1      10.319   4.260  -5.687  1.00  0.00     0.000 C 
BRANCH   2   3
ATOM      3  C   UNL     1      10.752   5.731  -5.765  1.00  0.00     0.000 C 
BRANCH   3   4
ATOM      4  C   UNL     1       9.918   6.602  -4.818  1.00  0.00    -0.000 C 
BRANCH   4   5
ATOM      5  C   UNL     1      10.798   7.217  -3.720  1.00  0.00    -0.000 C 
BRANCH   5   6
ATOM      6  C   UNL     1      10.714   6.449  -2.388  1.00  0.00    -0.000 C 
BRANCH   6   7
ATOM      7  C   UNL     1      10.381   7.317  -1.158  1.00  0.00    -0.000 C 
BRANCH   7   8
ATOM      8  C   UNL     1       9.049   8.089  -1.238  1.00  0.00    -0.000 C 
BRANCH   8   9
ATOM      9  C   UNL     1       7.783   7.221  -1.128  1.00  0.00    -0.000 C 
BRANCH   9  10
ATOM     10  C   UNL     1       7.066   7.039  -2.477  1.00  0.00    -0.000 C 
BRANCH  10  11
ATOM     11  C   UNL     1       6.394   5.663  -2.604  1.00  0.00    -0.003 C 
ATOM     12  C   UNL     1       7.271   4.638  -3.324  1.00  0.00     0.004 C 
ENDBRANCH  10  11
ENDBRANCH   9  10
ENDBRANCH   8   9
ENDBRANCH   7   8
ENDBRANCH   6   7
ENDBRANCH   5   6
ENDBRANCH   4   5
ENDBRANCH   3   4
ENDBRANCH   2   3
ENDBRANCH   1   2
BRANCH   1  13
ATOM     13  C   UNL     1      11.431   2.099  -4.769  1.00  0.00     0.000 C 
BRANCH  13  14
ATOM     14  C   UNL     1      11.716   1.238  -3.524  1.00  0.00     0.000 C 
BRANCH  14  15
ATOM     15  C   UNL     1      12.205   2.049  -2.304  1.00  0.00     0.000 C 
BRANCH  15  16
ATOM     16  C   UNL     1      11.839   1.378  -0.969  1.00  0.00     0.000 C 
BRANCH  16  17
ATOM     17  C   UNL     1      10.890   2.238  -0.116  1.00  0.00     0.000 C 
BRANCH  17  18
ATOM     18  C   UNL     1       9.790   2.910  -0.957  1.00  0.00     0.000 C 
BRANCH  18  19
ATOM     19  C   UNL     1       8.945   3.910  -0.149  1.00  0.00     0.000 C 
BRANCH  19  20
ATOM     20  C   UNL     1       9.514   4.291   1.232  1.00  0.00     0.006 C 
BRANCH  20  21
ATOM     21  C   UNL     1       8.979   5.626   1.784  1.00  0.00     0.053 C 
BRANCH  21  22
ATOM     22  C   UNL     1      10.035   6.416   2.499  1.00  0.00     0.041 C 
ATOM     23  O   UNL     1      10.991   5.826   3.069  1.00  0.00    -0.550 OA
ATOM     24  O   UNL     1       9.989   7.804   2.501  1.00  0.00    -0.550 OA
ENDBRANCH  21  22
ENDBRANCH  20  21
ENDBRANCH  19  20
ENDBRANCH  18  19
ENDBRANCH  17  18
ENDBRANCH  16  17
ENDBRANCH  15  16
ENDBRANCH  14  15
ENDBRANCH  13  14
ENDBRANCH   1  13
TORSDOF 20
ENDMDL
MODEL 4
REMARK VINA RESULT:    -3.609      1.262      2.402
REMARK INTER + INTRA:         -11.546
REMARK INTER:                  -8.115
REMARK INTRA:                  -3.432
REMARK UNBOUND:                -3.718
REMARK SMILES CCCCCCCCCCCCCCCCCCCCCC(=O)[O-]
REMARK SMILES IDX 12 1 11 2 10 3 9 4 8 5 7 6 6 7 5 8 4 9 3 10 2 11 1 12 13 13
REMARK SMILES IDX 14 14 15 15 16 16 17 17 18 18 19 19 20 20 21 21 22 22 23 23
REMARK SMILES IDX 24 24
REMARK H PARENT
REMARK Flexibility Score: inf
ROOT
ATOM      1  C   UNL     1      11.831   1.611  -0.500  1.00  0.00     0.000 C 
ENDROOT
BRANCH   1   2
ATOM      2  C   UNL     1      12.268   1.757  -1.970  1.00  0.00     0.000 C 
BRANCH   2   3
ATOM      3  C   UNL     1      11.098   1.646  -2.956  1.00  0.00     0.000 C 
BRANCH   3   4
ATOM      4  C   UNL     1      11.587   1.223  -4.347  1.00  0.00    -0.000 C 
BRANCH   4   5
ATOM      5  C   UNL     1      11.330   2.330  -5.380  1.00  0.00    -0.000 C 
BRANCH   5   6
ATOM      6  C   UNL     1      10.857   3.647  -4.738  1.00  0.00    -0.000 C 
BRANCH   6   7
ATOM      7  C   UNL     1      10.129   4.612  -5.695  1.00  0.00    -0.000 C 
BRANCH   7   8
ATOM      8  C   UNL     1       9.984   6.059  -5.185  1.00  0.00    -0.000 C 
BRANCH   8   9
ATOM      9  C   UNL     1       8.536   6.526  -4.946  1.00  0.00    -0.000 C 
BRANCH   9  10
ATOM     10  C   UNL     1       7.525   5.366  -4.967  1.00  0.00    -0.000 C 
BRANCH  10  11
ATOM     11  C   UNL     1       6.585   5.386  -3.752  1.00  0.00    -0.003 C 
ATOM     12  C   UNL     1       6.117   3.989  -3.342  1.00  0.00     0.004 C 
ENDBRANCH  10  11
ENDBRANCH   9  10
ENDBRANCH   8   9
ENDBRANCH   7   8
ENDBRANCH   6   7
ENDBRANCH   5   6
ENDBRANCH   4   5
ENDBRANCH   3   4
ENDBRANCH   2   3
ENDBRANCH   1   2
BRANCH   1  13
ATOM     13  C   UNL     1      10.330   1.844  -0.241  1.00  0.00     0.000 C 
BRANCH  13  14
ATOM     14  C   UNL     1       9.990   3.160   0.483  1.00  0.00     0.000 C 
BRANCH  14  15
ATOM     15  C   UNL     1       8.857   3.966  -0.190  1.00  0.00     0.000 C 
BRANCH  15  16
ATOM     16  C   UNL     1       9.299   4.602  -1.518  1.00  0.00     0.000 C 
BRANCH  16  17
ATOM     17  C   UNL     1      10.723   5.182  -1.452  1.00  0.00     0.000 C 
BRANCH  17  18
ATOM     18  C   UNL     1      10.751   6.703  -1.682  1.00  0.00     0.000 C 
BRANCH  18  19
ATOM     19  C   UNL     1       9.435   7.394  -1.285  1.00  0.00     0.000 C 
BRANCH  19  20
ATOM     20  C   UNL     1       9.469   8.160   0.052  1.00  0.00     0.006 C 
BRANCH  20  21
ATOM     21  C   UNL     1       9.917   7.306   1.253  1.00  0.00     0.053 C 
BRANCH  21  22
ATOM     22  C   UNL     1       8.779   6.954   2.164  1.00  0.00     0.041 C 
ATOM     23  O   UNL     1       9.006   6.498   3.316  1.00  0.00    -0.550 OA
ATOM     24  O   UNL     1       7.467   7.168   1.759  1.00  0.00    -0.550 OA
ENDBRANCH  21  22
ENDBRANCH  20  21
ENDBRANCH  19  20
ENDBRANCH  18  19
ENDBRANCH  17  18
ENDBRANCH  16  17
ENDBRANCH  15  16
ENDBRANCH  14  15
ENDBRANCH  13  14
ENDBRANCH   1  13
TORSDOF 20
ENDMDL
MODEL 5
REMARK VINA RESULT:    -3.551      2.095      5.471
REMARK INTER + INTRA:         -11.420
REMARK INTER:                  -8.357
REMARK INTRA:                  -3.063
REMARK UNBOUND:                -3.718
REMARK SMILES CCCCCCCCCCCCCCCCCCCCCC(=O)[O-]
REMARK SMILES IDX 12 1 11 2 10 3 9 4 8 5 7 6 6 7 5 8 4 9 3 10 2 11 1 12 13 13
REMARK SMILES IDX 14 14 15 15 16 16 17 17 18 18 19 19 20 20 21 21 22 22 23 23
REMARK SMILES IDX 24 24
REMARK H PARENT
REMARK Flexibility Score: inf
ROOT
ATOM      1  C   UNL     1      12.136   1.621  -1.945  1.00  0.00     0.000 C 
ENDROOT
BRANCH   1   2
ATOM      2  C   UNL     1      11.601   1.637  -0.501  1.00  0.00     0.000 C 
BRANCH   2   3
ATOM      3  C   UNL     1      10.165   2.169  -0.400  1.00  0.00     0.000 C 
BRANCH   3   4
ATOM      4  C   UNL     1      10.016   3.133   0.784  1.00  0.00    -0.000 C 
BRANCH   4   5
ATOM      5  C   UNL     1       8.581   3.672   0.875  1.00  0.00    -0.000 C 
BRANCH   5   6
ATOM      6  C   UNL     1       8.520   5.124   1.382  1.00  0.00    -0.000 C 
BRANCH   6   7
ATOM      7  C   UNL     1       9.825   5.647   2.016  1.00  0.00    -0.000 C 
BRANCH   7   8
ATOM      8  C   UNL     1       9.956   7.181   2.082  1.00  0.00    -0.000 C 
BRANCH   8   9
ATOM      9  C   UNL     1       8.624   7.953   2.036  1.00  0.00    -0.000 C 
BRANCH   9  10
ATOM     10  C   UNL     1       8.328   8.710   3.343  1.00  0.00    -0.000 C 
BRANCH  10  11
ATOM     11  C   UNL     1       7.011   8.261   3.995  1.00  0.00    -0.003 C 
ATOM     12  C   UNL     1       7.029   6.791   4.418  1.00  0.00     0.004 C 
ENDBRANCH  10  11
ENDBRANCH   9  10
ENDBRANCH   8   9
ENDBRANCH   7   8
ENDBRANCH   6   7
ENDBRANCH   5   6
ENDBRANCH   4   5
ENDBRANCH   3   4
ENDBRANCH   2   3
ENDBRANCH   1   2
BRANCH   1  13
ATOM     13  C   UNL     1      11.054   1.537  -3.039  1.00  0.00     0.000 C 
BRANCH  13  14
ATOM     14  C   UNL     1      11.549   1.819  -4.470  1.00  0.00     0.000 C 
BRANCH  14  15
ATOM     15  C   UNL     1      10.997   3.127  -5.074  1.00  0.00     0.000 C 
BRANCH  15  16
ATOM     16  C   UNL     1      10.712   4.194  -4.003  1.00  0.00     0.000 C 
BRANCH  16  17
ATOM     17  C   UNL     1       9.264   4.710  -4.053  1.00  0.00     0.000 C 
BRANCH  17  18
ATOM     18  C   UNL     1       8.438   4.265  -2.833  1.00  0.00     0.000 C 
BRANCH  18  19
ATOM     19  C   UNL     1       7.543   5.384  -2.274  1.00  0.00     0.000 C 
BRANCH  19  20
ATOM     20  C   UNL     1       7.994   6.819  -2.608  1.00  0.00     0.006 C 
BRANCH  20  21
ATOM     21  C   UNL     1       8.921   7.448  -1.551  1.00  0.00     0.053 C 
BRANCH  21  22
ATOM     22  C   UNL     1      10.374   7.251  -1.871  1.00  0.00     0.041 C 
ATOM     23  O   UNL     1      11.063   6.432  -1.209  1.00  0.00    -0.550 OA
ATOM     24  O   UNL     1      10.956   7.940  -2.928  1.00  0.00    -0.550 OA
ENDBRANCH  21  22
ENDBRANCH  20  21
ENDBRANCH  19  20
ENDBRANCH  18  19
ENDBRANCH  17  18
ENDBRANCH  16  17
ENDBRANCH  15  16
ENDBRANCH  14  15
ENDBRANCH  13  14
ENDBRANCH   1  13
TORSDOF 20
ENDMDL
MODEL 6
REMARK VINA RESULT:    -3.548      2.419      5.731
REMARK INTER + INTRA:         -11.413
REMARK INTER:                  -7.805
REMARK INTRA:                  -3.609
REMARK UNBOUND:                -3.718
REMARK SMILES CCCCCCCCCCCCCCCCCCCCCC(=O)[O-]
REMARK SMILES IDX 12 1 11 2 10 3 9 4 8 5 7 6 6 7 5 8 4 9 3 10 2 11 1 12 13 13
REMARK SMILES IDX 14 14 15 15 16 16 17 17 18 18 19 19 20 20 21 21 22 22 23 23
REMARK SMILES IDX 24 24
REMARK H PARENT
REMARK Flexibility Score: inf
ROOT
ATOM      1  C   UNL     1      11.508   1.618  -0.483  1.00  0.00     0.000 C 
ENDROOT
BRANCH   1   2
ATOM      2  C   UNL     1      10.074   2.102  -0.201  1.00  0.00     0.000 C 
BRANCH   2   3
ATOM      3  C   UNL     1       9.999   3.118   0.947  1.00  0.00     0.000 C 
BRANCH   3   4
ATOM      4  C   UNL     1       8.695   3.922   0.888  1.00  0.00    -0.000 C 
BRANCH   4   5
ATOM      5  C   UNL     1       8.946   5.401   1.214  1.00  0.00    -0.000 C 
BRANCH   5   6
ATOM      6  C   UNL     1      10.186   5.614   2.102  1.00  0.00    -0.000 C 
BRANCH   6   7
ATOM      7  C   UNL     1      10.099   6.818   3.061  1.00  0.00    -0.000 C 
BRANCH   7   8
ATOM      8  C   UNL     1       9.862   8.183   2.385  1.00  0.00    -0.000 C 
BRANCH   8   9
ATOM      9  C   UNL     1       8.556   8.892   2.786  1.00  0.00    -0.000 C 
BRANCH   9  10
ATOM     10  C   UNL     1       7.619   7.993   3.611  1.00  0.00    -0.000 C 
BRANCH  10  11
ATOM     11  C   UNL     1       6.434   7.467   2.786  1.00  0.00    -0.003 C 
ATOM     12  C   UNL     1       6.304   8.157   1.428  1.00  0.00     0.004 C 
ENDBRANCH  10  11
ENDBRANCH   9  10
ENDBRANCH   8   9
ENDBRANCH   7   8
ENDBRANCH   6   7
ENDBRANCH   5   6
ENDBRANCH   4   5
ENDBRANCH   3   4
ENDBRANCH   2   3
ENDBRANCH   1   2
BRANCH   1  13
ATOM     13  C   UNL     1      11.892   1.553  -1.974  1.00  0.00     0.000 C 
BRANCH  13  14
ATOM     14  C   UNL     1      12.018   2.918  -2.675  1.00  0.00     0.000 C 
BRANCH  14  15
ATOM     15  C   UNL     1      10.822   3.261  -3.590  1.00  0.00     0.000 C 
BRANCH  15  16
ATOM     16  C   UNL     1       9.991   4.439  -3.052  1.00  0.00     0.000 C 
BRANCH  16  17
ATOM     17  C   UNL     1      10.764   5.290  -2.030  1.00  0.00     0.000 C 
BRANCH  17  18
ATOM     18  C   UNL     1      10.793   6.781  -2.409  1.00  0.00     0.000 C 
BRANCH  18  19
ATOM     19  C   UNL     1      10.358   7.702  -1.257  1.00  0.00     0.000 C 
BRANCH  19  20
ATOM     20  C   UNL     1       8.876   8.123  -1.272  1.00  0.00     0.006 C 
BRANCH  20  21
ATOM     21  C   UNL     1       8.184   7.935  -2.635  1.00  0.00     0.053 C 
BRANCH  21  22
ATOM     22  C   UNL     1       7.148   6.850  -2.608  1.00  0.00     0.041 C 
ATOM     23  O   UNL     1       7.020   6.120  -1.590  1.00  0.00    -0.550 OA
ATOM     24  O   UNL     1       6.294   6.672  -3.690  1.00  0.00    -0.550 OA
ENDBRANCH  21  22
ENDBRANCH  20  21
ENDBRANCH  19  20
ENDBRANCH  18  19
ENDBRANCH  17  18
ENDBRANCH  16  17
ENDBRANCH  15  16
ENDBRANCH  14  15
ENDBRANCH  13  14
ENDBRANCH   1  13
TORSDOF 20
ENDMDL
MODEL 7
REMARK VINA RESULT:    -3.532      2.514      5.822
REMARK INTER + INTRA:         -11.380
REMARK INTER:                  -7.418
REMARK INTRA:                  -3.962
REMARK UNBOUND:                -3.718
REMARK SMILES CCCCCCCCCCCCCCCCCCCCCC(=O)[O-]
REMARK SMILES IDX 12 1 11 2 10 3 9 4 8 5 7 6 6 7 5 8 4 9 3 10 2 11 1 12 13 13
REMARK SMILES IDX 14 14 15 15 16 16 17 17 18 18 19 19 20 20 21 21 22 22 23 23
REMARK SMILES IDX 24 24
REMARK H PARENT
REMARK Flexibility Score: inf
ROOT
ATOM      1  C   UNL     1       8.646   3.439  -0.541  1.00  0.00     0.000 C 
ENDROOT
BRANCH   1   2
ATOM      2  C   UNL     1       8.213   3.143  -1.989  1.00  0.00     0.000 C 
BRANCH   2   3
ATOM      3  C   UNL     1       6.991   3.963  -2.428  1.00  0.00     0.000 C 
BRANCH   3   4
ATOM      4  C   UNL     1       6.467   4.832  -1.278  1.00  0.00    -0.000 C 
BRANCH   4   5
ATOM      5  C   UNL     1       6.283   6.288  -1.730  1.00  0.00    -0.000 C 
BRANCH   5   6
ATOM      6  C   UNL     1       7.422   6.778  -2.643  1.00  0.00    -0.000 C 
BRANCH   6   7
ATOM      7  C   UNL     1       8.472   7.670  -1.951  1.00  0.00    -0.000 C 
BRANCH   7   8
ATOM      8  C   UNL     1       9.721   6.932  -1.428  1.00  0.00    -0.000 C 
BRANCH   8   9
ATOM      9  C   UNL     1       9.974   7.068   0.084  1.00  0.00    -0.000 C 
BRANCH   9  10
ATOM     10  C   UNL     1       8.725   6.760   0.928  1.00  0.00    -0.000 C 
BRANCH  10  11
ATOM     11  C   UNL     1       9.048   6.615   2.423  1.00  0.00    -0.003 C 
ATOM     12  C   UNL     1      10.447   6.052   2.676  1.00  0.00     0.004 C 
ENDBRANCH  10  11
ENDBRANCH   9  10
ENDBRANCH   8   9
ENDBRANCH   7   8
ENDBRANCH   6   7
ENDBRANCH   5   6
ENDBRANCH   4   5
ENDBRANCH   3   4
ENDBRANCH   2   3
ENDBRANCH   1   2
BRANCH   1  13
ATOM     13  C   UNL     1      10.169   3.501  -0.317  1.00  0.00     0.000 C 
BRANCH  13  14
ATOM     14  C   UNL     1      10.806   2.196   0.195  1.00  0.00     0.000 C 
BRANCH  14  15
ATOM     15  C   UNL     1      11.767   1.534  -0.816  1.00  0.00     0.000 C 
BRANCH  15  16
ATOM     16  C   UNL     1      12.029   2.422  -2.045  1.00  0.00     0.000 C 
BRANCH  16  17
ATOM     17  C   UNL     1      11.548   1.776  -3.355  1.00  0.00     0.000 C 
BRANCH  17  18
ATOM     18  C   UNL     1      11.243   2.817  -4.447  1.00  0.00     0.000 C 
BRANCH  18  19
ATOM     19  C   UNL     1      10.793   4.172  -3.875  1.00  0.00     0.000 C 
BRANCH  19  20
ATOM     20  C   UNL     1       9.943   5.039  -4.825  1.00  0.00     0.006 C 
BRANCH  20  21
ATOM     21  C   UNL     1      10.756   6.072  -5.627  1.00  0.00     0.053 C 
BRANCH  21  22
ATOM     22  C   UNL     1      10.606   7.464  -5.089  1.00  0.00     0.041 C 
ATOM     23  O   UNL     1       9.581   8.143  -5.362  1.00  0.00    -0.550 OA
ATOM     24  O   UNL     1      11.577   7.998  -4.251  1.00  0.00    -0.550 OA
ENDBRANCH  21  22
ENDBRANCH  20  21
ENDBRANCH  19  20
ENDBRANCH  18  19
ENDBRANCH  17  18
ENDBRANCH  16  17
ENDBRANCH  15  16
ENDBRANCH  14  15
ENDBRANCH  13  14
ENDBRANCH   1  13
TORSDOF 20
ENDMDL
MODEL 8
REMARK VINA RESULT:    -3.517      1.576      2.941
REMARK INTER + INTRA:         -11.346
REMARK INTER:                  -8.397
REMARK INTRA:                  -2.949
REMARK UNBOUND:                -3.718
REMARK SMILES CCCCCCCCCCCCCCCCCCCCCC(=O)[O-]
REMARK SMILES IDX 12 1 11 2 10 3 9 4 8 5 7 6 6 7 5 8 4 9 3 10 2 11 1 12 13 13
REMARK SMILES IDX 14 14 15 15 16 16 17 17 18 18 19 19 20 20 21 21 22 22 23 23
REMARK SMILES IDX 24 24
REMARK H PARENT
REMARK Flexibility Score: inf
ROOT
ATOM      1  C   UNL     1      11.850   1.816  -1.498  1.00  0.00     0.000 C 
ENDROOT
BRANCH   1   2
ATOM      2  C   UNL     1      11.901   1.589  -3.020  1.00  0.00     0.000 C 
BRANCH   2   3
ATOM      3  C   UNL     1      11.183   2.690  -3.814  1.00  0.00     0.000 C 
BRANCH   3   4
ATOM      4  C   UNL     1      11.267   2.425  -5.323  1.00  0.00    -0.000 C 
BRANCH   4   5
ATOM      5  C   UNL     1      11.234   3.741  -6.113  1.00  0.00    -0.000 C 
BRANCH   5   6
ATOM      6  C   UNL     1      10.149   4.711  -5.612  1.00  0.00    -0.000 C 
BRANCH   6   7
ATOM      7  C   UNL     1      10.606   6.175  -5.459  1.00  0.00    -0.000 C 
BRANCH   7   8
ATOM      8  C   UNL     1      10.234   6.844  -4.120  1.00  0.00    -0.000 C 
BRANCH   8   9
ATOM      9  C   UNL     1      10.797   6.151  -2.866  1.00  0.00    -0.000 C 
BRANCH   9  10
ATOM     10  C   UNL     1       9.702   5.767  -1.856  1.00  0.00    -0.000 C 
BRANCH  10  11
ATOM     11  C   UNL     1       8.327   5.589  -2.520  1.00  0.00    -0.003 C 
ATOM     12  C   UNL     1       7.880   4.128  -2.577  1.00  0.00     0.004 C 
ENDBRANCH  10  11
ENDBRANCH   9  10
ENDBRANCH   8   9
ENDBRANCH   7   8
ENDBRANCH   6   7
ENDBRANCH   5   6
ENDBRANCH   4   5
ENDBRANCH   3   4
ENDBRANCH   2   3
ENDBRANCH   1   2
BRANCH   1  13
ATOM     13  C   UNL     1      10.435   1.970  -0.910  1.00  0.00     0.000 C 
BRANCH  13  14
ATOM     14  C   UNL     1      10.357   2.769   0.405  1.00  0.00     0.000 C 
BRANCH  14  15
ATOM     15  C   UNL     1       8.920   3.154   0.816  1.00  0.00     0.000 C 
BRANCH  15  16
ATOM     16  C   UNL     1       8.826   4.598   1.337  1.00  0.00     0.000 C 
BRANCH  16  17
ATOM     17  C   UNL     1      10.193   5.168   1.751  1.00  0.00     0.000 C 
BRANCH  17  18
ATOM     18  C   UNL     1      10.065   6.385   2.685  1.00  0.00     0.000 C 
BRANCH  18  19
ATOM     19  C   UNL     1       9.616   7.660   1.951  1.00  0.00     0.000 C 
BRANCH  19  20
ATOM     20  C   UNL     1       8.141   8.056   2.158  1.00  0.00     0.006 C 
BRANCH  20  21
ATOM     21  C   UNL     1       7.775   8.367   3.622  1.00  0.00     0.053 C 
BRANCH  21  22
ATOM     22  C   UNL     1       6.889   7.319   4.227  1.00  0.00     0.041 C 
ATOM     23  O   UNL     1       6.610   6.274   3.582  1.00  0.00    -0.550 OA
ATOM     24  O   UNL     1       6.405   7.474   5.520  1.00  0.00    -0.550 OA
ENDBRANCH  21  22
ENDBRANCH  20  21
ENDBRANCH  19  20
ENDBRANCH  18  19
ENDBRANCH  17  18
ENDBRANCH  16  17
ENDBRANCH  15  16
ENDBRANCH  14  15
ENDBRANCH  13  14
ENDBRANCH   1  13
TORSDOF 20
ENDMDL
MODEL 9
REMARK VINA RESULT:    -3.477      2.704      6.082
REMARK INTER + INTRA:         -11.260
REMARK INTER:                  -8.141
REMARK INTRA:                  -3.119
REMARK UNBOUND:                -3.718
REMARK SMILES CCCCCCCCCCCCCCCCCCCCCC(=O)[O-]
REMARK SMILES IDX 12 1 11 2 10 3 9 4 8 5 7 6 6 7 5 8 4 9 3 10 2 11 1 12 13 13
REMARK SMILES IDX 14 14 15 15 16 16 17 17 18 18 19 19 20 20 21 21 22 22 23 23
REMARK SMILES IDX 24 24
REMARK H PARENT
REMARK Flexibility Score: inf
ROOT
ATOM      1  C   UNL     1      10.304   2.763   0.613  1.00  0.00     0.000 C 
ENDROOT
BRANCH   1   2
ATOM      2  C   UNL     1       9.439   3.946   0.141  1.00  0.00     0.000 C 
BRANCH   2   3
ATOM      3  C   UNL     1       9.123   3.895  -1.360  1.00  0.00     0.000 C 
BRANCH   3   4
ATOM      4  C   UNL     1       9.924   4.952  -2.129  1.00  0.00    -0.000 C 
BRANCH   4   5
ATOM      5  C   UNL     1      10.603   5.935  -1.165  1.00  0.00    -0.000 C 
BRANCH   5   6
ATOM      6  C   UNL     1      10.162   7.393  -1.390  1.00  0.00    -0.000 C 
BRANCH   6   7
ATOM      7  C   UNL     1       8.662   7.579  -1.693  1.00  0.00    -0.000 C 
BRANCH   7   8
ATOM      8  C   UNL     1       7.710   7.256  -0.524  1.00  0.00    -0.000 C 
BRANCH   8   9
ATOM      9  C   UNL     1       8.056   7.943   0.810  1.00  0.00    -0.000 C 
BRANCH   9  10
ATOM     10  C   UNL     1       8.406   6.940   1.923  1.00  0.00    -0.000 C 
BRANCH  10  11
ATOM     11  C   UNL     1       9.813   7.168   2.497  1.00  0.00    -0.003 C 
ATOM     12  C   UNL     1      10.073   8.628   2.869  1.00  0.00     0.004 C 
ENDBRANCH  10  11
ENDBRANCH   9  10
ENDBRANCH   8   9
ENDBRANCH   7   8
ENDBRANCH   6   7
ENDBRANCH   5   6
ENDBRANCH   4   5
ENDBRANCH   3   4
ENDBRANCH   2   3
ENDBRANCH   1   2
BRANCH   1  13
ATOM     13  C   UNL     1      10.596   1.699  -0.462  1.00  0.00     0.000 C 
BRANCH  13  14
ATOM     14  C   UNL     1      12.061   1.630  -0.931  1.00  0.00     0.000 C 
BRANCH  14  15
ATOM     15  C   UNL     1      12.260   2.011  -2.413  1.00  0.00     0.000 C 
BRANCH  15  16
ATOM     16  C   UNL     1      11.072   1.586  -3.293  1.00  0.00     0.000 C 
BRANCH  16  17
ATOM     17  C   UNL     1      11.516   1.002  -4.645  1.00  0.00     0.000 C 
BRANCH  17  18
ATOM     18  C   UNL     1      11.445   2.034  -5.784  1.00  0.00     0.000 C 
BRANCH  18  19
ATOM     19  C   UNL     1      11.144   3.458  -5.285  1.00  0.00     0.000 C 
BRANCH  19  20
ATOM     20  C   UNL     1      10.099   4.237  -6.107  1.00  0.00     0.006 C 
BRANCH  20  21
ATOM     21  C   UNL     1      10.089   5.753  -5.833  1.00  0.00     0.053 C 
BRANCH  21  22
ATOM     22  C   UNL     1       8.737   6.253  -5.417  1.00  0.00     0.041 C 
ATOM     23  O   UNL     1       7.807   5.440  -5.175  1.00  0.00    -0.550 OA
ATOM     24  O   UNL     1       8.515   7.615  -5.256  1.00  0.00    -0.550 OA
ENDBRANCH  21  22
ENDBRANCH  20  21
ENDBRANCH  19  20
ENDBRANCH  18  19
ENDBRANCH  17  18
ENDBRANCH  16  17
ENDBRANCH  15  16
ENDBRANCH  14  15
ENDBRANCH  13  14
ENDBRANCH   1  13
TORSDOF 20
ENDMDL
