MODEL 1
REMARK VINA RESULT:    -3.566      0.000      0.000
REMARK INTER + INTRA:          -7.050
REMARK INTER:                  -5.651
REMARK INTRA:                  -1.400
REMARK UNBOUND:                -1.400
REMARK SMILES CCCCCCCCCCCC(=O)[O-]
REMARK SMILES IDX 7 1 8 2 9 3 10 4 11 5 12 6 13 7 14 8 6 9 5 10 4 11 3 12 2 13
REMARK SMILES IDX 1 14
REMARK H PARENT
REMARK Flexibility Score: inf
ROOT
ATOM      1  C   UNL     1      24.472 -13.254   4.433  1.00  0.00     0.000 C 
ENDROOT
BRANCH   1   2
ATOM      2  C   UNL     1      24.439 -14.787   4.275  1.00  0.00     0.000 C 
BRANCH   2   3
ATOM      3  C   UNL     1      23.268 -15.489   4.985  1.00  0.00     0.000 C 
BRANCH   3   4
ATOM      4  C   UNL     1      22.109 -14.535   5.308  1.00  0.00     0.006 C 
BRANCH   4   5
ATOM      5  C   UNL     1      21.286 -15.052   6.492  1.00  0.00     0.053 C 
BRANCH   5   6
ATOM      6  C   UNL     1      21.895 -14.615   7.785  1.00  0.00     0.041 C 
ATOM      7  O   UNL     1      21.768 -15.323   8.819  1.00  0.00    -0.550 OA
ATOM      8  O   UNL     1      22.562 -13.399   7.864  1.00  0.00    -0.550 OA
ENDBRANCH   5   6
ENDBRANCH   4   5
ENDBRANCH   3   4
ENDBRANCH   2   3
ENDBRANCH   1   2
BRANCH   1   9
ATOM      9  C   UNL     1      24.489 -12.459   3.113  1.00  0.00     0.000 C 
BRANCH   9  10
ATOM     10  C   UNL     1      24.199 -13.289   1.850  1.00  0.00    -0.000 C 
BRANCH  10  11
ATOM     11  C   UNL     1      22.955 -12.807   1.091  1.00  0.00    -0.000 C 
BRANCH  11  12
ATOM     12  C   UNL     1      21.770 -13.758   1.319  1.00  0.00    -0.000 C 
BRANCH  12  13
ATOM     13  C   UNL     1      22.193 -15.234   1.343  1.00  0.00    -0.003 C 
ATOM     14  C   UNL     1      21.125 -16.147   1.946  1.00  0.00     0.004 C 
ENDBRANCH  12  13
ENDBRANCH  11  12
ENDBRANCH  10  11
ENDBRANCH   9  10
ENDBRANCH   1   9
TORSDOF 10
ENDMDL
MODEL 2
REMARK VINA RESULT:    -3.504      1.033      2.813
REMARK INTER + INTRA:          -6.953
REMARK INTER:                  -5.567
REMARK INTRA:                  -1.386
REMARK UNBOUND:                -1.400
REMARK SMILES CCCCCCCCCCCC(=O)[O-]
REMARK SMILES IDX 7 1 8 2 9 3 10 4 11 5 12 6 13 7 14 8 6 9 5 10 4 11 3 12 2 13
REMARK SMILES IDX 1 14
REMARK H PARENT
REMARK Flexibility Score: inf
ROOT
ATOM      1  C   UNL     1      21.467 -15.880   3.287  1.00  0.00     0.000 C 
ENDROOT
BRANCH   1   2
ATOM      2  C   UNL     1      22.570 -16.608   4.081  1.00  0.00     0.000 C 
BRANCH   2   3
ATOM      3  C   UNL     1      22.763 -16.114   5.526  1.00  0.00     0.000 C 
BRANCH   3   4
ATOM      4  C   UNL     1      21.861 -14.921   5.874  1.00  0.00     0.006 C 
BRANCH   4   5
ATOM      5  C   UNL     1      22.527 -14.015   6.914  1.00  0.00     0.053 C 
BRANCH   5   6
ATOM      6  C   UNL     1      21.744 -14.013   8.187  1.00  0.00     0.041 C 
ATOM      7  O   UNL     1      21.177 -12.959   8.582  1.00  0.00    -0.550 OA
ATOM      8  O   UNL     1      21.679 -15.161   8.966  1.00  0.00    -0.550 OA
ENDBRANCH   5   6
ENDBRANCH   4   5
ENDBRANCH   3   4
ENDBRANCH   2   3
ENDBRANCH   1   2
BRANCH   1   9
ATOM      9  C   UNL     1      21.565 -16.016   1.754  1.00  0.00     0.000 C 
BRANCH   9  10
ATOM     10  C   UNL     1      22.404 -14.931   1.057  1.00  0.00    -0.000 C 
BRANCH  10  11
ATOM     11  C   UNL     1      22.226 -13.542   1.687  1.00  0.00    -0.000 C 
BRANCH  11  12
ATOM     12  C   UNL     1      23.588 -12.894   1.981  1.00  0.00    -0.000 C 
BRANCH  12  13
ATOM     13  C   UNL     1      24.109 -13.227   3.387  1.00  0.00    -0.003 C 
ATOM     14  C   UNL     1      25.306 -14.178   3.364  1.00  0.00     0.004 C 
ENDBRANCH  12  13
ENDBRANCH  11  12
ENDBRANCH  10  11
ENDBRANCH   9  10
ENDBRANCH   1   9
TORSDOF 10
ENDMDL
MODEL 3
REMARK VINA RESULT:    -3.370      0.848      3.001
REMARK INTER + INTRA:          -6.739
REMARK INTER:                  -5.325
REMARK INTRA:                  -1.414
REMARK UNBOUND:                -1.400
REMARK SMILES CCCCCCCCCCCC(=O)[O-]
REMARK SMILES IDX 7 1 8 2 9 3 10 4 11 5 12 6 13 7 14 8 6 9 5 10 4 11 3 12 2 13
REMARK SMILES IDX 1 14
REMARK H PARENT
REMARK Flexibility Score: inf
ROOT
ATOM      1  C   UNL     1      22.125 -15.269   1.497  1.00  0.00     0.000 C 
ENDROOT
BRANCH   1   2
ATOM      2  C   UNL     1      21.527 -15.900   2.771  1.00  0.00     0.000 C 
BRANCH   2   3
ATOM      3  C   UNL     1      22.410 -15.788   4.026  1.00  0.00     0.000 C 
BRANCH   3   4
ATOM      4  C   UNL     1      21.968 -14.658   4.967  1.00  0.00     0.006 C 
BRANCH   4   5
ATOM      5  C   UNL     1      22.898 -14.559   6.180  1.00  0.00     0.053 C 
BRANCH   5   6
ATOM      6  C   UNL     1      22.105 -14.394   7.437  1.00  0.00     0.041 C 
ATOM      7  O   UNL     1      21.744 -13.247   7.814  1.00  0.00    -0.550 OA
ATOM      8  O   UNL     1      21.806 -15.500   8.221  1.00  0.00    -0.550 OA
ENDBRANCH   5   6
ENDBRANCH   4   5
ENDBRANCH   3   4
ENDBRANCH   2   3
ENDBRANCH   1   2
BRANCH   1   9
ATOM      9  C   UNL     1      21.753 -13.791   1.262  1.00  0.00     0.000 C 
BRANCH   9  10
ATOM     10  C   UNL     1      22.949 -12.840   1.082  1.00  0.00    -0.000 C 
BRANCH  10  11
ATOM     11  C   UNL     1      24.208 -13.318   1.820  1.00  0.00    -0.000 C 
BRANCH  11  12
ATOM     12  C   UNL     1      24.486 -12.448   3.055  1.00  0.00    -0.000 C 
BRANCH  12  13
ATOM     13  C   UNL     1      25.512 -13.082   4.006  1.00  0.00    -0.003 C 
ATOM     14  C   UNL     1      25.892 -14.507   3.601  1.00  0.00     0.004 C 
ENDBRANCH  12  13
ENDBRANCH  11  12
ENDBRANCH  10  11
ENDBRANCH   9  10
ENDBRANCH   1   9
TORSDOF 10
ENDMDL
MODEL 4
REMARK VINA RESULT:    -3.367      1.415      3.367
REMARK INTER + INTRA:          -6.735
REMARK INTER:                  -6.074
REMARK INTRA:                  -0.662
REMARK UNBOUND:                -1.400
REMARK SMILES CCCCCCCCCCCC(=O)[O-]
REMARK SMILES IDX 7 1 8 2 9 3 10 4 11 5 12 6 13 7 14 8 6 9 5 10 4 11 3 12 2 13
REMARK SMILES IDX 1 14
REMARK H PARENT
REMARK Flexibility Score: inf
ROOT
ATOM      1  C   UNL     1      22.095 -15.306   1.589  1.00  0.00     0.000 C 
ENDROOT
BRANCH   1   2
ATOM      2  C   UNL     1      21.487 -15.841   2.900  1.00  0.00     0.000 C 
BRANCH   2   3
ATOM      3  C   UNL     1      22.383 -15.688   4.142  1.00  0.00     0.000 C 
BRANCH   3   4
ATOM      4  C   UNL     1      21.622 -15.159   5.366  1.00  0.00     0.006 C 
BRANCH   4   5
ATOM      5  C   UNL     1      22.577 -14.492   6.360  1.00  0.00     0.053 C 
BRANCH   5   6
ATOM      6  C   UNL     1      21.900 -14.282   7.677  1.00  0.00     0.041 C 
ATOM      7  O   UNL     1      21.411 -13.158   7.967  1.00  0.00    -0.550 OA
ATOM      8  O   UNL     1      21.853 -15.313   8.607  1.00  0.00    -0.550 OA
ENDBRANCH   5   6
ENDBRANCH   4   5
ENDBRANCH   3   4
ENDBRANCH   2   3
ENDBRANCH   1   2
BRANCH   1   9
ATOM      9  C   UNL     1      21.725 -13.850   1.241  1.00  0.00     0.000 C 
BRANCH   9  10
ATOM     10  C   UNL     1      22.919 -12.885   1.127  1.00  0.00    -0.000 C 
BRANCH  10  11
ATOM     11  C   UNL     1      23.791 -12.861   2.390  1.00  0.00    -0.000 C 
BRANCH  11  12
ATOM     12  C   UNL     1      24.507 -11.510   2.537  1.00  0.00    -0.000 C 
BRANCH  12  13
ATOM     13  C   UNL     1      24.740 -10.815   1.187  1.00  0.00    -0.003 C 
ATOM     14  C   UNL     1      24.285  -9.355   1.186  1.00  0.00     0.004 C 
ENDBRANCH  12  13
ENDBRANCH  11  12
ENDBRANCH  10  11
ENDBRANCH   9  10
ENDBRANCH   1   9
TORSDOF 10
ENDMDL
MODEL 5
REMARK VINA RESULT:    -3.304     13.085     14.822
REMARK INTER + INTRA:          -6.634
REMARK INTER:                  -5.528
REMARK INTRA:                  -1.106
REMARK UNBOUND:                -1.400
REMARK SMILES CCCCCCCCCCCC(=O)[O-]
REMARK SMILES IDX 7 1 8 2 9 3 10 4 11 5 12 6 13 7 14 8 6 9 5 10 4 11 3 12 2 13
REMARK SMILES IDX 1 14
REMARK H PARENT
REMARK Flexibility Score: inf
ROOT
ATOM      1  C   UNL     1      28.803  -0.164  11.996  1.00  0.00     0.000 C 
ENDROOT
BRANCH   1   2
ATOM      2  C   UNL     1      27.740  -0.347  10.895  1.00  0.00     0.000 C 
BRANCH   2   3
ATOM      3  C   UNL     1      26.285  -0.372  11.396  1.00  0.00     0.000 C 
BRANCH   3   4
ATOM      4  C   UNL     1      25.294  -0.859  10.329  1.00  0.00     0.006 C 
BRANCH   4   5
ATOM      5  C   UNL     1      25.089  -2.374  10.422  1.00  0.00     0.053 C 
BRANCH   5   6
ATOM      6  C   UNL     1      23.688  -2.738  10.045  1.00  0.00     0.041 C 
ATOM      7  O   UNL     1      23.472  -3.671   9.227  1.00  0.00    -0.550 OA
ATOM      8  O   UNL     1      22.620  -2.013  10.558  1.00  0.00    -0.550 OA
ENDBRANCH   5   6
ENDBRANCH   4   5
ENDBRANCH   3   4
ENDBRANCH   2   3
ENDBRANCH   1   2
BRANCH   1   9
ATOM      9  C   UNL     1      29.425  -1.469  12.530  1.00  0.00     0.000 C 
BRANCH   9  10
ATOM     10  C   UNL     1      28.944  -2.753  11.830  1.00  0.00    -0.000 C 
BRANCH  10  11
ATOM     11  C   UNL     1      30.087  -3.536  11.168  1.00  0.00    -0.000 C 
BRANCH  11  12
ATOM     12  C   UNL     1      29.597  -4.257   9.903  1.00  0.00    -0.000 C 
BRANCH  12  13
ATOM     13  C   UNL     1      28.401  -3.552   9.246  1.00  0.00    -0.003 C 
ATOM     14  C   UNL     1      28.816  -2.615   8.112  1.00  0.00     0.004 C 
ENDBRANCH  12  13
ENDBRANCH  11  12
ENDBRANCH  10  11
ENDBRANCH   9  10
ENDBRANCH   1   9
TORSDOF 10
ENDMDL
MODEL 6
REMARK VINA RESULT:    -3.294      1.941      4.692
REMARK INTER + INTRA:          -6.620
REMARK INTER:                  -5.825
REMARK INTRA:                  -0.795
REMARK UNBOUND:                -1.400
REMARK SMILES CCCCCCCCCCCC(=O)[O-]
REMARK SMILES IDX 7 1 8 2 9 3 10 4 11 5 12 6 13 7 14 8 6 9 5 10 4 11 3 12 2 13
REMARK SMILES IDX 1 14
REMARK H PARENT
REMARK Flexibility Score: inf
ROOT
ATOM      1  C   UNL     1      21.788 -13.705   1.240  1.00  0.00     0.000 C 
ENDROOT
BRANCH   1   2
ATOM      2  C   UNL     1      23.260 -13.353   0.949  1.00  0.00     0.000 C 
BRANCH   2   3
ATOM      3  C   UNL     1      23.598 -11.854   1.034  1.00  0.00     0.000 C 
BRANCH   3   4
ATOM      4  C   UNL     1      24.498 -11.512   2.230  1.00  0.00     0.006 C 
BRANCH   4   5
ATOM      5  C   UNL     1      24.700 -12.733   3.132  1.00  0.00     0.053 C 
BRANCH   5   6
ATOM      6  C   UNL     1      25.044 -12.307   4.523  1.00  0.00     0.041 C 
ATOM      7  O   UNL     1      24.766 -13.050   5.502  1.00  0.00    -0.550 OA
ATOM      8  O   UNL     1      25.626 -11.066   4.747  1.00  0.00    -0.550 OA
ENDBRANCH   5   6
ENDBRANCH   4   5
ENDBRANCH   3   4
ENDBRANCH   2   3
ENDBRANCH   1   2
BRANCH   1   9
ATOM      9  C   UNL     1      21.528 -15.178   1.618  1.00  0.00     0.000 C 
BRANCH   9  10
ATOM     10  C   UNL     1      22.338 -15.692   2.821  1.00  0.00    -0.000 C 
BRANCH  10  11
ATOM     11  C   UNL     1      21.911 -15.047   4.148  1.00  0.00    -0.000 C 
BRANCH  11  12
ATOM     12  C   UNL     1      21.261 -16.083   5.078  1.00  0.00    -0.000 C 
BRANCH  12  13
ATOM     13  C   UNL     1      21.271 -15.643   6.550  1.00  0.00    -0.003 C 
ATOM     14  C   UNL     1      21.501 -14.141   6.718  1.00  0.00     0.004 C 
ENDBRANCH  12  13
ENDBRANCH  11  12
ENDBRANCH  10  11
ENDBRANCH   9  10
ENDBRANCH   1   9
TORSDOF 10
ENDMDL
MODEL 7
REMARK VINA RESULT:    -3.294      2.962      5.378
REMARK INTER + INTRA:          -6.620
REMARK INTER:                  -5.351
REMARK INTRA:                  -1.269
REMARK UNBOUND:                -1.400
REMARK SMILES CCCCCCCCCCCC(=O)[O-]
REMARK SMILES IDX 7 1 8 2 9 3 10 4 11 5 12 6 13 7 14 8 6 9 5 10 4 11 3 12 2 13
REMARK SMILES IDX 1 14
REMARK H PARENT
REMARK Flexibility Score: inf
ROOT
ATOM      1  C   UNL     1      21.744 -15.909   2.633  1.00  0.00     0.000 C 
ENDROOT
BRANCH   1   2
ATOM      2  C   UNL     1      21.865 -14.373   2.577  1.00  0.00     0.000 C 
BRANCH   2   3
ATOM      3  C   UNL     1      21.835 -13.770   1.161  1.00  0.00     0.000 C 
BRANCH   3   4
ATOM      4  C   UNL     1      23.002 -12.808   0.897  1.00  0.00     0.006 C 
BRANCH   4   5
ATOM      5  C   UNL     1      23.778 -12.521   2.186  1.00  0.00     0.053 C 
BRANCH   5   6
ATOM      6  C   UNL     1      24.460 -11.193   2.103  1.00  0.00     0.041 C 
ATOM      7  O   UNL     1      25.401 -10.912   2.891  1.00  0.00    -0.550 OA
ATOM      8  O   UNL     1      24.023 -10.243   1.188  1.00  0.00    -0.550 OA
ENDBRANCH   5   6
ENDBRANCH   4   5
ENDBRANCH   3   4
ENDBRANCH   2   3
ENDBRANCH   1   2
BRANCH   1   9
ATOM      9  C   UNL     1      22.849 -16.625   3.435  1.00  0.00     0.000 C 
BRANCH   9  10
ATOM     10  C   UNL     1      24.246 -15.988   3.330  1.00  0.00    -0.000 C 
BRANCH  10  11
ATOM     11  C   UNL     1      24.734 -15.394   4.659  1.00  0.00    -0.000 C 
BRANCH  11  12
ATOM     12  C   UNL     1      23.723 -15.662   5.784  1.00  0.00    -0.000 C 
BRANCH  12  13
ATOM     13  C   UNL     1      23.122 -14.370   6.358  1.00  0.00    -0.003 C 
ATOM     14  C   UNL     1      21.596 -14.333   6.260  1.00  0.00     0.004 C 
ENDBRANCH  12  13
ENDBRANCH  11  12
ENDBRANCH  10  11
ENDBRANCH   9  10
ENDBRANCH   1   9
TORSDOF 10
ENDMDL
MODEL 8
REMARK VINA RESULT:    -3.280     13.632     15.418
REMARK INTER + INTRA:          -6.597
REMARK INTER:                  -5.471
REMARK INTRA:                  -1.126
REMARK UNBOUND:                -1.400
REMARK SMILES CCCCCCCCCCCC(=O)[O-]
REMARK SMILES IDX 7 1 8 2 9 3 10 4 11 5 12 6 13 7 14 8 6 9 5 10 4 11 3 12 2 13
REMARK SMILES IDX 1 14
REMARK H PARENT
REMARK Flexibility Score: inf
ROOT
ATOM      1  C   UNL     1      27.728   0.939   9.957  1.00  0.00     0.000 C 
ENDROOT
BRANCH   1   2
ATOM      2  C   UNL     1      26.668  -0.166   9.779  1.00  0.00     0.000 C 
BRANCH   2   3
ATOM      3  C   UNL     1      25.294   0.146  10.399  1.00  0.00     0.000 C 
BRANCH   3   4
ATOM      4  C   UNL     1      24.611  -1.095  10.992  1.00  0.00     0.006 C 
BRANCH   4   5
ATOM      5  C   UNL     1      24.922  -2.343  10.160  1.00  0.00     0.053 C 
BRANCH   5   6
ATOM      6  C   UNL     1      23.706  -2.792   9.415  1.00  0.00     0.041 C 
ATOM      7  O   UNL     1      23.736  -3.849   8.731  1.00  0.00    -0.550 OA
ATOM      8  O   UNL     1      22.553  -2.018   9.434  1.00  0.00    -0.550 OA
ENDBRANCH   5   6
ENDBRANCH   4   5
ENDBRANCH   3   4
ENDBRANCH   2   3
ENDBRANCH   1   2
BRANCH   1   9
ATOM      9  C   UNL     1      28.861   0.607  10.949  1.00  0.00     0.000 C 
BRANCH   9  10
ATOM     10  C   UNL     1      28.485  -0.398  12.052  1.00  0.00    -0.000 C 
BRANCH  10  11
ATOM     11  C   UNL     1      29.703  -1.133  12.630  1.00  0.00    -0.000 C 
BRANCH  11  12
ATOM     12  C   UNL     1      29.673  -2.623  12.259  1.00  0.00    -0.000 C 
BRANCH  12  13
ATOM     13  C   UNL     1      28.511  -2.973  11.316  1.00  0.00    -0.003 C 
ATOM     14  C   UNL     1      28.986  -3.442   9.940  1.00  0.00     0.004 C 
ENDBRANCH  12  13
ENDBRANCH  11  12
ENDBRANCH  10  11
ENDBRANCH   9  10
ENDBRANCH   1   9
TORSDOF 10
ENDMDL
MODEL 9
REMARK VINA RESULT:    -3.256     12.635     14.558
REMARK INTER + INTRA:          -6.559
REMARK INTER:                  -5.265
REMARK INTRA:                  -1.294
REMARK UNBOUND:                -1.400
REMARK SMILES CCCCCCCCCCCC(=O)[O-]
REMARK SMILES IDX 7 1 8 2 9 3 10 4 11 5 12 6 13 7 14 8 6 9 5 10 4 11 3 12 2 13
REMARK SMILES IDX 1 14
REMARK H PARENT
REMARK Flexibility Score: inf
ROOT
ATOM      1  C   UNL     1      27.228  -2.925   8.635  1.00  0.00     0.000 C 
ENDROOT
BRANCH   1   2
ATOM      2  C   UNL     1      27.138  -1.441   9.044  1.00  0.00     0.000 C 
BRANCH   2   3
ATOM      3  C   UNL     1      26.299  -1.164  10.304  1.00  0.00     0.000 C 
BRANCH   3   4
ATOM      4  C   UNL     1      25.368  -2.330  10.669  1.00  0.00     0.006 C 
BRANCH   4   5
ATOM      5  C   UNL     1      23.958  -2.099  10.120  1.00  0.00     0.053 C 
BRANCH   5   6
ATOM      6  C   UNL     1      23.384  -3.375   9.593  1.00  0.00     0.041 C 
ATOM      7  O   UNL     1      23.842  -3.889   8.537  1.00  0.00    -0.550 OA
ATOM      8  O   UNL     1      22.310  -3.974  10.238  1.00  0.00    -0.550 OA
ENDBRANCH   5   6
ENDBRANCH   4   5
ENDBRANCH   3   4
ENDBRANCH   2   3
ENDBRANCH   1   2
BRANCH   1   9
ATOM      9  C   UNL     1      28.647  -3.527   8.662  1.00  0.00     0.000 C 
BRANCH   9  10
ATOM     10  C   UNL     1      29.614  -2.868   9.661  1.00  0.00    -0.000 C 
BRANCH  10  11
ATOM     11  C   UNL     1      29.708  -3.628  10.992  1.00  0.00    -0.000 C 
BRANCH  11  12
ATOM     12  C   UNL     1      29.222  -2.755  12.159  1.00  0.00    -0.000 C 
BRANCH  12  13
ATOM     13  C   UNL     1      29.903  -1.378  12.189  1.00  0.00    -0.003 C 
ATOM     14  C   UNL     1      28.966  -0.264  12.656  1.00  0.00     0.004 C 
ENDBRANCH  12  13
ENDBRANCH  11  12
ENDBRANCH  10  11
ENDBRANCH   9  10
ENDBRANCH   1   9
TORSDOF 10
ENDMDL
