MODEL 1
REMARK VINA RESULT:    -3.614      0.000      0.000
REMARK INTER + INTRA:         -10.002
REMARK INTER:                  -6.994
REMARK INTRA:                  -3.008
REMARK UNBOUND:                -3.008
REMARK SMILES CCCCCCCCCCCCCCCCCC(=O)[O-]
REMARK SMILES IDX 10 1 11 2 12 3 13 4 14 5 15 6 16 7 17 8 18 9 19 10 20 11
REMARK SMILES IDX 9 12 8 13 7 14 6 15 5 16 4 17 3 18 2 19 1 20
REMARK H PARENT
REMARK Flexibility Score: inf
ROOT
ATOM      1  C   UNL     1      29.861  26.700 -13.154  1.00  0.00     0.000 C 
ENDROOT
BRANCH   1   2
ATOM      2  C   UNL     1      28.435  26.150 -12.997  1.00  0.00     0.000 C 
BRANCH   2   3
ATOM      3  C   UNL     1      28.364  24.627 -13.216  1.00  0.00     0.000 C 
BRANCH   3   4
ATOM      4  C   UNL     1      27.276  24.232 -14.231  1.00  0.00     0.000 C 
BRANCH   4   5
ATOM      5  C   UNL     1      27.744  24.292 -15.697  1.00  0.00     0.000 C 
BRANCH   5   6
ATOM      6  C   UNL     1      26.773  25.088 -16.588  1.00  0.00     0.000 C 
BRANCH   6   7
ATOM      7  C   UNL     1      27.456  26.266 -17.306  1.00  0.00     0.006 C 
BRANCH   7   8
ATOM      8  C   UNL     1      27.772  27.465 -16.398  1.00  0.00     0.053 C 
BRANCH   8   9
ATOM      9  C   UNL     1      28.028  28.714 -17.185  1.00  0.00     0.041 C 
ATOM     10  O   UNL     1      29.209  29.079 -17.425  1.00  0.00    -0.550 OA
ATOM     11  O   UNL     1      26.963  29.455 -17.682  1.00  0.00    -0.550 OA
ENDBRANCH   8   9
ENDBRANCH   7   8
ENDBRANCH   6   7
ENDBRANCH   5   6
ENDBRANCH   4   5
ENDBRANCH   3   4
ENDBRANCH   2   3
ENDBRANCH   1   2
BRANCH   1  12
ATOM     12  C   UNL     1      30.716  25.870 -14.129  1.00  0.00     0.000 C 
BRANCH  12  13
ATOM     13  C   UNL     1      31.400  26.753 -15.194  1.00  0.00    -0.000 C 
BRANCH  13  14
ATOM     14  C   UNL     1      31.146  26.282 -16.637  1.00  0.00    -0.000 C 
BRANCH  14  15
ATOM     15  C   UNL     1      31.226  24.757 -16.792  1.00  0.00    -0.000 C 
BRANCH  15  16
ATOM     16  C   UNL     1      30.670  24.309 -18.151  1.00  0.00    -0.000 C 
BRANCH  16  17
ATOM     17  C   UNL     1      30.032  22.909 -18.103  1.00  0.00    -0.000 C 
BRANCH  17  18
ATOM     18  C   UNL     1      28.758  22.743 -18.956  1.00  0.00    -0.000 C 
BRANCH  18  19
ATOM     19  C   UNL     1      28.489  23.888 -19.948  1.00  0.00    -0.003 C 
ATOM     20  C   UNL     1      27.072  23.860 -20.519  1.00  0.00     0.004 C 
ENDBRANCH  18  19
ENDBRANCH  17  18
ENDBRANCH  16  17
ENDBRANCH  15  16
ENDBRANCH  14  15
ENDBRANCH  13  14
ENDBRANCH  12  13
ENDBRANCH   1  12
TORSDOF 16
ENDMDL
MODEL 2
REMARK VINA RESULT:    -3.491      2.828      5.027
REMARK INTER + INTRA:          -9.765
REMARK INTER:                  -7.487
REMARK INTRA:                  -2.277
REMARK UNBOUND:                -3.008
REMARK SMILES CCCCCCCCCCCCCCCCCC(=O)[O-]
REMARK SMILES IDX 10 1 11 2 12 3 13 4 14 5 15 6 16 7 17 8 18 9 19 10 20 11
REMARK SMILES IDX 9 12 8 13 7 14 6 15 5 16 4 17 3 18 2 19 1 20
REMARK H PARENT
REMARK Flexibility Score: inf
ROOT
ATOM      1  C   UNL     1      28.053  27.120 -16.485  1.00  0.00     0.000 C 
ENDROOT
BRANCH   1   2
ATOM      2  C   UNL     1      29.544  27.437 -16.673  1.00  0.00     0.000 C 
BRANCH   2   3
ATOM      3  C   UNL     1      30.379  27.103 -15.423  1.00  0.00     0.000 C 
BRANCH   3   4
ATOM      4  C   UNL     1      31.526  26.123 -15.730  1.00  0.00     0.000 C 
BRANCH   4   5
ATOM      5  C   UNL     1      32.758  26.305 -14.823  1.00  0.00     0.000 C 
BRANCH   5   6
ATOM      6  C   UNL     1      34.078  26.242 -15.612  1.00  0.00     0.000 C 
BRANCH   6   7
ATOM      7  C   UNL     1      33.900  25.656 -17.024  1.00  0.00     0.006 C 
BRANCH   7   8
ATOM      8  C   UNL     1      35.105  25.864 -17.955  1.00  0.00     0.053 C 
BRANCH   8   9
ATOM      9  C   UNL     1      34.701  26.437 -19.279  1.00  0.00     0.041 C 
ATOM     10  O   UNL     1      33.519  26.829 -19.464  1.00  0.00    -0.550 OA
ATOM     11  O   UNL     1      35.638  26.569 -20.295  1.00  0.00    -0.550 OA
ENDBRANCH   8   9
ENDBRANCH   7   8
ENDBRANCH   6   7
ENDBRANCH   5   6
ENDBRANCH   4   5
ENDBRANCH   3   4
ENDBRANCH   2   3
ENDBRANCH   1   2
BRANCH   1  12
ATOM     12  C   UNL     1      27.763  26.373 -15.170  1.00  0.00     0.000 C 
BRANCH  12  13
ATOM     13  C   UNL     1      27.055  25.024 -15.415  1.00  0.00    -0.000 C 
BRANCH  13  14
ATOM     14  C   UNL     1      27.976  23.805 -15.231  1.00  0.00    -0.000 C 
BRANCH  14  15
ATOM     15  C   UNL     1      28.224  23.039 -16.537  1.00  0.00    -0.000 C 
BRANCH  15  16
ATOM     16  C   UNL     1      29.415  23.628 -17.307  1.00  0.00    -0.000 C 
BRANCH  16  17
ATOM     17  C   UNL     1      29.003  24.270 -18.644  1.00  0.00    -0.000 C 
BRANCH  17  18
ATOM     18  C   UNL     1      28.058  23.416 -19.515  1.00  0.00    -0.000 C 
BRANCH  18  19
ATOM     19  C   UNL     1      26.823  24.161 -20.050  1.00  0.00    -0.003 C 
ATOM     20  C   UNL     1      26.091  24.954 -18.969  1.00  0.00     0.004 C 
ENDBRANCH  18  19
ENDBRANCH  17  18
ENDBRANCH  16  17
ENDBRANCH  15  16
ENDBRANCH  14  15
ENDBRANCH  13  14
ENDBRANCH  12  13
ENDBRANCH   1  12
TORSDOF 16
ENDMDL
MODEL 3
REMARK VINA RESULT:    -3.458      2.220      3.536
REMARK INTER + INTRA:          -9.700
REMARK INTER:                  -7.060
REMARK INTRA:                  -2.640
REMARK UNBOUND:                -3.008
REMARK SMILES CCCCCCCCCCCCCCCCCC(=O)[O-]
REMARK SMILES IDX 10 1 11 2 12 3 13 4 14 5 15 6 16 7 17 8 18 9 19 10 20 11
REMARK SMILES IDX 9 12 8 13 7 14 6 15 5 16 4 17 3 18 2 19 1 20
REMARK H PARENT
REMARK Flexibility Score: inf
ROOT
ATOM      1  C   UNL     1      27.992  26.657 -15.000  1.00  0.00     0.000 C 
ENDROOT
BRANCH   1   2
ATOM      2  C   UNL     1      26.993  25.490 -14.965  1.00  0.00     0.000 C 
BRANCH   2   3
ATOM      3  C   UNL     1      27.586  24.226 -14.316  1.00  0.00     0.000 C 
BRANCH   3   4
ATOM      4  C   UNL     1      28.018  23.180 -15.360  1.00  0.00     0.000 C 
BRANCH   4   5
ATOM      5  C   UNL     1      29.293  23.565 -16.134  1.00  0.00     0.000 C 
BRANCH   5   6
ATOM      6  C   UNL     1      29.219  23.162 -17.618  1.00  0.00     0.000 C 
BRANCH   6   7
ATOM      7  C   UNL     1      28.644  24.277 -18.509  1.00  0.00     0.006 C 
BRANCH   7   8
ATOM      8  C   UNL     1      27.474  23.836 -19.403  1.00  0.00     0.053 C 
BRANCH   8   9
ATOM      9  C   UNL     1      26.273  24.715 -19.233  1.00  0.00     0.041 C 
ATOM     10  O   UNL     1      25.749  25.271 -20.234  1.00  0.00    -0.550 OA
ATOM     11  O   UNL     1      25.713  24.893 -17.975  1.00  0.00    -0.550 OA
ENDBRANCH   8   9
ENDBRANCH   7   8
ENDBRANCH   6   7
ENDBRANCH   5   6
ENDBRANCH   4   5
ENDBRANCH   3   4
ENDBRANCH   2   3
ENDBRANCH   1   2
BRANCH   1  12
ATOM     12  C   UNL     1      28.229  27.196 -16.422  1.00  0.00     0.000 C 
BRANCH  12  13
ATOM     13  C   UNL     1      29.729  27.407 -16.717  1.00  0.00    -0.000 C 
BRANCH  13  14
ATOM     14  C   UNL     1      30.637  27.143 -15.503  1.00  0.00    -0.000 C 
BRANCH  14  15
ATOM     15  C   UNL     1      31.960  26.464 -15.882  1.00  0.00    -0.000 C 
BRANCH  15  16
ATOM     16  C   UNL     1      31.949  26.009 -17.348  1.00  0.00    -0.000 C 
BRANCH  16  17
ATOM     17  C   UNL     1      33.287  25.389 -17.791  1.00  0.00    -0.000 C 
BRANCH  17  18
ATOM     18  C   UNL     1      33.313  24.858 -19.239  1.00  0.00    -0.000 C 
BRANCH  18  19
ATOM     19  C   UNL     1      32.483  23.585 -19.476  1.00  0.00    -0.003 C 
ATOM     20  C   UNL     1      31.531  23.708 -20.665  1.00  0.00     0.004 C 
ENDBRANCH  18  19
ENDBRANCH  17  18
ENDBRANCH  16  17
ENDBRANCH  15  16
ENDBRANCH  14  15
ENDBRANCH  13  14
ENDBRANCH  12  13
ENDBRANCH   1  12
TORSDOF 16
ENDMDL
MODEL 4
REMARK VINA RESULT:    -3.452      2.471      4.808
REMARK INTER + INTRA:          -9.688
REMARK INTER:                  -7.065
REMARK INTRA:                  -2.623
REMARK UNBOUND:                -3.008
REMARK SMILES CCCCCCCCCCCCCCCCCC(=O)[O-]
REMARK SMILES IDX 10 1 11 2 12 3 13 4 14 5 15 6 16 7 17 8 18 9 19 10 20 11
REMARK SMILES IDX 9 12 8 13 7 14 6 15 5 16 4 17 3 18 2 19 1 20
REMARK H PARENT
REMARK Flexibility Score: inf
ROOT
ATOM      1  C   UNL     1      27.346  26.109 -17.027  1.00  0.00     0.000 C 
ENDROOT
BRANCH   1   2
ATOM      2  C   UNL     1      27.692  27.598 -16.876  1.00  0.00     0.000 C 
BRANCH   2   3
ATOM      3  C   UNL     1      29.211  27.854 -16.894  1.00  0.00     0.000 C 
BRANCH   3   4
ATOM      4  C   UNL     1      30.025  26.551 -16.798  1.00  0.00     0.000 C 
BRANCH   4   5
ATOM      5  C   UNL     1      31.072  26.554 -15.668  1.00  0.00     0.000 C 
BRANCH   5   6
ATOM      6  C   UNL     1      30.625  25.718 -14.455  1.00  0.00     0.000 C 
BRANCH   6   7
ATOM      7  C   UNL     1      29.878  26.553 -13.400  1.00  0.00     0.006 C 
BRANCH   7   8
ATOM      8  C   UNL     1      28.348  26.411 -13.446  1.00  0.00     0.053 C 
BRANCH   8   9
ATOM      9  C   UNL     1      27.871  25.221 -12.672  1.00  0.00     0.041 C 
ATOM     10  O   UNL     1      28.650  24.626 -11.882  1.00  0.00    -0.550 OA
ATOM     11  O   UNL     1      26.556  24.791 -12.796  1.00  0.00    -0.550 OA
ENDBRANCH   8   9
ENDBRANCH   7   8
ENDBRANCH   6   7
ENDBRANCH   5   6
ENDBRANCH   4   5
ENDBRANCH   3   4
ENDBRANCH   2   3
ENDBRANCH   1   2
BRANCH   1  12
ATOM     12  C   UNL     1      26.407  25.832 -18.214  1.00  0.00     0.000 C 
BRANCH  12  13
ATOM     13  C   UNL     1      26.505  24.370 -18.699  1.00  0.00    -0.000 C 
BRANCH  13  14
ATOM     14  C   UNL     1      27.141  24.226 -20.093  1.00  0.00    -0.000 C 
BRANCH  14  15
ATOM     15  C   UNL     1      28.203  23.121 -20.155  1.00  0.00    -0.000 C 
BRANCH  15  16
ATOM     16  C   UNL     1      29.537  23.601 -19.567  1.00  0.00    -0.000 C 
BRANCH  16  17
ATOM     17  C   UNL     1      29.802  23.044 -18.156  1.00  0.00    -0.000 C 
BRANCH  17  18
ATOM     18  C   UNL     1      29.065  21.731 -17.823  1.00  0.00    -0.000 C 
BRANCH  18  19
ATOM     19  C   UNL     1      28.563  21.621 -16.373  1.00  0.00    -0.003 C 
ATOM     20  C   UNL     1      28.354  22.982 -15.710  1.00  0.00     0.004 C 
ENDBRANCH  18  19
ENDBRANCH  17  18
ENDBRANCH  16  17
ENDBRANCH  15  16
ENDBRANCH  14  15
ENDBRANCH  13  14
ENDBRANCH  12  13
ENDBRANCH   1  12
TORSDOF 16
ENDMDL
MODEL 5
REMARK VINA RESULT:    -3.429      3.107      5.871
REMARK INTER + INTRA:          -9.645
REMARK INTER:                  -7.337
REMARK INTRA:                  -2.307
REMARK UNBOUND:                -3.008
REMARK SMILES CCCCCCCCCCCCCCCCCC(=O)[O-]
REMARK SMILES IDX 10 1 11 2 12 3 13 4 14 5 15 6 16 7 17 8 18 9 19 10 20 11
REMARK SMILES IDX 9 12 8 13 7 14 6 15 5 16 4 17 3 18 2 19 1 20
REMARK H PARENT
REMARK Flexibility Score: inf
ROOT
ATOM      1  C   UNL     1      26.714  25.582 -17.297  1.00  0.00     0.000 C 
ENDROOT
BRANCH   1   2
ATOM      2  C   UNL     1      25.859  24.813 -18.315  1.00  0.00     0.000 C 
BRANCH   2   3
ATOM      3  C   UNL     1      26.104  25.282 -19.762  1.00  0.00     0.000 C 
BRANCH   3   4
ATOM      4  C   UNL     1      26.922  24.263 -20.577  1.00  0.00     0.000 C 
BRANCH   4   5
ATOM      5  C   UNL     1      27.693  23.250 -19.709  1.00  0.00     0.000 C 
BRANCH   5   6
ATOM      6  C   UNL     1      29.122  23.725 -19.389  1.00  0.00     0.000 C 
BRANCH   6   7
ATOM      7  C   UNL     1      29.648  23.168 -18.053  1.00  0.00     0.006 C 
BRANCH   7   8
ATOM      8  C   UNL     1      28.631  22.315 -17.278  1.00  0.00     0.053 C 
BRANCH   8   9
ATOM      9  C   UNL     1      29.005  20.865 -17.270  1.00  0.00     0.041 C 
ATOM     10  O   UNL     1      28.804  20.165 -16.242  1.00  0.00    -0.550 OA
ATOM     11  O   UNL     1      29.542  20.278 -18.409  1.00  0.00    -0.550 OA
ENDBRANCH   8   9
ENDBRANCH   7   8
ENDBRANCH   6   7
ENDBRANCH   5   6
ENDBRANCH   4   5
ENDBRANCH   3   4
ENDBRANCH   2   3
ENDBRANCH   1   2
BRANCH   1  12
ATOM     12  C   UNL     1      26.718  24.925 -15.905  1.00  0.00     0.000 C 
BRANCH  12  13
ATOM     13  C   UNL     1      27.315  25.855 -14.828  1.00  0.00    -0.000 C 
BRANCH  13  14
ATOM     14  C   UNL     1      28.280  25.140 -13.865  1.00  0.00    -0.000 C 
BRANCH  14  15
ATOM     15  C   UNL     1      28.876  26.079 -12.808  1.00  0.00    -0.000 C 
BRANCH  15  16
ATOM     16  C   UNL     1      30.047  26.888 -13.384  1.00  0.00    -0.000 C 
BRANCH  16  17
ATOM     17  C   UNL     1      30.921  26.068 -14.351  1.00  0.00    -0.000 C 
BRANCH  17  18
ATOM     18  C   UNL     1      31.325  26.801 -15.647  1.00  0.00    -0.000 C 
BRANCH  18  19
ATOM     19  C   UNL     1      30.266  26.774 -16.762  1.00  0.00    -0.003 C 
ATOM     20  C   UNL     1      29.451  28.065 -16.840  1.00  0.00     0.004 C 
ENDBRANCH  18  19
ENDBRANCH  17  18
ENDBRANCH  16  17
ENDBRANCH  15  16
ENDBRANCH  14  15
ENDBRANCH  13  14
ENDBRANCH  12  13
ENDBRANCH   1  12
TORSDOF 16
ENDMDL
MODEL 6
REMARK VINA RESULT:    -3.425      2.226      5.443
REMARK INTER + INTRA:          -9.636
REMARK INTER:                  -6.807
REMARK INTRA:                  -2.829
REMARK UNBOUND:                -3.008
REMARK SMILES CCCCCCCCCCCCCCCCCC(=O)[O-]
REMARK SMILES IDX 10 1 11 2 12 3 13 4 14 5 15 6 16 7 17 8 18 9 19 10 20 11
REMARK SMILES IDX 9 12 8 13 7 14 6 15 5 16 4 17 3 18 2 19 1 20
REMARK H PARENT
REMARK Flexibility Score: inf
ROOT
ATOM      1  C   UNL     1      29.295  28.060 -16.997  1.00  0.00     0.000 C 
ENDROOT
BRANCH   1   2
ATOM      2  C   UNL     1      30.282  27.385 -16.033  1.00  0.00     0.000 C 
BRANCH   2   3
ATOM      3  C   UNL     1      31.267  26.449 -16.758  1.00  0.00     0.000 C 
BRANCH   3   4
ATOM      4  C   UNL     1      31.037  24.969 -16.401  1.00  0.00     0.000 C 
BRANCH   4   5
ATOM      5  C   UNL     1      30.573  24.108 -17.591  1.00  0.00     0.000 C 
BRANCH   5   6
ATOM      6  C   UNL     1      29.494  23.086 -17.186  1.00  0.00     0.000 C 
BRANCH   6   7
ATOM      7  C   UNL     1      28.445  22.862 -18.290  1.00  0.00     0.006 C 
BRANCH   7   8
ATOM      8  C   UNL     1      28.497  23.888 -19.433  1.00  0.00     0.053 C 
BRANCH   8   9
ATOM      9  C   UNL     1      27.203  23.960 -20.183  1.00  0.00     0.041 C 
ATOM     10  O   UNL     1      27.025  23.249 -21.207  1.00  0.00    -0.550 OA
ATOM     11  O   UNL     1      26.180  24.784 -19.732  1.00  0.00    -0.550 OA
ENDBRANCH   8   9
ENDBRANCH   7   8
ENDBRANCH   6   7
ENDBRANCH   5   6
ENDBRANCH   4   5
ENDBRANCH   3   4
ENDBRANCH   2   3
ENDBRANCH   1   2
BRANCH   1  12
ATOM     12  C   UNL     1      27.829  27.702 -16.697  1.00  0.00     0.000 C 
BRANCH  12  13
ATOM     13  C   UNL     1      27.578  26.181 -16.772  1.00  0.00    -0.000 C 
BRANCH  13  14
ATOM     14  C   UNL     1      26.882  25.611 -15.523  1.00  0.00    -0.000 C 
BRANCH  14  15
ATOM     15  C   UNL     1      27.872  25.108 -14.464  1.00  0.00    -0.000 C 
BRANCH  15  16
ATOM     16  C   UNL     1      28.064  26.146 -13.349  1.00  0.00    -0.000 C 
BRANCH  16  17
ATOM     17  C   UNL     1      29.170  25.753 -12.353  1.00  0.00    -0.000 C 
BRANCH  17  18
ATOM     18  C   UNL     1      30.553  26.377 -12.632  1.00  0.00    -0.000 C 
BRANCH  18  19
ATOM     19  C   UNL     1      31.727  25.384 -12.611  1.00  0.00    -0.003 C 
ATOM     20  C   UNL     1      31.298  23.949 -12.912  1.00  0.00     0.004 C 
ENDBRANCH  18  19
ENDBRANCH  17  18
ENDBRANCH  16  17
ENDBRANCH  15  16
ENDBRANCH  14  15
ENDBRANCH  13  14
ENDBRANCH  12  13
ENDBRANCH   1  12
TORSDOF 16
ENDMDL
MODEL 7
REMARK VINA RESULT:    -3.363      2.522      5.044
REMARK INTER + INTRA:          -9.516
REMARK INTER:                  -6.553
REMARK INTRA:                  -2.963
REMARK UNBOUND:                -3.008
REMARK SMILES CCCCCCCCCCCCCCCCCC(=O)[O-]
REMARK SMILES IDX 10 1 11 2 12 3 13 4 14 5 15 6 16 7 17 8 18 9 19 10 20 11
REMARK SMILES IDX 9 12 8 13 7 14 6 15 5 16 4 17 3 18 2 19 1 20
REMARK H PARENT
REMARK Flexibility Score: inf
ROOT
ATOM      1  C   UNL     1      27.293  26.679 -17.454  1.00  0.00     0.000 C 
ENDROOT
BRANCH   1   2
ATOM      2  C   UNL     1      26.619  25.299 -17.483  1.00  0.00     0.000 C 
BRANCH   2   3
ATOM      3  C   UNL     1      26.035  24.958 -18.867  1.00  0.00     0.000 C 
BRANCH   3   4
ATOM      4  C   UNL     1      26.991  24.093 -19.709  1.00  0.00     0.000 C 
BRANCH   4   5
ATOM      5  C   UNL     1      27.990  23.275 -18.869  1.00  0.00     0.000 C 
BRANCH   5   6
ATOM      6  C   UNL     1      29.453  23.584 -19.236  1.00  0.00     0.000 C 
BRANCH   6   7
ATOM      7  C   UNL     1      30.159  24.454 -18.181  1.00  0.00     0.006 C 
BRANCH   7   8
ATOM      8  C   UNL     1      30.992  23.662 -17.160  1.00  0.00     0.053 C 
BRANCH   8   9
ATOM      9  C   UNL     1      32.460  23.921 -17.311  1.00  0.00     0.041 C 
ATOM     10  O   UNL     1      33.029  23.714 -18.415  1.00  0.00    -0.550 OA
ATOM     11  O   UNL     1      33.192  24.424 -16.243  1.00  0.00    -0.550 OA
ENDBRANCH   8   9
ENDBRANCH   7   8
ENDBRANCH   6   7
ENDBRANCH   5   6
ENDBRANCH   4   5
ENDBRANCH   3   4
ENDBRANCH   2   3
ENDBRANCH   1   2
BRANCH   1  12
ATOM     12  C   UNL     1      28.084  26.929 -16.158  1.00  0.00     0.000 C 
BRANCH  12  13
ATOM     13  C   UNL     1      29.430  27.633 -16.429  1.00  0.00    -0.000 C 
BRANCH  13  14
ATOM     14  C   UNL     1      30.589  27.091 -15.573  1.00  0.00    -0.000 C 
BRANCH  14  15
ATOM     15  C   UNL     1      30.137  26.609 -14.188  1.00  0.00    -0.000 C 
BRANCH  15  16
ATOM     16  C   UNL     1      30.805  25.277 -13.821  1.00  0.00    -0.000 C 
BRANCH  16  17
ATOM     17  C   UNL     1      29.787  24.157 -13.537  1.00  0.00    -0.000 C 
BRANCH  17  18
ATOM     18  C   UNL     1      28.322  24.623 -13.408  1.00  0.00    -0.000 C 
BRANCH  18  19
ATOM     19  C   UNL     1      27.296  23.744 -14.143  1.00  0.00    -0.003 C 
ATOM     20  C   UNL     1      27.941  22.791 -15.148  1.00  0.00     0.004 C 
ENDBRANCH  18  19
ENDBRANCH  17  18
ENDBRANCH  16  17
ENDBRANCH  15  16
ENDBRANCH  14  15
ENDBRANCH  13  14
ENDBRANCH  12  13
ENDBRANCH   1  12
TORSDOF 16
ENDMDL
MODEL 8
REMARK VINA RESULT:    -3.351      3.219      5.208
REMARK INTER + INTRA:          -9.494
REMARK INTER:                  -6.862
REMARK INTRA:                  -2.632
REMARK UNBOUND:                -3.008
REMARK SMILES CCCCCCCCCCCCCCCCCC(=O)[O-]
REMARK SMILES IDX 10 1 11 2 12 3 13 4 14 5 15 6 16 7 17 8 18 9 19 10 20 11
REMARK SMILES IDX 9 12 8 13 7 14 6 15 5 16 4 17 3 18 2 19 1 20
REMARK H PARENT
REMARK Flexibility Score: inf
ROOT
ATOM      1  C   UNL     1      27.686  27.088 -16.528  1.00  0.00     0.000 C 
ENDROOT
BRANCH   1   2
ATOM      2  C   UNL     1      28.939  27.935 -16.796  1.00  0.00     0.000 C 
BRANCH   2   3
ATOM      3  C   UNL     1      30.175  27.417 -16.037  1.00  0.00     0.000 C 
BRANCH   3   4
ATOM      4  C   UNL     1      31.070  26.526 -16.917  1.00  0.00     0.000 C 
BRANCH   4   5
ATOM      5  C   UNL     1      32.305  25.969 -16.182  1.00  0.00     0.000 C 
BRANCH   5   6
ATOM      6  C   UNL     1      32.325  26.361 -14.694  1.00  0.00     0.000 C 
BRANCH   6   7
ATOM      7  C   UNL     1      31.973  25.185 -13.764  1.00  0.00     0.006 C 
BRANCH   7   8
ATOM      8  C   UNL     1      32.875  25.065 -12.525  1.00  0.00     0.053 C 
BRANCH   8   9
ATOM      9  C   UNL     1      34.304  25.385 -12.837  1.00  0.00     0.041 C 
ATOM     10  O   UNL     1      34.989  24.599 -13.543  1.00  0.00    -0.550 OA
ATOM     11  O   UNL     1      34.870  26.568 -12.378  1.00  0.00    -0.550 OA
ENDBRANCH   8   9
ENDBRANCH   7   8
ENDBRANCH   6   7
ENDBRANCH   5   6
ENDBRANCH   4   5
ENDBRANCH   3   4
ENDBRANCH   2   3
ENDBRANCH   1   2
BRANCH   1  12
ATOM     12  C   UNL     1      27.702  26.424 -15.139  1.00  0.00     0.000 C 
BRANCH  12  13
ATOM     13  C   UNL     1      26.674  25.277 -15.036  1.00  0.00    -0.000 C 
BRANCH  13  14
ATOM     14  C   UNL     1      27.300  23.878 -15.176  1.00  0.00    -0.000 C 
BRANCH  14  15
ATOM     15  C   UNL     1      28.834  23.904 -15.166  1.00  0.00    -0.000 C 
BRANCH  15  16
ATOM     16  C   UNL     1      29.407  23.234 -16.423  1.00  0.00    -0.000 C 
BRANCH  16  17
ATOM     17  C   UNL     1      28.345  23.004 -17.514  1.00  0.00    -0.000 C 
BRANCH  17  18
ATOM     18  C   UNL     1      28.331  24.054 -18.644  1.00  0.00    -0.000 C 
BRANCH  18  19
ATOM     19  C   UNL     1      27.064  24.049 -19.516  1.00  0.00    -0.003 C 
ATOM     20  C   UNL     1      25.947  24.923 -18.947  1.00  0.00     0.004 C 
ENDBRANCH  18  19
ENDBRANCH  17  18
ENDBRANCH  16  17
ENDBRANCH  15  16
ENDBRANCH  14  15
ENDBRANCH  13  14
ENDBRANCH  12  13
ENDBRANCH   1  12
TORSDOF 16
ENDMDL
MODEL 9
REMARK VINA RESULT:    -3.350      2.534      5.251
REMARK INTER + INTRA:          -9.490
REMARK INTER:                  -6.574
REMARK INTRA:                  -2.916
REMARK UNBOUND:                -3.008
REMARK SMILES CCCCCCCCCCCCCCCCCC(=O)[O-]
REMARK SMILES IDX 10 1 11 2 12 3 13 4 14 5 15 6 16 7 17 8 18 9 19 10 20 11
REMARK SMILES IDX 9 12 8 13 7 14 6 15 5 16 4 17 3 18 2 19 1 20
REMARK H PARENT
REMARK Flexibility Score: inf
ROOT
ATOM      1  C   UNL     1      27.866  27.261 -16.746  1.00  0.00     0.000 C 
ENDROOT
BRANCH   1   2
ATOM      2  C   UNL     1      27.900  25.751 -17.026  1.00  0.00     0.000 C 
BRANCH   2   3
ATOM      3  C   UNL     1      26.617  25.251 -17.716  1.00  0.00     0.000 C 
BRANCH   3   4
ATOM      4  C   UNL     1      26.917  24.327 -18.910  1.00  0.00     0.000 C 
BRANCH   4   5
ATOM      5  C   UNL     1      28.419  24.064 -19.130  1.00  0.00     0.000 C 
BRANCH   5   6
ATOM      6  C   UNL     1      28.724  22.573 -19.363  1.00  0.00     0.000 C 
BRANCH   6   7
ATOM      7  C   UNL     1      29.785  22.024 -18.393  1.00  0.00     0.006 C 
BRANCH   7   8
ATOM      8  C   UNL     1      30.053  22.920 -17.173  1.00  0.00     0.053 C 
BRANCH   8   9
ATOM      9  C   UNL     1      29.411  22.384 -15.930  1.00  0.00     0.041 C 
ATOM     10  O   UNL     1      28.159  22.413 -15.802  1.00  0.00    -0.550 OA
ATOM     11  O   UNL     1      30.193  21.821 -14.930  1.00  0.00    -0.550 OA
ENDBRANCH   8   9
ENDBRANCH   7   8
ENDBRANCH   6   7
ENDBRANCH   5   6
ENDBRANCH   4   5
ENDBRANCH   3   4
ENDBRANCH   2   3
ENDBRANCH   1   2
BRANCH   1  12
ATOM     12  C   UNL     1      29.267  27.898 -16.742  1.00  0.00     0.000 C 
BRANCH  12  13
ATOM     13  C   UNL     1      30.386  26.835 -16.775  1.00  0.00    -0.000 C 
BRANCH  13  14
ATOM     14  C   UNL     1      31.276  26.840 -15.519  1.00  0.00    -0.000 C 
BRANCH  14  15
ATOM     15  C   UNL     1      31.421  25.452 -14.883  1.00  0.00    -0.000 C 
BRANCH  15  16
ATOM     16  C   UNL     1      30.680  25.377 -13.541  1.00  0.00    -0.000 C 
BRANCH  16  17
ATOM     17  C   UNL     1      29.850  26.640 -13.247  1.00  0.00    -0.000 C 
BRANCH  17  18
ATOM     18  C   UNL     1      28.348  26.391 -12.995  1.00  0.00    -0.000 C 
BRANCH  18  19
ATOM     19  C   UNL     1      27.841  25.005 -13.430  1.00  0.00    -0.003 C 
ATOM     20  C   UNL     1      26.353  24.999 -13.777  1.00  0.00     0.004 C 
ENDBRANCH  18  19
ENDBRANCH  17  18
ENDBRANCH  16  17
ENDBRANCH  15  16
ENDBRANCH  14  15
ENDBRANCH  13  14
ENDBRANCH  12  13
ENDBRANCH   1  12
TORSDOF 16
ENDMDL
