MODEL 1
REMARK VINA RESULT:    -0.803      0.000      0.000
REMARK INTER + INTRA:          -2.524
REMARK INTER:                  -1.836
REMARK INTRA:                  -0.688
REMARK UNBOUND:                -0.688
REMARK SMILES CCCCCCCCCCCCCCCCCCCCCCCC(=O)[O-]
REMARK SMILES IDX 13 1 14 2 15 3 16 4 17 5 18 6 19 7 20 8 21 9 22 10 23 11
REMARK SMILES IDX 24 12 25 13 26 14 12 15 11 16 10 17 9 18 8 19 7 20 6 21 5 22
REMARK SMILES IDX 4 23 3 24 2 25 1 26
REMARK H PARENT
REMARK Flexibility Score: inf
ROOT
ATOM      1  C   UNL     1      -0.733 -23.114  15.276  1.00  0.00     0.000 C 
ENDROOT
BRANCH   1   2
ATOM      2  C   UNL     1      -1.777 -22.839  16.368  1.00  0.00     0.000 C 
BRANCH   2   3
ATOM      3  C   UNL     1      -3.083 -22.308  15.761  1.00  0.00     0.000 C 
BRANCH   3   4
ATOM      4  C   UNL     1      -4.290 -23.112  16.267  1.00  0.00     0.000 C 
BRANCH   4   5
ATOM      5  C   UNL     1      -5.361 -22.232  16.934  1.00  0.00     0.000 C 
BRANCH   5   6
ATOM      6  C   UNL     1      -6.808 -22.525  16.500  1.00  0.00     0.000 C 
BRANCH   6   7
ATOM      7  C   UNL     1      -7.703 -22.974  17.665  1.00  0.00     0.000 C 
BRANCH   7   8
ATOM      8  C   UNL     1      -7.928 -21.829  18.659  1.00  0.00     0.000 C 
BRANCH   8   9
ATOM      9  C   UNL     1      -8.865 -22.261  19.794  1.00  0.00     0.000 C 
BRANCH   9  10
ATOM     10  C   UNL     1     -10.336 -22.072  19.395  1.00  0.00     0.006 C 
BRANCH  10  11
ATOM     11  C   UNL     1     -11.121 -21.265  20.438  1.00  0.00     0.053 C 
BRANCH  11  12
ATOM     12  C   UNL     1     -10.251 -20.269  21.141  1.00  0.00     0.041 C 
ATOM     13  O   UNL     1      -9.690 -20.573  22.226  1.00  0.00    -0.550 OA
ATOM     14  O   UNL     1     -10.030 -19.017  20.578  1.00  0.00    -0.550 OA
ENDBRANCH  11  12
ENDBRANCH  10  11
ENDBRANCH   9  10
ENDBRANCH   8   9
ENDBRANCH   7   8
ENDBRANCH   6   7
ENDBRANCH   5   6
ENDBRANCH   4   5
ENDBRANCH   3   4
ENDBRANCH   2   3
ENDBRANCH   1   2
BRANCH   1  15
ATOM     15  C   UNL     1       0.707 -22.839  15.746  1.00  0.00     0.000 C 
BRANCH  15  16
ATOM     16  C   UNL     1       1.800 -23.125  14.696  1.00  0.00     0.000 C 
BRANCH  16  17
ATOM     17  C   UNL     1       3.143 -22.410  14.943  1.00  0.00     0.000 C 
BRANCH  17  18
ATOM     18  C   UNL     1       3.691 -22.532  16.380  1.00  0.00    -0.000 C 
BRANCH  18  19
ATOM     19  C   UNL     1       5.188 -22.876  16.477  1.00  0.00    -0.000 C 
BRANCH  19  20
ATOM     20  C   UNL     1       5.891 -22.159  17.639  1.00  0.00    -0.000 C 
BRANCH  20  21
ATOM     21  C   UNL     1       7.412 -22.344  17.560  1.00  0.00    -0.000 C 
BRANCH  21  22
ATOM     22  C   UNL     1       7.826 -22.904  16.192  1.00  0.00    -0.000 C 
BRANCH  22  23
ATOM     23  C   UNL     1       8.632 -21.895  15.358  1.00  0.00    -0.000 C 
BRANCH  23  24
ATOM     24  C   UNL     1       8.675 -22.261  13.868  1.00  0.00    -0.000 C 
BRANCH  24  25
ATOM     25  C   UNL     1       7.906 -21.233  13.029  1.00  0.00    -0.003 C 
ATOM     26  C   UNL     1       8.759 -19.999  12.749  1.00  0.00     0.004 C 
ENDBRANCH  24  25
ENDBRANCH  23  24
ENDBRANCH  22  23
ENDBRANCH  21  22
ENDBRANCH  20  21
ENDBRANCH  19  20
ENDBRANCH  18  19
ENDBRANCH  17  18
ENDBRANCH  16  17
ENDBRANCH  15  16
ENDBRANCH   1  15
TORSDOF 22
ENDMDL
MODEL 2
REMARK VINA RESULT:    -0.507      1.223      2.343
REMARK INTER + INTRA:          -1.848
REMARK INTER:                  -0.693
REMARK INTRA:                  -1.155
REMARK UNBOUND:                -0.688
REMARK SMILES CCCCCCCCCCCCCCCCCCCCCCCC(=O)[O-]
REMARK SMILES IDX 13 1 14 2 15 3 16 4 17 5 18 6 19 7 20 8 21 9 22 10 23 11
REMARK SMILES IDX 24 12 25 13 26 14 12 15 11 16 10 17 9 18 8 19 7 20 6 21 5 22
REMARK SMILES IDX 4 23 3 24 2 25 1 26
REMARK H PARENT
REMARK Flexibility Score: inf
ROOT
ATOM      1  C   UNL     1      -1.331 -22.984  16.283  1.00  0.00     0.000 C 
ENDROOT
BRANCH   1   2
ATOM      2  C   UNL     1      -2.338 -22.046  15.602  1.00  0.00     0.000 C 
BRANCH   2   3
ATOM      3  C   UNL     1      -3.775 -22.546  15.797  1.00  0.00     0.000 C 
BRANCH   3   4
ATOM      4  C   UNL     1      -3.971 -23.121  17.207  1.00  0.00     0.000 C 
BRANCH   4   5
ATOM      5  C   UNL     1      -5.442 -23.120  17.658  1.00  0.00     0.000 C 
BRANCH   5   6
ATOM      6  C   UNL     1      -6.190 -21.794  17.433  1.00  0.00     0.000 C 
BRANCH   6   7
ATOM      7  C   UNL     1      -7.399 -21.939  16.497  1.00  0.00     0.000 C 
BRANCH   7   8
ATOM      8  C   UNL     1      -8.560 -22.649  17.204  1.00  0.00     0.000 C 
BRANCH   8   9
ATOM      9  C   UNL     1      -9.411 -21.652  18.000  1.00  0.00     0.000 C 
BRANCH   9  10
ATOM     10  C   UNL     1      -8.805 -21.395  19.388  1.00  0.00     0.006 C 
BRANCH  10  11
ATOM     11  C   UNL     1      -9.591 -22.095  20.504  1.00  0.00     0.053 C 
BRANCH  11  12
ATOM     12  C   UNL     1     -10.063 -21.126  21.543  1.00  0.00     0.041 C 
ATOM     13  O   UNL     1     -10.036 -21.440  22.762  1.00  0.00    -0.550 OA
ATOM     14  O   UNL     1     -10.501 -19.861  21.168  1.00  0.00    -0.550 OA
ENDBRANCH  11  12
ENDBRANCH  10  11
ENDBRANCH   9  10
ENDBRANCH   8   9
ENDBRANCH   7   8
ENDBRANCH   6   7
ENDBRANCH   5   6
ENDBRANCH   4   5
ENDBRANCH   3   4
ENDBRANCH   2   3
ENDBRANCH   1   2
BRANCH   1  15
ATOM     15  C   UNL     1      -0.005 -23.099  15.510  1.00  0.00     0.000 C 
BRANCH  15  16
ATOM     16  C   UNL     1       1.263 -22.846  16.349  1.00  0.00     0.000 C 
BRANCH  16  17
ATOM     17  C   UNL     1       2.593 -23.022  15.591  1.00  0.00     0.000 C 
BRANCH  17  18
ATOM     18  C   UNL     1       2.633 -22.380  14.189  1.00  0.00    -0.000 C 
BRANCH  18  19
ATOM     19  C   UNL     1       3.778 -22.867  13.284  1.00  0.00    -0.000 C 
BRANCH  19  20
ATOM     20  C   UNL     1       5.081 -23.124  14.055  1.00  0.00    -0.000 C 
BRANCH  20  21
ATOM     21  C   UNL     1       6.268 -22.426  13.379  1.00  0.00    -0.000 C 
BRANCH  21  22
ATOM     22  C   UNL     1       7.600 -22.920  13.961  1.00  0.00    -0.000 C 
BRANCH  22  23
ATOM     23  C   UNL     1       8.463 -21.777  14.518  1.00  0.00    -0.000 C 
BRANCH  23  24
ATOM     24  C   UNL     1       7.777 -21.027  15.669  1.00  0.00    -0.000 C 
BRANCH  24  25
ATOM     25  C   UNL     1       7.793 -21.863  16.955  1.00  0.00    -0.003 C 
ATOM     26  C   UNL     1       6.544 -21.609  17.795  1.00  0.00     0.004 C 
ENDBRANCH  24  25
ENDBRANCH  23  24
ENDBRANCH  22  23
ENDBRANCH  21  22
ENDBRANCH  20  21
ENDBRANCH  19  20
ENDBRANCH  18  19
ENDBRANCH  17  18
ENDBRANCH  16  17
ENDBRANCH  15  16
ENDBRANCH   1  15
TORSDOF 22
ENDMDL
MODEL 3
REMARK VINA RESULT:    -0.385      5.501     14.623
REMARK INTER + INTRA:          -1.569
REMARK INTER:                  -0.565
REMARK INTRA:                  -1.005
REMARK UNBOUND:                -0.688
REMARK SMILES CCCCCCCCCCCCCCCCCCCCCCCC(=O)[O-]
REMARK SMILES IDX 13 1 14 2 15 3 16 4 17 5 18 6 19 7 20 8 21 9 22 10 23 11
REMARK SMILES IDX 24 12 25 13 26 14 12 15 11 16 10 17 9 18 8 19 7 20 6 21 5 22
REMARK SMILES IDX 4 23 3 24 2 25 1 26
REMARK H PARENT
REMARK Flexibility Score: inf
ROOT
ATOM      1  C   UNL     1      -4.654 -21.797  16.244  1.00  0.00     0.000 C 
ENDROOT
BRANCH   1   2
ATOM      2  C   UNL     1      -3.305 -21.825  15.511  1.00  0.00     0.000 C 
BRANCH   2   3
ATOM      3  C   UNL     1      -2.462 -23.028  15.953  1.00  0.00     0.000 C 
BRANCH   3   4
ATOM      4  C   UNL     1      -1.166 -23.122  15.133  1.00  0.00     0.000 C 
BRANCH   4   5
ATOM      5  C   UNL     1       0.025 -22.423  15.811  1.00  0.00     0.000 C 
BRANCH   5   6
ATOM      6  C   UNL     1       1.382 -23.125  15.627  1.00  0.00     0.000 C 
BRANCH   6   7
ATOM      7  C   UNL     1       2.290 -22.416  14.612  1.00  0.00     0.000 C 
BRANCH   7   8
ATOM      8  C   UNL     1       3.765 -22.753  14.864  1.00  0.00     0.000 C 
BRANCH   8   9
ATOM      9  C   UNL     1       4.048 -22.894  16.365  1.00  0.00     0.000 C 
BRANCH   9  10
ATOM     10  C   UNL     1       5.112 -21.884  16.821  1.00  0.00     0.006 C 
BRANCH  10  11
ATOM     11  C   UNL     1       6.361 -22.572  17.386  1.00  0.00     0.053 C 
BRANCH  11  12
ATOM     12  C   UNL     1       7.616 -22.055  16.752  1.00  0.00     0.041 C 
ATOM     13  O   UNL     1       7.770 -22.125  15.504  1.00  0.00    -0.550 OA
ATOM     14  O   UNL     1       8.600 -21.463  17.535  1.00  0.00    -0.550 OA
ENDBRANCH  11  12
ENDBRANCH  10  11
ENDBRANCH   9  10
ENDBRANCH   8   9
ENDBRANCH   7   8
ENDBRANCH   6   7
ENDBRANCH   5   6
ENDBRANCH   4   5
ENDBRANCH   3   4
ENDBRANCH   2   3
ENDBRANCH   1   2
BRANCH   1  15
ATOM     15  C   UNL     1      -5.734 -21.014  15.475  1.00  0.00     0.000 C 
BRANCH  15  16
ATOM     16  C   UNL     1      -7.152 -21.616  15.550  1.00  0.00     0.000 C 
BRANCH  16  17
ATOM     17  C   UNL     1      -8.290 -20.655  15.154  1.00  0.00     0.000 C 
BRANCH  17  18
ATOM     18  C   UNL     1      -9.703 -21.272  15.184  1.00  0.00    -0.000 C 
BRANCH  18  19
ATOM     19  C   UNL     1     -10.738 -20.485  16.007  1.00  0.00    -0.000 C 
BRANCH  19  20
ATOM     20  C   UNL     1     -10.508 -20.599  17.522  1.00  0.00    -0.000 C 
BRANCH  20  21
ATOM     21  C   UNL     1     -10.813 -22.018  18.019  1.00  0.00    -0.000 C 
BRANCH  21  22
ATOM     22  C   UNL     1     -11.093 -22.021  19.529  1.00  0.00    -0.000 C 
BRANCH  22  23
ATOM     23  C   UNL     1     -10.673 -20.710  20.212  1.00  0.00    -0.000 C 
BRANCH  23  24
ATOM     24  C   UNL     1      -9.517 -20.907  21.204  1.00  0.00    -0.000 C 
BRANCH  24  25
ATOM     25  C   UNL     1      -9.910 -20.424  22.606  1.00  0.00    -0.003 C 
ATOM     26  C   UNL     1     -10.816 -21.434  23.304  1.00  0.00     0.004 C 
ENDBRANCH  24  25
ENDBRANCH  23  24
ENDBRANCH  22  23
ENDBRANCH  21  22
ENDBRANCH  20  21
ENDBRANCH  19  20
ENDBRANCH  18  19
ENDBRANCH  17  18
ENDBRANCH  16  17
ENDBRANCH  15  16
ENDBRANCH   1  15
TORSDOF 22
ENDMDL
MODEL 4
REMARK VINA RESULT:     0.640      1.533      2.015
REMARK INTER + INTRA:           0.775
REMARK INTER:                   2.028
REMARK INTRA:                  -1.253
REMARK UNBOUND:                -0.688
REMARK SMILES CCCCCCCCCCCCCCCCCCCCCCCC(=O)[O-]
REMARK SMILES IDX 13 1 14 2 15 3 16 4 17 5 18 6 19 7 20 8 21 9 22 10 23 11
REMARK SMILES IDX 24 12 25 13 26 14 12 15 11 16 10 17 9 18 8 19 7 20 6 21 5 22
REMARK SMILES IDX 4 23 3 24 2 25 1 26
REMARK H PARENT
REMARK Flexibility Score: inf
ROOT
ATOM      1  C   UNL     1      -1.413 -22.807  16.281  1.00  0.00     0.000 C 
ENDROOT
BRANCH   1   2
ATOM      2  C   UNL     1      -2.507 -22.444  15.266  1.00  0.00     0.000 C 
BRANCH   2   3
ATOM      3  C   UNL     1      -3.867 -23.011  15.695  1.00  0.00     0.000 C 
BRANCH   3   4
ATOM      4  C   UNL     1      -4.219 -22.573  17.124  1.00  0.00     0.000 C 
BRANCH   4   5
ATOM      5  C   UNL     1      -5.735 -22.465  17.362  1.00  0.00     0.000 C 
BRANCH   5   6
ATOM      6  C   UNL     1      -6.504 -21.653  16.304  1.00  0.00     0.000 C 
BRANCH   6   7
ATOM      7  C   UNL     1      -7.957 -22.119  16.131  1.00  0.00     0.000 C 
BRANCH   7   8
ATOM      8  C   UNL     1      -8.690 -22.146  17.478  1.00  0.00     0.000 C 
BRANCH   8   9
ATOM      9  C   UNL     1     -10.053 -21.451  17.377  1.00  0.00     0.000 C 
BRANCH   9  10
ATOM     10  C   UNL     1     -10.453 -20.825  18.721  1.00  0.00     0.006 C 
BRANCH  10  11
ATOM     11  C   UNL     1      -9.329 -20.915  19.761  1.00  0.00     0.053 C 
BRANCH  11  12
ATOM     12  C   UNL     1      -9.868 -21.074  21.149  1.00  0.00     0.041 C 
ATOM     13  O   UNL     1     -10.189 -20.060  21.824  1.00  0.00    -0.550 OA
ATOM     14  O   UNL     1     -10.050 -22.343  21.685  1.00  0.00    -0.550 OA
ENDBRANCH  11  12
ENDBRANCH  10  11
ENDBRANCH   9  10
ENDBRANCH   8   9
ENDBRANCH   7   8
ENDBRANCH   6   7
ENDBRANCH   5   6
ENDBRANCH   4   5
ENDBRANCH   3   4
ENDBRANCH   2   3
ENDBRANCH   1   2
BRANCH   1  15
ATOM     15  C   UNL     1      -0.027 -22.969  15.630  1.00  0.00     0.000 C 
BRANCH  15  16
ATOM     16  C   UNL     1       1.160 -22.515  16.504  1.00  0.00     0.000 C 
BRANCH  16  17
ATOM     17  C   UNL     1       2.542 -22.621  15.831  1.00  0.00     0.000 C 
BRANCH  17  18
ATOM     18  C   UNL     1       2.546 -22.380  14.308  1.00  0.00    -0.000 C 
BRANCH  18  19
ATOM     19  C   UNL     1       3.800 -22.884  13.573  1.00  0.00    -0.000 C 
BRANCH  19  20
ATOM     20  C   UNL     1       4.988 -23.125  14.517  1.00  0.00    -0.000 C 
BRANCH  20  21
ATOM     21  C   UNL     1       6.192 -22.262  14.118  1.00  0.00    -0.000 C 
BRANCH  21  22
ATOM     22  C   UNL     1       7.490 -23.082  14.149  1.00  0.00    -0.000 C 
BRANCH  22  23
ATOM     23  C   UNL     1       8.352 -22.874  12.894  1.00  0.00    -0.000 C 
BRANCH  23  24
ATOM     24  C   UNL     1       7.864 -21.702  12.030  1.00  0.00    -0.000 C 
BRANCH  24  25
ATOM     25  C   UNL     1       8.946 -20.623  11.909  1.00  0.00    -0.003 C 
ATOM     26  C   UNL     1       8.405 -19.250  12.297  1.00  0.00     0.004 C 
ENDBRANCH  24  25
ENDBRANCH  23  24
ENDBRANCH  22  23
ENDBRANCH  21  22
ENDBRANCH  20  21
ENDBRANCH  19  20
ENDBRANCH  18  19
ENDBRANCH  17  18
ENDBRANCH  16  17
ENDBRANCH  15  16
ENDBRANCH   1  15
TORSDOF 22
ENDMDL
MODEL 5
REMARK VINA RESULT:     0.678      1.603      3.460
REMARK INTER + INTRA:           0.863
REMARK INTER:                   1.370
REMARK INTRA:                  -0.507
REMARK UNBOUND:                -0.688
REMARK SMILES CCCCCCCCCCCCCCCCCCCCCCCC(=O)[O-]
REMARK SMILES IDX 13 1 14 2 15 3 16 4 17 5 18 6 19 7 20 8 21 9 22 10 23 11
REMARK SMILES IDX 24 12 25 13 26 14 12 15 11 16 10 17 9 18 8 19 7 20 6 21 5 22
REMARK SMILES IDX 4 23 3 24 2 25 1 26
REMARK H PARENT
REMARK Flexibility Score: inf
ROOT
ATOM      1  C   UNL     1      -3.982 -20.610  14.902  1.00  0.00     0.000 C 
ENDROOT
BRANCH   1   2
ATOM      2  C   UNL     1      -5.385 -20.413  15.493  1.00  0.00     0.000 C 
BRANCH   2   3
ATOM      3  C   UNL     1      -6.153 -21.740  15.547  1.00  0.00     0.000 C 
BRANCH   3   4
ATOM      4  C   UNL     1      -5.766 -22.548  16.794  1.00  0.00     0.000 C 
BRANCH   4   5
ATOM      5  C   UNL     1      -6.985 -23.077  17.569  1.00  0.00     0.000 C 
BRANCH   5   6
ATOM      6  C   UNL     1      -7.868 -21.992  18.212  1.00  0.00     0.000 C 
BRANCH   6   7
ATOM      7  C   UNL     1      -9.368 -22.222  17.975  1.00  0.00     0.000 C 
BRANCH   7   8
ATOM      8  C   UNL     1     -10.160 -20.922  18.159  1.00  0.00     0.000 C 
BRANCH   8   9
ATOM      9  C   UNL     1     -11.043 -20.988  19.411  1.00  0.00     0.000 C 
BRANCH   9  10
ATOM     10  C   UNL     1     -10.311 -20.414  20.633  1.00  0.00     0.006 C 
BRANCH  10  11
ATOM     11  C   UNL     1     -11.046 -20.715  21.946  1.00  0.00     0.053 C 
BRANCH  11  12
ATOM     12  C   UNL     1     -10.193 -21.502  22.892  1.00  0.00     0.041 C 
ATOM     13  O   UNL     1      -9.111 -21.021  23.320  1.00  0.00    -0.550 OA
ATOM     14  O   UNL     1     -10.610 -22.753  23.331  1.00  0.00    -0.550 OA
ENDBRANCH  11  12
ENDBRANCH  10  11
ENDBRANCH   9  10
ENDBRANCH   8   9
ENDBRANCH   7   8
ENDBRANCH   6   7
ENDBRANCH   5   6
ENDBRANCH   4   5
ENDBRANCH   3   4
ENDBRANCH   2   3
ENDBRANCH   1   2
BRANCH   1  15
ATOM     15  C   UNL     1      -3.381 -21.987  15.241  1.00  0.00     0.000 C 
BRANCH  15  16
ATOM     16  C   UNL     1      -1.841 -22.051  15.207  1.00  0.00     0.000 C 
BRANCH  16  17
ATOM     17  C   UNL     1      -1.200 -22.922  16.305  1.00  0.00     0.000 C 
BRANCH  17  18
ATOM     18  C   UNL     1       0.323 -23.122  16.172  1.00  0.00    -0.000 C 
BRANCH  18  19
ATOM     19  C   UNL     1       0.860 -23.085  14.730  1.00  0.00    -0.000 C 
BRANCH  19  20
ATOM     20  C   UNL     1       2.395 -23.073  14.664  1.00  0.00    -0.000 C 
BRANCH  20  21
ATOM     21  C   UNL     1       3.005 -22.976  16.069  1.00  0.00    -0.000 C 
BRANCH  21  22
ATOM     22  C   UNL     1       4.520 -22.738  15.993  1.00  0.00    -0.000 C 
BRANCH  22  23
ATOM     23  C   UNL     1       5.057 -21.950  17.198  1.00  0.00    -0.000 C 
BRANCH  23  24
ATOM     24  C   UNL     1       6.576 -22.098  17.371  1.00  0.00    -0.000 C 
BRANCH  24  25
ATOM     25  C   UNL     1       7.232 -22.570  16.068  1.00  0.00    -0.003 C 
ATOM     26  C   UNL     1       8.741 -22.346  16.097  1.00  0.00     0.004 C 
ENDBRANCH  24  25
ENDBRANCH  23  24
ENDBRANCH  22  23
ENDBRANCH  21  22
ENDBRANCH  20  21
ENDBRANCH  19  20
ENDBRANCH  18  19
ENDBRANCH  17  18
ENDBRANCH  16  17
ENDBRANCH  15  16
ENDBRANCH   1  15
TORSDOF 22
ENDMDL
MODEL 6
REMARK VINA RESULT:     0.806      1.876      2.253
REMARK INTER + INTRA:           1.154
REMARK INTER:                   2.040
REMARK INTRA:                  -0.886
REMARK UNBOUND:                -0.688
REMARK SMILES CCCCCCCCCCCCCCCCCCCCCCCC(=O)[O-]
REMARK SMILES IDX 13 1 14 2 15 3 16 4 17 5 18 6 19 7 20 8 21 9 22 10 23 11
REMARK SMILES IDX 24 12 25 13 26 14 12 15 11 16 10 17 9 18 8 19 7 20 6 21 5 22
REMARK SMILES IDX 4 23 3 24 2 25 1 26
REMARK H PARENT
REMARK Flexibility Score: inf
ROOT
ATOM      1  C   UNL     1       0.330 -23.110  15.368  1.00  0.00     0.000 C 
ENDROOT
BRANCH   1   2
ATOM      2  C   UNL     1      -0.570 -21.946  15.806  1.00  0.00     0.000 C 
BRANCH   2   3
ATOM      3  C   UNL     1      -1.960 -22.052  15.166  1.00  0.00     0.000 C 
BRANCH   3   4
ATOM      4  C   UNL     1      -2.809 -23.121  15.871  1.00  0.00     0.000 C 
BRANCH   4   5
ATOM      5  C   UNL     1      -3.806 -22.527  16.881  1.00  0.00     0.000 C 
BRANCH   5   6
ATOM      6  C   UNL     1      -5.289 -22.775  16.554  1.00  0.00     0.000 C 
BRANCH   6   7
ATOM      7  C   UNL     1      -6.243 -22.074  17.532  1.00  0.00     0.000 C 
BRANCH   7   8
ATOM      8  C   UNL     1      -7.632 -22.724  17.507  1.00  0.00     0.000 C 
BRANCH   8   9
ATOM      9  C   UNL     1      -8.670 -21.830  18.197  1.00  0.00     0.000 C 
BRANCH   9  10
ATOM     10  C   UNL     1     -10.090 -22.377  17.991  1.00  0.00     0.006 C 
BRANCH  10  11
ATOM     11  C   UNL     1     -11.125 -21.257  17.822  1.00  0.00     0.053 C 
BRANCH  11  12
ATOM     12  C   UNL     1     -10.890 -20.468  16.570  1.00  0.00     0.041 C 
ATOM     13  O   UNL     1     -10.928 -21.036  15.447  1.00  0.00    -0.550 OA
ATOM     14  O   UNL     1     -10.666 -19.099  16.642  1.00  0.00    -0.550 OA
ENDBRANCH  11  12
ENDBRANCH  10  11
ENDBRANCH   9  10
ENDBRANCH   8   9
ENDBRANCH   7   8
ENDBRANCH   6   7
ENDBRANCH   5   6
ENDBRANCH   4   5
ENDBRANCH   3   4
ENDBRANCH   2   3
ENDBRANCH   1   2
BRANCH   1  15
ATOM     15  C   UNL     1       1.684 -23.125  16.100  1.00  0.00     0.000 C 
BRANCH  15  16
ATOM     16  C   UNL     1       2.921 -23.101  15.181  1.00  0.00     0.000 C 
BRANCH  16  17
ATOM     17  C   UNL     1       4.031 -22.120  15.606  1.00  0.00     0.000 C 
BRANCH  17  18
ATOM     18  C   UNL     1       5.007 -22.662  16.670  1.00  0.00    -0.000 C 
BRANCH  18  19
ATOM     19  C   UNL     1       6.498 -22.530  16.311  1.00  0.00    -0.000 C 
BRANCH  19  20
ATOM     20  C   UNL     1       7.315 -21.824  17.403  1.00  0.00    -0.000 C 
BRANCH  20  21
ATOM     21  C   UNL     1       8.782 -21.671  16.980  1.00  0.00    -0.000 C 
BRANCH  21  22
ATOM     22  C   UNL     1       9.042 -22.371  15.639  1.00  0.00    -0.000 C 
BRANCH  22  23
ATOM     23  C   UNL     1       9.125 -21.386  14.462  1.00  0.00    -0.000 C 
BRANCH  23  24
ATOM     24  C   UNL     1       8.564 -21.974  13.159  1.00  0.00    -0.000 C 
BRANCH  24  25
ATOM     25  C   UNL     1       7.634 -20.974  12.462  1.00  0.00    -0.003 C 
ATOM     26  C   UNL     1       8.299 -19.608  12.320  1.00  0.00     0.004 C 
ENDBRANCH  24  25
ENDBRANCH  23  24
ENDBRANCH  22  23
ENDBRANCH  21  22
ENDBRANCH  20  21
ENDBRANCH  19  20
ENDBRANCH  18  19
ENDBRANCH  17  18
ENDBRANCH  16  17
ENDBRANCH  15  16
ENDBRANCH   1  15
TORSDOF 22
ENDMDL
