MODEL 1
REMARK VINA RESULT:    -5.007      0.000      0.000
REMARK INTER + INTRA:          -6.155
REMARK INTER:                  -5.885
REMARK INTRA:                  -0.270
REMARK UNBOUND:                -0.270
REMARK SMILES O=C([O-])C=Cc1ccc(O)c(O)c1
REMARK SMILES IDX 6 1 13 2 7 3 11 4 8 5 9 6 5 7 4 8 2 9 1 10 3 11 12 12 10 14
REMARK H PARENT 12 13 10 15
REMARK Flexibility Score: inf
ROOT
ATOM      1  C   UNL     1     108.028 119.017 128.946  1.00  0.00    -0.022 A 
ATOM      2  C   UNL     1     107.946 117.766 128.315  1.00  0.00     0.058 A 
ATOM      3  C   UNL     1     107.972 119.084 130.343  1.00  0.00     0.012 A 
ATOM      4  C   UNL     1     107.757 116.596 129.061  1.00  0.00     0.157 A 
ATOM      5  C   UNL     1     107.783 117.923 131.096  1.00  0.00     0.051 A 
ATOM      6  C   UNL     1     107.668 116.676 130.472  1.00  0.00     0.157 A 
ENDROOT
BRANCH   1   7
ATOM      7  C   UNL     1     108.279 120.251 128.173  1.00  0.00     0.010 C 
ATOM      8  C   UNL     1     109.481 120.813 127.973  1.00  0.00     0.025 C 
BRANCH   8   9
ATOM      9  C   UNL     1     110.783 120.215 128.329  1.00  0.00     0.064 C 
ATOM     10  O   UNL     1     111.491 119.623 127.473  1.00  0.00    -0.545 OA
ATOM     11  O   UNL     1     111.267 120.369 129.621  1.00  0.00    -0.545 OA
ENDBRANCH   8   9
ENDBRANCH   1   7
BRANCH   4  12
ATOM     12  O   UNL     1     107.672 115.386 128.368  1.00  0.00    -0.504 OA
ATOM     13  H   UNL     1     108.456 114.772 128.206  1.00  0.00     0.293 HD
ENDBRANCH   4  12
BRANCH   6  14
ATOM     14  O   UNL     1     107.471 115.555 131.280  1.00  0.00    -0.504 OA
ATOM     15  H   UNL     1     108.205 114.919 131.552  1.00  0.00     0.293 HD
ENDBRANCH   6  14
TORSDOF 4
ENDMDL
MODEL 2
REMARK VINA RESULT:    -4.777      6.403      8.793
REMARK INTER + INTRA:          -5.885
REMARK INTER:                  -5.692
REMARK INTRA:                  -0.193
REMARK UNBOUND:                -0.270
REMARK SMILES O=C([O-])C=Cc1ccc(O)c(O)c1
REMARK SMILES IDX 6 1 13 2 7 3 11 4 8 5 9 6 5 7 4 8 2 9 1 10 3 11 12 12 10 14
REMARK H PARENT 12 13 10 15
REMARK Flexibility Score: inf
ROOT
ATOM      1  C   UNL     1     115.618 120.050 124.186  1.00  0.00    -0.022 A 
ATOM      2  C   UNL     1     115.511 120.657 125.447  1.00  0.00     0.058 A 
ATOM      3  C   UNL     1     114.736 119.018 123.846  1.00  0.00     0.012 A 
ATOM      4  C   UNL     1     114.572 120.207 126.383  1.00  0.00     0.157 A 
ATOM      5  C   UNL     1     113.796 118.561 124.773  1.00  0.00     0.051 A 
ATOM      6  C   UNL     1     113.706 119.140 126.044  1.00  0.00     0.157 A 
ENDROOT
BRANCH   1   7
ATOM      7  C   UNL     1     116.570 120.550 123.172  1.00  0.00     0.010 C 
ATOM      8  C   UNL     1     117.843 120.148 123.035  1.00  0.00     0.025 C 
BRANCH   8   9
ATOM      9  C   UNL     1     118.471 119.015 123.743  1.00  0.00     0.064 C 
ATOM     10  O   UNL     1     118.904 118.009 123.122  1.00  0.00    -0.545 OA
ATOM     11  O   UNL     1     118.648 119.091 125.118  1.00  0.00    -0.545 OA
ENDBRANCH   8   9
ENDBRANCH   1   7
BRANCH   4  12
ATOM     12  O   UNL     1     114.528 120.848 127.624  1.00  0.00    -0.504 OA
ATOM     13  H   UNL     1     113.681 120.999 128.152  1.00  0.00     0.293 HD
ENDBRANCH   4  12
BRANCH   6  14
ATOM     14  O   UNL     1     112.752 118.632 126.927  1.00  0.00    -0.504 OA
ATOM     15  H   UNL     1     112.245 119.194 127.595  1.00  0.00     0.293 HD
ENDBRANCH   6  14
TORSDOF 4
ENDMDL
MODEL 3
REMARK VINA RESULT:    -4.611      1.462      4.807
REMARK INTER + INTRA:          -5.690
REMARK INTER:                  -5.421
REMARK INTRA:                  -0.269
REMARK UNBOUND:                -0.270
REMARK SMILES O=C([O-])C=Cc1ccc(O)c(O)c1
REMARK SMILES IDX 6 1 13 2 7 3 11 4 8 5 9 6 5 7 4 8 2 9 1 10 3 11 12 12 10 14
REMARK H PARENT 12 13 10 15
REMARK Flexibility Score: inf
ROOT
ATOM      1  C   UNL     1     108.731 118.701 130.465  1.00  0.00    -0.022 A 
ATOM      2  C   UNL     1     108.524 119.685 129.485  1.00  0.00     0.058 A 
ATOM      3  C   UNL     1     110.012 118.529 131.001  1.00  0.00     0.012 A 
ATOM      4  C   UNL     1     109.589 120.456 129.005  1.00  0.00     0.157 A 
ATOM      5  C   UNL     1     111.082 119.291 130.528  1.00  0.00     0.051 A 
ATOM      6  C   UNL     1     110.889 120.252 129.529  1.00  0.00     0.157 A 
ENDROOT
BRANCH   1   7
ATOM      7  C   UNL     1     107.605 117.919 131.016  1.00  0.00     0.010 C 
ATOM      8  C   UNL     1     107.103 116.795 130.481  1.00  0.00     0.025 C 
BRANCH   8   9
ATOM      9  C   UNL     1     107.689 116.037 129.358  1.00  0.00     0.064 C 
ATOM     10  O   UNL     1     108.310 114.958 129.544  1.00  0.00    -0.545 OA
ATOM     11  O   UNL     1     107.492 116.491 128.061  1.00  0.00    -0.545 OA
ENDBRANCH   8   9
ENDBRANCH   1   7
BRANCH   4  12
ATOM     12  O   UNL     1     109.315 121.408 128.021  1.00  0.00    -0.504 OA
ATOM     13  H   UNL     1     108.641 121.277 127.280  1.00  0.00     0.293 HD
ENDBRANCH   4  12
BRANCH   6  14
ATOM     14  O   UNL     1     112.000 120.974 129.092  1.00  0.00    -0.504 OA
ATOM     15  H   UNL     1     112.873 120.553 128.812  1.00  0.00     0.293 HD
ENDBRANCH   6  14
TORSDOF 4
ENDMDL
MODEL 4
REMARK VINA RESULT:    -4.497      0.871      2.091
REMARK INTER + INTRA:          -5.556
REMARK INTER:                  -5.277
REMARK INTRA:                  -0.278
REMARK UNBOUND:                -0.270
REMARK SMILES O=C([O-])C=Cc1ccc(O)c(O)c1
REMARK SMILES IDX 6 1 13 2 7 3 11 4 8 5 9 6 5 7 4 8 2 9 1 10 3 11 12 12 10 14
REMARK H PARENT 12 13 10 15
REMARK Flexibility Score: inf
ROOT
ATOM      1  C   UNL     1     108.120 118.649 129.071  1.00  0.00    -0.022 A 
ATOM      2  C   UNL     1     108.211 118.442 130.457  1.00  0.00     0.058 A 
ATOM      3  C   UNL     1     107.940 117.550 128.225  1.00  0.00     0.012 A 
ATOM      4  C   UNL     1     108.178 117.149 130.993  1.00  0.00     0.157 A 
ATOM      5  C   UNL     1     107.906 116.256 128.750  1.00  0.00     0.051 A 
ATOM      6  C   UNL     1     108.029 116.039 130.127  1.00  0.00     0.157 A 
ENDROOT
BRANCH   1   7
ATOM      7  C   UNL     1     108.103 120.012 128.500  1.00  0.00     0.010 C 
ATOM      8  C   UNL     1     109.182 120.782 128.291  1.00  0.00     0.025 C 
BRANCH   8   9
ATOM      9  C   UNL     1     110.588 120.351 128.422  1.00  0.00     0.064 C 
ATOM     10  O   UNL     1     111.228 120.512 129.494  1.00  0.00    -0.545 OA
ATOM     11  O   UNL     1     111.195 119.694 127.360  1.00  0.00    -0.545 OA
ENDBRANCH   8   9
ENDBRANCH   1   7
BRANCH   4  12
ATOM     12  O   UNL     1     108.287 117.014 132.379  1.00  0.00    -0.504 OA
ATOM     13  H   UNL     1     107.574 117.305 133.032  1.00  0.00     0.293 HD
ENDBRANCH   4  12
BRANCH   6  14
ATOM     14  O   UNL     1     107.997 114.722 130.587  1.00  0.00    -0.504 OA
ATOM     15  H   UNL     1     107.223 114.091 130.439  1.00  0.00     0.293 HD
ENDBRANCH   6  14
TORSDOF 4
ENDMDL
MODEL 5
REMARK VINA RESULT:    -4.355      5.243      8.351
REMARK INTER + INTRA:          -5.389
REMARK INTER:                  -5.195
REMARK INTRA:                  -0.194
REMARK UNBOUND:                -0.270
REMARK SMILES O=C([O-])C=Cc1ccc(O)c(O)c1
REMARK SMILES IDX 6 1 13 2 7 3 11 4 8 5 9 6 5 7 4 8 2 9 1 10 3 11 12 12 10 14
REMARK H PARENT 12 13 10 15
REMARK Flexibility Score: inf
ROOT
ATOM      1  C   UNL     1     114.613 118.196 125.879  1.00  0.00    -0.022 A 
ATOM      2  C   UNL     1     115.988 118.332 126.130  1.00  0.00     0.058 A 
ATOM      3  C   UNL     1     114.082 118.700 124.686  1.00  0.00     0.012 A 
ATOM      4  C   UNL     1     116.819 119.009 125.230  1.00  0.00     0.157 A 
ATOM      5  C   UNL     1     114.903 119.378 123.781  1.00  0.00     0.051 A 
ATOM      6  C   UNL     1     116.267 119.545 124.041  1.00  0.00     0.157 A 
ENDROOT
BRANCH   1   7
ATOM      7  C   UNL     1     113.737 117.439 126.798  1.00  0.00     0.010 C 
ATOM      8  C   UNL     1     112.859 117.979 127.657  1.00  0.00     0.025 C 
BRANCH   8   9
ATOM      9  C   UNL     1     112.477 119.404 127.719  1.00  0.00     0.064 C 
ATOM     10  O   UNL     1     111.358 119.803 127.302  1.00  0.00    -0.545 OA
ATOM     11  O   UNL     1     113.344 120.311 128.312  1.00  0.00    -0.545 OA
ENDBRANCH   8   9
ENDBRANCH   1   7
BRANCH   4  12
ATOM     12  O   UNL     1     118.174 119.119 125.548  1.00  0.00    -0.504 OA
ATOM     13  H   UNL     1     118.920 119.068 124.869  1.00  0.00     0.293 HD
ENDBRANCH   4  12
BRANCH   6  14
ATOM     14  O   UNL     1     117.031 120.240 123.101  1.00  0.00    -0.504 OA
ATOM     15  H   UNL     1     117.511 119.802 122.329  1.00  0.00     0.293 HD
ENDBRANCH   6  14
TORSDOF 4
ENDMDL
MODEL 6
REMARK VINA RESULT:    -4.322      8.153     10.881
REMARK INTER + INTRA:          -5.351
REMARK INTER:                  -5.580
REMARK INTRA:                   0.229
REMARK UNBOUND:                -0.270
REMARK SMILES O=C([O-])C=Cc1ccc(O)c(O)c1
REMARK SMILES IDX 6 1 13 2 7 3 11 4 8 5 9 6 5 7 4 8 2 9 1 10 3 11 12 12 10 14
REMARK H PARENT 12 13 10 15
REMARK Flexibility Score: inf
ROOT
ATOM      1  C   UNL     1     118.071 119.269 123.918  1.00  0.00    -0.022 A 
ATOM      2  C   UNL     1     118.195 119.220 125.315  1.00  0.00     0.058 A 
ATOM      3  C   UNL     1     118.871 118.434 123.130  1.00  0.00     0.012 A 
ATOM      4  C   UNL     1     119.144 118.389 125.923  1.00  0.00     0.157 A 
ATOM      5  C   UNL     1     119.821 117.602 123.726  1.00  0.00     0.051 A 
ATOM      6  C   UNL     1     119.973 117.573 125.117  1.00  0.00     0.157 A 
ENDROOT
BRANCH   1   7
ATOM      7  C   UNL     1     117.038 120.104 123.269  1.00  0.00     0.010 C 
ATOM      8  C   UNL     1     115.761 120.213 123.668  1.00  0.00     0.025 C 
BRANCH   8   9
ATOM      9  C   UNL     1     115.200 119.670 124.921  1.00  0.00     0.064 C 
ATOM     10  O   UNL     1     115.004 120.403 125.926  1.00  0.00    -0.545 OA
ATOM     11  O   UNL     1     114.817 118.337 124.968  1.00  0.00    -0.545 OA
ENDBRANCH   8   9
ENDBRANCH   1   7
BRANCH   4  12
ATOM     12  O   UNL     1     119.223 118.399 127.317  1.00  0.00    -0.504 OA
ATOM     13  H   UNL     1     119.964 117.960 127.844  1.00  0.00     0.293 HD
ENDBRANCH   4  12
BRANCH   6  14
ATOM     14  O   UNL     1     120.947 116.727 125.650  1.00  0.00    -0.504 OA
ATOM     15  H   UNL     1     120.985 116.450 126.620  1.00  0.00     0.293 HD
ENDBRANCH   6  14
TORSDOF 4
ENDMDL
MODEL 7
REMARK VINA RESULT:    -4.299      6.744      9.100
REMARK INTER + INTRA:          -5.323
REMARK INTER:                  -5.128
REMARK INTRA:                  -0.195
REMARK UNBOUND:                -0.270
REMARK SMILES O=C([O-])C=Cc1ccc(O)c(O)c1
REMARK SMILES IDX 6 1 13 2 7 3 11 4 8 5 9 6 5 7 4 8 2 9 1 10 3 11 12 12 10 14
REMARK H PARENT 12 13 10 15
REMARK Flexibility Score: inf
ROOT
ATOM      1  C   UNL     1     115.270 119.476 125.760  1.00  0.00    -0.022 A 
ATOM      2  C   UNL     1     116.443 118.820 126.165  1.00  0.00     0.058 A 
ATOM      3  C   UNL     1     115.203 120.028 124.476  1.00  0.00     0.012 A 
ATOM      4  C   UNL     1     117.559 118.760 125.322  1.00  0.00     0.157 A 
ATOM      5  C   UNL     1     116.311 119.975 123.628  1.00  0.00     0.051 A 
ATOM      6  C   UNL     1     117.495 119.351 124.037  1.00  0.00     0.157 A 
ENDROOT
BRANCH   1   7
ATOM      7  C   UNL     1     114.069 119.500 126.621  1.00  0.00     0.010 C 
ATOM      8  C   UNL     1     113.954 120.173 127.777  1.00  0.00     0.025 C 
BRANCH   8   9
ATOM      9  C   UNL     1     114.926 121.149 128.308  1.00  0.00     0.064 C 
ATOM     10  O   UNL     1     114.804 122.383 128.094  1.00  0.00    -0.545 OA
ATOM     11  O   UNL     1     115.961 120.700 129.117  1.00  0.00    -0.545 OA
ENDBRANCH   8   9
ENDBRANCH   1   7
BRANCH   4  12
ATOM     12  O   UNL     1     118.699 118.103 125.792  1.00  0.00    -0.504 OA
ATOM     13  H   UNL     1     119.150 117.340 125.310  1.00  0.00     0.293 HD
ENDBRANCH   4  12
BRANCH   6  14
ATOM     14  O   UNL     1     118.569 119.339 123.146  1.00  0.00    -0.504 OA
ATOM     15  H   UNL     1     118.473 119.411 122.144  1.00  0.00     0.293 HD
ENDBRANCH   6  14
TORSDOF 4
ENDMDL
MODEL 8
REMARK VINA RESULT:    -4.256      2.073      4.937
REMARK INTER + INTRA:          -5.272
REMARK INTER:                  -4.986
REMARK INTRA:                  -0.286
REMARK UNBOUND:                -0.270
REMARK SMILES O=C([O-])C=Cc1ccc(O)c(O)c1
REMARK SMILES IDX 6 1 13 2 7 3 11 4 8 5 9 6 5 7 4 8 2 9 1 10 3 11 12 12 10 14
REMARK H PARENT 12 13 10 15
REMARK Flexibility Score: inf
ROOT
ATOM      1  C   UNL     1     110.679 120.265 128.333  1.00  0.00    -0.022 A 
ATOM      2  C   UNL     1     111.365 119.618 127.293  1.00  0.00     0.058 A 
ATOM      3  C   UNL     1     111.352 120.542 129.528  1.00  0.00     0.012 A 
ATOM      4  C   UNL     1     112.692 119.203 127.457  1.00  0.00     0.157 A 
ATOM      5  C   UNL     1     112.675 120.131 129.703  1.00  0.00     0.051 A 
ATOM      6  C   UNL     1     113.355 119.458 128.682  1.00  0.00     0.157 A 
ENDROOT
BRANCH   1   7
ATOM      7  C   UNL     1     109.296 120.753 128.151  1.00  0.00     0.010 C 
ATOM      8  C   UNL     1     108.183 120.038 128.377  1.00  0.00     0.025 C 
BRANCH   8   9
ATOM      9  C   UNL     1     108.126 118.707 129.014  1.00  0.00     0.064 C 
ATOM     10  O   UNL     1     108.123 118.577 130.266  1.00  0.00    -0.545 OA
ATOM     11  O   UNL     1     108.005 117.579 128.214  1.00  0.00    -0.545 OA
ENDBRANCH   8   9
ENDBRANCH   1   7
BRANCH   4  12
ATOM     12  O   UNL     1     113.311 118.554 126.387  1.00  0.00    -0.504 OA
ATOM     13  H   UNL     1     112.893 118.444 125.474  1.00  0.00     0.293 HD
ENDBRANCH   4  12
BRANCH   6  14
ATOM     14  O   UNL     1     114.673 119.066 128.923  1.00  0.00    -0.504 OA
ATOM     15  H   UNL     1     114.937 118.156 129.270  1.00  0.00     0.293 HD
ENDBRANCH   6  14
TORSDOF 4
ENDMDL
MODEL 9
REMARK VINA RESULT:    -4.249      1.260      4.855
REMARK INTER + INTRA:          -5.264
REMARK INTER:                  -4.992
REMARK INTRA:                  -0.272
REMARK UNBOUND:                -0.270
REMARK SMILES O=C([O-])C=Cc1ccc(O)c(O)c1
REMARK SMILES IDX 6 1 13 2 7 3 11 4 8 5 9 6 5 7 4 8 2 9 1 10 3 11 12 12 10 14
REMARK H PARENT 12 13 10 15
REMARK Flexibility Score: inf
ROOT
ATOM      1  C   UNL     1     108.486 118.927 130.375  1.00  0.00    -0.022 A 
ATOM      2  C   UNL     1     109.790 118.732 130.856  1.00  0.00     0.058 A 
ATOM      3  C   UNL     1     108.284 119.749 129.260  1.00  0.00     0.012 A 
ATOM      4  C   UNL     1     110.879 119.388 130.269  1.00  0.00     0.157 A 
ATOM      5  C   UNL     1     109.363 120.409 128.668  1.00  0.00     0.051 A 
ATOM      6  C   UNL     1     110.661 120.245 129.163  1.00  0.00     0.157 A 
ENDROOT
BRANCH   1   7
ATOM      7  C   UNL     1     107.338 118.199 130.954  1.00  0.00     0.010 C 
ATOM      8  C   UNL     1     106.914 116.984 130.572  1.00  0.00     0.025 C 
BRANCH   8   9
ATOM      9  C   UNL     1     107.615 116.080 129.640  1.00  0.00     0.064 C 
ATOM     10  O   UNL     1     108.319 115.122 130.056  1.00  0.00    -0.545 OA
ATOM     11  O   UNL     1     107.439 116.249 128.273  1.00  0.00    -0.545 OA
ENDBRANCH   8   9
ENDBRANCH   1   7
BRANCH   4  12
ATOM     12  O   UNL     1     112.147 119.159 130.807  1.00  0.00    -0.504 OA
ATOM     13  H   UNL     1     112.315 118.900 131.768  1.00  0.00     0.293 HD
ENDBRANCH   4  12
BRANCH   6  14
ATOM     14  O   UNL     1     111.695 120.940 128.532  1.00  0.00    -0.504 OA
ATOM     15  H   UNL     1     111.628 121.901 128.233  1.00  0.00     0.293 HD
ENDBRANCH   6  14
TORSDOF 4
ENDMDL
