MODEL 1
REMARK VINA RESULT:    -4.774      0.000      0.000
REMARK INTER + INTRA:          -6.851
REMARK INTER:                  -6.448
REMARK INTRA:                  -0.403
REMARK UNBOUND:                -0.403
REMARK SMILES C=C[C@](C)(CCC=C(C)C)OC(C)=O
REMARK SMILES IDX 3 1 4 2 5 3 6 4 7 5 9 6 8 7 10 8 2 9 1 10 11 11 12 12 14 13
REMARK SMILES IDX 13 14
REMARK H PARENT
REMARK Flexibility Score: inf
ROOT
ATOM      1  C   UNL     1      -7.042   6.328   0.834  1.00  0.00     0.127 C 
ATOM      2  C   UNL     1      -7.338   7.669   0.124  1.00  0.00     0.061 C 
ENDROOT
BRANCH   1   3
ATOM      3  C   UNL     1      -6.358   6.544   2.217  1.00  0.00     0.057 C 
BRANCH   3   4
ATOM      4  C   UNL     1      -7.039   5.833   3.411  1.00  0.00     0.032 C 
BRANCH   4   5
ATOM      5  C   UNL     1      -6.701   6.484   4.731  1.00  0.00    -0.028 C 
ATOM      6  C   UNL     1      -6.674   6.770   7.172  1.00  0.00     0.039 C 
ATOM      7  C   UNL     1      -7.062   5.995   5.939  1.00  0.00    -0.080 C 
ATOM      8  C   UNL     1      -7.814   4.692   6.085  1.00  0.00     0.039 C 
ENDBRANCH   4   5
ENDBRANCH   3   4
ENDBRANCH   1   3
BRANCH   1   9
ATOM      9  C   UNL     1      -6.144   5.480  -0.052  1.00  0.00     0.013 C 
ATOM     10  C   UNL     1      -5.665   5.929  -1.218  1.00  0.00     0.008 C 
ENDBRANCH   1   9
BRANCH   1  11
ATOM     11  O   UNL     1      -8.259   5.586   1.019  1.00  0.00    -0.455 OA
BRANCH  11  12
ATOM     12  C   UNL     1      -8.807   4.650   0.127  1.00  0.00     0.303 C 
ATOM     13  O   UNL     1      -9.146   4.977  -1.043  1.00  0.00    -0.253 OA
ATOM     14  C   UNL     1      -9.030   3.251   0.588  1.00  0.00     0.139 C 
ENDBRANCH  11  12
ENDBRANCH   1  11
TORSDOF 6
ENDMDL
MODEL 2
REMARK VINA RESULT:    -4.766      2.473      6.237
REMARK INTER + INTRA:          -6.841
REMARK INTER:                  -6.021
REMARK INTRA:                  -0.820
REMARK UNBOUND:                -0.403
REMARK SMILES C=C[C@](C)(CCC=C(C)C)OC(C)=O
REMARK SMILES IDX 3 1 4 2 5 3 6 4 7 5 9 6 8 7 10 8 2 9 1 10 11 11 12 12 14 13
REMARK SMILES IDX 13 14
REMARK H PARENT
REMARK Flexibility Score: inf
ROOT
ATOM      1  C   UNL     1      -7.199   6.078   0.093  1.00  0.00     0.127 C 
ATOM      2  C   UNL     1      -8.172   7.259   0.308  1.00  0.00     0.061 C 
ENDROOT
BRANCH   1   3
ATOM      3  C   UNL     1      -6.317   6.278  -1.175  1.00  0.00     0.057 C 
BRANCH   3   4
ATOM      4  C   UNL     1      -6.636   7.542  -2.010  1.00  0.00     0.032 C 
BRANCH   4   5
ATOM      5  C   UNL     1      -7.006   7.207  -3.435  1.00  0.00    -0.028 C 
ATOM      6  C   UNL     1      -8.474   6.583  -5.305  1.00  0.00     0.039 C 
ATOM      7  C   UNL     1      -8.261   6.926  -3.853  1.00  0.00    -0.080 C 
ATOM      8  C   UNL     1      -9.447   6.973  -2.917  1.00  0.00     0.039 C 
ENDBRANCH   4   5
ENDBRANCH   3   4
ENDBRANCH   1   3
BRANCH   1   9
ATOM      9  C   UNL     1      -7.995   4.789  -0.038  1.00  0.00     0.013 C 
ATOM     10  C   UNL     1      -9.301   4.728   0.248  1.00  0.00     0.008 C 
ENDBRANCH   1   9
BRANCH   1  11
ATOM     11  O   UNL     1      -6.348   5.921   1.241  1.00  0.00    -0.455 OA
BRANCH  11  12
ATOM     12  C   UNL     1      -6.609   6.383   2.541  1.00  0.00     0.303 C 
ATOM     13  O   UNL     1      -6.107   7.457   2.970  1.00  0.00    -0.253 OA
ATOM     14  C   UNL     1      -7.465   5.563   3.444  1.00  0.00     0.139 C 
ENDBRANCH  11  12
ENDBRANCH   1  11
TORSDOF 6
ENDMDL
MODEL 3
REMARK VINA RESULT:    -4.733      2.409      3.616
REMARK INTER + INTRA:          -6.796
REMARK INTER:                  -5.962
REMARK INTRA:                  -0.834
REMARK UNBOUND:                -0.403
REMARK SMILES C=C[C@](C)(CCC=C(C)C)OC(C)=O
REMARK SMILES IDX 3 1 4 2 5 3 6 4 7 5 9 6 8 7 10 8 2 9 1 10 11 11 12 12 14 13
REMARK SMILES IDX 13 14
REMARK H PARENT
REMARK Flexibility Score: inf
ROOT
ATOM      1  C   UNL     1      -8.546   6.581  -1.159  1.00  0.00     0.127 C 
ATOM      2  C   UNL     1      -8.094   7.894  -0.480  1.00  0.00     0.061 C 
ENDROOT
BRANCH   1   3
ATOM      3  C   UNL     1      -9.339   5.666  -0.179  1.00  0.00     0.057 C 
BRANCH   3   4
ATOM      4  C   UNL     1      -8.482   4.660   0.627  1.00  0.00     0.032 C 
BRANCH   4   5
ATOM      5  C   UNL     1      -8.574   4.897   2.116  1.00  0.00    -0.028 C 
ATOM      6  C   UNL     1      -7.842   5.653   4.337  1.00  0.00     0.039 C 
ATOM      7  C   UNL     1      -7.621   5.512   2.853  1.00  0.00    -0.080 C 
ATOM      8  C   UNL     1      -6.366   6.078   2.229  1.00  0.00     0.039 C 
ENDBRANCH   4   5
ENDBRANCH   3   4
ENDBRANCH   1   3
BRANCH   1   9
ATOM      9  C   UNL     1      -7.324   5.838  -1.675  1.00  0.00     0.013 C 
ATOM     10  C   UNL     1      -6.086   6.328  -1.545  1.00  0.00     0.008 C 
ENDBRANCH   1   9
BRANCH   1  11
ATOM     11  O   UNL     1      -9.366   6.871  -2.304  1.00  0.00    -0.455 OA
BRANCH  11  12
ATOM     12  C   UNL     1      -8.917   7.305  -3.561  1.00  0.00     0.303 C 
ATOM     13  O   UNL     1      -8.567   8.500  -3.758  1.00  0.00    -0.253 OA
ATOM     14  C   UNL     1      -8.892   6.339  -4.696  1.00  0.00     0.139 C 
ENDBRANCH  11  12
ENDBRANCH   1  11
TORSDOF 6
ENDMDL
MODEL 4
REMARK VINA RESULT:    -4.721      1.722      3.122
REMARK INTER + INTRA:          -6.781
REMARK INTER:                  -5.887
REMARK INTRA:                  -0.894
REMARK UNBOUND:                -0.403
REMARK SMILES C=C[C@](C)(CCC=C(C)C)OC(C)=O
REMARK SMILES IDX 3 1 4 2 5 3 6 4 7 5 9 6 8 7 10 8 2 9 1 10 11 11 12 12 14 13
REMARK SMILES IDX 13 14
REMARK H PARENT
REMARK Flexibility Score: inf
ROOT
ATOM      1  C   UNL     1      -8.558   4.909   0.123  1.00  0.00     0.127 C 
ATOM      2  C   UNL     1      -9.093   3.665   0.868  1.00  0.00     0.061 C 
ENDROOT
BRANCH   1   3
ATOM      3  C   UNL     1      -7.132   5.305   0.610  1.00  0.00     0.057 C 
BRANCH   3   4
ATOM      4  C   UNL     1      -7.051   6.622   1.419  1.00  0.00     0.032 C 
BRANCH   4   5
ATOM      5  C   UNL     1      -6.417   6.421   2.775  1.00  0.00    -0.028 C 
ATOM      6  C   UNL     1      -6.334   5.986   5.193  1.00  0.00     0.039 C 
ATOM      7  C   UNL     1      -7.102   6.133   3.905  1.00  0.00    -0.080 C 
ATOM      8  C   UNL     1      -8.601   5.932   3.904  1.00  0.00     0.039 C 
ENDBRANCH   4   5
ENDBRANCH   3   4
ENDBRANCH   1   3
BRANCH   1   9
ATOM      9  C   UNL     1      -9.513   6.072   0.339  1.00  0.00     0.013 C 
ATOM     10  C   UNL     1     -10.782   5.889   0.723  1.00  0.00     0.008 C 
ENDBRANCH   1   9
BRANCH   1  11
ATOM     11  O   UNL     1      -8.523   4.662  -1.292  1.00  0.00    -0.455 OA
BRANCH  11  12
ATOM     12  C   UNL     1      -8.485   5.632  -2.306  1.00  0.00     0.303 C 
ATOM     13  O   UNL     1      -7.466   6.350  -2.492  1.00  0.00    -0.253 OA
ATOM     14  C   UNL     1      -9.693   5.845  -3.153  1.00  0.00     0.139 C 
ENDBRANCH  11  12
ENDBRANCH   1  11
TORSDOF 6
ENDMDL
MODEL 5
REMARK VINA RESULT:    -4.693      2.305      5.863
REMARK INTER + INTRA:          -6.743
REMARK INTER:                  -6.040
REMARK INTRA:                  -0.703
REMARK UNBOUND:                -0.403
REMARK SMILES C=C[C@](C)(CCC=C(C)C)OC(C)=O
REMARK SMILES IDX 3 1 4 2 5 3 6 4 7 5 9 6 8 7 10 8 2 9 1 10 11 11 12 12 14 13
REMARK SMILES IDX 13 14
REMARK H PARENT
REMARK Flexibility Score: inf
ROOT
ATOM      1  C   UNL     1      -6.846   5.937   0.301  1.00  0.00     0.127 C 
ATOM      2  C   UNL     1      -5.800   5.941  -0.837  1.00  0.00     0.061 C 
ENDROOT
BRANCH   1   3
ATOM      3  C   UNL     1      -7.888   4.792   0.125  1.00  0.00     0.057 C 
BRANCH   3   4
ATOM      4  C   UNL     1      -9.165   5.174  -0.662  1.00  0.00     0.032 C 
BRANCH   4   5
ATOM      5  C   UNL     1      -8.907   5.287  -2.146  1.00  0.00    -0.028 C 
ATOM      6  C   UNL     1      -9.002   6.284  -4.390  1.00  0.00     0.039 C 
ATOM      7  C   UNL     1      -9.311   6.322  -2.916  1.00  0.00    -0.080 C 
ATOM      8  C   UNL     1     -10.032   7.518  -2.337  1.00  0.00     0.039 C 
ENDBRANCH   4   5
ENDBRANCH   3   4
ENDBRANCH   1   3
BRANCH   1   9
ATOM      9  C   UNL     1      -7.562   7.278   0.328  1.00  0.00     0.013 C 
ATOM     10  C   UNL     1      -7.128   8.331  -0.375  1.00  0.00     0.008 C 
ENDBRANCH   1   9
BRANCH   1  11
ATOM     11  O   UNL     1      -6.194   5.793   1.574  1.00  0.00    -0.455 OA
BRANCH  11  12
ATOM     12  C   UNL     1      -6.634   6.318   2.799  1.00  0.00     0.303 C 
ATOM     13  O   UNL     1      -6.146   7.380   3.272  1.00  0.00    -0.253 OA
ATOM     14  C   UNL     1      -7.671   5.581   3.575  1.00  0.00     0.139 C 
ENDBRANCH  11  12
ENDBRANCH   1  11
TORSDOF 6
ENDMDL
MODEL 6
REMARK VINA RESULT:    -4.645      2.950      4.937
REMARK INTER + INTRA:          -6.677
REMARK INTER:                  -5.671
REMARK INTRA:                  -1.006
REMARK UNBOUND:                -0.403
REMARK SMILES C=C[C@](C)(CCC=C(C)C)OC(C)=O
REMARK SMILES IDX 3 1 4 2 5 3 6 4 7 5 9 6 8 7 10 8 2 9 1 10 11 11 12 12 14 13
REMARK SMILES IDX 13 14
REMARK H PARENT
REMARK Flexibility Score: inf
ROOT
ATOM      1  C   UNL     1      -9.182   6.316  -2.441  1.00  0.00     0.127 C 
ATOM      2  C   UNL     1      -8.686   4.904  -2.828  1.00  0.00     0.061 C 
ENDROOT
BRANCH   1   3
ATOM      3  C   UNL     1      -8.305   6.951  -1.321  1.00  0.00     0.057 C 
BRANCH   3   4
ATOM      4  C   UNL     1      -7.267   6.002  -0.675  1.00  0.00     0.032 C 
BRANCH   4   5
ATOM      5  C   UNL     1      -7.416   5.931   0.826  1.00  0.00    -0.028 C 
ATOM      6  C   UNL     1      -8.254   5.097   2.981  1.00  0.00     0.039 C 
ATOM      7  C   UNL     1      -8.183   5.028   1.477  1.00  0.00    -0.080 C 
ATOM      8  C   UNL     1      -8.943   3.945   0.744  1.00  0.00     0.039 C 
ENDBRANCH   4   5
ENDBRANCH   3   4
ENDBRANCH   1   3
BRANCH   1   9
ATOM      9  C   UNL     1     -10.625   6.228  -1.971  1.00  0.00     0.013 C 
ATOM     10  C   UNL     1     -10.999   6.615  -0.745  1.00  0.00     0.008 C 
ENDBRANCH   1   9
BRANCH   1  11
ATOM     11  O   UNL     1      -9.176   7.176  -3.593  1.00  0.00    -0.455 OA
BRANCH  11  12
ATOM     12  C   UNL     1      -8.348   7.053  -4.719  1.00  0.00     0.303 C 
ATOM     13  O   UNL     1      -8.733   6.446  -5.755  1.00  0.00    -0.253 OA
ATOM     14  C   UNL     1      -6.969   7.616  -4.673  1.00  0.00     0.139 C 
ENDBRANCH  11  12
ENDBRANCH   1  11
TORSDOF 6
ENDMDL
MODEL 7
REMARK VINA RESULT:    -4.618      2.211      3.887
REMARK INTER + INTRA:          -6.641
REMARK INTER:                  -5.955
REMARK INTRA:                  -0.686
REMARK UNBOUND:                -0.403
REMARK SMILES C=C[C@](C)(CCC=C(C)C)OC(C)=O
REMARK SMILES IDX 3 1 4 2 5 3 6 4 7 5 9 6 8 7 10 8 2 9 1 10 11 11 12 12 14 13
REMARK SMILES IDX 13 14
REMARK H PARENT
REMARK Flexibility Score: inf
ROOT
ATOM      1  C   UNL     1      -8.988   6.076  -1.318  1.00  0.00     0.127 C 
ATOM      2  C   UNL     1      -8.710   5.283  -2.615  1.00  0.00     0.061 C 
ENDROOT
BRANCH   1   3
ATOM      3  C   UNL     1      -9.484   5.149  -0.168  1.00  0.00     0.057 C 
BRANCH   3   4
ATOM      4  C   UNL     1      -8.372   4.558   0.732  1.00  0.00     0.032 C 
BRANCH   4   5
ATOM      5  C   UNL     1      -8.575   4.900   2.189  1.00  0.00    -0.028 C 
ATOM      6  C   UNL     1      -8.007   5.809   4.400  1.00  0.00     0.039 C 
ATOM      7  C   UNL     1      -7.675   5.561   2.952  1.00  0.00    -0.080 C 
ATOM      8  C   UNL     1      -6.370   6.075   2.388  1.00  0.00     0.039 C 
ENDBRANCH   4   5
ENDBRANCH   3   4
ENDBRANCH   1   3
BRANCH   1   9
ATOM      9  C   UNL     1     -10.033   7.144  -1.598  1.00  0.00     0.013 C 
ATOM     10  C   UNL     1     -11.278   7.066  -1.113  1.00  0.00     0.008 C 
ENDBRANCH   1   9
BRANCH   1  11
ATOM     11  O   UNL     1      -7.800   6.764  -0.893  1.00  0.00    -0.455 OA
BRANCH  11  12
ATOM     12  C   UNL     1      -6.572   6.801  -1.571  1.00  0.00     0.303 C 
ATOM     13  O   UNL     1      -6.347   7.647  -2.478  1.00  0.00    -0.253 OA
ATOM     14  C   UNL     1      -5.528   5.791  -1.238  1.00  0.00     0.139 C 
ENDBRANCH  11  12
ENDBRANCH   1  11
TORSDOF 6
ENDMDL
MODEL 8
REMARK VINA RESULT:    -4.599      2.168      3.977
REMARK INTER + INTRA:          -6.616
REMARK INTER:                  -5.806
REMARK INTRA:                  -0.809
REMARK UNBOUND:                -0.403
REMARK SMILES C=C[C@](C)(CCC=C(C)C)OC(C)=O
REMARK SMILES IDX 3 1 4 2 5 3 6 4 7 5 9 6 8 7 10 8 2 9 1 10 11 11 12 12 14 13
REMARK SMILES IDX 13 14
REMARK H PARENT
REMARK Flexibility Score: inf
ROOT
ATOM      1  C   UNL     1      -8.465   6.054  -1.750  1.00  0.00     0.127 C 
ATOM      2  C   UNL     1      -6.933   5.889  -1.637  1.00  0.00     0.061 C 
ENDROOT
BRANCH   1   3
ATOM      3  C   UNL     1      -9.219   5.187  -0.697  1.00  0.00     0.057 C 
BRANCH   3   4
ATOM      4  C   UNL     1      -8.315   4.403   0.284  1.00  0.00     0.032 C 
BRANCH   4   5
ATOM      5  C   UNL     1      -8.621   4.728   1.727  1.00  0.00    -0.028 C 
ATOM      6  C   UNL     1      -8.259   5.706   3.952  1.00  0.00     0.039 C 
ATOM      7  C   UNL     1      -7.835   5.488   2.523  1.00  0.00    -0.080 C 
ATOM      8  C   UNL     1      -6.570   6.140   2.013  1.00  0.00     0.039 C 
ENDBRANCH   4   5
ENDBRANCH   3   4
ENDBRANCH   1   3
BRANCH   1   9
ATOM      9  C   UNL     1      -8.910   5.659  -3.149  1.00  0.00     0.013 C 
ATOM     10  C   UNL     1      -8.949   6.536  -4.158  1.00  0.00     0.008 C 
ENDBRANCH   1   9
BRANCH   1  11
ATOM     11  O   UNL     1      -8.831   7.433  -1.576  1.00  0.00    -0.455 OA
BRANCH  11  12
ATOM     12  C   UNL     1      -8.615   8.213  -0.428  1.00  0.00     0.303 C 
ATOM     13  O   UNL     1      -9.382   8.140   0.570  1.00  0.00    -0.253 OA
ATOM     14  C   UNL     1      -7.479   9.177  -0.409  1.00  0.00     0.139 C 
ENDBRANCH  11  12
ENDBRANCH   1  11
TORSDOF 6
ENDMDL
MODEL 9
REMARK VINA RESULT:    -4.516      1.962      5.410
REMARK INTER + INTRA:          -6.503
REMARK INTER:                  -5.634
REMARK INTRA:                  -0.869
REMARK UNBOUND:                -0.403
REMARK SMILES C=C[C@](C)(CCC=C(C)C)OC(C)=O
REMARK SMILES IDX 3 1 4 2 5 3 6 4 7 5 9 6 8 7 10 8 2 9 1 10 11 11 12 12 14 13
REMARK SMILES IDX 13 14
REMARK H PARENT
REMARK Flexibility Score: inf
ROOT
ATOM      1  C   UNL     1      -8.249   5.548   1.743  1.00  0.00     0.127 C 
ATOM      2  C   UNL     1      -8.766   4.312   0.972  1.00  0.00     0.061 C 
ENDROOT
BRANCH   1   3
ATOM      3  C   UNL     1      -6.897   6.065   1.168  1.00  0.00     0.057 C 
BRANCH   3   4
ATOM      4  C   UNL     1      -6.464   5.433  -0.176  1.00  0.00     0.032 C 
BRANCH   4   5
ATOM      5  C   UNL     1      -6.354   6.458  -1.280  1.00  0.00    -0.028 C 
ATOM      6  C   UNL     1      -6.915   7.573  -3.397  1.00  0.00     0.039 C 
ATOM      7  C   UNL     1      -7.162   6.505  -2.363  1.00  0.00    -0.080 C 
ATOM      8  C   UNL     1      -8.312   5.541  -2.548  1.00  0.00     0.039 C 
ENDBRANCH   4   5
ENDBRANCH   3   4
ENDBRANCH   1   3
BRANCH   1   9
ATOM      9  C   UNL     1      -8.076   5.187   3.210  1.00  0.00     0.013 C 
ATOM     10  C   UNL     1      -7.402   5.970   4.061  1.00  0.00     0.008 C 
ENDBRANCH   1   9
BRANCH   1  11
ATOM     11  O   UNL     1      -9.221   6.607   1.692  1.00  0.00    -0.455 OA
BRANCH  11  12
ATOM     12  C   UNL     1      -9.660   7.279   0.541  1.00  0.00     0.303 C 
ATOM     13  O   UNL     1      -9.081   8.319   0.126  1.00  0.00    -0.253 OA
ATOM     14  C   UNL     1     -10.861   6.773  -0.182  1.00  0.00     0.139 C 
ENDBRANCH  11  12
ENDBRANCH   1  11
TORSDOF 6
ENDMDL
