MODEL 1
REMARK VINA RESULT:    -4.099      0.000      0.000
REMARK INTER + INTRA:         -10.597
REMARK INTER:                  -7.933
REMARK INTRA:                  -2.665
REMARK UNBOUND:                -2.665
REMARK SMILES CCCCCCCCCCCCCCCCCC(=O)[O-]
REMARK SMILES IDX 10 1 11 2 12 3 13 4 14 5 15 6 16 7 17 8 18 9 19 10 20 11
REMARK SMILES IDX 9 12 8 13 7 14 6 15 5 16 4 17 3 18 2 19 1 20
REMARK H PARENT
REMARK Flexibility Score: inf
ROOT
ATOM      1  C   UNL     1     -22.975 -13.719 -18.834  1.00  0.00     0.000 C 
ENDROOT
BRANCH   1   2
ATOM      2  C   UNL     1     -22.870 -12.225 -18.506  1.00  0.00     0.000 C 
BRANCH   2   3
ATOM      3  C   UNL     1     -22.580 -12.009 -17.014  1.00  0.00     0.000 C 
BRANCH   3   4
ATOM      4  C   UNL     1     -22.582 -13.321 -16.209  1.00  0.00     0.000 C 
BRANCH   4   5
ATOM      5  C   UNL     1     -23.082 -13.195 -14.757  1.00  0.00     0.000 C 
BRANCH   5   6
ATOM      6  C   UNL     1     -23.940 -14.375 -14.255  1.00  0.00     0.000 C 
BRANCH   6   7
ATOM      7  C   UNL     1     -23.902 -15.630 -15.145  1.00  0.00     0.006 C 
BRANCH   7   8
ATOM      8  C   UNL     1     -24.738 -16.786 -14.579  1.00  0.00     0.053 C 
BRANCH   8   9
ATOM      9  C   UNL     1     -23.846 -17.852 -14.026  1.00  0.00     0.041 C 
ATOM     10  O   UNL     1     -22.664 -17.969 -14.446  1.00  0.00    -0.550 OA
ATOM     11  O   UNL     1     -24.334 -18.750 -13.086  1.00  0.00    -0.550 OA
ENDBRANCH   8   9
ENDBRANCH   7   8
ENDBRANCH   6   7
ENDBRANCH   5   6
ENDBRANCH   4   5
ENDBRANCH   3   4
ENDBRANCH   2   3
ENDBRANCH   1   2
BRANCH   1  12
ATOM     12  C   UNL     1     -22.508 -14.001 -20.270  1.00  0.00     0.000 C 
BRANCH  12  13
ATOM     13  C   UNL     1     -21.286 -13.158 -20.673  1.00  0.00    -0.000 C 
BRANCH  13  14
ATOM     14  C   UNL     1     -19.957 -13.805 -20.246  1.00  0.00    -0.000 C 
BRANCH  14  15
ATOM     15  C   UNL     1     -19.307 -13.086 -19.051  1.00  0.00    -0.000 C 
BRANCH  15  16
ATOM     16  C   UNL     1     -19.335 -13.927 -17.766  1.00  0.00    -0.000 C 
BRANCH  16  17
ATOM     17  C   UNL     1     -18.486 -15.196 -17.921  1.00  0.00    -0.000 C 
BRANCH  17  18
ATOM     18  C   UNL     1     -19.238 -16.430 -17.409  1.00  0.00    -0.000 C 
BRANCH  18  19
ATOM     19  C   UNL     1     -20.703 -16.095 -17.108  1.00  0.00    -0.003 C 
ATOM     20  C   UNL     1     -21.646 -17.080 -17.792  1.00  0.00     0.004 C 
ENDBRANCH  18  19
ENDBRANCH  17  18
ENDBRANCH  16  17
ENDBRANCH  15  16
ENDBRANCH  14  15
ENDBRANCH  13  14
ENDBRANCH  12  13
ENDBRANCH   1  12
TORSDOF 16
ENDMDL
MODEL 2
REMARK VINA RESULT:    -3.994      3.333      5.946
REMARK INTER + INTRA:         -10.395
REMARK INTER:                  -7.840
REMARK INTRA:                  -2.555
REMARK UNBOUND:                -2.665
REMARK SMILES CCCCCCCCCCCCCCCCCC(=O)[O-]
REMARK SMILES IDX 10 1 11 2 12 3 13 4 14 5 15 6 16 7 17 8 18 9 19 10 20 11
REMARK SMILES IDX 9 12 8 13 7 14 6 15 5 16 4 17 3 18 2 19 1 20
REMARK H PARENT
REMARK Flexibility Score: inf
ROOT
ATOM      1  C   UNL     1     -22.919 -14.379 -20.755  1.00  0.00     0.000 C 
ENDROOT
BRANCH   1   2
ATOM      2  C   UNL     1     -22.289 -13.033 -20.376  1.00  0.00     0.000 C 
BRANCH   2   3
ATOM      3  C   UNL     1     -22.811 -12.545 -19.018  1.00  0.00     0.000 C 
BRANCH   3   4
ATOM      4  C   UNL     1     -21.694 -12.381 -17.972  1.00  0.00     0.000 C 
BRANCH   4   5
ATOM      5  C   UNL     1     -20.303 -12.868 -18.422  1.00  0.00     0.000 C 
BRANCH   5   6
ATOM      6  C   UNL     1     -19.609 -13.852 -17.458  1.00  0.00     0.000 C 
BRANCH   6   7
ATOM      7  C   UNL     1     -18.516 -14.727 -18.099  1.00  0.00     0.006 C 
BRANCH   7   8
ATOM      8  C   UNL     1     -18.302 -14.417 -19.587  1.00  0.00     0.053 C 
BRANCH   8   9
ATOM      9  C   UNL     1     -16.863 -14.596 -19.953  1.00  0.00     0.041 C 
ATOM     10  O   UNL     1     -16.161 -15.458 -19.362  1.00  0.00    -0.550 OA
ATOM     11  O   UNL     1     -16.282 -13.774 -20.911  1.00  0.00    -0.550 OA
ENDBRANCH   8   9
ENDBRANCH   7   8
ENDBRANCH   6   7
ENDBRANCH   5   6
ENDBRANCH   4   5
ENDBRANCH   3   4
ENDBRANCH   2   3
ENDBRANCH   1   2
BRANCH   1  12
ATOM     12  C   UNL     1     -21.854 -15.484 -20.827  1.00  0.00     0.000 C 
BRANCH  12  13
ATOM     13  C   UNL     1     -21.702 -16.248 -19.502  1.00  0.00    -0.000 C 
BRANCH  13  14
ATOM     14  C   UNL     1     -23.013 -16.297 -18.696  1.00  0.00    -0.000 C 
BRANCH  14  15
ATOM     15  C   UNL     1     -22.831 -15.826 -17.243  1.00  0.00    -0.000 C 
BRANCH  15  16
ATOM     16  C   UNL     1     -23.670 -16.639 -16.245  1.00  0.00    -0.000 C 
BRANCH  16  17
ATOM     17  C   UNL     1     -23.555 -16.058 -14.831  1.00  0.00    -0.000 C 
BRANCH  17  18
ATOM     18  C   UNL     1     -24.233 -14.685 -14.741  1.00  0.00    -0.000 C 
BRANCH  18  19
ATOM     19  C   UNL     1     -23.193 -13.565 -14.624  1.00  0.00    -0.003 C 
ATOM     20  C   UNL     1     -23.807 -12.207 -14.952  1.00  0.00     0.004 C 
ENDBRANCH  18  19
ENDBRANCH  17  18
ENDBRANCH  16  17
ENDBRANCH  15  16
ENDBRANCH  14  15
ENDBRANCH  13  14
ENDBRANCH  12  13
ENDBRANCH   1  12
TORSDOF 16
ENDMDL
MODEL 3
REMARK VINA RESULT:    -3.976      1.254      1.906
REMARK INTER + INTRA:         -10.360
REMARK INTER:                  -8.284
REMARK INTRA:                  -2.077
REMARK UNBOUND:                -2.665
REMARK SMILES CCCCCCCCCCCCCCCCCC(=O)[O-]
REMARK SMILES IDX 10 1 11 2 12 3 13 4 14 5 15 6 16 7 17 8 18 9 19 10 20 11
REMARK SMILES IDX 9 12 8 13 7 14 6 15 5 16 4 17 3 18 2 19 1 20
REMARK H PARENT
REMARK Flexibility Score: inf
ROOT
ATOM      1  C   UNL     1     -23.017 -14.653 -18.345  1.00  0.00     0.000 C 
ENDROOT
BRANCH   1   2
ATOM      2  C   UNL     1     -22.639 -14.649 -16.858  1.00  0.00     0.000 C 
BRANCH   2   3
ATOM      3  C   UNL     1     -22.606 -13.218 -16.304  1.00  0.00     0.000 C 
BRANCH   3   4
ATOM      4  C   UNL     1     -22.868 -13.159 -14.788  1.00  0.00     0.000 C 
BRANCH   4   5
ATOM      5  C   UNL     1     -24.258 -12.629 -14.387  1.00  0.00     0.000 C 
BRANCH   5   6
ATOM      6  C   UNL     1     -25.269 -13.707 -13.945  1.00  0.00     0.000 C 
BRANCH   6   7
ATOM      7  C   UNL     1     -24.715 -15.143 -13.915  1.00  0.00     0.006 C 
BRANCH   7   8
ATOM      8  C   UNL     1     -25.820 -16.207 -13.870  1.00  0.00     0.053 C 
BRANCH   8   9
ATOM      9  C   UNL     1     -25.610 -17.125 -12.708  1.00  0.00     0.041 C 
ATOM     10  O   UNL     1     -26.203 -16.912 -11.617  1.00  0.00    -0.550 OA
ATOM     11  O   UNL     1     -24.720 -18.186 -12.812  1.00  0.00    -0.550 OA
ENDBRANCH   8   9
ENDBRANCH   7   8
ENDBRANCH   6   7
ENDBRANCH   5   6
ENDBRANCH   4   5
ENDBRANCH   3   4
ENDBRANCH   2   3
ENDBRANCH   1   2
BRANCH   1  12
ATOM     12  C   UNL     1     -22.892 -13.247 -18.948  1.00  0.00     0.000 C 
BRANCH  12  13
ATOM     13  C   UNL     1     -22.352 -13.264 -20.388  1.00  0.00    -0.000 C 
BRANCH  13  14
ATOM     14  C   UNL     1     -21.076 -12.420 -20.550  1.00  0.00    -0.000 C 
BRANCH  14  15
ATOM     15  C   UNL     1     -20.459 -12.017 -19.200  1.00  0.00    -0.000 C 
BRANCH  15  16
ATOM     16  C   UNL     1     -19.129 -12.733 -18.917  1.00  0.00    -0.000 C 
BRANCH  16  17
ATOM     17  C   UNL     1     -19.296 -13.786 -17.815  1.00  0.00    -0.000 C 
BRANCH  17  18
ATOM     18  C   UNL     1     -18.586 -15.093 -18.188  1.00  0.00    -0.000 C 
BRANCH  18  19
ATOM     19  C   UNL     1     -19.108 -16.263 -17.346  1.00  0.00    -0.003 C 
ATOM     20  C   UNL     1     -20.159 -17.064 -18.108  1.00  0.00     0.004 C 
ENDBRANCH  18  19
ENDBRANCH  17  18
ENDBRANCH  16  17
ENDBRANCH  15  16
ENDBRANCH  14  15
ENDBRANCH  13  14
ENDBRANCH  12  13
ENDBRANCH   1  12
TORSDOF 16
ENDMDL
MODEL 4
REMARK VINA RESULT:    -3.947      3.725      6.382
REMARK INTER + INTRA:         -10.304
REMARK INTER:                  -7.961
REMARK INTRA:                  -2.343
REMARK UNBOUND:                -2.665
REMARK SMILES CCCCCCCCCCCCCCCCCC(=O)[O-]
REMARK SMILES IDX 10 1 11 2 12 3 13 4 14 5 15 6 16 7 17 8 18 9 19 10 20 11
REMARK SMILES IDX 9 12 8 13 7 14 6 15 5 16 4 17 3 18 2 19 1 20
REMARK H PARENT
REMARK Flexibility Score: inf
ROOT
ATOM      1  C   UNL     1     -22.654 -13.348 -15.169  1.00  0.00     0.000 C 
ENDROOT
BRANCH   1   2
ATOM      2  C   UNL     1     -23.087 -12.345 -16.246  1.00  0.00     0.000 C 
BRANCH   2   3
ATOM      3  C   UNL     1     -22.072 -12.300 -17.396  1.00  0.00     0.000 C 
BRANCH   3   4
ATOM      4  C   UNL     1     -22.712 -11.923 -18.744  1.00  0.00     0.000 C 
BRANCH   4   5
ATOM      5  C   UNL     1     -22.648 -13.019 -19.826  1.00  0.00     0.000 C 
BRANCH   5   6
ATOM      6  C   UNL     1     -21.410 -12.961 -20.744  1.00  0.00     0.000 C 
BRANCH   6   7
ATOM      7  C   UNL     1     -20.694 -14.308 -20.956  1.00  0.00     0.006 C 
BRANCH   7   8
ATOM      8  C   UNL     1     -20.761 -14.795 -22.409  1.00  0.00     0.053 C 
BRANCH   8   9
ATOM      9  C   UNL     1     -19.620 -14.235 -23.198  1.00  0.00     0.041 C 
ATOM     10  O   UNL     1     -18.523 -14.852 -23.251  1.00  0.00    -0.550 OA
ATOM     11  O   UNL     1     -19.749 -13.005 -23.831  1.00  0.00    -0.550 OA
ENDBRANCH   8   9
ENDBRANCH   7   8
ENDBRANCH   6   7
ENDBRANCH   5   6
ENDBRANCH   4   5
ENDBRANCH   3   4
ENDBRANCH   2   3
ENDBRANCH   1   2
BRANCH   1  12
ATOM     12  C   UNL     1     -23.872 -13.935 -14.441  1.00  0.00     0.000 C 
BRANCH  12  13
ATOM     13  C   UNL     1     -24.203 -15.366 -14.898  1.00  0.00    -0.000 C 
BRANCH  13  14
ATOM     14  C   UNL     1     -22.998 -16.072 -15.545  1.00  0.00    -0.000 C 
BRANCH  14  15
ATOM     15  C   UNL     1     -23.300 -16.570 -16.968  1.00  0.00    -0.000 C 
BRANCH  15  16
ATOM     16  C   UNL     1     -22.278 -16.071 -18.001  1.00  0.00    -0.000 C 
BRANCH  16  17
ATOM     17  C   UNL     1     -20.995 -15.587 -17.315  1.00  0.00    -0.000 C 
BRANCH  17  18
ATOM     18  C   UNL     1     -19.782 -16.410 -17.767  1.00  0.00    -0.000 C 
BRANCH  18  19
ATOM     19  C   UNL     1     -18.542 -15.523 -17.918  1.00  0.00    -0.003 C 
ATOM     20  C   UNL     1     -18.887 -14.052 -17.710  1.00  0.00     0.004 C 
ENDBRANCH  18  19
ENDBRANCH  17  18
ENDBRANCH  16  17
ENDBRANCH  15  16
ENDBRANCH  14  15
ENDBRANCH  13  14
ENDBRANCH  12  13
ENDBRANCH   1  12
TORSDOF 16
ENDMDL
MODEL 5
REMARK VINA RESULT:    -3.934      2.876      6.087
REMARK INTER + INTRA:         -10.279
REMARK INTER:                  -7.716
REMARK INTRA:                  -2.563
REMARK UNBOUND:                -2.665
REMARK SMILES CCCCCCCCCCCCCCCCCC(=O)[O-]
REMARK SMILES IDX 10 1 11 2 12 3 13 4 14 5 15 6 16 7 17 8 18 9 19 10 20 11
REMARK SMILES IDX 9 12 8 13 7 14 6 15 5 16 4 17 3 18 2 19 1 20
REMARK H PARENT
REMARK Flexibility Score: inf
ROOT
ATOM      1  C   UNL     1     -23.078 -16.847 -18.328  1.00  0.00     0.000 C 
ENDROOT
BRANCH   1   2
ATOM      2  C   UNL     1     -21.979 -16.626 -19.375  1.00  0.00     0.000 C 
BRANCH   2   3
ATOM      3  C   UNL     1     -22.585 -16.324 -20.753  1.00  0.00     0.000 C 
BRANCH   3   4
ATOM      4  C   UNL     1     -22.337 -14.876 -21.210  1.00  0.00     0.000 C 
BRANCH   4   5
ATOM      5  C   UNL     1     -23.053 -13.797 -20.374  1.00  0.00     0.000 C 
BRANCH   5   6
ATOM      6  C   UNL     1     -22.220 -12.531 -20.085  1.00  0.00     0.000 C 
BRANCH   6   7
ATOM      7  C   UNL     1     -20.772 -12.573 -20.609  1.00  0.00     0.006 C 
BRANCH   7   8
ATOM      8  C   UNL     1     -19.731 -12.529 -19.483  1.00  0.00     0.053 C 
BRANCH   8   9
ATOM      9  C   UNL     1     -19.011 -13.837 -19.389  1.00  0.00     0.041 C 
ATOM     10  O   UNL     1     -19.005 -14.629 -20.369  1.00  0.00    -0.550 OA
ATOM     11  O   UNL     1     -18.391 -14.207 -18.202  1.00  0.00    -0.550 OA
ENDBRANCH   8   9
ENDBRANCH   7   8
ENDBRANCH   6   7
ENDBRANCH   5   6
ENDBRANCH   4   5
ENDBRANCH   3   4
ENDBRANCH   2   3
ENDBRANCH   1   2
BRANCH   1  12
ATOM     12  C   UNL     1     -23.076 -15.723 -17.283  1.00  0.00     0.000 C 
BRANCH  12  13
ATOM     13  C   UNL     1     -21.657 -15.266 -16.905  1.00  0.00    -0.000 C 
BRANCH  13  14
ATOM     14  C   UNL     1     -21.571 -13.749 -16.661  1.00  0.00    -0.000 C 
BRANCH  14  15
ATOM     15  C   UNL     1     -22.906 -13.150 -16.189  1.00  0.00    -0.000 C 
BRANCH  15  16
ATOM     16  C   UNL     1     -23.045 -13.141 -14.659  1.00  0.00    -0.000 C 
BRANCH  16  17
ATOM     17  C   UNL     1     -24.476 -12.781 -14.240  1.00  0.00    -0.000 C 
BRANCH  17  18
ATOM     18  C   UNL     1     -25.346 -14.038 -14.108  1.00  0.00    -0.000 C 
BRANCH  18  19
ATOM     19  C   UNL     1     -24.480 -15.287 -13.912  1.00  0.00    -0.003 C 
ATOM     20  C   UNL     1     -25.245 -16.552 -14.286  1.00  0.00     0.004 C 
ENDBRANCH  18  19
ENDBRANCH  17  18
ENDBRANCH  16  17
ENDBRANCH  15  16
ENDBRANCH  14  15
ENDBRANCH  13  14
ENDBRANCH  12  13
ENDBRANCH   1  12
TORSDOF 16
ENDMDL
MODEL 6
REMARK VINA RESULT:    -3.918      2.003      5.012
REMARK INTER + INTRA:         -10.248
REMARK INTER:                  -8.136
REMARK INTRA:                  -2.112
REMARK UNBOUND:                -2.665
REMARK SMILES CCCCCCCCCCCCCCCCCC(=O)[O-]
REMARK SMILES IDX 10 1 11 2 12 3 13 4 14 5 15 6 16 7 17 8 18 9 19 10 20 11
REMARK SMILES IDX 9 12 8 13 7 14 6 15 5 16 4 17 3 18 2 19 1 20
REMARK H PARENT
REMARK Flexibility Score: inf
ROOT
ATOM      1  C   UNL     1     -22.036 -14.271 -20.631  1.00  0.00     0.000 C 
ENDROOT
BRANCH   1   2
ATOM      2  C   UNL     1     -20.924 -13.297 -21.038  1.00  0.00     0.000 C 
BRANCH   2   3
ATOM      3  C   UNL     1     -19.672 -14.054 -21.502  1.00  0.00     0.000 C 
BRANCH   3   4
ATOM      4  C   UNL     1     -18.816 -14.568 -20.331  1.00  0.00     0.000 C 
BRANCH   4   5
ATOM      5  C   UNL     1     -18.736 -13.623 -19.117  1.00  0.00     0.000 C 
BRANCH   5   6
ATOM      6  C   UNL     1     -19.176 -14.242 -17.774  1.00  0.00     0.000 C 
BRANCH   6   7
ATOM      7  C   UNL     1     -19.636 -15.708 -17.855  1.00  0.00     0.006 C 
BRANCH   7   8
ATOM      8  C   UNL     1     -18.550 -16.698 -17.411  1.00  0.00     0.053 C 
BRANCH   8   9
ATOM      9  C   UNL     1     -19.163 -17.845 -16.672  1.00  0.00     0.041 C 
ATOM     10  O   UNL     1     -18.720 -18.178 -15.541  1.00  0.00    -0.550 OA
ATOM     11  O   UNL     1     -20.188 -18.580 -17.254  1.00  0.00    -0.550 OA
ENDBRANCH   8   9
ENDBRANCH   7   8
ENDBRANCH   6   7
ENDBRANCH   5   6
ENDBRANCH   4   5
ENDBRANCH   3   4
ENDBRANCH   2   3
ENDBRANCH   1   2
BRANCH   1  12
ATOM     12  C   UNL     1     -22.963 -13.640 -19.581  1.00  0.00     0.000 C 
BRANCH  12  13
ATOM     13  C   UNL     1     -22.615 -12.172 -19.288  1.00  0.00    -0.000 C 
BRANCH  13  14
ATOM     14  C   UNL     1     -22.065 -11.969 -17.864  1.00  0.00    -0.000 C 
BRANCH  14  15
ATOM     15  C   UNL     1     -22.966 -12.598 -16.788  1.00  0.00    -0.000 C 
BRANCH  15  16
ATOM     16  C   UNL     1     -22.236 -13.657 -15.947  1.00  0.00    -0.000 C 
BRANCH  16  17
ATOM     17  C   UNL     1     -23.169 -14.253 -14.886  1.00  0.00    -0.000 C 
BRANCH  17  18
ATOM     18  C   UNL     1     -24.144 -13.196 -14.351  1.00  0.00    -0.000 C 
BRANCH  18  19
ATOM     19  C   UNL     1     -25.482 -13.831 -13.957  1.00  0.00    -0.003 C 
ATOM     20  C   UNL     1     -25.359 -15.347 -13.840  1.00  0.00     0.004 C 
ENDBRANCH  18  19
ENDBRANCH  17  18
ENDBRANCH  16  17
ENDBRANCH  15  16
ENDBRANCH  14  15
ENDBRANCH  13  14
ENDBRANCH  12  13
ENDBRANCH   1  12
TORSDOF 16
ENDMDL
MODEL 7
REMARK VINA RESULT:    -3.912      1.075      2.258
REMARK INTER + INTRA:         -10.235
REMARK INTER:                  -8.010
REMARK INTRA:                  -2.225
REMARK UNBOUND:                -2.665
REMARK SMILES CCCCCCCCCCCCCCCCCC(=O)[O-]
REMARK SMILES IDX 10 1 11 2 12 3 13 4 14 5 15 6 16 7 17 8 18 9 19 10 20 11
REMARK SMILES IDX 9 12 8 13 7 14 6 15 5 16 4 17 3 18 2 19 1 20
REMARK H PARENT
REMARK Flexibility Score: inf
ROOT
ATOM      1  C   UNL     1     -22.729 -14.701 -16.628  1.00  0.00     0.000 C 
ENDROOT
BRANCH   1   2
ATOM      2  C   UNL     1     -22.435 -13.317 -16.036  1.00  0.00     0.000 C 
BRANCH   2   3
ATOM      3  C   UNL     1     -23.285 -13.064 -14.783  1.00  0.00     0.000 C 
BRANCH   3   4
ATOM      4  C   UNL     1     -23.839 -14.360 -14.165  1.00  0.00     0.000 C 
BRANCH   4   5
ATOM      5  C   UNL     1     -25.372 -14.406 -14.010  1.00  0.00     0.000 C 
BRANCH   5   6
ATOM      6  C   UNL     1     -25.953 -15.788 -13.650  1.00  0.00     0.000 C 
BRANCH   6   7
ATOM      7  C   UNL     1     -25.349 -16.970 -14.430  1.00  0.00     0.006 C 
BRANCH   7   8
ATOM      8  C   UNL     1     -24.734 -18.036 -13.513  1.00  0.00     0.053 C 
BRANCH   8   9
ATOM      9  C   UNL     1     -23.282 -18.215 -13.826  1.00  0.00     0.041 C 
ATOM     10  O   UNL     1     -22.796 -17.727 -14.881  1.00  0.00    -0.550 OA
ATOM     11  O   UNL     1     -22.475 -18.965 -12.979  1.00  0.00    -0.550 OA
ENDBRANCH   8   9
ENDBRANCH   7   8
ENDBRANCH   6   7
ENDBRANCH   5   6
ENDBRANCH   4   5
ENDBRANCH   3   4
ENDBRANCH   2   3
ENDBRANCH   1   2
BRANCH   1  12
ATOM     12  C   UNL     1     -22.838 -14.632 -18.159  1.00  0.00     0.000 C 
BRANCH  12  13
ATOM     13  C   UNL     1     -22.900 -13.188 -18.685  1.00  0.00    -0.000 C 
BRANCH  13  14
ATOM     14  C   UNL     1     -22.518 -13.086 -20.173  1.00  0.00    -0.000 C 
BRANCH  14  15
ATOM     15  C   UNL     1     -21.016 -13.309 -20.414  1.00  0.00    -0.000 C 
BRANCH  15  16
ATOM     16  C   UNL     1     -20.133 -12.463 -19.485  1.00  0.00    -0.000 C 
BRANCH  16  17
ATOM     17  C   UNL     1     -18.913 -13.262 -19.009  1.00  0.00    -0.000 C 
BRANCH  17  18
ATOM     18  C   UNL     1     -19.200 -13.969 -17.679  1.00  0.00    -0.000 C 
BRANCH  18  19
ATOM     19  C   UNL     1     -18.689 -15.414 -17.704  1.00  0.00    -0.003 C 
ATOM     20  C   UNL     1     -19.667 -16.333 -18.428  1.00  0.00     0.004 C 
ENDBRANCH  18  19
ENDBRANCH  17  18
ENDBRANCH  16  17
ENDBRANCH  15  16
ENDBRANCH  14  15
ENDBRANCH  13  14
ENDBRANCH  12  13
ENDBRANCH   1  12
TORSDOF 16
ENDMDL
MODEL 8
REMARK VINA RESULT:    -3.900      1.797      3.838
REMARK INTER + INTRA:         -10.213
REMARK INTER:                  -7.592
REMARK INTRA:                  -2.622
REMARK UNBOUND:                -2.665
REMARK SMILES CCCCCCCCCCCCCCCCCC(=O)[O-]
REMARK SMILES IDX 10 1 11 2 12 3 13 4 14 5 15 6 16 7 17 8 18 9 19 10 20 11
REMARK SMILES IDX 9 12 8 13 7 14 6 15 5 16 4 17 3 18 2 19 1 20
REMARK H PARENT
REMARK Flexibility Score: inf
ROOT
ATOM      1  C   UNL     1     -18.942 -14.068 -17.947  1.00  0.00     0.000 C 
ENDROOT
BRANCH   1   2
ATOM      2  C   UNL     1     -19.342 -15.546 -17.865  1.00  0.00     0.000 C 
BRANCH   2   3
ATOM      3  C   UNL     1     -20.669 -15.715 -17.111  1.00  0.00     0.000 C 
BRANCH   3   4
ATOM      4  C   UNL     1     -21.765 -16.369 -17.970  1.00  0.00     0.000 C 
BRANCH   4   5
ATOM      5  C   UNL     1     -23.165 -16.403 -17.326  1.00  0.00     0.000 C 
BRANCH   5   6
ATOM      6  C   UNL     1     -23.187 -16.736 -15.820  1.00  0.00     0.000 C 
BRANCH   6   7
ATOM      7  C   UNL     1     -24.592 -16.864 -15.204  1.00  0.00     0.006 C 
BRANCH   7   8
ATOM      8  C   UNL     1     -24.731 -16.105 -13.877  1.00  0.00     0.053 C 
BRANCH   8   9
ATOM      9  C   UNL     1     -25.958 -15.249 -13.894  1.00  0.00     0.041 C 
ATOM     10  O   UNL     1     -25.856 -13.998 -13.997  1.00  0.00    -0.550 OA
ATOM     11  O   UNL     1     -27.211 -15.828 -13.743  1.00  0.00    -0.550 OA
ENDBRANCH   8   9
ENDBRANCH   7   8
ENDBRANCH   6   7
ENDBRANCH   5   6
ENDBRANCH   4   5
ENDBRANCH   3   4
ENDBRANCH   2   3
ENDBRANCH   1   2
BRANCH   1  12
ATOM     12  C   UNL     1     -18.373 -13.728 -19.333  1.00  0.00     0.000 C 
BRANCH  12  13
ATOM     13  C   UNL     1     -19.440 -13.773 -20.439  1.00  0.00    -0.000 C 
BRANCH  13  14
ATOM     14  C   UNL     1     -19.927 -12.370 -20.845  1.00  0.00    -0.000 C 
BRANCH  14  15
ATOM     15  C   UNL     1     -21.234 -11.972 -20.139  1.00  0.00    -0.000 C 
BRANCH  15  16
ATOM     16  C   UNL     1     -22.197 -13.155 -19.959  1.00  0.00    -0.000 C 
BRANCH  16  17
ATOM     17  C   UNL     1     -23.040 -12.989 -18.689  1.00  0.00    -0.000 C 
BRANCH  17  18
ATOM     18  C   UNL     1     -22.220 -12.350 -17.562  1.00  0.00    -0.000 C 
BRANCH  18  19
ATOM     19  C   UNL     1     -23.065 -12.178 -16.295  1.00  0.00    -0.003 C 
ATOM     20  C   UNL     1     -22.683 -13.205 -15.233  1.00  0.00     0.004 C 
ENDBRANCH  18  19
ENDBRANCH  17  18
ENDBRANCH  16  17
ENDBRANCH  15  16
ENDBRANCH  14  15
ENDBRANCH  13  14
ENDBRANCH  12  13
ENDBRANCH   1  12
TORSDOF 16
ENDMDL
MODEL 9
REMARK VINA RESULT:    -3.891      3.021      5.369
REMARK INTER + INTRA:         -10.196
REMARK INTER:                  -7.415
REMARK INTRA:                  -2.781
REMARK UNBOUND:                -2.665
REMARK SMILES CCCCCCCCCCCCCCCCCC(=O)[O-]
REMARK SMILES IDX 10 1 11 2 12 3 13 4 14 5 15 6 16 7 17 8 18 9 19 10 20 11
REMARK SMILES IDX 9 12 8 13 7 14 6 15 5 16 4 17 3 18 2 19 1 20
REMARK H PARENT
REMARK Flexibility Score: inf
ROOT
ATOM      1  C   UNL     1     -19.863 -15.119 -17.599  1.00  0.00     0.000 C 
ENDROOT
BRANCH   1   2
ATOM      2  C   UNL     1     -21.285 -15.000 -17.036  1.00  0.00     0.000 C 
BRANCH   2   3
ATOM      3  C   UNL     1     -21.611 -13.546 -16.670  1.00  0.00     0.000 C 
BRANCH   3   4
ATOM      4  C   UNL     1     -22.838 -13.001 -17.423  1.00  0.00     0.000 C 
BRANCH   4   5
ATOM      5  C   UNL     1     -22.514 -12.089 -18.623  1.00  0.00     0.000 C 
BRANCH   5   6
ATOM      6  C   UNL     1     -22.458 -12.800 -19.991  1.00  0.00     0.000 C 
BRANCH   6   7
ATOM      7  C   UNL     1     -23.179 -14.159 -20.046  1.00  0.00     0.006 C 
BRANCH   7   8
ATOM      8  C   UNL     1     -22.609 -15.092 -21.123  1.00  0.00     0.053 C 
BRANCH   8   9
ATOM      9  C   UNL     1     -22.650 -16.512 -20.655  1.00  0.00     0.041 C 
ATOM     10  O   UNL     1     -22.952 -16.777 -19.461  1.00  0.00    -0.550 OA
ATOM     11  O   UNL     1     -22.304 -17.541 -21.522  1.00  0.00    -0.550 OA
ENDBRANCH   8   9
ENDBRANCH   7   8
ENDBRANCH   6   7
ENDBRANCH   5   6
ENDBRANCH   4   5
ENDBRANCH   3   4
ENDBRANCH   2   3
ENDBRANCH   1   2
BRANCH   1  12
ATOM     12  C   UNL     1     -19.222 -13.734 -17.772  1.00  0.00     0.000 C 
BRANCH  12  13
ATOM     13  C   UNL     1     -18.913 -13.403 -19.241  1.00  0.00    -0.000 C 
BRANCH  13  14
ATOM     14  C   UNL     1     -19.194 -14.586 -20.184  1.00  0.00    -0.000 C 
BRANCH  14  15
ATOM     15  C   UNL     1     -18.711 -14.323 -21.621  1.00  0.00    -0.000 C 
BRANCH  15  16
ATOM     16  C   UNL     1     -19.580 -13.296 -22.362  1.00  0.00    -0.000 C 
BRANCH  16  17
ATOM     17  C   UNL     1     -19.942 -13.795 -23.766  1.00  0.00    -0.000 C 
BRANCH  17  18
ATOM     18  C   UNL     1     -20.149 -15.314 -23.777  1.00  0.00    -0.000 C 
BRANCH  18  19
ATOM     19  C   UNL     1     -21.391 -15.695 -24.590  1.00  0.00    -0.003 C 
ATOM     20  C   UNL     1     -21.430 -14.947 -25.919  1.00  0.00     0.004 C 
ENDBRANCH  18  19
ENDBRANCH  17  18
ENDBRANCH  16  17
ENDBRANCH  15  16
ENDBRANCH  14  15
ENDBRANCH  13  14
ENDBRANCH  12  13
ENDBRANCH   1  12
TORSDOF 16
ENDMDL
