MODEL 1
REMARK VINA RESULT:    10.718      0.000      0.000
REMARK INTER + INTRA:          13.069
REMARK INTER:                  12.911
REMARK INTRA:                   0.158
REMARK UNBOUND:                 0.158
REMARK SMILES O=c1c(O)c(-c2ccc(O)c(O)c2)oc2cc(O)cc(O)c12
REMARK SMILES IDX 5 1 3 2 2 3 1 4 22 5 20 6 19 7 17 8 16 9 15 10 14 11 6 12
REMARK SMILES IDX 7 13 8 14 9 15 13 16 11 17 10 18 12 20 4 22 21 24 18 26
REMARK H PARENT 10 19 12 21 4 23 21 25 18 27
REMARK Flexibility Score: inf
ROOT
ATOM      1  C   UNL     1     -27.296 141.351  54.187  1.00  0.00     0.180 A 
ATOM      2  C   UNL     1     -27.953 140.109  54.222  1.00  0.00     0.208 A 
ATOM      3  C   UNL     1     -27.491 139.118  55.102  1.00  0.00     0.238 A 
ATOM      4  O   UNL     1     -28.050 137.990  55.089  1.00  0.00    -0.285 OA
ATOM      5  C   UNL     1     -26.388 139.385  55.949  1.00  0.00     0.111 A 
ATOM      6  C   UNL     1     -25.862 138.469  56.908  1.00  0.00     0.134 A 
ATOM      7  C   UNL     1     -24.687 138.791  57.599  1.00  0.00     0.093 A 
ATOM      8  C   UNL     1     -24.058 140.025  57.413  1.00  0.00     0.123 A 
ATOM      9  C   UNL     1     -24.597 140.949  56.523  1.00  0.00     0.094 A 
ATOM     10  C   UNL     1     -25.748 140.642  55.791  1.00  0.00     0.146 A 
ATOM     11  O   UNL     1     -26.224 141.549  54.947  1.00  0.00    -0.452 OA
ENDROOT
BRANCH   1  12
ATOM     12  C   UNL     1     -27.739 142.453  53.305  1.00  0.00     0.025 A 
ATOM     13  C   UNL     1     -28.179 142.208  51.992  1.00  0.00     0.016 A 
ATOM     14  C   UNL     1     -28.616 143.262  51.185  1.00  0.00     0.051 A 
ATOM     15  C   UNL     1     -28.631 144.571  51.681  1.00  0.00     0.157 A 
ATOM     16  C   UNL     1     -27.776 143.766  53.803  1.00  0.00     0.062 A 
ATOM     17  C   UNL     1     -28.214 144.824  52.993  1.00  0.00     0.158 A 
BRANCH  15  18
ATOM     18  O   UNL     1     -29.064 145.626  50.877  1.00  0.00    -0.504 OA
ATOM     19  H   UNL     1     -28.639 146.543  50.932  1.00  0.00     0.293 HD
ENDBRANCH  15  18
BRANCH  17  20
ATOM     20  O   UNL     1     -28.237 146.128  53.486  1.00  0.00    -0.504 OA
ATOM     21  H   UNL     1     -28.175 146.320  54.479  1.00  0.00     0.293 HD
ENDBRANCH  17  20
ENDBRANCH   1  12
BRANCH   2  22
ATOM     22  O   UNL     1     -29.026 139.858  53.362  1.00  0.00    -0.502 OA
ATOM     23  H   UNL     1     -29.967 140.173  53.561  1.00  0.00     0.293 HD
ENDBRANCH   2  22
BRANCH   6  24
ATOM     24  O   UNL     1     -26.464 137.251  57.236  1.00  0.00    -0.507 OA
ATOM     25  H   UNL     1     -27.375 136.955  56.918  1.00  0.00     0.293 HD
ENDBRANCH   6  24
BRANCH   8  26
ATOM     26  O   UNL     1     -22.898 140.343  58.116  1.00  0.00    -0.508 OA
ATOM     27  H   UNL     1     -22.647 139.862  58.972  1.00  0.00     0.293 HD
ENDBRANCH   8  26
TORSDOF 6
ENDMDL
MODEL 2
REMARK VINA RESULT:    11.151      2.145      6.664
REMARK INTER + INTRA:          13.591
REMARK INTER:                  13.103
REMARK INTRA:                   0.488
REMARK UNBOUND:                 0.158
REMARK SMILES O=c1c(O)c(-c2ccc(O)c(O)c2)oc2cc(O)cc(O)c12
REMARK SMILES IDX 5 1 3 2 2 3 1 4 22 5 20 6 19 7 17 8 16 9 15 10 14 11 6 12
REMARK SMILES IDX 7 13 8 14 9 15 13 16 11 17 10 18 12 20 4 22 21 24 18 26
REMARK H PARENT 10 19 12 21 4 23 21 25 18 27
REMARK Flexibility Score: inf
ROOT
ATOM      1  C   UNL     1     -24.710 140.119  56.407  1.00  0.00     0.180 A 
ATOM      2  C   UNL     1     -25.259 138.866  56.729  1.00  0.00     0.208 A 
ATOM      3  C   UNL     1     -26.510 138.513  56.198  1.00  0.00     0.238 A 
ATOM      4  O   UNL     1     -27.021 137.413  56.533  1.00  0.00    -0.285 OA
ATOM      5  C   UNL     1     -27.189 139.410  55.337  1.00  0.00     0.111 A 
ATOM      6  C   UNL     1     -28.441 139.140  54.709  1.00  0.00     0.134 A 
ATOM      7  C   UNL     1     -29.083 140.151  53.983  1.00  0.00     0.093 A 
ATOM      8  C   UNL     1     -28.483 141.401  53.808  1.00  0.00     0.123 A 
ATOM      9  C   UNL     1     -27.234 141.655  54.366  1.00  0.00     0.094 A 
ATOM     10  C   UNL     1     -26.586 140.679  55.127  1.00  0.00     0.146 A 
ATOM     11  O   UNL     1     -25.400 140.965  55.650  1.00  0.00    -0.452 OA
ENDROOT
BRANCH   1  12
ATOM     12  C   UNL     1     -23.386 140.552  56.908  1.00  0.00     0.025 A 
ATOM     13  C   UNL     1     -22.718 141.658  56.352  1.00  0.00     0.016 A 
ATOM     14  C   UNL     1     -21.481 142.063  56.858  1.00  0.00     0.051 A 
ATOM     15  C   UNL     1     -20.899 141.378  57.933  1.00  0.00     0.157 A 
ATOM     16  C   UNL     1     -22.807 139.882  57.999  1.00  0.00     0.062 A 
ATOM     17  C   UNL     1     -21.564 140.288  58.506  1.00  0.00     0.158 A 
BRANCH  15  18
ATOM     18  O   UNL     1     -19.662 141.778  58.439  1.00  0.00    -0.504 OA
ATOM     19  H   UNL     1     -19.213 141.278  59.196  1.00  0.00     0.293 HD
ENDBRANCH  15  18
BRANCH  17  20
ATOM     20  O   UNL     1     -20.986 139.614  59.580  1.00  0.00    -0.504 OA
ATOM     21  H   UNL     1     -19.997 139.692  59.786  1.00  0.00     0.293 HD
ENDBRANCH  17  20
ENDBRANCH   1  12
BRANCH   2  22
ATOM     22  O   UNL     1     -24.583 138.005  57.598  1.00  0.00    -0.502 OA
ATOM     23  H   UNL     1     -23.980 137.262  57.266  1.00  0.00     0.293 HD
ENDBRANCH   2  22
BRANCH   6  24
ATOM     24  O   UNL     1     -29.080 137.897  54.746  1.00  0.00    -0.507 OA
ATOM     25  H   UNL     1     -28.627 137.012  54.574  1.00  0.00     0.293 HD
ENDBRANCH   6  24
BRANCH   8  26
ATOM     26  O   UNL     1     -29.122 142.396  53.070  1.00  0.00    -0.508 OA
ATOM     27  H   UNL     1     -28.678 142.830  52.269  1.00  0.00     0.293 HD
ENDBRANCH   8  26
TORSDOF 6
ENDMDL
MODEL 3
REMARK VINA RESULT:    11.959      3.646      5.300
REMARK INTER + INTRA:          14.564
REMARK INTER:                  14.775
REMARK INTRA:                  -0.211
REMARK UNBOUND:                 0.158
REMARK SMILES O=c1c(O)c(-c2ccc(O)c(O)c2)oc2cc(O)cc(O)c12
REMARK SMILES IDX 5 1 3 2 2 3 1 4 22 5 20 6 19 7 17 8 16 9 15 10 14 11 6 12
REMARK SMILES IDX 7 13 8 14 9 15 13 16 11 17 10 18 12 20 4 22 21 24 18 26
REMARK H PARENT 10 19 12 21 4 23 21 25 18 27
REMARK Flexibility Score: inf
ROOT
ATOM      1  C   UNL     1     -26.604 138.798  55.036  1.00  0.00     0.180 A 
ATOM      2  C   UNL     1     -27.490 139.703  55.645  1.00  0.00     0.208 A 
ATOM      3  C   UNL     1     -27.014 140.540  56.666  1.00  0.00     0.238 A 
ATOM      4  O   UNL     1     -27.826 141.310  57.245  1.00  0.00    -0.285 OA
ATOM      5  C   UNL     1     -25.654 140.475  57.055  1.00  0.00     0.111 A 
ATOM      6  C   UNL     1     -25.054 141.305  58.049  1.00  0.00     0.134 A 
ATOM      7  C   UNL     1     -23.733 141.064  58.445  1.00  0.00     0.093 A 
ATOM      8  C   UNL     1     -22.970 140.066  57.833  1.00  0.00     0.123 A 
ATOM      9  C   UNL     1     -23.527 139.290  56.821  1.00  0.00     0.094 A 
ATOM     10  C   UNL     1     -24.855 139.482  56.430  1.00  0.00     0.146 A 
ATOM     11  O   UNL     1     -25.350 138.715  55.467  1.00  0.00    -0.452 OA
ENDROOT
BRANCH   1  12
ATOM     12  C   UNL     1     -27.025 137.901  53.936  1.00  0.00     0.025 A 
ATOM     13  C   UNL     1     -26.547 138.075  52.625  1.00  0.00     0.016 A 
ATOM     14  C   UNL     1     -26.939 137.201  51.608  1.00  0.00     0.051 A 
ATOM     15  C   UNL     1     -27.804 136.135  51.888  1.00  0.00     0.157 A 
ATOM     16  C   UNL     1     -27.876 136.818  54.215  1.00  0.00     0.062 A 
ATOM     17  C   UNL     1     -28.271 135.941  53.193  1.00  0.00     0.158 A 
BRANCH  15  18
ATOM     18  O   UNL     1     -28.200 135.262  50.875  1.00  0.00    -0.504 OA
ATOM     19  H   UNL     1     -28.964 134.611  51.006  1.00  0.00     0.293 HD
ENDBRANCH  15  18
BRANCH  17  20
ATOM     20  O   UNL     1     -29.125 134.876  53.471  1.00  0.00    -0.504 OA
ATOM     21  H   UNL     1     -30.132 134.991  53.480  1.00  0.00     0.293 HD
ENDBRANCH  17  20
ENDBRANCH   1  12
BRANCH   2  22
ATOM     22  O   UNL     1     -28.834 139.736  55.262  1.00  0.00    -0.502 OA
ATOM     23  H   UNL     1     -29.148 139.417  54.353  1.00  0.00     0.293 HD
ENDBRANCH   2  22
BRANCH   6  24
ATOM     24  O   UNL     1     -25.699 142.387  58.655  1.00  0.00    -0.507 OA
ATOM     25  H   UNL     1     -25.860 143.281  58.215  1.00  0.00     0.293 HD
ENDBRANCH   6  24
BRANCH   8  26
ATOM     26  O   UNL     1     -21.650 139.843  58.222  1.00  0.00    -0.508 OA
ATOM     27  H   UNL     1     -21.130 140.531  58.753  1.00  0.00     0.293 HD
ENDBRANCH   8  26
TORSDOF 6
ENDMDL
