MODEL 1
REMARK VINA RESULT:    -4.298      0.000      0.000
REMARK INTER + INTRA:         -16.242
REMARK INTER:                 -11.334
REMARK INTRA:                  -4.908
REMARK UNBOUND:                -4.908
REMARK SMILES CCCCCCCCCCCCCCCCCCCCCCCCCCCCCC(=O)[O-]
REMARK SMILES IDX 16 1 17 2 18 3 19 4 20 5 21 6 22 7 23 8 24 9 25 10 26 11
REMARK SMILES IDX 27 12 28 13 29 14 30 15 31 16 32 17 15 18 14 19 13 20 12 21
REMARK SMILES IDX 11 22 10 23 9 24 8 25 7 26 6 27 5 28 4 29 3 30 2 31 1 32
REMARK H PARENT
REMARK Flexibility Score: inf
ROOT
ATOM      1  C   UNL     1    -105.828 -38.751 -64.438  1.00  0.00     0.000 C 
ENDROOT
BRANCH   1   2
ATOM      2  C   UNL     1    -107.260 -38.832 -63.885  1.00  0.00     0.000 C 
BRANCH   2   3
ATOM      3  C   UNL     1    -108.306 -39.166 -64.965  1.00  0.00     0.000 C 
BRANCH   3   4
ATOM      4  C   UNL     1    -107.734 -39.712 -66.288  1.00  0.00     0.000 C 
BRANCH   4   5
ATOM      5  C   UNL     1    -108.673 -40.654 -67.061  1.00  0.00     0.000 C 
BRANCH   5   6
ATOM      6  C   UNL     1    -109.737 -41.336 -66.172  1.00  0.00     0.000 C 
BRANCH   6   7
ATOM      7  C   UNL     1    -109.969 -42.807 -66.562  1.00  0.00     0.000 C 
BRANCH   7   8
ATOM      8  C   UNL     1    -110.399 -43.673 -65.360  1.00  0.00     0.000 C 
BRANCH   8   9
ATOM      9  C   UNL     1    -111.014 -42.866 -64.199  1.00  0.00     0.000 C 
BRANCH   9  10
ATOM     10  C   UNL     1    -112.550 -42.830 -64.168  1.00  0.00     0.000 C 
BRANCH  10  11
ATOM     11  C   UNL     1    -113.133 -41.615 -64.908  1.00  0.00     0.000 C 
BRANCH  11  12
ATOM     12  C   UNL     1    -114.175 -42.007 -65.969  1.00  0.00     0.000 C 
BRANCH  12  13
ATOM     13  C   UNL     1    -113.628 -42.971 -67.044  1.00  0.00     0.006 C 
BRANCH  13  14
ATOM     14  C   UNL     1    -113.897 -42.461 -68.466  1.00  0.00     0.053 C 
BRANCH  14  15
ATOM     15  C   UNL     1    -113.146 -43.279 -69.467  1.00  0.00     0.041 C 
ATOM     16  O   UNL     1    -112.190 -44.012 -69.098  1.00  0.00    -0.550 OA
ATOM     17  O   UNL     1    -113.466 -43.193 -70.816  1.00  0.00    -0.550 OA
ENDBRANCH  14  15
ENDBRANCH  13  14
ENDBRANCH  12  13
ENDBRANCH  11  12
ENDBRANCH  10  11
ENDBRANCH   9  10
ENDBRANCH   8   9
ENDBRANCH   7   8
ENDBRANCH   6   7
ENDBRANCH   5   6
ENDBRANCH   4   5
ENDBRANCH   3   4
ENDBRANCH   2   3
ENDBRANCH   1   2
BRANCH   1  18
ATOM     18  C   UNL     1    -104.759 -38.840 -63.334  1.00  0.00     0.000 C 
BRANCH  18  19
ATOM     19  C   UNL     1    -105.259 -39.358 -61.968  1.00  0.00     0.000 C 
BRANCH  19  20
ATOM     20  C   UNL     1    -104.183 -39.983 -61.060  1.00  0.00     0.000 C 
BRANCH  20  21
ATOM     21  C   UNL     1    -103.996 -39.219 -59.740  1.00  0.00     0.000 C 
BRANCH  21  22
ATOM     22  C   UNL     1    -103.458 -40.110 -58.608  1.00  0.00     0.000 C 
BRANCH  22  23
ATOM     23  C   UNL     1    -104.403 -40.209 -57.391  1.00  0.00     0.000 C 
BRANCH  23  24
ATOM     24  C   UNL     1    -104.817 -41.657 -57.092  1.00  0.00    -0.000 C 
BRANCH  24  25
ATOM     25  C   UNL     1    -104.152 -42.632 -58.072  1.00  0.00    -0.000 C 
BRANCH  25  26
ATOM     26  C   UNL     1    -105.201 -43.461 -58.831  1.00  0.00    -0.000 C 
BRANCH  26  27
ATOM     27  C   UNL     1    -106.203 -42.592 -59.613  1.00  0.00    -0.000 C 
BRANCH  27  28
ATOM     28  C   UNL     1    -106.529 -43.090 -61.032  1.00  0.00    -0.000 C 
BRANCH  28  29
ATOM     29  C   UNL     1    -107.419 -42.112 -61.818  1.00  0.00    -0.000 C 
BRANCH  29  30
ATOM     30  C   UNL     1    -107.565 -42.511 -63.296  1.00  0.00    -0.000 C 
BRANCH  30  31
ATOM     31  C   UNL     1    -106.250 -42.382 -64.080  1.00  0.00    -0.003 C 
ATOM     32  C   UNL     1    -106.341 -43.095 -65.426  1.00  0.00     0.004 C 
ENDBRANCH  30  31
ENDBRANCH  29  30
ENDBRANCH  28  29
ENDBRANCH  27  28
ENDBRANCH  26  27
ENDBRANCH  25  26
ENDBRANCH  24  25
ENDBRANCH  23  24
ENDBRANCH  22  23
ENDBRANCH  21  22
ENDBRANCH  20  21
ENDBRANCH  19  20
ENDBRANCH  18  19
ENDBRANCH   1  18
TORSDOF 28
ENDMDL
MODEL 2
REMARK VINA RESULT:    -4.261      2.891      8.884
REMARK INTER + INTRA:         -16.143
REMARK INTER:                 -10.349
REMARK INTRA:                  -5.794
REMARK UNBOUND:                -4.908
REMARK SMILES CCCCCCCCCCCCCCCCCCCCCCCCCCCCCC(=O)[O-]
REMARK SMILES IDX 16 1 17 2 18 3 19 4 20 5 21 6 22 7 23 8 24 9 25 10 26 11
REMARK SMILES IDX 27 12 28 13 29 14 30 15 31 16 32 17 15 18 14 19 13 20 12 21
REMARK SMILES IDX 11 22 10 23 9 24 8 25 7 26 6 27 5 28 4 29 3 30 2 31 1 32
REMARK H PARENT
REMARK Flexibility Score: inf
ROOT
ATOM      1  C   UNL     1    -109.989 -40.851 -65.746  1.00  0.00     0.000 C 
ENDROOT
BRANCH   1   2
ATOM      2  C   UNL     1    -108.578 -40.491 -65.251  1.00  0.00     0.000 C 
BRANCH   2   3
ATOM      3  C   UNL     1    -107.501 -41.484 -65.727  1.00  0.00     0.000 C 
BRANCH   3   4
ATOM      4  C   UNL     1    -106.654 -42.123 -64.609  1.00  0.00     0.000 C 
BRANCH   4   5
ATOM      5  C   UNL     1    -107.213 -43.441 -64.044  1.00  0.00     0.000 C 
BRANCH   5   6
ATOM      6  C   UNL     1    -107.953 -43.275 -62.698  1.00  0.00     0.000 C 
BRANCH   6   7
ATOM      7  C   UNL     1    -107.540 -41.990 -61.959  1.00  0.00     0.000 C 
BRANCH   7   8
ATOM      8  C   UNL     1    -106.650 -42.277 -60.732  1.00  0.00     0.000 C 
BRANCH   8   9
ATOM      9  C   UNL     1    -105.410 -41.366 -60.635  1.00  0.00     0.000 C 
BRANCH   9  10
ATOM     10  C   UNL     1    -104.390 -41.524 -61.773  1.00  0.00     0.000 C 
BRANCH  10  11
ATOM     11  C   UNL     1    -104.086 -40.199 -62.490  1.00  0.00     0.000 C 
BRANCH  11  12
ATOM     12  C   UNL     1    -105.104 -39.094 -62.157  1.00  0.00     0.000 C 
BRANCH  12  13
ATOM     13  C   UNL     1    -106.003 -38.705 -63.350  1.00  0.00     0.006 C 
BRANCH  13  14
ATOM     14  C   UNL     1    -105.224 -38.677 -64.673  1.00  0.00     0.053 C 
BRANCH  14  15
ATOM     15  C   UNL     1    -105.754 -37.605 -65.570  1.00  0.00     0.041 C 
ATOM     16  O   UNL     1    -106.532 -37.897 -66.517  1.00  0.00    -0.550 OA
ATOM     17  O   UNL     1    -105.349 -36.288 -65.394  1.00  0.00    -0.550 OA
ENDBRANCH  14  15
ENDBRANCH  13  14
ENDBRANCH  12  13
ENDBRANCH  11  12
ENDBRANCH  10  11
ENDBRANCH   9  10
ENDBRANCH   8   9
ENDBRANCH   7   8
ENDBRANCH   6   7
ENDBRANCH   5   6
ENDBRANCH   4   5
ENDBRANCH   3   4
ENDBRANCH   2   3
ENDBRANCH   1   2
BRANCH   1  18
ATOM     18  C   UNL     1    -110.033 -42.201 -66.485  1.00  0.00     0.000 C 
BRANCH  18  19
ATOM     19  C   UNL     1    -110.493 -43.406 -65.636  1.00  0.00     0.000 C 
BRANCH  19  20
ATOM     20  C   UNL     1    -111.218 -43.056 -64.323  1.00  0.00     0.000 C 
BRANCH  20  21
ATOM     21  C   UNL     1    -112.749 -43.084 -64.458  1.00  0.00     0.000 C 
BRANCH  21  22
ATOM     22  C   UNL     1    -113.384 -41.692 -64.314  1.00  0.00     0.000 C 
BRANCH  22  23
ATOM     23  C   UNL     1    -113.679 -41.000 -65.662  1.00  0.00     0.000 C 
BRANCH  23  24
ATOM     24  C   UNL     1    -114.279 -41.967 -66.694  1.00  0.00    -0.000 C 
BRANCH  24  25
ATOM     25  C   UNL     1    -113.416 -42.021 -67.961  1.00  0.00    -0.000 C 
BRANCH  25  26
ATOM     26  C   UNL     1    -113.305 -43.456 -68.499  1.00  0.00    -0.000 C 
BRANCH  26  27
ATOM     27  C   UNL     1    -111.925 -43.764 -69.109  1.00  0.00    -0.000 C 
BRANCH  27  28
ATOM     28  C   UNL     1    -111.353 -42.663 -70.020  1.00  0.00    -0.000 C 
BRANCH  28  29
ATOM     29  C   UNL     1    -110.051 -43.085 -70.721  1.00  0.00    -0.000 C 
BRANCH  29  30
ATOM     30  C   UNL     1    -108.894 -42.111 -70.444  1.00  0.00    -0.000 C 
BRANCH  30  31
ATOM     31  C   UNL     1    -109.380 -40.721 -70.003  1.00  0.00    -0.003 C 
ATOM     32  C   UNL     1    -108.388 -40.074 -69.041  1.00  0.00     0.004 C 
ENDBRANCH  30  31
ENDBRANCH  29  30
ENDBRANCH  28  29
ENDBRANCH  27  28
ENDBRANCH  26  27
ENDBRANCH  25  26
ENDBRANCH  24  25
ENDBRANCH  23  24
ENDBRANCH  22  23
ENDBRANCH  21  22
ENDBRANCH  20  21
ENDBRANCH  19  20
ENDBRANCH  18  19
ENDBRANCH   1  18
TORSDOF 28
ENDMDL
MODEL 3
REMARK VINA RESULT:    -4.226      4.489     10.389
REMARK INTER + INTRA:         -16.051
REMARK INTER:                 -11.858
REMARK INTRA:                  -4.193
REMARK UNBOUND:                -4.908
REMARK SMILES CCCCCCCCCCCCCCCCCCCCCCCCCCCCCC(=O)[O-]
REMARK SMILES IDX 16 1 17 2 18 3 19 4 20 5 21 6 22 7 23 8 24 9 25 10 26 11
REMARK SMILES IDX 27 12 28 13 29 14 30 15 31 16 32 17 15 18 14 19 13 20 12 21
REMARK SMILES IDX 11 22 10 23 9 24 8 25 7 26 6 27 5 28 4 29 3 30 2 31 1 32
REMARK H PARENT
REMARK Flexibility Score: inf
ROOT
ATOM      1  C   UNL     1    -109.777 -40.722 -65.674  1.00  0.00     0.000 C 
ENDROOT
BRANCH   1   2
ATOM      2  C   UNL     1    -108.374 -40.162 -65.390  1.00  0.00     0.000 C 
BRANCH   2   3
ATOM      3  C   UNL     1    -107.413 -41.213 -64.803  1.00  0.00     0.000 C 
BRANCH   3   4
ATOM      4  C   UNL     1    -107.716 -41.643 -63.354  1.00  0.00     0.000 C 
BRANCH   4   5
ATOM      5  C   UNL     1    -107.792 -43.164 -63.131  1.00  0.00     0.000 C 
BRANCH   5   6
ATOM      6  C   UNL     1    -106.905 -43.666 -61.970  1.00  0.00     0.000 C 
BRANCH   6   7
ATOM      7  C   UNL     1    -106.585 -42.553 -60.956  1.00  0.00     0.000 C 
BRANCH   7   8
ATOM      8  C   UNL     1    -106.152 -43.113 -59.585  1.00  0.00     0.000 C 
BRANCH   8   9
ATOM      9  C   UNL     1    -104.685 -42.809 -59.222  1.00  0.00     0.000 C 
BRANCH   9  10
ATOM     10  C   UNL     1    -103.877 -42.086 -60.312  1.00  0.00     0.000 C 
BRANCH  10  11
ATOM     11  C   UNL     1    -103.300 -40.744 -59.833  1.00  0.00     0.000 C 
BRANCH  11  12
ATOM     12  C   UNL     1    -104.281 -39.953 -58.951  1.00  0.00     0.000 C 
BRANCH  12  13
ATOM     13  C   UNL     1    -103.731 -39.641 -57.543  1.00  0.00     0.006 C 
BRANCH  13  14
ATOM     14  C   UNL     1    -104.523 -40.360 -56.442  1.00  0.00     0.053 C 
BRANCH  14  15
ATOM     15  C   UNL     1    -103.627 -41.265 -55.659  1.00  0.00     0.041 C 
ATOM     16  O   UNL     1    -103.348 -40.999 -54.460  1.00  0.00    -0.550 OA
ATOM     17  O   UNL     1    -103.058 -42.376 -56.268  1.00  0.00    -0.550 OA
ENDBRANCH  14  15
ENDBRANCH  13  14
ENDBRANCH  12  13
ENDBRANCH  11  12
ENDBRANCH  10  11
ENDBRANCH   9  10
ENDBRANCH   8   9
ENDBRANCH   7   8
ENDBRANCH   6   7
ENDBRANCH   5   6
ENDBRANCH   4   5
ENDBRANCH   3   4
ENDBRANCH   2   3
ENDBRANCH   1   2
BRANCH   1  18
ATOM     18  C   UNL     1    -109.741 -42.059 -66.437  1.00  0.00     0.000 C 
BRANCH  18  19
ATOM     19  C   UNL     1    -110.433 -43.244 -65.729  1.00  0.00     0.000 C 
BRANCH  19  20
ATOM     20  C   UNL     1    -111.188 -42.895 -64.433  1.00  0.00     0.000 C 
BRANCH  20  21
ATOM     21  C   UNL     1    -112.714 -43.007 -64.581  1.00  0.00     0.000 C 
BRANCH  21  22
ATOM     22  C   UNL     1    -113.425 -41.650 -64.460  1.00  0.00     0.000 C 
BRANCH  22  23
ATOM     23  C   UNL     1    -113.460 -40.846 -65.779  1.00  0.00     0.000 C 
BRANCH  23  24
ATOM     24  C   UNL     1    -114.265 -41.561 -66.875  1.00  0.00    -0.000 C 
BRANCH  24  25
ATOM     25  C   UNL     1    -113.395 -41.829 -68.109  1.00  0.00    -0.000 C 
BRANCH  25  26
ATOM     26  C   UNL     1    -113.230 -43.336 -68.358  1.00  0.00    -0.000 C 
BRANCH  26  27
ATOM     27  C   UNL     1    -111.911 -43.688 -69.069  1.00  0.00    -0.000 C 
BRANCH  27  28
ATOM     28  C   UNL     1    -111.262 -42.530 -69.849  1.00  0.00    -0.000 C 
BRANCH  28  29
ATOM     29  C   UNL     1    -109.885 -42.898 -70.428  1.00  0.00    -0.000 C 
BRANCH  29  30
ATOM     30  C   UNL     1    -109.085 -43.823 -69.497  1.00  0.00    -0.000 C 
BRANCH  30  31
ATOM     31  C   UNL     1    -107.568 -43.605 -69.602  1.00  0.00    -0.003 C 
ATOM     32  C   UNL     1    -106.982 -43.167 -68.263  1.00  0.00     0.004 C 
ENDBRANCH  30  31
ENDBRANCH  29  30
ENDBRANCH  28  29
ENDBRANCH  27  28
ENDBRANCH  26  27
ENDBRANCH  25  26
ENDBRANCH  24  25
ENDBRANCH  23  24
ENDBRANCH  22  23
ENDBRANCH  21  22
ENDBRANCH  20  21
ENDBRANCH  19  20
ENDBRANCH  18  19
ENDBRANCH   1  18
TORSDOF 28
ENDMDL
MODEL 4
REMARK VINA RESULT:    -4.183      2.139      5.587
REMARK INTER + INTRA:         -15.938
REMARK INTER:                  -9.804
REMARK INTRA:                  -6.134
REMARK UNBOUND:                -4.908
REMARK SMILES CCCCCCCCCCCCCCCCCCCCCCCCCCCCCC(=O)[O-]
REMARK SMILES IDX 16 1 17 2 18 3 19 4 20 5 21 6 22 7 23 8 24 9 25 10 26 11
REMARK SMILES IDX 27 12 28 13 29 14 30 15 31 16 32 17 15 18 14 19 13 20 12 21
REMARK SMILES IDX 11 22 10 23 9 24 8 25 7 26 6 27 5 28 4 29 3 30 2 31 1 32
REMARK H PARENT
REMARK Flexibility Score: inf
ROOT
ATOM      1  C   UNL     1    -105.870 -41.178 -61.411  1.00  0.00     0.000 C 
ENDROOT
BRANCH   1   2
ATOM      2  C   UNL     1    -106.959 -42.258 -61.297  1.00  0.00     0.000 C 
BRANCH   2   3
ATOM      3  C   UNL     1    -106.715 -43.460 -62.228  1.00  0.00     0.000 C 
BRANCH   3   4
ATOM      4  C   UNL     1    -107.851 -43.760 -63.226  1.00  0.00     0.000 C 
BRANCH   4   5
ATOM      5  C   UNL     1    -109.253 -43.326 -62.763  1.00  0.00     0.000 C 
BRANCH   5   6
ATOM      6  C   UNL     1    -110.339 -43.471 -63.852  1.00  0.00     0.000 C 
BRANCH   6   7
ATOM      7  C   UNL     1    -111.761 -43.480 -63.264  1.00  0.00     0.000 C 
BRANCH   7   8
ATOM      8  C   UNL     1    -112.827 -43.060 -64.296  1.00  0.00     0.000 C 
BRANCH   8   9
ATOM      9  C   UNL     1    -112.842 -41.548 -64.597  1.00  0.00     0.000 C 
BRANCH   9  10
ATOM     10  C   UNL     1    -113.726 -41.124 -65.781  1.00  0.00     0.000 C 
BRANCH  10  11
ATOM     11  C   UNL     1    -114.328 -42.322 -66.533  1.00  0.00     0.000 C 
BRANCH  11  12
ATOM     12  C   UNL     1    -113.994 -42.314 -68.034  1.00  0.00     0.000 C 
BRANCH  12  13
ATOM     13  C   UNL     1    -112.835 -43.260 -68.413  1.00  0.00     0.006 C 
BRANCH  13  14
ATOM     14  C   UNL     1    -112.689 -43.413 -69.934  1.00  0.00     0.053 C 
BRANCH  14  15
ATOM     15  C   UNL     1    -111.564 -42.568 -70.439  1.00  0.00     0.041 C 
ATOM     16  O   UNL     1    -110.498 -43.105 -70.840  1.00  0.00    -0.550 OA
ATOM     17  O   UNL     1    -111.671 -41.183 -70.419  1.00  0.00    -0.550 OA
ENDBRANCH  14  15
ENDBRANCH  13  14
ENDBRANCH  12  13
ENDBRANCH  11  12
ENDBRANCH  10  11
ENDBRANCH   9  10
ENDBRANCH   8   9
ENDBRANCH   7   8
ENDBRANCH   6   7
ENDBRANCH   5   6
ENDBRANCH   4   5
ENDBRANCH   3   4
ENDBRANCH   2   3
ENDBRANCH   1   2
BRANCH   1  18
ATOM     18  C   UNL     1    -105.926 -40.417 -62.748  1.00  0.00     0.000 C 
BRANCH  18  19
ATOM     19  C   UNL     1    -107.242 -39.659 -63.024  1.00  0.00     0.000 C 
BRANCH  19  20
ATOM     20  C   UNL     1    -107.607 -39.478 -64.509  1.00  0.00     0.000 C 
BRANCH  20  21
ATOM     21  C   UNL     1    -108.530 -40.587 -65.039  1.00  0.00     0.000 C 
BRANCH  21  22
ATOM     22  C   UNL     1    -109.489 -40.091 -66.133  1.00  0.00     0.000 C 
BRANCH  22  23
ATOM     23  C   UNL     1    -110.186 -41.227 -66.912  1.00  0.00     0.000 C 
BRANCH  23  24
ATOM     24  C   UNL     1    -109.187 -42.098 -67.689  1.00  0.00    -0.000 C 
BRANCH  24  25
ATOM     25  C   UNL     1    -109.307 -43.571 -67.278  1.00  0.00    -0.000 C 
BRANCH  25  26
ATOM     26  C   UNL     1    -107.960 -44.123 -66.786  1.00  0.00    -0.000 C 
BRANCH  26  27
ATOM     27  C   UNL     1    -106.759 -43.283 -67.255  1.00  0.00    -0.000 C 
BRANCH  27  28
ATOM     28  C   UNL     1    -105.794 -42.843 -66.139  1.00  0.00    -0.000 C 
BRANCH  28  29
ATOM     29  C   UNL     1    -105.190 -41.451 -66.385  1.00  0.00    -0.000 C 
BRANCH  29  30
ATOM     30  C   UNL     1    -105.641 -40.844 -67.724  1.00  0.00    -0.000 C 
BRANCH  30  31
ATOM     31  C   UNL     1    -105.998 -39.354 -67.611  1.00  0.00    -0.003 C 
ATOM     32  C   UNL     1    -106.734 -38.870 -68.858  1.00  0.00     0.004 C 
ENDBRANCH  30  31
ENDBRANCH  29  30
ENDBRANCH  28  29
ENDBRANCH  27  28
ENDBRANCH  26  27
ENDBRANCH  25  26
ENDBRANCH  24  25
ENDBRANCH  23  24
ENDBRANCH  22  23
ENDBRANCH  21  22
ENDBRANCH  20  21
ENDBRANCH  19  20
ENDBRANCH  18  19
ENDBRANCH   1  18
TORSDOF 28
ENDMDL
MODEL 5
REMARK VINA RESULT:    -4.164      4.230      9.377
REMARK INTER + INTRA:         -15.886
REMARK INTER:                 -11.297
REMARK INTRA:                  -4.590
REMARK UNBOUND:                -4.908
REMARK SMILES CCCCCCCCCCCCCCCCCCCCCCCCCCCCCC(=O)[O-]
REMARK SMILES IDX 16 1 17 2 18 3 19 4 20 5 21 6 22 7 23 8 24 9 25 10 26 11
REMARK SMILES IDX 27 12 28 13 29 14 30 15 31 16 32 17 15 18 14 19 13 20 12 21
REMARK SMILES IDX 11 22 10 23 9 24 8 25 7 26 6 27 5 28 4 29 3 30 2 31 1 32
REMARK H PARENT
REMARK Flexibility Score: inf
ROOT
ATOM      1  C   UNL     1    -113.879 -41.122 -67.243  1.00  0.00     0.000 C 
ENDROOT
BRANCH   1   2
ATOM      2  C   UNL     1    -113.343 -40.981 -65.809  1.00  0.00     0.000 C 
BRANCH   2   3
ATOM      3  C   UNL     1    -111.898 -40.453 -65.754  1.00  0.00     0.000 C 
BRANCH   3   4
ATOM      4  C   UNL     1    -110.801 -41.536 -65.746  1.00  0.00     0.000 C 
BRANCH   4   5
ATOM      5  C   UNL     1    -111.233 -42.891 -65.158  1.00  0.00     0.000 C 
BRANCH   5   6
ATOM      6  C   UNL     1    -110.177 -43.528 -64.228  1.00  0.00     0.000 C 
BRANCH   6   7
ATOM      7  C   UNL     1    -108.868 -42.719 -64.189  1.00  0.00     0.000 C 
BRANCH   7   8
ATOM      8  C   UNL     1    -107.626 -43.618 -64.017  1.00  0.00     0.000 C 
BRANCH   8   9
ATOM      9  C   UNL     1    -106.709 -43.197 -62.851  1.00  0.00     0.000 C 
BRANCH   9  10
ATOM     10  C   UNL     1    -107.135 -41.920 -62.111  1.00  0.00     0.000 C 
BRANCH  10  11
ATOM     11  C   UNL     1    -106.258 -41.623 -60.884  1.00  0.00     0.000 C 
BRANCH  11  12
ATOM     12  C   UNL     1    -106.106 -42.836 -59.951  1.00  0.00     0.000 C 
BRANCH  12  13
ATOM     13  C   UNL     1    -104.932 -42.708 -58.957  1.00  0.00     0.006 C 
BRANCH  13  14
ATOM     14  C   UNL     1    -104.560 -41.242 -58.691  1.00  0.00     0.053 C 
BRANCH  14  15
ATOM     15  C   UNL     1    -104.492 -40.978 -57.221  1.00  0.00     0.041 C 
ATOM     16  O   UNL     1    -104.393 -39.797 -56.793  1.00  0.00    -0.550 OA
ATOM     17  O   UNL     1    -104.486 -42.038 -56.324  1.00  0.00    -0.550 OA
ENDBRANCH  14  15
ENDBRANCH  13  14
ENDBRANCH  12  13
ENDBRANCH  11  12
ENDBRANCH  10  11
ENDBRANCH   9  10
ENDBRANCH   8   9
ENDBRANCH   7   8
ENDBRANCH   6   7
ENDBRANCH   5   6
ENDBRANCH   4   5
ENDBRANCH   3   4
ENDBRANCH   2   3
ENDBRANCH   1   2
BRANCH   1  18
ATOM     18  C   UNL     1    -113.974 -42.589 -67.700  1.00  0.00     0.000 C 
BRANCH  18  19
ATOM     19  C   UNL     1    -113.183 -42.936 -68.980  1.00  0.00     0.000 C 
BRANCH  19  20
ATOM     20  C   UNL     1    -111.911 -43.778 -68.768  1.00  0.00     0.000 C 
BRANCH  20  21
ATOM     21  C   UNL     1    -110.645 -43.097 -69.311  1.00  0.00     0.000 C 
BRANCH  21  22
ATOM     22  C   UNL     1    -109.384 -43.958 -69.132  1.00  0.00     0.000 C 
BRANCH  22  23
ATOM     23  C   UNL     1    -108.764 -43.869 -67.721  1.00  0.00     0.000 C 
BRANCH  23  24
ATOM     24  C   UNL     1    -107.238 -44.047 -67.743  1.00  0.00    -0.000 C 
BRANCH  24  25
ATOM     25  C   UNL     1    -106.529 -42.691 -67.848  1.00  0.00    -0.000 C 
BRANCH  25  26
ATOM     26  C   UNL     1    -107.469 -41.539 -67.458  1.00  0.00    -0.000 C 
BRANCH  26  27
ATOM     27  C   UNL     1    -106.901 -40.655 -66.333  1.00  0.00    -0.000 C 
BRANCH  27  28
ATOM     28  C   UNL     1    -107.773 -39.445 -65.950  1.00  0.00    -0.000 C 
BRANCH  28  29
ATOM     29  C   UNL     1    -107.799 -39.183 -64.435  1.00  0.00    -0.000 C 
BRANCH  29  30
ATOM     30  C   UNL     1    -106.476 -38.593 -63.919  1.00  0.00    -0.000 C 
BRANCH  30  31
ATOM     31  C   UNL     1    -105.973 -37.422 -64.777  1.00  0.00    -0.003 C 
ATOM     32  C   UNL     1    -104.547 -37.037 -64.397  1.00  0.00     0.004 C 
ENDBRANCH  30  31
ENDBRANCH  29  30
ENDBRANCH  28  29
ENDBRANCH  27  28
ENDBRANCH  26  27
ENDBRANCH  25  26
ENDBRANCH  24  25
ENDBRANCH  23  24
ENDBRANCH  22  23
ENDBRANCH  21  22
ENDBRANCH  20  21
ENDBRANCH  19  20
ENDBRANCH  18  19
ENDBRANCH   1  18
TORSDOF 28
ENDMDL
MODEL 6
REMARK VINA RESULT:    -4.151      3.338      8.356
REMARK INTER + INTRA:         -15.853
REMARK INTER:                  -9.923
REMARK INTRA:                  -5.930
REMARK UNBOUND:                -4.908
REMARK SMILES CCCCCCCCCCCCCCCCCCCCCCCCCCCCCC(=O)[O-]
REMARK SMILES IDX 16 1 17 2 18 3 19 4 20 5 21 6 22 7 23 8 24 9 25 10 26 11
REMARK SMILES IDX 27 12 28 13 29 14 30 15 31 16 32 17 15 18 14 19 13 20 12 21
REMARK SMILES IDX 11 22 10 23 9 24 8 25 7 26 6 27 5 28 4 29 3 30 2 31 1 32
REMARK H PARENT
REMARK Flexibility Score: inf
ROOT
ATOM      1  C   UNL     1    -108.277 -40.104 -66.398  1.00  0.00     0.000 C 
ENDROOT
BRANCH   1   2
ATOM      2  C   UNL     1    -107.374 -38.954 -65.923  1.00  0.00     0.000 C 
BRANCH   2   3
ATOM      3  C   UNL     1    -106.119 -39.443 -65.175  1.00  0.00     0.000 C 
BRANCH   3   4
ATOM      4  C   UNL     1    -106.037 -39.035 -63.691  1.00  0.00     0.000 C 
BRANCH   4   5
ATOM      5  C   UNL     1    -106.997 -39.793 -62.757  1.00  0.00     0.000 C 
BRANCH   5   6
ATOM      6  C   UNL     1    -106.633 -41.283 -62.569  1.00  0.00     0.000 C 
BRANCH   6   7
ATOM      7  C   UNL     1    -107.795 -42.098 -61.974  1.00  0.00     0.000 C 
BRANCH   7   8
ATOM      8  C   UNL     1    -108.332 -43.160 -62.956  1.00  0.00     0.000 C 
BRANCH   8   9
ATOM      9  C   UNL     1    -107.468 -43.333 -64.221  1.00  0.00     0.000 C 
BRANCH   9  10
ATOM     10  C   UNL     1    -108.160 -44.044 -65.395  1.00  0.00     0.000 C 
BRANCH  10  11
ATOM     11  C   UNL     1    -107.374 -43.923 -66.710  1.00  0.00     0.000 C 
BRANCH  11  12
ATOM     12  C   UNL     1    -106.100 -43.073 -66.568  1.00  0.00     0.000 C 
BRANCH  12  13
ATOM     13  C   UNL     1    -105.707 -42.329 -67.863  1.00  0.00     0.006 C 
BRANCH  13  14
ATOM     14  C   UNL     1    -105.823 -43.229 -69.101  1.00  0.00     0.053 C 
BRANCH  14  15
ATOM     15  C   UNL     1    -104.483 -43.422 -69.736  1.00  0.00     0.041 C 
ATOM     16  O   UNL     1    -104.383 -43.534 -70.986  1.00  0.00    -0.550 OA
ATOM     17  O   UNL     1    -103.348 -43.530 -68.943  1.00  0.00    -0.550 OA
ENDBRANCH  14  15
ENDBRANCH  13  14
ENDBRANCH  12  13
ENDBRANCH  11  12
ENDBRANCH  10  11
ENDBRANCH   9  10
ENDBRANCH   8   9
ENDBRANCH   7   8
ENDBRANCH   6   7
ENDBRANCH   5   6
ENDBRANCH   4   5
ENDBRANCH   3   4
ENDBRANCH   2   3
ENDBRANCH   1   2
BRANCH   1  18
ATOM     18  C   UNL     1    -109.385 -40.446 -65.385  1.00  0.00     0.000 C 
BRANCH  18  19
ATOM     19  C   UNL     1    -110.607 -41.189 -65.966  1.00  0.00     0.000 C 
BRANCH  19  20
ATOM     20  C   UNL     1    -111.265 -42.221 -65.031  1.00  0.00     0.000 C 
BRANCH  20  21
ATOM     21  C   UNL     1    -112.796 -42.261 -65.165  1.00  0.00     0.000 C 
BRANCH  21  22
ATOM     22  C   UNL     1    -113.357 -41.051 -65.928  1.00  0.00     0.000 C 
BRANCH  22  23
ATOM     23  C   UNL     1    -114.033 -41.418 -67.267  1.00  0.00     0.000 C 
BRANCH  23  24
ATOM     24  C   UNL     1    -113.759 -42.873 -67.678  1.00  0.00    -0.000 C 
BRANCH  24  25
ATOM     25  C   UNL     1    -113.222 -42.946 -69.113  1.00  0.00    -0.000 C 
BRANCH  25  26
ATOM     26  C   UNL     1    -112.019 -43.897 -69.210  1.00  0.00    -0.000 C 
BRANCH  26  27
ATOM     27  C   UNL     1    -110.730 -43.297 -68.620  1.00  0.00    -0.000 C 
BRANCH  27  28
ATOM     28  C   UNL     1    -109.540 -43.223 -69.594  1.00  0.00    -0.000 C 
BRANCH  28  29
ATOM     29  C   UNL     1    -109.188 -41.781 -69.999  1.00  0.00    -0.000 C 
BRANCH  29  30
ATOM     30  C   UNL     1    -110.200 -40.757 -69.459  1.00  0.00    -0.000 C 
BRANCH  30  31
ATOM     31  C   UNL     1    -110.694 -39.784 -70.541  1.00  0.00    -0.003 C 
ATOM     32  C   UNL     1    -111.780 -40.424 -71.401  1.00  0.00     0.004 C 
ENDBRANCH  30  31
ENDBRANCH  29  30
ENDBRANCH  28  29
ENDBRANCH  27  28
ENDBRANCH  26  27
ENDBRANCH  25  26
ENDBRANCH  24  25
ENDBRANCH  23  24
ENDBRANCH  22  23
ENDBRANCH  21  22
ENDBRANCH  20  21
ENDBRANCH  19  20
ENDBRANCH  18  19
ENDBRANCH   1  18
TORSDOF 28
ENDMDL
MODEL 7
REMARK VINA RESULT:    -4.132      3.421      8.283
REMARK INTER + INTRA:         -15.803
REMARK INTER:                  -9.204
REMARK INTRA:                  -6.599
REMARK UNBOUND:                -4.908
REMARK SMILES CCCCCCCCCCCCCCCCCCCCCCCCCCCCCC(=O)[O-]
REMARK SMILES IDX 16 1 17 2 18 3 19 4 20 5 21 6 22 7 23 8 24 9 25 10 26 11
REMARK SMILES IDX 27 12 28 13 29 14 30 15 31 16 32 17 15 18 14 19 13 20 12 21
REMARK SMILES IDX 11 22 10 23 9 24 8 25 7 26 6 27 5 28 4 29 3 30 2 31 1 32
REMARK H PARENT
REMARK Flexibility Score: inf
ROOT
ATOM      1  C   UNL     1    -108.517 -39.942 -66.174  1.00  0.00     0.000 C 
ENDROOT
BRANCH   1   2
ATOM      2  C   UNL     1    -108.072 -38.896 -65.139  1.00  0.00     0.000 C 
BRANCH   2   3
ATOM      3  C   UNL     1    -106.889 -39.371 -64.273  1.00  0.00     0.000 C 
BRANCH   3   4
ATOM      4  C   UNL     1    -107.258 -39.818 -62.845  1.00  0.00     0.000 C 
BRANCH   4   5
ATOM      5  C   UNL     1    -107.394 -41.339 -62.656  1.00  0.00     0.000 C 
BRANCH   5   6
ATOM      6  C   UNL     1    -106.495 -42.165 -63.604  1.00  0.00     0.000 C 
BRANCH   6   7
ATOM      7  C   UNL     1    -107.213 -43.411 -64.152  1.00  0.00     0.000 C 
BRANCH   7   8
ATOM      8  C   UNL     1    -106.852 -43.699 -65.624  1.00  0.00     0.000 C 
BRANCH   8   9
ATOM      9  C   UNL     1    -105.919 -42.646 -66.254  1.00  0.00     0.000 C 
BRANCH   9  10
ATOM     10  C   UNL     1    -105.828 -42.685 -67.788  1.00  0.00     0.000 C 
BRANCH  10  11
ATOM     11  C   UNL     1    -105.098 -41.465 -68.372  1.00  0.00     0.000 C 
BRANCH  11  12
ATOM     12  C   UNL     1    -105.214 -40.217 -67.480  1.00  0.00     0.000 C 
BRANCH  12  13
ATOM     13  C   UNL     1    -104.990 -38.892 -68.240  1.00  0.00     0.006 C 
BRANCH  13  14
ATOM     14  C   UNL     1    -106.308 -38.156 -68.517  1.00  0.00     0.053 C 
BRANCH  14  15
ATOM     15  C   UNL     1    -106.662 -38.242 -69.967  1.00  0.00     0.041 C 
ATOM     16  O   UNL     1    -107.626 -37.574 -70.425  1.00  0.00    -0.550 OA
ATOM     17  O   UNL     1    -105.958 -39.098 -70.804  1.00  0.00    -0.550 OA
ENDBRANCH  14  15
ENDBRANCH  13  14
ENDBRANCH  12  13
ENDBRANCH  11  12
ENDBRANCH  10  11
ENDBRANCH   9  10
ENDBRANCH   8   9
ENDBRANCH   7   8
ENDBRANCH   6   7
ENDBRANCH   5   6
ENDBRANCH   4   5
ENDBRANCH   3   4
ENDBRANCH   2   3
ENDBRANCH   1   2
BRANCH   1  18
ATOM     18  C   UNL     1    -109.945 -40.458 -65.921  1.00  0.00     0.000 C 
BRANCH  18  19
ATOM     19  C   UNL     1    -110.136 -41.982 -66.084  1.00  0.00     0.000 C 
BRANCH  19  20
ATOM     20  C   UNL     1    -110.684 -42.719 -64.848  1.00  0.00     0.000 C 
BRANCH  20  21
ATOM     21  C   UNL     1    -112.193 -43.001 -64.939  1.00  0.00     0.000 C 
BRANCH  21  22
ATOM     22  C   UNL     1    -113.046 -41.874 -64.336  1.00  0.00     0.000 C 
BRANCH  22  23
ATOM     23  C   UNL     1    -113.854 -41.077 -65.382  1.00  0.00     0.000 C 
BRANCH  23  24
ATOM     24  C   UNL     1    -113.954 -41.815 -66.726  1.00  0.00    -0.000 C 
BRANCH  24  25
ATOM     25  C   UNL     1    -113.316 -40.993 -67.852  1.00  0.00    -0.000 C 
BRANCH  25  26
ATOM     26  C   UNL     1    -113.036 -41.863 -69.088  1.00  0.00    -0.000 C 
BRANCH  26  27
ATOM     27  C   UNL     1    -112.797 -43.343 -68.738  1.00  0.00    -0.000 C 
BRANCH  27  28
ATOM     28  C   UNL     1    -111.383 -43.867 -69.050  1.00  0.00    -0.000 C 
BRANCH  28  29
ATOM     29  C   UNL     1    -110.596 -42.939 -69.990  1.00  0.00    -0.000 C 
BRANCH  29  30
ATOM     30  C   UNL     1    -109.123 -42.794 -69.573  1.00  0.00    -0.000 C 
BRANCH  30  31
ATOM     31  C   UNL     1    -108.669 -41.328 -69.497  1.00  0.00    -0.003 C 
ATOM     32  C   UNL     1    -109.814 -40.380 -69.841  1.00  0.00     0.004 C 
ENDBRANCH  30  31
ENDBRANCH  29  30
ENDBRANCH  28  29
ENDBRANCH  27  28
ENDBRANCH  26  27
ENDBRANCH  25  26
ENDBRANCH  24  25
ENDBRANCH  23  24
ENDBRANCH  22  23
ENDBRANCH  21  22
ENDBRANCH  20  21
ENDBRANCH  19  20
ENDBRANCH  18  19
ENDBRANCH   1  18
TORSDOF 28
ENDMDL
MODEL 8
REMARK VINA RESULT:    -4.026      2.623      9.497
REMARK INTER + INTRA:         -15.523
REMARK INTER:                 -11.029
REMARK INTRA:                  -4.495
REMARK UNBOUND:                -4.908
REMARK SMILES CCCCCCCCCCCCCCCCCCCCCCCCCCCCCC(=O)[O-]
REMARK SMILES IDX 16 1 17 2 18 3 19 4 20 5 21 6 22 7 23 8 24 9 25 10 26 11
REMARK SMILES IDX 27 12 28 13 29 14 30 15 31 16 32 17 15 18 14 19 13 20 12 21
REMARK SMILES IDX 11 22 10 23 9 24 8 25 7 26 6 27 5 28 4 29 3 30 2 31 1 32
REMARK H PARENT
REMARK Flexibility Score: inf
ROOT
ATOM      1  C   UNL     1    -108.914 -43.048 -64.291  1.00  0.00     0.000 C 
ENDROOT
BRANCH   1   2
ATOM      2  C   UNL     1    -108.691 -43.069 -62.769  1.00  0.00     0.000 C 
BRANCH   2   3
ATOM      3  C   UNL     1    -107.391 -43.786 -62.361  1.00  0.00     0.000 C 
BRANCH   3   4
ATOM      4  C   UNL     1    -106.533 -43.048 -61.314  1.00  0.00     0.000 C 
BRANCH   4   5
ATOM      5  C   UNL     1    -105.204 -43.739 -60.961  1.00  0.00     0.000 C 
BRANCH   5   6
ATOM      6  C   UNL     1    -104.997 -43.946 -59.444  1.00  0.00     0.000 C 
BRANCH   6   7
ATOM      7  C   UNL     1    -105.903 -43.033 -58.600  1.00  0.00     0.000 C 
BRANCH   7   8
ATOM      8  C   UNL     1    -105.097 -42.083 -57.689  1.00  0.00     0.000 C 
BRANCH   8   9
ATOM      9  C   UNL     1    -103.585 -42.069 -57.987  1.00  0.00     0.000 C 
BRANCH   9  10
ATOM     10  C   UNL     1    -103.061 -40.788 -58.656  1.00  0.00     0.000 C 
BRANCH  10  11
ATOM     11  C   UNL     1    -104.178 -39.958 -59.310  1.00  0.00     0.000 C 
BRANCH  11  12
ATOM     12  C   UNL     1    -104.213 -40.106 -60.841  1.00  0.00     0.000 C 
BRANCH  12  13
ATOM     13  C   UNL     1    -104.915 -38.933 -61.558  1.00  0.00     0.006 C 
BRANCH  13  14
ATOM     14  C   UNL     1    -105.023 -39.164 -63.071  1.00  0.00     0.053 C 
BRANCH  14  15
ATOM     15  C   UNL     1    -106.248 -39.960 -63.393  1.00  0.00     0.041 C 
ATOM     16  O   UNL     1    -107.337 -39.710 -62.813  1.00  0.00    -0.550 OA
ATOM     17  O   UNL     1    -106.175 -41.013 -64.296  1.00  0.00    -0.550 OA
ENDBRANCH  14  15
ENDBRANCH  13  14
ENDBRANCH  12  13
ENDBRANCH  11  12
ENDBRANCH  10  11
ENDBRANCH   9  10
ENDBRANCH   8   9
ENDBRANCH   7   8
ENDBRANCH   6   7
ENDBRANCH   5   6
ENDBRANCH   4   5
ENDBRANCH   3   4
ENDBRANCH   2   3
ENDBRANCH   1   2
BRANCH   1  18
ATOM     18  C   UNL     1    -110.317 -43.538 -64.693  1.00  0.00     0.000 C 
BRANCH  18  19
ATOM     19  C   UNL     1    -111.319 -43.701 -63.530  1.00  0.00     0.000 C 
BRANCH  19  20
ATOM     20  C   UNL     1    -112.630 -42.904 -63.665  1.00  0.00     0.000 C 
BRANCH  20  21
ATOM     21  C   UNL     1    -112.986 -42.578 -65.125  1.00  0.00     0.000 C 
BRANCH  21  22
ATOM     22  C   UNL     1    -113.012 -41.068 -65.408  1.00  0.00     0.000 C 
BRANCH  22  23
ATOM     23  C   UNL     1    -113.337 -40.715 -66.875  1.00  0.00     0.000 C 
BRANCH  23  24
ATOM     24  C   UNL     1    -114.060 -41.859 -67.603  1.00  0.00    -0.000 C 
BRANCH  24  25
ATOM     25  C   UNL     1    -113.332 -42.229 -68.901  1.00  0.00    -0.000 C 
BRANCH  25  26
ATOM     26  C   UNL     1    -112.746 -43.648 -68.825  1.00  0.00    -0.000 C 
BRANCH  26  27
ATOM     27  C   UNL     1    -111.294 -43.672 -68.316  1.00  0.00    -0.000 C 
BRANCH  27  28
ATOM     28  C   UNL     1    -110.232 -43.266 -69.354  1.00  0.00    -0.000 C 
BRANCH  28  29
ATOM     29  C   UNL     1    -109.199 -42.272 -68.795  1.00  0.00    -0.000 C 
BRANCH  29  30
ATOM     30  C   UNL     1    -109.836 -41.225 -67.867  1.00  0.00    -0.000 C 
BRANCH  30  31
ATOM     31  C   UNL     1    -108.803 -40.509 -66.983  1.00  0.00    -0.003 C 
ATOM     32  C   UNL     1    -109.456 -39.942 -65.726  1.00  0.00     0.004 C 
ENDBRANCH  30  31
ENDBRANCH  29  30
ENDBRANCH  28  29
ENDBRANCH  27  28
ENDBRANCH  26  27
ENDBRANCH  25  26
ENDBRANCH  24  25
ENDBRANCH  23  24
ENDBRANCH  22  23
ENDBRANCH  21  22
ENDBRANCH  20  21
ENDBRANCH  19  20
ENDBRANCH  18  19
ENDBRANCH   1  18
TORSDOF 28
ENDMDL
MODEL 9
REMARK VINA RESULT:    -2.903      2.748      5.966
REMARK INTER + INTRA:         -12.564
REMARK INTER:                  -6.900
REMARK INTRA:                  -5.663
REMARK UNBOUND:                -4.908
REMARK SMILES CCCCCCCCCCCCCCCCCCCCCCCCCCCCCC(=O)[O-]
REMARK SMILES IDX 16 1 17 2 18 3 19 4 20 5 21 6 22 7 23 8 24 9 25 10 26 11
REMARK SMILES IDX 27 12 28 13 29 14 30 15 31 16 32 17 15 18 14 19 13 20 12 21
REMARK SMILES IDX 11 22 10 23 9 24 8 25 7 26 6 27 5 28 4 29 3 30 2 31 1 32
REMARK H PARENT
REMARK Flexibility Score: inf
ROOT
ATOM      1  C   UNL     1    -106.718 -41.048 -62.770  1.00  0.00     0.000 C 
ENDROOT
BRANCH   1   2
ATOM      2  C   UNL     1    -107.741 -41.960 -62.074  1.00  0.00     0.000 C 
BRANCH   2   3
ATOM      3  C   UNL     1    -108.160 -43.164 -62.938  1.00  0.00     0.000 C 
BRANCH   3   4
ATOM      4  C   UNL     1    -108.678 -42.814 -64.347  1.00  0.00     0.000 C 
BRANCH   4   5
ATOM      5  C   UNL     1    -109.907 -43.619 -64.805  1.00  0.00     0.000 C 
BRANCH   5   6
ATOM      6  C   UNL     1    -110.752 -42.902 -65.882  1.00  0.00     0.000 C 
BRANCH   6   7
ATOM      7  C   UNL     1    -110.680 -41.369 -65.756  1.00  0.00     0.000 C 
BRANCH   7   8
ATOM      8  C   UNL     1    -112.067 -40.704 -65.877  1.00  0.00     0.000 C 
BRANCH   8   9
ATOM      9  C   UNL     1    -113.149 -41.353 -64.991  1.00  0.00     0.000 C 
BRANCH   9  10
ATOM     10  C   UNL     1    -114.302 -42.027 -65.753  1.00  0.00     0.000 C 
BRANCH  10  11
ATOM     11  C   UNL     1    -114.179 -41.872 -67.277  1.00  0.00     0.000 C 
BRANCH  11  12
ATOM     12  C   UNL     1    -113.724 -43.166 -67.974  1.00  0.00     0.000 C 
BRANCH  12  13
ATOM     13  C   UNL     1    -113.338 -42.965 -69.455  1.00  0.00     0.006 C 
BRANCH  13  14
ATOM     14  C   UNL     1    -111.892 -42.475 -69.611  1.00  0.00     0.053 C 
BRANCH  14  15
ATOM     15  C   UNL     1    -111.865 -41.103 -70.205  1.00  0.00     0.041 C 
ATOM     16  O   UNL     1    -112.123 -40.936 -71.427  1.00  0.00    -0.550 OA
ATOM     17  O   UNL     1    -111.506 -40.014 -69.423  1.00  0.00    -0.550 OA
ENDBRANCH  14  15
ENDBRANCH  13  14
ENDBRANCH  12  13
ENDBRANCH  11  12
ENDBRANCH  10  11
ENDBRANCH   9  10
ENDBRANCH   8   9
ENDBRANCH   7   8
ENDBRANCH   6   7
ENDBRANCH   5   6
ENDBRANCH   4   5
ENDBRANCH   3   4
ENDBRANCH   2   3
ENDBRANCH   1   2
BRANCH   1  18
ATOM     18  C   UNL     1    -107.253 -39.623 -63.001  1.00  0.00     0.000 C 
BRANCH  18  19
ATOM     19  C   UNL     1    -106.742 -38.923 -64.279  1.00  0.00     0.000 C 
BRANCH  19  20
ATOM     20  C   UNL     1    -107.706 -38.947 -65.481  1.00  0.00     0.000 C 
BRANCH  20  21
ATOM     21  C   UNL     1    -107.427 -40.109 -66.448  1.00  0.00     0.000 C 
BRANCH  21  22
ATOM     22  C   UNL     1    -108.041 -39.885 -67.839  1.00  0.00     0.000 C 
BRANCH  22  23
ATOM     23  C   UNL     1    -108.259 -41.186 -68.641  1.00  0.00     0.000 C 
BRANCH  23  24
ATOM     24  C   UNL     1    -107.645 -42.410 -67.943  1.00  0.00    -0.000 C 
BRANCH  24  25
ATOM     25  C   UNL     1    -107.648 -43.630 -68.872  1.00  0.00    -0.000 C 
BRANCH  25  26
ATOM     26  C   UNL     1    -106.219 -44.125 -69.146  1.00  0.00    -0.000 C 
BRANCH  26  27
ATOM     27  C   UNL     1    -105.334 -43.061 -69.820  1.00  0.00    -0.000 C 
BRANCH  27  28
ATOM     28  C   UNL     1    -103.944 -42.871 -69.186  1.00  0.00    -0.000 C 
BRANCH  28  29
ATOM     29  C   UNL     1    -103.901 -43.286 -67.706  1.00  0.00    -0.000 C 
BRANCH  29  30
ATOM     30  C   UNL     1    -104.294 -42.137 -66.763  1.00  0.00    -0.000 C 
BRANCH  30  31
ATOM     31  C   UNL     1    -104.803 -42.634 -65.401  1.00  0.00    -0.003 C 
ATOM     32  C   UNL     1    -105.348 -44.055 -65.505  1.00  0.00     0.004 C 
ENDBRANCH  30  31
ENDBRANCH  29  30
ENDBRANCH  28  29
ENDBRANCH  27  28
ENDBRANCH  26  27
ENDBRANCH  25  26
ENDBRANCH  24  25
ENDBRANCH  23  24
ENDBRANCH  22  23
ENDBRANCH  21  22
ENDBRANCH  20  21
ENDBRANCH  19  20
ENDBRANCH  18  19
ENDBRANCH   1  18
TORSDOF 28
ENDMDL
