MODEL 1
REMARK VINA RESULT:    -5.071      0.000      0.000
REMARK INTER + INTRA:         -15.129
REMARK INTER:                 -11.594
REMARK INTRA:                  -3.535
REMARK UNBOUND:                -3.535
REMARK SMILES CCCCCCCCCCCCCCCCCCCCCCCC(=O)[O-]
REMARK SMILES IDX 13 1 14 2 15 3 16 4 17 5 18 6 19 7 20 8 21 9 22 10 23 11
REMARK SMILES IDX 24 12 25 13 26 14 12 15 11 16 10 17 9 18 8 19 7 20 6 21 5 22
REMARK SMILES IDX 4 23 3 24 2 25 1 26
REMARK H PARENT
REMARK Flexibility Score: inf
ROOT
ATOM      1  C   UNL     1      33.048  31.262  15.688  1.00  0.00     0.000 C 
ENDROOT
BRANCH   1   2
ATOM      2  C   UNL     1      33.364  29.917  16.364  1.00  0.00     0.000 C 
BRANCH   2   3
ATOM      3  C   UNL     1      33.635  28.794  15.348  1.00  0.00     0.000 C 
BRANCH   3   4
ATOM      4  C   UNL     1      32.737  28.887  14.100  1.00  0.00     0.000 C 
BRANCH   4   5
ATOM      5  C   UNL     1      31.815  27.672  13.860  1.00  0.00     0.000 C 
BRANCH   5   6
ATOM      6  C   UNL     1      31.569  26.780  15.091  1.00  0.00     0.000 C 
BRANCH   6   7
ATOM      7  C   UNL     1      30.216  27.003  15.794  1.00  0.00     0.000 C 
BRANCH   7   8
ATOM      8  C   UNL     1      29.298  25.758  15.788  1.00  0.00     0.000 C 
BRANCH   8   9
ATOM      9  C   UNL     1      27.852  26.023  15.321  1.00  0.00     0.000 C 
BRANCH   9  10
ATOM     10  C   UNL     1      27.631  27.351  14.565  1.00  0.00     0.006 C 
BRANCH  10  11
ATOM     11  C   UNL     1      27.745  27.248  13.035  1.00  0.00     0.053 C 
BRANCH  11  12
ATOM     12  C   UNL     1      26.617  27.948  12.339  1.00  0.00     0.041 C 
ATOM     13  O   UNL     1      26.847  28.954  11.619  1.00  0.00    -0.550 OA
ATOM     14  O   UNL     1      25.321  27.460  12.449  1.00  0.00    -0.550 OA
ENDBRANCH  11  12
ENDBRANCH  10  11
ENDBRANCH   9  10
ENDBRANCH   8   9
ENDBRANCH   7   8
ENDBRANCH   6   7
ENDBRANCH   5   6
ENDBRANCH   4   5
ENDBRANCH   3   4
ENDBRANCH   2   3
ENDBRANCH   1   2
BRANCH   1  15
ATOM     15  C   UNL     1      31.848  31.981  16.328  1.00  0.00     0.000 C 
BRANCH  15  16
ATOM     16  C   UNL     1      30.972  31.031  17.161  1.00  0.00     0.000 C 
BRANCH  16  17
ATOM     17  C   UNL     1      29.847  30.387  16.336  1.00  0.00     0.000 C 
BRANCH  17  18
ATOM     18  C   UNL     1      29.483  31.259  15.128  1.00  0.00    -0.000 C 
BRANCH  18  19
ATOM     19  C   UNL     1      29.435  30.422  13.841  1.00  0.00    -0.000 C 
BRANCH  19  20
ATOM     20  C   UNL     1      29.851  31.222  12.594  1.00  0.00    -0.000 C 
BRANCH  20  21
ATOM     21  C   UNL     1      30.397  30.325  11.468  1.00  0.00    -0.000 C 
BRANCH  21  22
ATOM     22  C   UNL     1      31.814  30.727  11.021  1.00  0.00    -0.000 C 
BRANCH  22  23
ATOM     23  C   UNL     1      32.229  30.222   9.623  1.00  0.00    -0.000 C 
BRANCH  23  24
ATOM     24  C   UNL     1      33.746  30.049   9.413  1.00  0.00    -0.000 C 
BRANCH  24  25
ATOM     25  C   UNL     1      34.547  31.364   9.380  1.00  0.00    -0.003 C 
ATOM     26  C   UNL     1      34.876  31.824   7.959  1.00  0.00     0.004 C 
ENDBRANCH  24  25
ENDBRANCH  23  24
ENDBRANCH  22  23
ENDBRANCH  21  22
ENDBRANCH  20  21
ENDBRANCH  19  20
ENDBRANCH  18  19
ENDBRANCH  17  18
ENDBRANCH  16  17
ENDBRANCH  15  16
ENDBRANCH   1  15
TORSDOF 22
ENDMDL
MODEL 2
REMARK VINA RESULT:    -5.011      1.207      2.058
REMARK INTER + INTRA:         -14.992
REMARK INTER:                 -11.467
REMARK INTRA:                  -3.525
REMARK UNBOUND:                -3.535
REMARK SMILES CCCCCCCCCCCCCCCCCCCCCCCC(=O)[O-]
REMARK SMILES IDX 13 1 14 2 15 3 16 4 17 5 18 6 19 7 20 8 21 9 22 10 23 11
REMARK SMILES IDX 24 12 25 13 26 14 12 15 11 16 10 17 9 18 8 19 7 20 6 21 5 22
REMARK SMILES IDX 4 23 3 24 2 25 1 26
REMARK H PARENT
REMARK Flexibility Score: inf
ROOT
ATOM      1  C   UNL     1      31.421  31.208  17.249  1.00  0.00     0.000 C 
ENDROOT
BRANCH   1   2
ATOM      2  C   UNL     1      31.952  32.152  16.156  1.00  0.00     0.000 C 
BRANCH   2   3
ATOM      3  C   UNL     1      33.096  31.528  15.340  1.00  0.00     0.000 C 
BRANCH   3   4
ATOM      4  C   UNL     1      33.262  30.019  15.598  1.00  0.00     0.000 C 
BRANCH   4   5
ATOM      5  C   UNL     1      33.062  29.113  14.364  1.00  0.00     0.000 C 
BRANCH   5   6
ATOM      6  C   UNL     1      32.737  27.640  14.674  1.00  0.00     0.000 C 
BRANCH   6   7
ATOM      7  C   UNL     1      31.577  27.427  15.665  1.00  0.00     0.000 C 
BRANCH   7   8
ATOM      8  C   UNL     1      30.568  26.342  15.220  1.00  0.00     0.000 C 
BRANCH   8   9
ATOM      9  C   UNL     1      29.354  26.166  16.155  1.00  0.00     0.000 C 
BRANCH   9  10
ATOM     10  C   UNL     1      28.113  25.508  15.514  1.00  0.00     0.006 C 
BRANCH  10  11
ATOM     11  C   UNL     1      27.216  26.465  14.713  1.00  0.00     0.053 C 
BRANCH  11  12
ATOM     12  C   UNL     1      26.180  25.732  13.918  1.00  0.00     0.041 C 
ATOM     13  O   UNL     1      26.015  24.494  14.083  1.00  0.00    -0.550 OA
ATOM     14  O   UNL     1      25.365  26.422  13.029  1.00  0.00    -0.550 OA
ENDBRANCH  11  12
ENDBRANCH  10  11
ENDBRANCH   9  10
ENDBRANCH   8   9
ENDBRANCH   7   8
ENDBRANCH   6   7
ENDBRANCH   5   6
ENDBRANCH   4   5
ENDBRANCH   3   4
ENDBRANCH   2   3
ENDBRANCH   1   2
BRANCH   1  15
ATOM     15  C   UNL     1      30.040  30.622  16.909  1.00  0.00     0.000 C 
BRANCH  15  16
ATOM     16  C   UNL     1      29.643  30.870  15.445  1.00  0.00     0.000 C 
BRANCH  16  17
ATOM     17  C   UNL     1      29.020  29.630  14.784  1.00  0.00     0.000 C 
BRANCH  17  18
ATOM     18  C   UNL     1      29.460  29.509  13.320  1.00  0.00    -0.000 C 
BRANCH  18  19
ATOM     19  C   UNL     1      30.067  30.828  12.817  1.00  0.00    -0.000 C 
BRANCH  19  20
ATOM     20  C   UNL     1      29.759  31.100  11.335  1.00  0.00    -0.000 C 
BRANCH  20  21
ATOM     21  C   UNL     1      30.923  30.712  10.406  1.00  0.00    -0.000 C 
BRANCH  21  22
ATOM     22  C   UNL     1      32.283  30.700  11.129  1.00  0.00    -0.000 C 
BRANCH  22  23
ATOM     23  C   UNL     1      33.234  29.557  10.719  1.00  0.00    -0.000 C 
BRANCH  23  24
ATOM     24  C   UNL     1      34.269  29.921   9.637  1.00  0.00    -0.000 C 
BRANCH  24  25
ATOM     25  C   UNL     1      34.521  31.432   9.469  1.00  0.00    -0.003 C 
ATOM     26  C   UNL     1      33.971  31.984   8.154  1.00  0.00     0.004 C 
ENDBRANCH  24  25
ENDBRANCH  23  24
ENDBRANCH  22  23
ENDBRANCH  21  22
ENDBRANCH  20  21
ENDBRANCH  19  20
ENDBRANCH  18  19
ENDBRANCH  17  18
ENDBRANCH  16  17
ENDBRANCH  15  16
ENDBRANCH   1  15
TORSDOF 22
ENDMDL
MODEL 3
REMARK VINA RESULT:    -5.001      2.356      6.165
REMARK INTER + INTRA:         -14.969
REMARK INTER:                 -10.519
REMARK INTRA:                  -4.450
REMARK UNBOUND:                -3.535
REMARK SMILES CCCCCCCCCCCCCCCCCCCCCCCC(=O)[O-]
REMARK SMILES IDX 13 1 14 2 15 3 16 4 17 5 18 6 19 7 20 8 21 9 22 10 23 11
REMARK SMILES IDX 24 12 25 13 26 14 12 15 11 16 10 17 9 18 8 19 7 20 6 21 5 22
REMARK SMILES IDX 4 23 3 24 2 25 1 26
REMARK H PARENT
REMARK Flexibility Score: inf
ROOT
ATOM      1  C   UNL     1      32.089  32.104  16.145  1.00  0.00     0.000 C 
ENDROOT
BRANCH   1   2
ATOM      2  C   UNL     1      31.342  31.317  17.236  1.00  0.00     0.000 C 
BRANCH   2   3
ATOM      3  C   UNL     1      30.374  30.273  16.654  1.00  0.00     0.000 C 
BRANCH   3   4
ATOM      4  C   UNL     1      29.302  30.894  15.739  1.00  0.00     0.000 C 
BRANCH   4   5
ATOM      5  C   UNL     1      29.276  30.352  14.294  1.00  0.00     0.000 C 
BRANCH   5   6
ATOM      6  C   UNL     1      29.757  31.339  13.213  1.00  0.00     0.000 C 
BRANCH   6   7
ATOM      7  C   UNL     1      29.532  30.872  11.762  1.00  0.00     0.000 C 
BRANCH   7   8
ATOM      8  C   UNL     1      30.736  30.114  11.156  1.00  0.00     0.000 C 
BRANCH   8   9
ATOM      9  C   UNL     1      32.088  30.848  11.274  1.00  0.00     0.000 C 
BRANCH   9  10
ATOM     10  C   UNL     1      33.136  30.486  10.199  1.00  0.00     0.006 C 
BRANCH  10  11
ATOM     11  C   UNL     1      33.134  29.010   9.767  1.00  0.00     0.053 C 
BRANCH  11  12
ATOM     12  C   UNL     1      33.964  28.157  10.677  1.00  0.00     0.041 C 
ATOM     13  O   UNL     1      33.613  26.975  10.930  1.00  0.00    -0.550 OA
ATOM     14  O   UNL     1      35.149  28.652  11.208  1.00  0.00    -0.550 OA
ENDBRANCH  11  12
ENDBRANCH  10  11
ENDBRANCH   9  10
ENDBRANCH   8   9
ENDBRANCH   7   8
ENDBRANCH   6   7
ENDBRANCH   5   6
ENDBRANCH   4   5
ENDBRANCH   3   4
ENDBRANCH   2   3
ENDBRANCH   1   2
BRANCH   1  15
ATOM     15  C   UNL     1      32.867  31.192  15.182  1.00  0.00     0.000 C 
BRANCH  15  16
ATOM     16  C   UNL     1      33.725  30.154  15.922  1.00  0.00     0.000 C 
BRANCH  16  17
ATOM     17  C   UNL     1      33.534  28.730  15.377  1.00  0.00     0.000 C 
BRANCH  17  18
ATOM     18  C   UNL     1      32.724  28.745  14.075  1.00  0.00    -0.000 C 
BRANCH  18  19
ATOM     19  C   UNL     1      31.665  27.632  14.073  1.00  0.00    -0.000 C 
BRANCH  19  20
ATOM     20  C   UNL     1      31.570  26.897  15.421  1.00  0.00    -0.000 C 
BRANCH  20  21
ATOM     21  C   UNL     1      30.259  26.105  15.575  1.00  0.00    -0.000 C 
BRANCH  21  22
ATOM     22  C   UNL     1      29.008  26.998  15.466  1.00  0.00    -0.000 C 
BRANCH  22  23
ATOM     23  C   UNL     1      27.733  26.283  14.975  1.00  0.00    -0.000 C 
BRANCH  23  24
ATOM     24  C   UNL     1      27.649  26.063  13.452  1.00  0.00    -0.000 C 
BRANCH  24  25
ATOM     25  C   UNL     1      28.073  27.275  12.601  1.00  0.00    -0.003 C 
ATOM     26  C   UNL     1      26.948  28.295  12.420  1.00  0.00     0.004 C 
ENDBRANCH  24  25
ENDBRANCH  23  24
ENDBRANCH  22  23
ENDBRANCH  21  22
ENDBRANCH  20  21
ENDBRANCH  19  20
ENDBRANCH  18  19
ENDBRANCH  17  18
ENDBRANCH  16  17
ENDBRANCH  15  16
ENDBRANCH   1  15
TORSDOF 22
ENDMDL
MODEL 4
REMARK VINA RESULT:    -4.986      2.453      5.926
REMARK INTER + INTRA:         -14.934
REMARK INTER:                 -10.438
REMARK INTRA:                  -4.495
REMARK UNBOUND:                -3.535
REMARK SMILES CCCCCCCCCCCCCCCCCCCCCCCC(=O)[O-]
REMARK SMILES IDX 13 1 14 2 15 3 16 4 17 5 18 6 19 7 20 8 21 9 22 10 23 11
REMARK SMILES IDX 24 12 25 13 26 14 12 15 11 16 10 17 9 18 8 19 7 20 6 21 5 22
REMARK SMILES IDX 4 23 3 24 2 25 1 26
REMARK H PARENT
REMARK Flexibility Score: inf
ROOT
ATOM      1  C   UNL     1      32.994  31.401  15.552  1.00  0.00     0.000 C 
ENDROOT
BRANCH   1   2
ATOM      2  C   UNL     1      31.814  32.021  16.320  1.00  0.00     0.000 C 
BRANCH   2   3
ATOM      3  C   UNL     1      31.200  31.050  17.344  1.00  0.00     0.000 C 
BRANCH   3   4
ATOM      4  C   UNL     1      30.010  30.254  16.775  1.00  0.00     0.000 C 
BRANCH   4   5
ATOM      5  C   UNL     1      29.230  30.955  15.642  1.00  0.00     0.000 C 
BRANCH   5   6
ATOM      6  C   UNL     1      29.365  30.307  14.252  1.00  0.00     0.000 C 
BRANCH   6   7
ATOM      7  C   UNL     1      29.900  31.240  13.149  1.00  0.00     0.000 C 
BRANCH   7   8
ATOM      8  C   UNL     1      29.532  30.789  11.716  1.00  0.00     0.000 C 
BRANCH   8   9
ATOM      9  C   UNL     1      30.735  30.594  10.771  1.00  0.00     0.000 C 
BRANCH   9  10
ATOM     10  C   UNL     1      32.122  30.611  11.448  1.00  0.00     0.006 C 
BRANCH  10  11
ATOM     11  C   UNL     1      33.194  29.761  10.746  1.00  0.00     0.053 C 
BRANCH  11  12
ATOM     12  C   UNL     1      33.657  30.386   9.465  1.00  0.00     0.041 C 
ATOM     13  O   UNL     1      34.531  31.292   9.485  1.00  0.00    -0.550 OA
ATOM     14  O   UNL     1      33.159  29.936   8.249  1.00  0.00    -0.550 OA
ENDBRANCH  11  12
ENDBRANCH  10  11
ENDBRANCH   9  10
ENDBRANCH   8   9
ENDBRANCH   7   8
ENDBRANCH   6   7
ENDBRANCH   5   6
ENDBRANCH   4   5
ENDBRANCH   3   4
ENDBRANCH   2   3
ENDBRANCH   1   2
BRANCH   1  15
ATOM     15  C   UNL     1      33.413  30.030  16.111  1.00  0.00     0.000 C 
BRANCH  15  16
ATOM     16  C   UNL     1      33.658  28.995  15.001  1.00  0.00     0.000 C 
BRANCH  16  17
ATOM     17  C   UNL     1      32.354  28.392  14.456  1.00  0.00     0.000 C 
BRANCH  17  18
ATOM     18  C   UNL     1      32.037  27.058  15.141  1.00  0.00    -0.000 C 
BRANCH  18  19
ATOM     19  C   UNL     1      30.569  27.007  15.595  1.00  0.00    -0.000 C 
BRANCH  19  20
ATOM     20  C   UNL     1      29.985  25.585  15.567  1.00  0.00    -0.000 C 
BRANCH  20  21
ATOM     21  C   UNL     1      28.450  25.576  15.456  1.00  0.00    -0.000 C 
BRANCH  21  22
ATOM     22  C   UNL     1      27.881  26.919  14.961  1.00  0.00    -0.000 C 
BRANCH  22  23
ATOM     23  C   UNL     1      27.225  26.880  13.566  1.00  0.00    -0.000 C 
BRANCH  23  24
ATOM     24  C   UNL     1      28.115  27.376  12.409  1.00  0.00    -0.000 C 
BRANCH  24  25
ATOM     25  C   UNL     1      29.206  26.384  11.964  1.00  0.00    -0.003 C 
ATOM     26  C   UNL     1      30.536  27.068  11.644  1.00  0.00     0.004 C 
ENDBRANCH  24  25
ENDBRANCH  23  24
ENDBRANCH  22  23
ENDBRANCH  21  22
ENDBRANCH  20  21
ENDBRANCH  19  20
ENDBRANCH  18  19
ENDBRANCH  17  18
ENDBRANCH  16  17
ENDBRANCH  15  16
ENDBRANCH   1  15
TORSDOF 22
ENDMDL
MODEL 5
REMARK VINA RESULT:    -4.980      1.715      2.742
REMARK INTER + INTRA:         -14.919
REMARK INTER:                 -10.536
REMARK INTRA:                  -4.384
REMARK UNBOUND:                -3.535
REMARK SMILES CCCCCCCCCCCCCCCCCCCCCCCC(=O)[O-]
REMARK SMILES IDX 13 1 14 2 15 3 16 4 17 5 18 6 19 7 20 8 21 9 22 10 23 11
REMARK SMILES IDX 24 12 25 13 26 14 12 15 11 16 10 17 9 18 8 19 7 20 6 21 5 22
REMARK SMILES IDX 4 23 3 24 2 25 1 26
REMARK H PARENT
REMARK Flexibility Score: inf
ROOT
ATOM      1  C   UNL     1      31.308  31.070  17.281  1.00  0.00     0.000 C 
ENDROOT
BRANCH   1   2
ATOM      2  C   UNL     1      31.738  32.137  16.259  1.00  0.00     0.000 C 
BRANCH   2   3
ATOM      3  C   UNL     1      32.943  31.693  15.412  1.00  0.00     0.000 C 
BRANCH   3   4
ATOM      4  C   UNL     1      33.498  30.320  15.835  1.00  0.00     0.000 C 
BRANCH   4   5
ATOM      5  C   UNL     1      33.304  29.185  14.806  1.00  0.00     0.000 C 
BRANCH   5   6
ATOM      6  C   UNL     1      32.482  27.981  15.302  1.00  0.00     0.000 C 
BRANCH   6   7
ATOM      7  C   UNL     1      31.659  27.265  14.215  1.00  0.00     0.000 C 
BRANCH   7   8
ATOM      8  C   UNL     1      30.855  26.052  14.739  1.00  0.00     0.000 C 
BRANCH   8   9
ATOM      9  C   UNL     1      29.819  26.385  15.832  1.00  0.00     0.000 C 
BRANCH   9  10
ATOM     10  C   UNL     1      28.492  25.601  15.751  1.00  0.00     0.006 C 
BRANCH  10  11
ATOM     11  C   UNL     1      27.279  26.431  15.301  1.00  0.00     0.053 C 
BRANCH  11  12
ATOM     12  C   UNL     1      26.952  26.210  13.855  1.00  0.00     0.041 C 
ATOM     13  O   UNL     1      25.812  25.791  13.523  1.00  0.00    -0.550 OA
ATOM     14  O   UNL     1      27.888  26.511  12.875  1.00  0.00    -0.550 OA
ENDBRANCH  11  12
ENDBRANCH  10  11
ENDBRANCH   9  10
ENDBRANCH   8   9
ENDBRANCH   7   8
ENDBRANCH   6   7
ENDBRANCH   5   6
ENDBRANCH   4   5
ENDBRANCH   3   4
ENDBRANCH   2   3
ENDBRANCH   1   2
BRANCH   1  15
ATOM     15  C   UNL     1      30.044  30.308  16.849  1.00  0.00     0.000 C 
BRANCH  15  16
ATOM     16  C   UNL     1      29.487  30.810  15.507  1.00  0.00     0.000 C 
BRANCH  16  17
ATOM     17  C   UNL     1      28.872  29.684  14.662  1.00  0.00     0.000 C 
BRANCH  17  18
ATOM     18  C   UNL     1      29.259  29.830  13.186  1.00  0.00    -0.000 C 
BRANCH  18  19
ATOM     19  C   UNL     1      30.166  31.052  12.974  1.00  0.00    -0.000 C 
BRANCH  19  20
ATOM     20  C   UNL     1      31.420  30.727  12.144  1.00  0.00    -0.000 C 
BRANCH  20  21
ATOM     21  C   UNL     1      31.134  29.736  11.001  1.00  0.00    -0.000 C 
BRANCH  21  22
ATOM     22  C   UNL     1      32.397  29.373  10.198  1.00  0.00    -0.000 C 
BRANCH  22  23
ATOM     23  C   UNL     1      33.678  29.191  11.037  1.00  0.00    -0.000 C 
BRANCH  23  24
ATOM     24  C   UNL     1      34.026  27.733  11.395  1.00  0.00    -0.000 C 
BRANCH  24  25
ATOM     25  C   UNL     1      35.429  27.534  11.999  1.00  0.00    -0.003 C 
ATOM     26  C   UNL     1      36.240  26.458  11.277  1.00  0.00     0.004 C 
ENDBRANCH  24  25
ENDBRANCH  23  24
ENDBRANCH  22  23
ENDBRANCH  21  22
ENDBRANCH  20  21
ENDBRANCH  19  20
ENDBRANCH  18  19
ENDBRANCH  17  18
ENDBRANCH  16  17
ENDBRANCH  15  16
ENDBRANCH   1  15
TORSDOF 22
ENDMDL
MODEL 6
REMARK VINA RESULT:    -4.955      1.848      3.769
REMARK INTER + INTRA:         -14.863
REMARK INTER:                 -10.663
REMARK INTRA:                  -4.200
REMARK UNBOUND:                -3.535
REMARK SMILES CCCCCCCCCCCCCCCCCCCCCCCC(=O)[O-]
REMARK SMILES IDX 13 1 14 2 15 3 16 4 17 5 18 6 19 7 20 8 21 9 22 10 23 11
REMARK SMILES IDX 24 12 25 13 26 14 12 15 11 16 10 17 9 18 8 19 7 20 6 21 5 22
REMARK SMILES IDX 4 23 3 24 2 25 1 26
REMARK H PARENT
REMARK Flexibility Score: inf
ROOT
ATOM      1  C   UNL     1      33.656  28.621  15.600  1.00  0.00     0.000 C 
ENDROOT
BRANCH   1   2
ATOM      2  C   UNL     1      33.439  30.131  15.805  1.00  0.00     0.000 C 
BRANCH   2   3
ATOM      3  C   UNL     1      32.494  30.439  16.978  1.00  0.00     0.000 C 
BRANCH   3   4
ATOM      4  C   UNL     1      31.704  31.747  16.783  1.00  0.00     0.000 C 
BRANCH   4   5
ATOM      5  C   UNL     1      31.491  32.174  15.315  1.00  0.00     0.000 C 
BRANCH   5   6
ATOM      6  C   UNL     1      30.253  31.568  14.628  1.00  0.00     0.000 C 
BRANCH   6   7
ATOM      7  C   UNL     1      29.394  30.656  15.525  1.00  0.00     0.000 C 
BRANCH   7   8
ATOM      8  C   UNL     1      29.227  29.220  14.976  1.00  0.00     0.000 C 
BRANCH   8   9
ATOM      9  C   UNL     1      30.104  28.157  15.669  1.00  0.00     0.000 C 
BRANCH   9  10
ATOM     10  C   UNL     1      29.533  26.722  15.669  1.00  0.00     0.006 C 
BRANCH  10  11
ATOM     11  C   UNL     1      29.111  26.196  14.288  1.00  0.00     0.053 C 
BRANCH  11  12
ATOM     12  C   UNL     1      27.648  25.880  14.230  1.00  0.00     0.041 C 
ATOM     13  O   UNL     1      26.839  26.495  14.973  1.00  0.00    -0.550 OA
ATOM     14  O   UNL     1      27.173  24.940  13.323  1.00  0.00    -0.550 OA
ENDBRANCH  11  12
ENDBRANCH  10  11
ENDBRANCH   9  10
ENDBRANCH   8   9
ENDBRANCH   7   8
ENDBRANCH   6   7
ENDBRANCH   5   6
ENDBRANCH   4   5
ENDBRANCH   3   4
ENDBRANCH   2   3
ENDBRANCH   1   2
BRANCH   1  15
ATOM     15  C   UNL     1      33.633  28.213  14.117  1.00  0.00     0.000 C 
BRANCH  15  16
ATOM     16  C   UNL     1      32.754  29.143  13.267  1.00  0.00     0.000 C 
BRANCH  16  17
ATOM     17  C   UNL     1      31.747  28.375  12.397  1.00  0.00     0.000 C 
BRANCH  17  18
ATOM     18  C   UNL     1      30.814  29.339  11.654  1.00  0.00    -0.000 C 
BRANCH  18  19
ATOM     19  C   UNL     1      31.586  30.564  11.140  1.00  0.00    -0.000 C 
BRANCH  19  20
ATOM     20  C   UNL     1      31.674  30.612   9.605  1.00  0.00    -0.000 C 
BRANCH  20  21
ATOM     21  C   UNL     1      33.096  30.922   9.102  1.00  0.00    -0.000 C 
BRANCH  21  22
ATOM     22  C   UNL     1      34.169  30.045   9.775  1.00  0.00    -0.000 C 
BRANCH  22  23
ATOM     23  C   UNL     1      34.347  28.641   9.162  1.00  0.00    -0.000 C 
BRANCH  23  24
ATOM     24  C   UNL     1      34.493  27.494  10.182  1.00  0.00    -0.000 C 
BRANCH  24  25
ATOM     25  C   UNL     1      35.644  27.671  11.190  1.00  0.00    -0.003 C 
ATOM     26  C   UNL     1      36.333  26.353  11.542  1.00  0.00     0.004 C 
ENDBRANCH  24  25
ENDBRANCH  23  24
ENDBRANCH  22  23
ENDBRANCH  21  22
ENDBRANCH  20  21
ENDBRANCH  19  20
ENDBRANCH  18  19
ENDBRANCH  17  18
ENDBRANCH  16  17
ENDBRANCH  15  16
ENDBRANCH   1  15
TORSDOF 22
ENDMDL
MODEL 7
REMARK VINA RESULT:    -4.949      3.441      4.681
REMARK INTER + INTRA:         -14.850
REMARK INTER:                 -11.092
REMARK INTRA:                  -3.757
REMARK UNBOUND:                -3.535
REMARK SMILES CCCCCCCCCCCCCCCCCCCCCCCC(=O)[O-]
REMARK SMILES IDX 13 1 14 2 15 3 16 4 17 5 18 6 19 7 20 8 21 9 22 10 23 11
REMARK SMILES IDX 24 12 25 13 26 14 12 15 11 16 10 17 9 18 8 19 7 20 6 21 5 22
REMARK SMILES IDX 4 23 3 24 2 25 1 26
REMARK H PARENT
REMARK Flexibility Score: inf
ROOT
ATOM      1  C   UNL     1      31.427  31.218  17.320  1.00  0.00     0.000 C 
ENDROOT
BRANCH   1   2
ATOM      2  C   UNL     1      31.777  32.166  16.159  1.00  0.00     0.000 C 
BRANCH   2   3
ATOM      3  C   UNL     1      32.996  31.688  15.353  1.00  0.00     0.000 C 
BRANCH   3   4
ATOM      4  C   UNL     1      33.541  30.332  15.839  1.00  0.00     0.000 C 
BRANCH   4   5
ATOM      5  C   UNL     1      33.306  29.145  14.881  1.00  0.00     0.000 C 
BRANCH   5   6
ATOM      6  C   UNL     1      33.410  27.750  15.524  1.00  0.00     0.000 C 
BRANCH   6   7
ATOM      7  C   UNL     1      32.323  26.750  15.085  1.00  0.00     0.000 C 
BRANCH   7   8
ATOM      8  C   UNL     1      32.169  26.628  13.551  1.00  0.00     0.000 C 
BRANCH   8   9
ATOM      9  C   UNL     1      33.457  26.228  12.802  1.00  0.00     0.000 C 
BRANCH   9  10
ATOM     10  C   UNL     1      33.916  27.207  11.700  1.00  0.00     0.006 C 
BRANCH  10  11
ATOM     11  C   UNL     1      35.394  27.621  11.780  1.00  0.00     0.053 C 
BRANCH  11  12
ATOM     12  C   UNL     1      36.316  26.456  11.585  1.00  0.00     0.041 C 
ATOM     13  O   UNL     1      36.750  25.820  12.581  1.00  0.00    -0.550 OA
ATOM     14  O   UNL     1      36.657  26.044  10.303  1.00  0.00    -0.550 OA
ENDBRANCH  11  12
ENDBRANCH  10  11
ENDBRANCH   9  10
ENDBRANCH   8   9
ENDBRANCH   7   8
ENDBRANCH   6   7
ENDBRANCH   5   6
ENDBRANCH   4   5
ENDBRANCH   3   4
ENDBRANCH   2   3
ENDBRANCH   1   2
BRANCH   1  15
ATOM     15  C   UNL     1      30.123  30.438  17.078  1.00  0.00     0.000 C 
BRANCH  15  16
ATOM     16  C   UNL     1      29.577  30.637  15.655  1.00  0.00     0.000 C 
BRANCH  16  17
ATOM     17  C   UNL     1      29.662  29.361  14.804  1.00  0.00     0.000 C 
BRANCH  17  18
ATOM     18  C   UNL     1      29.298  29.650  13.342  1.00  0.00    -0.000 C 
BRANCH  18  19
ATOM     19  C   UNL     1      29.768  31.052  12.926  1.00  0.00    -0.000 C 
BRANCH  19  20
ATOM     20  C   UNL     1      31.208  31.061  12.383  1.00  0.00    -0.000 C 
BRANCH  20  21
ATOM     21  C   UNL     1      31.557  29.780  11.605  1.00  0.00    -0.000 C 
BRANCH  21  22
ATOM     22  C   UNL     1      31.250  29.895  10.100  1.00  0.00    -0.000 C 
BRANCH  22  23
ATOM     23  C   UNL     1      32.283  30.694   9.279  1.00  0.00    -0.000 C 
BRANCH  23  24
ATOM     24  C   UNL     1      33.756  30.313   9.530  1.00  0.00    -0.000 C 
BRANCH  24  25
ATOM     25  C   UNL     1      34.755  31.477   9.390  1.00  0.00    -0.003 C 
ATOM     26  C   UNL     1      34.849  32.010   7.960  1.00  0.00     0.004 C 
ENDBRANCH  24  25
ENDBRANCH  23  24
ENDBRANCH  22  23
ENDBRANCH  21  22
ENDBRANCH  20  21
ENDBRANCH  19  20
ENDBRANCH  18  19
ENDBRANCH  17  18
ENDBRANCH  16  17
ENDBRANCH  15  16
ENDBRANCH   1  15
TORSDOF 22
ENDMDL
MODEL 8
REMARK VINA RESULT:    -4.935      1.622      3.585
REMARK INTER + INTRA:         -14.817
REMARK INTER:                 -10.483
REMARK INTRA:                  -4.334
REMARK UNBOUND:                -3.535
REMARK SMILES CCCCCCCCCCCCCCCCCCCCCCCC(=O)[O-]
REMARK SMILES IDX 13 1 14 2 15 3 16 4 17 5 18 6 19 7 20 8 21 9 22 10 23 11
REMARK SMILES IDX 24 12 25 13 26 14 12 15 11 16 10 17 9 18 8 19 7 20 6 21 5 22
REMARK SMILES IDX 4 23 3 24 2 25 1 26
REMARK H PARENT
REMARK Flexibility Score: inf
ROOT
ATOM      1  C   UNL     1      31.504  31.343  17.368  1.00  0.00     0.000 C 
ENDROOT
BRANCH   1   2
ATOM      2  C   UNL     1      30.210  30.522  17.233  1.00  0.00     0.000 C 
BRANCH   2   3
ATOM      3  C   UNL     1      29.557  30.670  15.849  1.00  0.00     0.000 C 
BRANCH   3   4
ATOM      4  C   UNL     1      29.479  29.339  15.078  1.00  0.00     0.000 C 
BRANCH   4   5
ATOM      5  C   UNL     1      30.252  28.163  15.714  1.00  0.00     0.000 C 
BRANCH   5   6
ATOM      6  C   UNL     1      30.419  26.924  14.816  1.00  0.00     0.000 C 
BRANCH   6   7
ATOM      7  C   UNL     1      30.560  27.227  13.312  1.00  0.00     0.000 C 
BRANCH   7   8
ATOM      8  C   UNL     1      29.355  26.756  12.465  1.00  0.00     0.000 C 
BRANCH   8   9
ATOM      9  C   UNL     1      28.425  27.887  11.979  1.00  0.00     0.000 C 
BRANCH   9  10
ATOM     10  C   UNL     1      27.071  27.995  12.714  1.00  0.00     0.006 C 
BRANCH  10  11
ATOM     11  C   UNL     1      26.837  26.929  13.795  1.00  0.00     0.053 C 
BRANCH  11  12
ATOM     12  C   UNL     1      25.776  25.948  13.397  1.00  0.00     0.041 C 
ATOM     13  O   UNL     1      24.915  26.264  12.535  1.00  0.00    -0.550 OA
ATOM     14  O   UNL     1      25.768  24.670  13.943  1.00  0.00    -0.550 OA
ENDBRANCH  11  12
ENDBRANCH  10  11
ENDBRANCH   9  10
ENDBRANCH   8   9
ENDBRANCH   7   8
ENDBRANCH   6   7
ENDBRANCH   5   6
ENDBRANCH   4   5
ENDBRANCH   3   4
ENDBRANCH   2   3
ENDBRANCH   1   2
BRANCH   1  15
ATOM     15  C   UNL     1      31.822  32.164  16.106  1.00  0.00     0.000 C 
BRANCH  15  16
ATOM     16  C   UNL     1      33.006  31.587  15.315  1.00  0.00     0.000 C 
BRANCH  16  17
ATOM     17  C   UNL     1      33.396  30.175  15.778  1.00  0.00     0.000 C 
BRANCH  17  18
ATOM     18  C   UNL     1      33.386  29.189  14.603  1.00  0.00    -0.000 C 
BRANCH  18  19
ATOM     19  C   UNL     1      34.276  27.972  14.899  1.00  0.00    -0.000 C 
BRANCH  19  20
ATOM     20  C   UNL     1      34.350  26.986  13.721  1.00  0.00    -0.000 C 
BRANCH  20  21
ATOM     21  C   UNL     1      34.799  27.660  12.411  1.00  0.00    -0.000 C 
BRANCH  21  22
ATOM     22  C   UNL     1      33.735  27.571  11.301  1.00  0.00    -0.000 C 
BRANCH  22  23
ATOM     23  C   UNL     1      33.424  28.900  10.582  1.00  0.00    -0.000 C 
BRANCH  23  24
ATOM     24  C   UNL     1      31.995  29.439  10.792  1.00  0.00    -0.000 C 
BRANCH  24  25
ATOM     25  C   UNL     1      31.901  30.676  11.704  1.00  0.00    -0.003 C 
ATOM     26  C   UNL     1      30.463  31.017  12.097  1.00  0.00     0.004 C 
ENDBRANCH  24  25
ENDBRANCH  23  24
ENDBRANCH  22  23
ENDBRANCH  21  22
ENDBRANCH  20  21
ENDBRANCH  19  20
ENDBRANCH  18  19
ENDBRANCH  17  18
ENDBRANCH  16  17
ENDBRANCH  15  16
ENDBRANCH   1  15
TORSDOF 22
ENDMDL
MODEL 9
REMARK VINA RESULT:    -4.890      2.649      5.859
REMARK INTER + INTRA:         -14.714
REMARK INTER:                 -10.364
REMARK INTRA:                  -4.350
REMARK UNBOUND:                -3.535
REMARK SMILES CCCCCCCCCCCCCCCCCCCCCCCC(=O)[O-]
REMARK SMILES IDX 13 1 14 2 15 3 16 4 17 5 18 6 19 7 20 8 21 9 22 10 23 11
REMARK SMILES IDX 24 12 25 13 26 14 12 15 11 16 10 17 9 18 8 19 7 20 6 21 5 22
REMARK SMILES IDX 4 23 3 24 2 25 1 26
REMARK H PARENT
REMARK Flexibility Score: inf
ROOT
ATOM      1  C   UNL     1      33.384  30.137  15.900  1.00  0.00     0.000 C 
ENDROOT
BRANCH   1   2
ATOM      2  C   UNL     1      32.885  31.505  15.404  1.00  0.00     0.000 C 
BRANCH   2   3
ATOM      3  C   UNL     1      31.793  32.100  16.308  1.00  0.00     0.000 C 
BRANCH   3   4
ATOM      4  C   UNL     1      31.147  31.053  17.235  1.00  0.00     0.000 C 
BRANCH   4   5
ATOM      5  C   UNL     1      30.000  30.234  16.605  1.00  0.00     0.000 C 
BRANCH   5   6
ATOM      6  C   UNL     1      29.254  30.928  15.451  1.00  0.00     0.000 C 
BRANCH   6   7
ATOM      7  C   UNL     1      29.547  30.355  14.051  1.00  0.00     0.000 C 
BRANCH   7   8
ATOM      8  C   UNL     1      29.632  31.429  12.942  1.00  0.00     0.000 C 
BRANCH   8   9
ATOM      9  C   UNL     1      30.404  30.996  11.679  1.00  0.00     0.000 C 
BRANCH   9  10
ATOM     10  C   UNL     1      31.885  30.619  11.902  1.00  0.00     0.006 C 
BRANCH  10  11
ATOM     11  C   UNL     1      32.309  29.276  11.288  1.00  0.00     0.053 C 
BRANCH  11  12
ATOM     12  C   UNL     1      33.698  29.326  10.729  1.00  0.00     0.041 C 
ATOM     13  O   UNL     1      33.948  30.038   9.721  1.00  0.00    -0.550 OA
ATOM     14  O   UNL     1      34.725  28.626  11.349  1.00  0.00    -0.550 OA
ENDBRANCH  11  12
ENDBRANCH  10  11
ENDBRANCH   9  10
ENDBRANCH   8   9
ENDBRANCH   7   8
ENDBRANCH   6   7
ENDBRANCH   5   6
ENDBRANCH   4   5
ENDBRANCH   3   4
ENDBRANCH   2   3
ENDBRANCH   1   2
BRANCH   1  15
ATOM     15  C   UNL     1      33.258  29.035  14.835  1.00  0.00     0.000 C 
BRANCH  15  16
ATOM     16  C   UNL     1      32.655  27.739  15.401  1.00  0.00     0.000 C 
BRANCH  16  17
ATOM     17  C   UNL     1      31.346  27.340  14.702  1.00  0.00     0.000 C 
BRANCH  17  18
ATOM     18  C   UNL     1      30.401  26.624  15.674  1.00  0.00    -0.000 C 
BRANCH  18  19
ATOM     19  C   UNL     1      29.144  26.120  14.948  1.00  0.00    -0.000 C 
BRANCH  19  20
ATOM     20  C   UNL     1      27.992  27.139  14.973  1.00  0.00    -0.000 C 
BRANCH  20  21
ATOM     21  C   UNL     1      27.206  27.179  13.651  1.00  0.00    -0.000 C 
BRANCH  21  22
ATOM     22  C   UNL     1      28.107  26.988  12.416  1.00  0.00    -0.000 C 
BRANCH  22  23
ATOM     23  C   UNL     1      28.121  28.170  11.425  1.00  0.00    -0.000 C 
BRANCH  23  24
ATOM     24  C   UNL     1      26.991  29.199  11.616  1.00  0.00    -0.000 C 
BRANCH  24  25
ATOM     25  C   UNL     1      25.833  29.080  10.607  1.00  0.00    -0.003 C 
ATOM     26  C   UNL     1      24.749  28.102  11.059  1.00  0.00     0.004 C 
ENDBRANCH  24  25
ENDBRANCH  23  24
ENDBRANCH  22  23
ENDBRANCH  21  22
ENDBRANCH  20  21
ENDBRANCH  19  20
ENDBRANCH  18  19
ENDBRANCH  17  18
ENDBRANCH  16  17
ENDBRANCH  15  16
ENDBRANCH   1  15
TORSDOF 22
ENDMDL
