MODEL 1
REMARK VINA RESULT:    -5.717      0.000      0.000
REMARK INTER + INTRA:          -6.052
REMARK INTER:                  -6.052
REMARK INTRA:                   0.000
REMARK UNBOUND:                 0.000
REMARK SMILES O=c1ccc2cc(O)c(O)cc2o1
REMARK SMILES IDX 4 1 3 2 2 3 1 4 13 5 12 6 11 7 9 8 7 9 6 10 5 11 8 12 10 14
REMARK H PARENT 8 13 10 15
REMARK Flexibility Score: inf
ROOT
ATOM      1  C   UNL     1      14.719 -27.362  27.507  1.00  0.00     0.019 A 
ATOM      2  C   UNL     1      14.125 -27.085  26.276  1.00  0.00     0.094 A 
ATOM      3  C   UNL     1      14.611 -26.016  25.514  1.00  0.00     0.336 A 
ATOM      4  O   UNL     1      14.088 -25.751  24.401  1.00  0.00    -0.246 OA
ATOM      5  O   UNL     1      15.623 -25.278  25.960  1.00  0.00    -0.423 OA
ATOM      6  C   UNL     1      16.218 -25.507  27.128  1.00  0.00     0.142 A 
ATOM      7  C   UNL     1      17.279 -24.697  27.544  1.00  0.00     0.098 A 
ATOM      8  C   UNL     1      17.909 -24.934  28.775  1.00  0.00     0.161 A 
ATOM      9  C   UNL     1      17.474 -25.992  29.594  1.00  0.00     0.158 A 
ATOM     10  C   UNL     1      16.412 -26.805  29.179  1.00  0.00     0.062 A 
ATOM     11  C   UNL     1      15.782 -26.568  27.950  1.00  0.00     0.022 A 
ENDROOT
BRANCH   9  12
ATOM     12  O   UNL     1      18.083 -26.250  30.821  1.00  0.00    -0.504 OA
ATOM     13  H   UNL     1      18.825 -25.664  31.188  1.00  0.00     0.293 HD
ENDBRANCH   9  12
BRANCH   8  14
ATOM     14  O   UNL     1      18.966 -24.123  29.185  1.00  0.00    -0.504 OA
ATOM     15  H   UNL     1      18.883 -23.507  29.986  1.00  0.00     0.293 HD
ENDBRANCH   8  14
TORSDOF 2
ENDMDL
MODEL 2
REMARK VINA RESULT:    -5.690      2.669      5.311
REMARK INTER + INTRA:          -6.023
REMARK INTER:                  -6.023
REMARK INTRA:                   0.000
REMARK UNBOUND:                 0.000
REMARK SMILES O=c1ccc2cc(O)c(O)cc2o1
REMARK SMILES IDX 4 1 3 2 2 3 1 4 13 5 12 6 11 7 9 8 7 9 6 10 5 11 8 12 10 14
REMARK H PARENT 8 13 10 15
REMARK Flexibility Score: inf
ROOT
ATOM      1  C   UNL     1      15.526 -23.303  31.242  1.00  0.00     0.019 A 
ATOM      2  C   UNL     1      15.515 -23.623  32.600  1.00  0.00     0.094 A 
ATOM      3  C   UNL     1      16.246 -24.731  33.042  1.00  0.00     0.336 A 
ATOM      4  O   UNL     1      16.248 -25.036  34.262  1.00  0.00    -0.246 OA
ATOM      5  O   UNL     1      16.940 -25.466  32.178  1.00  0.00    -0.423 OA
ATOM      6  C   UNL     1      16.978 -25.197  30.875  1.00  0.00     0.142 A 
ATOM      7  C   UNL     1      17.727 -26.005  30.015  1.00  0.00     0.098 A 
ATOM      8  C   UNL     1      17.771 -25.726  28.640  1.00  0.00     0.161 A 
ATOM      9  C   UNL     1      17.059 -24.627  28.126  1.00  0.00     0.158 A 
ATOM     10  C   UNL     1      16.309 -23.815  28.985  1.00  0.00     0.062 A 
ATOM     11  C   UNL     1      16.266 -24.094  30.358  1.00  0.00     0.022 A 
ENDROOT
BRANCH   9  12
ATOM     12  O   UNL     1      17.085 -24.327  26.764  1.00  0.00    -0.504 OA
ATOM     13  H   UNL     1      16.481 -24.794  26.098  1.00  0.00     0.293 HD
ENDBRANCH   9  12
BRANCH   8  14
ATOM     14  O   UNL     1      18.518 -26.536  27.787  1.00  0.00    -0.504 OA
ATOM     15  H   UNL     1      18.237 -26.697  26.826  1.00  0.00     0.293 HD
ENDBRANCH   8  14
TORSDOF 2
ENDMDL
MODEL 3
REMARK VINA RESULT:    -5.450      7.282      8.646
REMARK INTER + INTRA:          -5.769
REMARK INTER:                  -5.769
REMARK INTRA:                   0.000
REMARK UNBOUND:                 0.000
REMARK SMILES O=c1ccc2cc(O)c(O)cc2o1
REMARK SMILES IDX 4 1 3 2 2 3 1 4 13 5 12 6 11 7 9 8 7 9 6 10 5 11 8 12 10 14
REMARK H PARENT 8 13 10 15
REMARK Flexibility Score: inf
ROOT
ATOM      1  C   UNL     1      10.514 -28.594  28.265  1.00  0.00     0.019 A 
ATOM      2  C   UNL     1       9.867 -28.595  27.030  1.00  0.00     0.094 A 
ATOM      3  C   UNL     1       8.574 -29.121  26.941  1.00  0.00     0.336 A 
ATOM      4  O   UNL     1       7.974 -29.131  25.835  1.00  0.00    -0.246 OA
ATOM      5  O   UNL     1       7.973 -29.614  28.021  1.00  0.00    -0.423 OA
ATOM      6  C   UNL     1       8.554 -29.633  29.218  1.00  0.00     0.142 A 
ATOM      7  C   UNL     1       7.873 -30.163  30.318  1.00  0.00     0.098 A 
ATOM      8  C   UNL     1       8.480 -30.187  31.583  1.00  0.00     0.161 A 
ATOM      9  C   UNL     1       9.780 -29.673  31.746  1.00  0.00     0.158 A 
ATOM     10  C   UNL     1      10.465 -29.141  30.646  1.00  0.00     0.062 A 
ATOM     11  C   UNL     1       9.858 -29.118  29.383  1.00  0.00     0.022 A 
ENDROOT
BRANCH   9  12
ATOM     12  O   UNL     1      10.407 -29.684  32.991  1.00  0.00    -0.504 OA
ATOM     13  H   UNL     1      10.221 -30.402  33.682  1.00  0.00     0.293 HD
ENDBRANCH   9  12
BRANCH   8  14
ATOM     14  O   UNL     1       7.797 -30.717  32.676  1.00  0.00    -0.504 OA
ATOM     15  H   UNL     1       6.792 -30.846  32.662  1.00  0.00     0.293 HD
ENDBRANCH   8  14
TORSDOF 2
ENDMDL
MODEL 4
REMARK VINA RESULT:    -5.426      6.984      8.875
REMARK INTER + INTRA:          -5.744
REMARK INTER:                  -5.744
REMARK INTRA:                   0.000
REMARK UNBOUND:                 0.000
REMARK SMILES O=c1ccc2cc(O)c(O)cc2o1
REMARK SMILES IDX 4 1 3 2 2 3 1 4 13 5 12 6 11 7 9 8 7 9 6 10 5 11 8 12 10 14
REMARK H PARENT 8 13 10 15
REMARK Flexibility Score: inf
ROOT
ATOM      1  C   UNL     1      10.152 -29.462  31.506  1.00  0.00     0.019 A 
ATOM      2  C   UNL     1       9.094 -29.983  32.252  1.00  0.00     0.094 A 
ATOM      3  C   UNL     1       7.880 -30.250  31.611  1.00  0.00     0.336 A 
ATOM      4  O   UNL     1       6.914 -30.720  32.266  1.00  0.00    -0.246 OA
ATOM      5  O   UNL     1       7.739 -30.010  30.310  1.00  0.00    -0.423 OA
ATOM      6  C   UNL     1       8.722 -29.514  29.562  1.00  0.00     0.142 A 
ATOM      7  C   UNL     1       8.515 -29.283  28.199  1.00  0.00     0.098 A 
ATOM      8  C   UNL     1       9.547 -28.760  27.405  1.00  0.00     0.161 A 
ATOM      9  C   UNL     1      10.796 -28.467  27.983  1.00  0.00     0.158 A 
ATOM     10  C   UNL     1      11.006 -28.698  29.348  1.00  0.00     0.062 A 
ATOM     11  C   UNL     1       9.975 -29.220  30.140  1.00  0.00     0.022 A 
ENDROOT
BRANCH   9  12
ATOM     12  O   UNL     1      11.839 -27.947  27.218  1.00  0.00    -0.504 OA
ATOM     13  H   UNL     1      11.719 -27.699  26.242  1.00  0.00     0.293 HD
ENDBRANCH   9  12
BRANCH   8  14
ATOM     14  O   UNL     1       9.336 -28.531  26.047  1.00  0.00    -0.504 OA
ATOM     15  H   UNL     1      10.080 -28.204  25.441  1.00  0.00     0.293 HD
ENDBRANCH   8  14
TORSDOF 2
ENDMDL
MODEL 5
REMARK VINA RESULT:    -5.258      6.760      9.251
REMARK INTER + INTRA:          -5.566
REMARK INTER:                  -5.566
REMARK INTRA:                   0.000
REMARK UNBOUND:                 0.000
REMARK SMILES O=c1ccc2cc(O)c(O)cc2o1
REMARK SMILES IDX 4 1 3 2 2 3 1 4 13 5 12 6 11 7 9 8 7 9 6 10 5 11 8 12 10 14
REMARK H PARENT 8 13 10 15
REMARK Flexibility Score: inf
ROOT
ATOM      1  C   UNL     1      10.954 -24.619  20.693  1.00  0.00     0.019 A 
ATOM      2  C   UNL     1      12.074 -25.347  21.093  1.00  0.00     0.094 A 
ATOM      3  C   UNL     1      12.336 -25.494  22.459  1.00  0.00     0.336 A 
ATOM      4  O   UNL     1      13.342 -26.147  22.839  1.00  0.00    -0.246 OA
ATOM      5  O   UNL     1      11.526 -24.947  23.361  1.00  0.00    -0.423 OA
ATOM      6  C   UNL     1      10.447 -24.245  23.024  1.00  0.00     0.142 A 
ATOM      7  C   UNL     1       9.632 -23.694  24.017  1.00  0.00     0.098 A 
ATOM      8  C   UNL     1       8.494 -22.952  23.668  1.00  0.00     0.161 A 
ATOM      9  C   UNL     1       8.169 -22.764  22.312  1.00  0.00     0.158 A 
ATOM     10  C   UNL     1       8.983 -23.315  21.315  1.00  0.00     0.062 A 
ATOM     11  C   UNL     1      10.120 -24.055  21.664  1.00  0.00     0.022 A 
ENDROOT
BRANCH   9  12
ATOM     12  O   UNL     1       7.043 -22.032  21.937  1.00  0.00    -0.504 OA
ATOM     13  H   UNL     1       6.545 -21.437  22.590  1.00  0.00     0.293 HD
ENDBRANCH   9  12
BRANCH   8  14
ATOM     14  O   UNL     1       7.685 -22.404  24.662  1.00  0.00    -0.504 OA
ATOM     15  H   UNL     1       7.186 -21.533  24.521  1.00  0.00     0.293 HD
ENDBRANCH   8  14
TORSDOF 2
ENDMDL
MODEL 6
REMARK VINA RESULT:    -5.243      7.309      8.563
REMARK INTER + INTRA:          -5.550
REMARK INTER:                  -5.550
REMARK INTRA:                   0.000
REMARK UNBOUND:                 0.000
REMARK SMILES O=c1ccc2cc(O)c(O)cc2o1
REMARK SMILES IDX 4 1 3 2 2 3 1 4 13 5 12 6 11 7 9 8 7 9 6 10 5 11 8 12 10 14
REMARK H PARENT 8 13 10 15
REMARK Flexibility Score: inf
ROOT
ATOM      1  C   UNL     1       7.667 -29.971  27.859  1.00  0.00     0.019 A 
ATOM      2  C   UNL     1       8.317 -29.493  26.722  1.00  0.00     0.094 A 
ATOM      3  C   UNL     1       9.586 -28.919  26.857  1.00  0.00     0.336 A 
ATOM      4  O   UNL     1      10.189 -28.482  25.843  1.00  0.00    -0.246 OA
ATOM      5  O   UNL     1      10.160 -28.830  28.053  1.00  0.00    -0.423 OA
ATOM      6  C   UNL     1       9.575 -29.273  29.164  1.00  0.00     0.142 A 
ATOM      7  C   UNL     1      10.228 -29.154  30.394  1.00  0.00     0.098 A 
ATOM      8  C   UNL     1       9.615 -29.618  31.569  1.00  0.00     0.161 A 
ATOM      9  C   UNL     1       8.339 -30.208  31.507  1.00  0.00     0.158 A 
ATOM     10  C   UNL     1       7.683 -30.329  30.276  1.00  0.00     0.062 A 
ATOM     11  C   UNL     1       8.295 -29.865  29.104  1.00  0.00     0.022 A 
ENDROOT
BRANCH   9  12
ATOM     12  O   UNL     1       7.708 -30.678  32.658  1.00  0.00    -0.504 OA
ATOM     13  H   UNL     1       7.162 -31.532  32.663  1.00  0.00     0.293 HD
ENDBRANCH   9  12
BRANCH   8  14
ATOM     14  O   UNL     1      10.270 -29.496  32.793  1.00  0.00    -0.504 OA
ATOM     15  H   UNL     1      10.968 -28.779  32.953  1.00  0.00     0.293 HD
ENDBRANCH   8  14
TORSDOF 2
ENDMDL
MODEL 7
REMARK VINA RESULT:    -5.132      7.766      9.271
REMARK INTER + INTRA:          -5.432
REMARK INTER:                  -5.432
REMARK INTRA:                   0.000
REMARK UNBOUND:                 0.000
REMARK SMILES O=c1ccc2cc(O)c(O)cc2o1
REMARK SMILES IDX 4 1 3 2 2 3 1 4 13 5 12 6 11 7 9 8 7 9 6 10 5 11 8 12 10 14
REMARK H PARENT 8 13 10 15
REMARK Flexibility Score: inf
ROOT
ATOM      1  C   UNL     1      11.526 -25.156  23.122  1.00  0.00     0.019 A 
ATOM      2  C   UNL     1      12.211 -25.736  22.054  1.00  0.00     0.094 A 
ATOM      3  C   UNL     1      11.743 -25.524  20.753  1.00  0.00     0.336 A 
ATOM      4  O   UNL     1      12.347 -26.039  19.777  1.00  0.00    -0.246 OA
ATOM      5  O   UNL     1      10.662 -24.780  20.540  1.00  0.00    -0.423 OA
ATOM      6  C   UNL     1       9.979 -24.208  21.529  1.00  0.00     0.142 A 
ATOM      7  C   UNL     1       8.849 -23.435  21.245  1.00  0.00     0.098 A 
ATOM      8  C   UNL     1       8.125 -22.831  22.283  1.00  0.00     0.161 A 
ATOM      9  C   UNL     1       8.538 -23.001  23.617  1.00  0.00     0.158 A 
ATOM     10  C   UNL     1       9.670 -23.774  23.905  1.00  0.00     0.062 A 
ATOM     11  C   UNL     1      10.392 -24.378  22.868  1.00  0.00     0.022 A 
ENDROOT
BRANCH   9  12
ATOM     12  O   UNL     1       7.837 -22.411  24.668  1.00  0.00    -0.504 OA
ATOM     13  H   UNL     1       8.286 -21.794  25.336  1.00  0.00     0.293 HD
ENDBRANCH   9  12
BRANCH   8  14
ATOM     14  O   UNL     1       6.999 -22.062  21.994  1.00  0.00    -0.504 OA
ATOM     15  H   UNL     1       6.709 -21.882  21.040  1.00  0.00     0.293 HD
ENDBRANCH   8  14
TORSDOF 2
ENDMDL
MODEL 8
REMARK VINA RESULT:    -5.069      8.530      8.817
REMARK INTER + INTRA:          -5.366
REMARK INTER:                  -5.366
REMARK INTRA:                   0.000
REMARK UNBOUND:                 0.000
REMARK SMILES O=c1ccc2cc(O)c(O)cc2o1
REMARK SMILES IDX 4 1 3 2 2 3 1 4 13 5 12 6 11 7 9 8 7 9 6 10 5 11 8 12 10 14
REMARK H PARENT 8 13 10 15
REMARK Flexibility Score: inf
ROOT
ATOM      1  C   UNL     1       9.988 -24.717  31.587  1.00  0.00     0.019 A 
ATOM      2  C   UNL     1       9.714 -24.057  30.389  1.00  0.00     0.094 A 
ATOM      3  C   UNL     1       9.536 -22.669  30.405  1.00  0.00     0.336 A 
ATOM      4  O   UNL     1       9.288 -22.055  29.336  1.00  0.00    -0.246 OA
ATOM      5  O   UNL     1       9.625 -21.993  31.547  1.00  0.00    -0.423 OA
ATOM      6  C   UNL     1       9.884 -22.584  32.712  1.00  0.00     0.142 A 
ATOM      7  C   UNL     1       9.968 -21.821  33.880  1.00  0.00     0.098 A 
ATOM      8  C   UNL     1      10.240 -22.437  35.111  1.00  0.00     0.161 A 
ATOM      9  C   UNL     1      10.431 -23.830  35.169  1.00  0.00     0.158 A 
ATOM     10  C   UNL     1      10.348 -24.597  34.000  1.00  0.00     0.062 A 
ATOM     11  C   UNL     1      10.077 -23.980  32.772  1.00  0.00     0.022 A 
ENDROOT
BRANCH   9  12
ATOM     12  O   UNL     1      10.703 -24.469  36.378  1.00  0.00    -0.504 OA
ATOM     13  H   UNL     1      10.313 -25.376  36.608  1.00  0.00     0.293 HD
ENDBRANCH   9  12
BRANCH   8  14
ATOM     14  O   UNL     1      10.321 -21.672  36.272  1.00  0.00    -0.504 OA
ATOM     15  H   UNL     1      11.209 -21.489  36.726  1.00  0.00     0.293 HD
ENDBRANCH   8  14
TORSDOF 2
ENDMDL
MODEL 9
REMARK VINA RESULT:    -5.042      7.461      8.360
REMARK INTER + INTRA:          -5.337
REMARK INTER:                  -5.337
REMARK INTRA:                   0.000
REMARK UNBOUND:                 0.000
REMARK SMILES O=c1ccc2cc(O)c(O)cc2o1
REMARK SMILES IDX 4 1 3 2 2 3 1 4 13 5 12 6 11 7 9 8 7 9 6 10 5 11 8 12 10 14
REMARK H PARENT 8 13 10 15
REMARK Flexibility Score: inf
ROOT
ATOM      1  C   UNL     1       9.392 -28.226  29.675  1.00  0.00     0.019 A 
ATOM      2  C   UNL     1       9.428 -29.333  30.522  1.00  0.00     0.094 A 
ATOM      3  C   UNL     1       9.542 -29.129  31.901  1.00  0.00     0.336 A 
ATOM      4  O   UNL     1       9.577 -30.115  32.681  1.00  0.00    -0.246 OA
ATOM      5  O   UNL     1       9.616 -27.896  32.394  1.00  0.00    -0.423 OA
ATOM      6  C   UNL     1       9.586 -26.812  31.622  1.00  0.00     0.142 A 
ATOM      7  C   UNL     1       9.666 -25.541  32.198  1.00  0.00     0.098 A 
ATOM      8  C   UNL     1       9.635 -24.394  31.389  1.00  0.00     0.161 A 
ATOM      9  C   UNL     1       9.521 -24.525  29.993  1.00  0.00     0.158 A 
ATOM     10  C   UNL     1       9.440 -25.797  29.414  1.00  0.00     0.062 A 
ATOM     11  C   UNL     1       9.471 -26.941  30.222  1.00  0.00     0.022 A 
ENDROOT
BRANCH   9  12
ATOM     12  O   UNL     1       9.487 -23.403  29.166  1.00  0.00    -0.504 OA
ATOM     13  H   UNL     1      10.017 -23.353  28.303  1.00  0.00     0.293 HD
ENDBRANCH   9  12
BRANCH   8  14
ATOM     14  O   UNL     1       9.716 -23.129  31.968  1.00  0.00    -0.504 OA
ATOM     15  H   UNL     1      10.022 -23.001  32.925  1.00  0.00     0.293 HD
ENDBRANCH   8  14
TORSDOF 2
ENDMDL
