MODEL 1
REMARK VINA RESULT:    -7.470      0.000      0.000
REMARK INTER + INTRA:         -14.328
REMARK INTER:                 -12.274
REMARK INTRA:                  -2.054
REMARK UNBOUND:                -2.054
REMARK SMILES C[C@@H]1O[C@@H](OC[C@H]2O[C@@H](Oc3c(-c4ccc(O)c(O)c4)oc4cc(O)cc(O)c4c3=O)[C@H](O)[C@@H](O)[C@@H]2O)[C@H](O)[C@H](O)[C@@H]1O
REMARK SMILES IDX 7 1 36 2 34 3 32 4 9 5 8 6 6 7 5 8 4 9 1 10 2 11 42 12 3 13
REMARK SMILES IDX 40 14 38 15 43 16 41 18 39 20 37 22 35 24 10 26 11 27 12 28
REMARK SMILES IDX 30 29 21 30 29 31 31 32 22 33 27 34 23 35 26 36 24 37 13 38
REMARK SMILES IDX 20 39 14 40 18 41 15 42 16 43 19 44 17 46 28 48 25 50 33 52
REMARK H PARENT 43 17 41 19 39 21 37 23 35 25 19 45 17 47 28 49 25 51 33 53
REMARK Flexibility Score: inf
ROOT
ATOM      1  C   UNL     1      25.853  -2.895 100.224  1.00  0.00     0.180 C 
ATOM      2  C   UNL     1      26.247  -3.081  98.725  1.00  0.00     0.177 C 
ATOM      3  C   UNL     1      26.661  -4.533  98.429  1.00  0.00     0.180 C 
ATOM      4  C   UNL     1      25.594  -5.481  98.988  1.00  0.00     0.214 C 
ATOM      5  C   UNL     1      25.477  -5.192 100.490  1.00  0.00     0.339 C 
ATOM      6  O   UNL     1      24.949  -3.894 100.663  1.00  0.00    -0.332 OA
ENDROOT
BRANCH   1   7
ATOM      7  C   UNL     1      25.168  -1.529 100.436  1.00  0.00     0.198 C 
BRANCH   7   8
ATOM      8  O   UNL     1      25.985  -0.729 101.269  1.00  0.00    -0.347 OA
BRANCH   8   9
ATOM      9  C   UNL     1      25.357  -0.333 102.482  1.00  0.00     0.281 C 
ATOM     10  C   UNL     1      28.273   1.268 104.081  1.00  0.00     0.041 C 
ATOM     11  C   UNL     1      27.447   0.143 103.453  1.00  0.00     0.150 C 
ATOM     12  C   UNL     1      27.394  -1.088 104.391  1.00  0.00     0.174 C 
ATOM     13  O   UNL     1      26.142   0.636 103.168  1.00  0.00    -0.344 OA
ATOM     14  C   UNL     1      26.486  -2.168 103.770  1.00  0.00     0.179 C 
ATOM     15  C   UNL     1      25.131  -1.564 103.373  1.00  0.00     0.202 C 
BRANCH  12  16
ATOM     16  O   UNL     1      26.919  -0.713 105.660  1.00  0.00    -0.388 OA
ATOM     17  H   UNL     1      26.073  -0.220 105.516  1.00  0.00     0.211 HD
ENDBRANCH  12  16
BRANCH  14  18
ATOM     18  O   UNL     1      26.294  -3.245 104.652  1.00  0.00    -0.387 OA
ATOM     19  H   UNL     1      25.442  -3.063 105.136  1.00  0.00     0.211 HD
ENDBRANCH  14  18
BRANCH  15  20
ATOM     20  O   UNL     1      24.409  -1.175 104.518  1.00  0.00    -0.385 OA
ATOM     21  H   UNL     1      24.976  -1.388 105.302  1.00  0.00     0.211 HD
ENDBRANCH  15  20
ENDBRANCH   8   9
ENDBRANCH   7   8
ENDBRANCH   1   7
BRANCH   2  22
ATOM     22  O   UNL     1      27.313  -2.226  98.405  1.00  0.00    -0.387 OA
ATOM     23  H   UNL     1      28.077  -2.478  98.984  1.00  0.00     0.211 HD
ENDBRANCH   2  22
BRANCH   3  24
ATOM     24  O   UNL     1      26.796  -4.682  97.039  1.00  0.00    -0.387 OA
ATOM     25  H   UNL     1      27.357  -5.491  96.889  1.00  0.00     0.211 HD
ENDBRANCH   3  24
BRANCH   5  26
ATOM     26  O   UNL     1      24.576  -6.125 101.087  1.00  0.00    -0.454 OA
BRANCH  26  27
ATOM     27  C   UNL     1      23.953  -6.001 102.350  1.00  0.00     0.214 A 
ATOM     28  C   UNL     1      22.564  -5.781 102.373  1.00  0.00     0.180 A 
ATOM     29  C   UNL     1      24.631  -6.098 103.591  1.00  0.00     0.239 A 
ATOM     30  O   UNL     1      21.902  -5.730 103.520  1.00  0.00    -0.452 OA
ATOM     31  C   UNL     1      23.890  -6.062 104.792  1.00  0.00     0.111 A 
ATOM     32  O   UNL     1      25.884  -6.209 103.633  1.00  0.00    -0.285 OA
ATOM     33  C   UNL     1      22.488  -5.878 104.701  1.00  0.00     0.146 A 
ATOM     34  C   UNL     1      24.478  -6.229 106.070  1.00  0.00     0.134 A 
ATOM     35  C   UNL     1      21.706  -5.855 105.861  1.00  0.00     0.094 A 
ATOM     36  C   UNL     1      23.677  -6.205 107.218  1.00  0.00     0.093 A 
ATOM     37  C   UNL     1      22.299  -6.017 107.121  1.00  0.00     0.123 A 
BRANCH  28  38
ATOM     38  C   UNL     1      21.832  -5.549 101.120  1.00  0.00     0.025 A 
ATOM     39  C   UNL     1      20.949  -4.466 101.011  1.00  0.00     0.062 A 
ATOM     40  C   UNL     1      22.051  -6.381 100.012  1.00  0.00     0.016 A 
ATOM     41  C   UNL     1      20.304  -4.183  99.800  1.00  0.00     0.158 A 
ATOM     42  C   UNL     1      21.389  -6.133  98.815  1.00  0.00     0.051 A 
ATOM     43  C   UNL     1      20.535  -5.032  98.685  1.00  0.00     0.157 A 
BRANCH  41  44
ATOM     44  O   UNL     1      19.478  -3.060  99.738  1.00  0.00    -0.504 OA
ATOM     45  H   UNL     1      18.923  -2.733 100.516  1.00  0.00     0.293 HD
ENDBRANCH  41  44
BRANCH  43  46
ATOM     46  O   UNL     1      19.949  -4.812  97.439  1.00  0.00    -0.504 OA
ATOM     47  H   UNL     1      19.001  -4.476  97.310  1.00  0.00     0.293 HD
ENDBRANCH  43  46
ENDBRANCH  28  38
BRANCH  34  48
ATOM     48  O   UNL     1      25.855  -6.412 106.215  1.00  0.00    -0.507 OA
ATOM     49  H   UNL     1      26.323  -6.297 107.100  1.00  0.00     0.293 HD
ENDBRANCH  34  48
BRANCH  37  50
ATOM     50  O   UNL     1      21.520  -5.991 108.280  1.00  0.00    -0.508 OA
ATOM     51  H   UNL     1      20.508  -6.070 108.243  1.00  0.00     0.293 HD
ENDBRANCH  37  50
ENDBRANCH  26  27
ENDBRANCH   5  26
BRANCH   4  52
ATOM     52  O   UNL     1      25.956  -6.823  98.781  1.00  0.00    -0.384 OA
ATOM     53  H   UNL     1      26.743  -6.986  99.370  1.00  0.00     0.211 HD
ENDBRANCH   4  52
TORSDOF 16
ENDMDL
MODEL 2
REMARK VINA RESULT:    -7.359      5.209     11.965
REMARK INTER + INTRA:         -14.146
REMARK INTER:                 -12.091
REMARK INTRA:                  -2.055
REMARK UNBOUND:                -2.054
REMARK SMILES C[C@@H]1O[C@@H](OC[C@H]2O[C@@H](Oc3c(-c4ccc(O)c(O)c4)oc4cc(O)cc(O)c4c3=O)[C@H](O)[C@@H](O)[C@@H]2O)[C@H](O)[C@H](O)[C@@H]1O
REMARK SMILES IDX 7 1 36 2 34 3 32 4 9 5 8 6 6 7 5 8 4 9 1 10 2 11 42 12 3 13
REMARK SMILES IDX 40 14 38 15 43 16 41 18 39 20 37 22 35 24 10 26 11 27 12 28
REMARK SMILES IDX 30 29 21 30 29 31 31 32 22 33 27 34 23 35 26 36 24 37 13 38
REMARK SMILES IDX 20 39 14 40 18 41 15 42 16 43 19 44 17 46 28 48 25 50 33 52
REMARK H PARENT 43 17 41 19 39 21 37 23 35 25 19 45 17 47 28 49 25 51 33 53
REMARK Flexibility Score: inf
ROOT
ATOM      1  C   UNL     1      29.594   0.569 105.265  1.00  0.00     0.180 C 
ATOM      2  C   UNL     1      29.958   0.068 106.697  1.00  0.00     0.177 C 
ATOM      3  C   UNL     1      31.442  -0.332 106.792  1.00  0.00     0.180 C 
ATOM      4  C   UNL     1      32.302   0.799 106.213  1.00  0.00     0.214 C 
ATOM      5  C   UNL     1      31.838   1.021 104.768  1.00  0.00     0.339 C 
ATOM      6  O   UNL     1      30.521   1.528 104.786  1.00  0.00    -0.332 OA
ENDROOT
BRANCH   1   7
ATOM      7  C   UNL     1      28.202   1.234 105.264  1.00  0.00     0.198 C 
BRANCH   7   8
ATOM      8  O   UNL     1      27.337   0.491 104.425  1.00  0.00    -0.347 OA
BRANCH   8   9
ATOM      9  C   UNL     1      26.919   1.195 103.262  1.00  0.00     0.281 C 
ATOM     10  C   UNL     1      24.934  -1.500 101.707  1.00  0.00     0.041 C 
ATOM     11  C   UNL     1      26.175  -0.806 102.272  1.00  0.00     0.150 C 
ATOM     12  C   UNL     1      27.336  -0.837 101.248  1.00  0.00     0.174 C 
ATOM     13  O   UNL     1      25.833   0.529 102.630  1.00  0.00    -0.344 OA
ATOM     14  C   UNL     1      28.540  -0.058 101.812  1.00  0.00     0.179 C 
ATOM     15  C   UNL     1      28.100   1.334 102.289  1.00  0.00     0.202 C 
BRANCH  12  16
ATOM     16  O   UNL     1      26.919  -0.286 100.024  1.00  0.00    -0.388 OA
ATOM     17  H   UNL     1      25.978  -0.562  99.889  1.00  0.00     0.211 HD
ENDBRANCH  12  16
BRANCH  14  18
ATOM     18  O   UNL     1      29.565   0.063 100.858  1.00  0.00    -0.387 OA
ATOM     19  H   UNL     1      29.123   0.312 100.000  1.00  0.00     0.211 HD
ENDBRANCH  14  18
BRANCH  15  20
ATOM     20  O   UNL     1      27.701   2.129 101.196  1.00  0.00    -0.385 OA
ATOM     21  H   UNL     1      28.476   2.180 100.580  1.00  0.00     0.211 HD
ENDBRANCH  15  20
ENDBRANCH   8   9
ENDBRANCH   7   8
ENDBRANCH   1   7
BRANCH   2  22
ATOM     22  O   UNL     1      29.164  -1.040 107.029  1.00  0.00    -0.387 OA
ATOM     23  H   UNL     1      29.370  -1.757 106.376  1.00  0.00     0.211 HD
ENDBRANCH   2  22
BRANCH   3  24
ATOM     24  O   UNL     1      31.753  -0.567 108.141  1.00  0.00    -0.387 OA
ATOM     25  H   UNL     1      32.627  -1.043 108.156  1.00  0.00     0.211 HD
ENDBRANCH   3  24
BRANCH   5  26
ATOM     26  O   UNL     1      32.681   1.987 104.139  1.00  0.00    -0.454 OA
BRANCH  26  27
ATOM     27  C   UNL     1      32.438   2.642 102.910  1.00  0.00     0.214 A 
ATOM     28  C   UNL     1      32.170   4.021 102.948  1.00  0.00     0.180 A 
ATOM     29  C   UNL     1      32.462   2.003 101.645  1.00  0.00     0.239 A 
ATOM     30  O   UNL     1      32.008   4.714 101.830  1.00  0.00    -0.452 OA
ATOM     31  C   UNL     1      32.308   2.777 100.474  1.00  0.00     0.111 A 
ATOM     32  O   UNL     1      32.612   0.757 101.555  1.00  0.00    -0.285 OA
ATOM     33  C   UNL     1      32.084   4.167 100.622  1.00  0.00     0.146 A 
ATOM     34  C   UNL     1      32.396   2.232  99.169  1.00  0.00     0.134 A 
ATOM     35  C   UNL     1      31.944   4.982  99.493  1.00  0.00     0.094 A 
ATOM     36  C   UNL     1      32.255   3.064  98.051  1.00  0.00     0.093 A 
ATOM     37  C   UNL     1      32.028   4.431  98.206  1.00  0.00     0.123 A 
BRANCH  28  38
ATOM     38  C   UNL     1      32.011   4.709 104.238  1.00  0.00     0.025 A 
ATOM     39  C   UNL     1      30.866   5.476 104.489  1.00  0.00     0.062 A 
ATOM     40  C   UNL     1      32.982   4.559 105.239  1.00  0.00     0.016 A 
ATOM     41  C   UNL     1      30.660   6.071 105.741  1.00  0.00     0.158 A 
ATOM     42  C   UNL     1      32.807   5.176 106.473  1.00  0.00     0.051 A 
ATOM     43  C   UNL     1      31.649   5.911 106.747  1.00  0.00     0.157 A 
BRANCH  41  44
ATOM     44  O   UNL     1      29.475   6.778 105.949  1.00  0.00    -0.504 OA
ATOM     45  H   UNL     1      29.321   7.384 106.743  1.00  0.00     0.293 HD
ENDBRANCH  41  44
BRANCH  43  46
ATOM     46  O   UNL     1      31.516   6.454 108.025  1.00  0.00    -0.504 OA
ATOM     47  H   UNL     1      32.157   7.133 108.422  1.00  0.00     0.293 HD
ENDBRANCH  43  46
ENDBRANCH  28  38
BRANCH  34  48
ATOM     48  O   UNL     1      32.613   0.868  98.967  1.00  0.00    -0.507 OA
ATOM     49  H   UNL     1      31.930   0.170  99.216  1.00  0.00     0.293 HD
ENDBRANCH  34  48
BRANCH  37  50
ATOM     50  O   UNL     1      31.886   5.242  97.078  1.00  0.00    -0.508 OA
ATOM     51  H   UNL     1      31.404   4.915  96.245  1.00  0.00     0.293 HD
ENDBRANCH  37  50
ENDBRANCH  26  27
ENDBRANCH   5  26
BRANCH   4  52
ATOM     52  O   UNL     1      33.664   0.455 106.236  1.00  0.00    -0.384 OA
ATOM     53  H   UNL     1      33.735  -0.409 105.745  1.00  0.00     0.211 HD
ENDBRANCH   4  52
TORSDOF 16
ENDMDL
MODEL 3
REMARK VINA RESULT:    -6.943      5.311     10.853
REMARK INTER + INTRA:         -13.462
REMARK INTER:                 -10.898
REMARK INTRA:                  -2.564
REMARK UNBOUND:                -2.054
REMARK SMILES C[C@@H]1O[C@@H](OC[C@H]2O[C@@H](Oc3c(-c4ccc(O)c(O)c4)oc4cc(O)cc(O)c4c3=O)[C@H](O)[C@@H](O)[C@@H]2O)[C@H](O)[C@H](O)[C@@H]1O
REMARK SMILES IDX 7 1 36 2 34 3 32 4 9 5 8 6 6 7 5 8 4 9 1 10 2 11 42 12 3 13
REMARK SMILES IDX 40 14 38 15 43 16 41 18 39 20 37 22 35 24 10 26 11 27 12 28
REMARK SMILES IDX 30 29 21 30 29 31 31 32 22 33 27 34 23 35 26 36 24 37 13 38
REMARK SMILES IDX 20 39 14 40 18 41 15 42 16 43 19 44 17 46 28 48 25 50 33 52
REMARK H PARENT 43 17 41 19 39 21 37 23 35 25 19 45 17 47 28 49 25 51 33 53
REMARK Flexibility Score: inf
ROOT
ATOM      1  C   UNL     1      28.696   1.993 102.986  1.00  0.00     0.180 C 
ATOM      2  C   UNL     1      28.543   3.344 103.752  1.00  0.00     0.177 C 
ATOM      3  C   UNL     1      29.758   3.617 104.656  1.00  0.00     0.180 C 
ATOM      4  C   UNL     1      31.042   3.424 103.840  1.00  0.00     0.214 C 
ATOM      5  C   UNL     1      31.018   1.991 103.295  1.00  0.00     0.339 C 
ATOM      6  O   UNL     1      29.964   1.876 102.364  1.00  0.00    -0.332 OA
ENDROOT
BRANCH   1   7
ATOM      7  C   UNL     1      27.628   1.877 101.879  1.00  0.00     0.198 C 
BRANCH   7   8
ATOM      8  O   UNL     1      27.004   0.610 101.971  1.00  0.00    -0.347 OA
BRANCH   8   9
ATOM      9  C   UNL     1      27.259  -0.240 100.859  1.00  0.00     0.281 C 
ATOM     10  C   UNL     1      24.651  -2.765 101.523  1.00  0.00     0.041 C 
ATOM     11  C   UNL     1      25.901  -1.923 101.786  1.00  0.00     0.150 C 
ATOM     12  C   UNL     1      27.107  -2.829 102.139  1.00  0.00     0.174 C 
ATOM     13  O   UNL     1      26.169  -1.125 100.637  1.00  0.00    -0.344 OA
ATOM     14  C   UNL     1      28.368  -1.959 102.313  1.00  0.00     0.179 C 
ATOM     15  C   UNL     1      28.552  -1.034 101.101  1.00  0.00     0.202 C 
BRANCH  12  16
ATOM     16  O   UNL     1      27.305  -3.790 101.132  1.00  0.00    -0.388 OA
ATOM     17  H   UNL     1      27.057  -3.363 100.274  1.00  0.00     0.211 HD
ENDBRANCH  12  16
BRANCH  14  18
ATOM     18  O   UNL     1      29.515  -2.750 102.493  1.00  0.00    -0.387 OA
ATOM     19  H   UNL     1      30.096  -2.262 103.138  1.00  0.00     0.211 HD
ENDBRANCH  14  18
BRANCH  15  20
ATOM     20  O   UNL     1      28.851  -1.784  99.947  1.00  0.00    -0.385 OA
ATOM     21  H   UNL     1      29.332  -2.596 100.249  1.00  0.00     0.211 HD
ENDBRANCH  15  20
ENDBRANCH   8   9
ENDBRANCH   7   8
ENDBRANCH   1   7
BRANCH   2  22
ATOM     22  O   UNL     1      27.383   3.313 104.542  1.00  0.00    -0.387 OA
ATOM     23  H   UNL     1      26.607   3.371 103.928  1.00  0.00     0.211 HD
ENDBRANCH   2  22
BRANCH   3  24
ATOM     24  O   UNL     1      29.660   4.929 105.148  1.00  0.00    -0.387 OA
ATOM     25  H   UNL     1      28.876   4.950 105.760  1.00  0.00     0.211 HD
ENDBRANCH   3  24
BRANCH   5  26
ATOM     26  O   UNL     1      32.245   1.716 102.619  1.00  0.00    -0.454 OA
BRANCH  26  27
ATOM     27  C   UNL     1      32.431   0.812 101.548  1.00  0.00     0.214 A 
ATOM     28  C   UNL     1      32.778   1.348 100.296  1.00  0.00     0.180 A 
ATOM     29  C   UNL     1      32.305  -0.595 101.659  1.00  0.00     0.239 A 
ATOM     30  O   UNL     1      33.041   0.556  99.266  1.00  0.00    -0.452 OA
ATOM     31  C   UNL     1      32.616  -1.409 100.547  1.00  0.00     0.111 A 
ATOM     32  O   UNL     1      31.915  -1.125 102.731  1.00  0.00    -0.285 OA
ATOM     33  C   UNL     1      32.996  -0.769  99.342  1.00  0.00     0.146 A 
ATOM     34  C   UNL     1      32.591  -2.825 100.593  1.00  0.00     0.134 A 
ATOM     35  C   UNL     1      33.332  -1.530  98.217  1.00  0.00     0.094 A 
ATOM     36  C   UNL     1      32.933  -3.569  99.457  1.00  0.00     0.093 A 
ATOM     37  C   UNL     1      33.301  -2.931  98.273  1.00  0.00     0.123 A 
BRANCH  28  38
ATOM     38  C   UNL     1      32.801   2.804 100.094  1.00  0.00     0.025 A 
ATOM     39  C   UNL     1      32.129   3.374  99.005  1.00  0.00     0.062 A 
ATOM     40  C   UNL     1      33.454   3.632 101.019  1.00  0.00     0.016 A 
ATOM     41  C   UNL     1      32.072   4.764  98.843  1.00  0.00     0.158 A 
ATOM     42  C   UNL     1      33.437   5.012 100.849  1.00  0.00     0.051 A 
ATOM     43  C   UNL     1      32.736   5.592  99.787  1.00  0.00     0.157 A 
BRANCH  41  44
ATOM     44  O   UNL     1      31.343   5.275  97.768  1.00  0.00    -0.504 OA
ATOM     45  H   UNL     1      30.612   5.965  97.869  1.00  0.00     0.293 HD
ENDBRANCH  41  44
BRANCH  43  46
ATOM     46  O   UNL     1      32.715   6.984  99.711  1.00  0.00    -0.504 OA
ATOM     47  H   UNL     1      31.868   7.534  99.608  1.00  0.00     0.293 HD
ENDBRANCH  43  46
ENDBRANCH  28  38
BRANCH  34  48
ATOM     48  O   UNL     1      32.222  -3.505 101.755  1.00  0.00    -0.507 OA
ATOM     49  H   UNL     1      32.786  -3.493 102.590  1.00  0.00     0.293 HD
ENDBRANCH  34  48
BRANCH  37  50
ATOM     50  O   UNL     1      33.634  -3.693  97.150  1.00  0.00    -0.508 OA
ATOM     51  H   UNL     1      34.462  -3.492  96.598  1.00  0.00     0.293 HD
ENDBRANCH  37  50
ENDBRANCH  26  27
ENDBRANCH   5  26
BRANCH   4  52
ATOM     52  O   UNL     1      32.180   3.619 104.641  1.00  0.00    -0.384 OA
ATOM     53  H   UNL     1      31.881   3.466 105.579  1.00  0.00     0.211 HD
ENDBRANCH   4  52
TORSDOF 16
ENDMDL
MODEL 4
REMARK VINA RESULT:    -6.930      4.299      8.126
REMARK INTER + INTRA:         -13.441
REMARK INTER:                 -10.704
REMARK INTRA:                  -2.737
REMARK UNBOUND:                -2.054
REMARK SMILES C[C@@H]1O[C@@H](OC[C@H]2O[C@@H](Oc3c(-c4ccc(O)c(O)c4)oc4cc(O)cc(O)c4c3=O)[C@H](O)[C@@H](O)[C@@H]2O)[C@H](O)[C@H](O)[C@@H]1O
REMARK SMILES IDX 7 1 36 2 34 3 32 4 9 5 8 6 6 7 5 8 4 9 1 10 2 11 42 12 3 13
REMARK SMILES IDX 40 14 38 15 43 16 41 18 39 20 37 22 35 24 10 26 11 27 12 28
REMARK SMILES IDX 30 29 21 30 29 31 31 32 22 33 27 34 23 35 26 36 24 37 13 38
REMARK SMILES IDX 20 39 14 40 18 41 15 42 16 43 19 44 17 46 28 48 25 50 33 52
REMARK H PARENT 43 17 41 19 39 21 37 23 35 25 19 45 17 47 28 49 25 51 33 53
REMARK Flexibility Score: inf
ROOT
ATOM      1  C   UNL     1      31.460  -0.121 103.812  1.00  0.00     0.180 C 
ATOM      2  C   UNL     1      32.769  -0.294 102.979  1.00  0.00     0.177 C 
ATOM      3  C   UNL     1      32.573  -1.295 101.827  1.00  0.00     0.180 C 
ATOM      4  C   UNL     1      31.302  -0.923 101.053  1.00  0.00     0.214 C 
ATOM      5  C   UNL     1      30.143  -0.940 102.057  1.00  0.00     0.339 C 
ATOM      6  O   UNL     1      30.332   0.106 102.986  1.00  0.00    -0.332 OA
ENDROOT
BRANCH   1   7
ATOM      7  C   UNL     1      31.584   1.086 104.765  1.00  0.00     0.198 C 
BRANCH   7   8
ATOM      8  O   UNL     1      32.260   2.134 104.095  1.00  0.00    -0.347 OA
BRANCH   8   9
ATOM      9  C   UNL     1      31.409   3.193 103.674  1.00  0.00     0.281 C 
ATOM     10  C   UNL     1      31.989   2.917 100.040  1.00  0.00     0.041 C 
ATOM     11  C   UNL     1      32.338   3.134 101.514  1.00  0.00     0.150 C 
ATOM     12  C   UNL     1      33.100   4.469 101.706  1.00  0.00     0.174 C 
ATOM     13  O   UNL     1      31.139   3.104 102.281  1.00  0.00    -0.344 OA
ATOM     14  C   UNL     1      33.362   4.699 103.207  1.00  0.00     0.179 C 
ATOM     15  C   UNL     1      32.060   4.544 104.008  1.00  0.00     0.202 C 
BRANCH  12  16
ATOM     16  O   UNL     1      32.359   5.533 101.164  1.00  0.00    -0.388 OA
ATOM     17  H   UNL     1      32.905   5.923 100.437  1.00  0.00     0.211 HD
ENDBRANCH  12  16
BRANCH  14  18
ATOM     18  O   UNL     1      33.923   5.965 103.442  1.00  0.00    -0.387 OA
ATOM     19  H   UNL     1      33.903   6.104 104.428  1.00  0.00     0.211 HD
ENDBRANCH  14  18
BRANCH  15  20
ATOM     20  O   UNL     1      31.158   5.578 103.689  1.00  0.00    -0.385 OA
ATOM     21  H   UNL     1      31.062   5.582 102.703  1.00  0.00     0.211 HD
ENDBRANCH  15  20
ENDBRANCH   8   9
ENDBRANCH   7   8
ENDBRANCH   1   7
BRANCH   2  22
ATOM     22  O   UNL     1      33.804  -0.750 103.810  1.00  0.00    -0.387 OA
ATOM     23  H   UNL     1      34.456  -1.225 103.235  1.00  0.00     0.211 HD
ENDBRANCH   2  22
BRANCH   3  24
ATOM     24  O   UNL     1      33.706  -1.246 100.998  1.00  0.00    -0.387 OA
ATOM     25  H   UNL     1      34.443  -1.696 101.492  1.00  0.00     0.211 HD
ENDBRANCH   3  24
BRANCH   5  26
ATOM     26  O   UNL     1      28.913  -0.711 101.370  1.00  0.00    -0.454 OA
BRANCH  26  27
ATOM     27  C   UNL     1      27.677  -1.352 101.620  1.00  0.00     0.214 A 
ATOM     28  C   UNL     1      26.703  -0.633 102.335  1.00  0.00     0.180 A 
ATOM     29  C   UNL     1      27.354  -2.662 101.187  1.00  0.00     0.239 A 
ATOM     30  O   UNL     1      25.497  -1.142 102.541  1.00  0.00    -0.452 OA
ATOM     31  C   UNL     1      26.051  -3.162 101.405  1.00  0.00     0.111 A 
ATOM     32  O   UNL     1      28.213  -3.384 100.619  1.00  0.00    -0.285 OA
ATOM     33  C   UNL     1      25.131  -2.339 102.100  1.00  0.00     0.146 A 
ATOM     34  C   UNL     1      25.620  -4.428 100.937  1.00  0.00     0.134 A 
ATOM     35  C   UNL     1      23.823  -2.780 102.324  1.00  0.00     0.094 A 
ATOM     36  C   UNL     1      24.305  -4.851 101.170  1.00  0.00     0.093 A 
ATOM     37  C   UNL     1      23.408  -4.037 101.860  1.00  0.00     0.123 A 
BRANCH  28  38
ATOM     38  C   UNL     1      27.029   0.679 102.914  1.00  0.00     0.025 A 
ATOM     39  C   UNL     1      27.399   0.780 104.262  1.00  0.00     0.062 A 
ATOM     40  C   UNL     1      27.017   1.826 102.107  1.00  0.00     0.016 A 
ATOM     41  C   UNL     1      27.790   2.010 104.809  1.00  0.00     0.158 A 
ATOM     42  C   UNL     1      27.368   3.058 102.648  1.00  0.00     0.051 A 
ATOM     43  C   UNL     1      27.776   3.163 103.982  1.00  0.00     0.157 A 
BRANCH  41  44
ATOM     44  O   UNL     1      28.200   2.039 106.142  1.00  0.00    -0.504 OA
ATOM     45  H   UNL     1      27.599   2.324 106.903  1.00  0.00     0.293 HD
ENDBRANCH  41  44
BRANCH  43  46
ATOM     46  O   UNL     1      28.167   4.421 104.440  1.00  0.00    -0.504 OA
ATOM     47  H   UNL     1      28.201   5.252 103.858  1.00  0.00     0.293 HD
ENDBRANCH  43  46
ENDBRANCH  28  38
BRANCH  34  48
ATOM     48  O   UNL     1      26.487  -5.279 100.249  1.00  0.00    -0.507 OA
ATOM     49  H   UNL     1      26.156  -6.063  99.709  1.00  0.00     0.293 HD
ENDBRANCH  34  48
BRANCH  37  50
ATOM     50  O   UNL     1      22.103  -4.480 102.085  1.00  0.00    -0.508 OA
ATOM     51  H   UNL     1      21.825  -5.438 101.890  1.00  0.00     0.293 HD
ENDBRANCH  37  50
ENDBRANCH  26  27
ENDBRANCH   5  26
BRANCH   4  52
ATOM     52  O   UNL     1      31.058  -1.842 100.018  1.00  0.00    -0.384 OA
ATOM     53  H   UNL     1      31.934  -2.279  99.831  1.00  0.00     0.211 HD
ENDBRANCH   4  52
TORSDOF 16
ENDMDL
MODEL 5
REMARK VINA RESULT:    -6.891      5.375     10.953
REMARK INTER + INTRA:         -13.377
REMARK INTER:                 -11.606
REMARK INTRA:                  -1.771
REMARK UNBOUND:                -2.054
REMARK SMILES C[C@@H]1O[C@@H](OC[C@H]2O[C@@H](Oc3c(-c4ccc(O)c(O)c4)oc4cc(O)cc(O)c4c3=O)[C@H](O)[C@@H](O)[C@@H]2O)[C@H](O)[C@H](O)[C@@H]1O
REMARK SMILES IDX 7 1 36 2 34 3 32 4 9 5 8 6 6 7 5 8 4 9 1 10 2 11 42 12 3 13
REMARK SMILES IDX 40 14 38 15 43 16 41 18 39 20 37 22 35 24 10 26 11 27 12 28
REMARK SMILES IDX 30 29 21 30 29 31 31 32 22 33 27 34 23 35 26 36 24 37 13 38
REMARK SMILES IDX 20 39 14 40 18 41 15 42 16 43 19 44 17 46 28 48 25 50 33 52
REMARK H PARENT 43 17 41 19 39 21 37 23 35 25 19 45 17 47 28 49 25 51 33 53
REMARK Flexibility Score: inf
ROOT
ATOM      1  C   UNL     1      28.882   1.727 102.955  1.00  0.00     0.180 C 
ATOM      2  C   UNL     1      28.784   2.839 104.046  1.00  0.00     0.177 C 
ATOM      3  C   UNL     1      30.042   2.866 104.933  1.00  0.00     0.180 C 
ATOM      4  C   UNL     1      31.286   2.881 104.037  1.00  0.00     0.214 C 
ATOM      5  C   UNL     1      31.214   1.633 103.147  1.00  0.00     0.339 C 
ATOM      6  O   UNL     1      30.119   1.765 102.267  1.00  0.00    -0.332 OA
ENDROOT
BRANCH   1   7
ATOM      7  C   UNL     1      27.765   1.903 101.906  1.00  0.00     0.198 C 
BRANCH   7   8
ATOM      8  O   UNL     1      27.700   0.739 101.103  1.00  0.00    -0.347 OA
BRANCH   8   9
ATOM      9  C   UNL     1      27.225  -0.411 101.793  1.00  0.00     0.281 C 
ATOM     10  C   UNL     1      29.043  -2.972  99.855  1.00  0.00     0.041 C 
ATOM     11  C   UNL     1      28.069  -1.819 100.108  1.00  0.00     0.150 C 
ATOM     12  C   UNL     1      26.661  -2.160  99.561  1.00  0.00     0.174 C 
ATOM     13  O   UNL     1      28.032  -1.545 101.505  1.00  0.00    -0.344 OA
ATOM     14  C   UNL     1      25.685  -1.018  99.906  1.00  0.00     0.179 C 
ATOM     15  C   UNL     1      25.764  -0.681 101.403  1.00  0.00     0.202 C 
BRANCH  12  16
ATOM     16  O   UNL     1      26.211  -3.377 100.104  1.00  0.00    -0.388 OA
ATOM     17  H   UNL     1      25.228  -3.306 100.192  1.00  0.00     0.211 HD
ENDBRANCH  12  16
BRANCH  14  18
ATOM     18  O   UNL     1      24.365  -1.349  99.557  1.00  0.00    -0.387 OA
ATOM     19  H   UNL     1      23.832  -1.306 100.397  1.00  0.00     0.211 HD
ENDBRANCH  14  18
BRANCH  15  20
ATOM     20  O   UNL     1      25.274  -1.751 102.177  1.00  0.00    -0.385 OA
ATOM     21  H   UNL     1      25.389  -1.495 103.127  1.00  0.00     0.211 HD
ENDBRANCH  15  20
ENDBRANCH   8   9
ENDBRANCH   7   8
ENDBRANCH   1   7
BRANCH   2  22
ATOM     22  O   UNL     1      27.659   2.614 104.854  1.00  0.00    -0.387 OA
ATOM     23  H   UNL     1      27.953   2.062 105.623  1.00  0.00     0.211 HD
ENDBRANCH   2  22
BRANCH   3  24
ATOM     24  O   UNL     1      29.987   4.011 105.746  1.00  0.00    -0.387 OA
ATOM     25  H   UNL     1      30.916   4.364 105.808  1.00  0.00     0.211 HD
ENDBRANCH   3  24
BRANCH   5  26
ATOM     26  O   UNL     1      32.406   1.533 102.368  1.00  0.00    -0.454 OA
BRANCH  26  27
ATOM     27  C   UNL     1      32.611   0.696 101.247  1.00  0.00     0.214 A 
ATOM     28  C   UNL     1      32.909   1.312 100.019  1.00  0.00     0.180 A 
ATOM     29  C   UNL     1      32.548  -0.719 101.284  1.00  0.00     0.239 A 
ATOM     30  O   UNL     1      33.186   0.588  98.944  1.00  0.00    -0.452 OA
ATOM     31  C   UNL     1      32.872  -1.458 100.125  1.00  0.00     0.111 A 
ATOM     32  O   UNL     1      32.202  -1.322 102.333  1.00  0.00    -0.285 OA
ATOM     33  C   UNL     1      33.200  -0.739  98.950  1.00  0.00     0.146 A 
ATOM     34  C   UNL     1      32.911  -2.874 100.096  1.00  0.00     0.134 A 
ATOM     35  C   UNL     1      33.547  -1.424  97.780  1.00  0.00     0.094 A 
ATOM     36  C   UNL     1      33.262  -3.541  98.915  1.00  0.00     0.093 A 
ATOM     37  C   UNL     1      33.578  -2.826  97.761  1.00  0.00     0.123 A 
BRANCH  28  38
ATOM     38  C   UNL     1      32.864   2.776  99.896  1.00  0.00     0.025 A 
ATOM     39  C   UNL     1      32.200   3.371  98.815  1.00  0.00     0.062 A 
ATOM     40  C   UNL     1      33.443   3.584 100.886  1.00  0.00     0.016 A 
ATOM     41  C   UNL     1      32.078   4.765  98.725  1.00  0.00     0.158 A 
ATOM     42  C   UNL     1      33.361   4.969 100.789  1.00  0.00     0.051 A 
ATOM     43  C   UNL     1      32.667   5.571  99.734  1.00  0.00     0.157 A 
BRANCH  41  44
ATOM     44  O   UNL     1      31.359   5.297  97.654  1.00  0.00    -0.504 OA
ATOM     45  H   UNL     1      31.520   5.036  96.691  1.00  0.00     0.293 HD
ENDBRANCH  41  44
BRANCH  43  46
ATOM     46  O   UNL     1      32.578   6.962  99.731  1.00  0.00    -0.504 OA
ATOM     47  H   UNL     1      33.178   7.568  99.181  1.00  0.00     0.293 HD
ENDBRANCH  43  46
ENDBRANCH  28  38
BRANCH  34  48
ATOM     48  O   UNL     1      32.594  -3.631 101.225  1.00  0.00    -0.507 OA
ATOM     49  H   UNL     1      32.831  -3.332 102.158  1.00  0.00     0.293 HD
ENDBRANCH  34  48
BRANCH  37  50
ATOM     50  O   UNL     1      33.922  -3.511  96.593  1.00  0.00    -0.508 OA
ATOM     51  H   UNL     1      34.787  -3.318  96.098  1.00  0.00     0.293 HD
ENDBRANCH  37  50
ENDBRANCH  26  27
ENDBRANCH   5  26
BRANCH   4  52
ATOM     52  O   UNL     1      32.461   2.859 104.808  1.00  0.00    -0.384 OA
ATOM     53  H   UNL     1      32.670   3.811 105.011  1.00  0.00     0.211 HD
ENDBRANCH   4  52
TORSDOF 16
ENDMDL
MODEL 6
REMARK VINA RESULT:    -6.794      3.555      8.848
REMARK INTER + INTRA:         -13.217
REMARK INTER:                 -10.814
REMARK INTRA:                  -2.403
REMARK UNBOUND:                -2.054
REMARK SMILES C[C@@H]1O[C@@H](OC[C@H]2O[C@@H](Oc3c(-c4ccc(O)c(O)c4)oc4cc(O)cc(O)c4c3=O)[C@H](O)[C@@H](O)[C@@H]2O)[C@H](O)[C@H](O)[C@@H]1O
REMARK SMILES IDX 7 1 36 2 34 3 32 4 9 5 8 6 6 7 5 8 4 9 1 10 2 11 42 12 3 13
REMARK SMILES IDX 40 14 38 15 43 16 41 18 39 20 37 22 35 24 10 26 11 27 12 28
REMARK SMILES IDX 30 29 21 30 29 31 31 32 22 33 27 34 23 35 26 36 24 37 13 38
REMARK SMILES IDX 20 39 14 40 18 41 15 42 16 43 19 44 17 46 28 48 25 50 33 52
REMARK H PARENT 43 17 41 19 39 21 37 23 35 25 19 45 17 47 28 49 25 51 33 53
REMARK Flexibility Score: inf
ROOT
ATOM      1  C   UNL     1      27.169  -3.317 100.799  1.00  0.00     0.180 C 
ATOM      2  C   UNL     1      27.523  -4.102  99.498  1.00  0.00     0.177 C 
ATOM      3  C   UNL     1      28.576  -3.354  98.660  1.00  0.00     0.180 C 
ATOM      4  C   UNL     1      29.745  -2.954  99.569  1.00  0.00     0.214 C 
ATOM      5  C   UNL     1      29.163  -2.092 100.697  1.00  0.00     0.339 C 
ATOM      6  O   UNL     1      28.327  -2.899 101.499  1.00  0.00    -0.332 OA
ENDROOT
BRANCH   1   7
ATOM      7  C   UNL     1      26.347  -4.205 101.757  1.00  0.00     0.198 C 
BRANCH   7   8
ATOM      8  O   UNL     1      25.033  -4.338 101.248  1.00  0.00    -0.347 OA
BRANCH   8   9
ATOM      9  C   UNL     1      24.081  -3.496 101.884  1.00  0.00     0.281 C 
ATOM     10  C   UNL     1      22.230  -6.101 103.730  1.00  0.00     0.041 C 
ATOM     11  C   UNL     1      22.794  -5.362 102.515  1.00  0.00     0.150 C 
ATOM     12  C   UNL     1      21.672  -5.048 101.495  1.00  0.00     0.174 C 
ATOM     13  O   UNL     1      23.441  -4.173 102.958  1.00  0.00    -0.344 OA
ATOM     14  C   UNL     1      22.256  -4.230 100.325  1.00  0.00     0.179 C 
ATOM     15  C   UNL     1      23.041  -3.022 100.857  1.00  0.00     0.202 C 
BRANCH  12  16
ATOM     16  O   UNL     1      20.630  -4.342 102.120  1.00  0.00    -0.388 OA
ATOM     17  H   UNL     1      20.689  -3.405 101.808  1.00  0.00     0.211 HD
ENDBRANCH  12  16
BRANCH  14  18
ATOM     18  O   UNL     1      21.247  -3.799  99.448  1.00  0.00    -0.387 OA
ATOM     19  H   UNL     1      20.395  -3.827  99.963  1.00  0.00     0.211 HD
ENDBRANCH  14  18
BRANCH  15  20
ATOM     20  O   UNL     1      22.173  -2.101 101.475  1.00  0.00    -0.385 OA
ATOM     21  H   UNL     1      22.390  -2.105 102.442  1.00  0.00     0.211 HD
ENDBRANCH  15  20
ENDBRANCH   8   9
ENDBRANCH   7   8
ENDBRANCH   1   7
BRANCH   2  22
ATOM     22  O   UNL     1      26.368  -4.284  98.723  1.00  0.00    -0.387 OA
ATOM     23  H   UNL     1      26.378  -5.219  98.392  1.00  0.00     0.211 HD
ENDBRANCH   2  22
BRANCH   3  24
ATOM     24  O   UNL     1      29.005  -4.202  97.625  1.00  0.00    -0.387 OA
ATOM     25  H   UNL     1      29.795  -4.699  97.969  1.00  0.00     0.211 HD
ENDBRANCH   3  24
BRANCH   5  26
ATOM     26  O   UNL     1      30.223  -1.595 101.513  1.00  0.00    -0.454 OA
BRANCH  26  27
ATOM     27  C   UNL     1      30.634  -0.247 101.629  1.00  0.00     0.214 A 
ATOM     28  C   UNL     1      29.882   0.593 102.469  1.00  0.00     0.180 A 
ATOM     29  C   UNL     1      31.758   0.307 100.968  1.00  0.00     0.239 A 
ATOM     30  O   UNL     1      30.252   1.848 102.685  1.00  0.00    -0.452 OA
ATOM     31  C   UNL     1      32.135   1.640 101.240  1.00  0.00     0.111 A 
ATOM     32  O   UNL     1      32.418  -0.373 100.139  1.00  0.00    -0.285 OA
ATOM     33  C   UNL     1      31.332   2.388 102.134  1.00  0.00     0.146 A 
ATOM     34  C   UNL     1      33.288   2.247 100.682  1.00  0.00     0.134 A 
ATOM     35  C   UNL     1      31.674   3.707 102.452  1.00  0.00     0.094 A 
ATOM     36  C   UNL     1      33.614   3.568 101.014  1.00  0.00     0.093 A 
ATOM     37  C   UNL     1      32.815   4.299 101.892  1.00  0.00     0.123 A 
BRANCH  28  38
ATOM     38  C   UNL     1      28.637   0.105 103.081  1.00  0.00     0.025 A 
ATOM     39  C   UNL     1      27.408   0.324 102.445  1.00  0.00     0.062 A 
ATOM     40  C   UNL     1      28.680  -0.623 104.278  1.00  0.00     0.016 A 
ATOM     41  C   UNL     1      26.222  -0.204 102.972  1.00  0.00     0.158 A 
ATOM     42  C   UNL     1      27.505  -1.121 104.832  1.00  0.00     0.051 A 
ATOM     43  C   UNL     1      26.279  -0.941 104.184  1.00  0.00     0.157 A 
BRANCH  41  44
ATOM     44  O   UNL     1      25.036   0.002 102.265  1.00  0.00    -0.504 OA
ATOM     45  H   UNL     1      24.912  -0.258 101.297  1.00  0.00     0.293 HD
ENDBRANCH  41  44
BRANCH  43  46
ATOM     46  O   UNL     1      25.150  -1.515 104.767  1.00  0.00    -0.504 OA
ATOM     47  H   UNL     1      24.952  -2.511 104.761  1.00  0.00     0.293 HD
ENDBRANCH  43  46
ENDBRANCH  28  38
BRANCH  34  48
ATOM     48  O   UNL     1      34.113   1.555  99.793  1.00  0.00    -0.507 OA
ATOM     49  H   UNL     1      34.927   1.045 100.098  1.00  0.00     0.293 HD
ENDBRANCH  34  48
BRANCH  37  50
ATOM     50  O   UNL     1      33.156   5.617 102.205  1.00  0.00    -0.508 OA
ATOM     51  H   UNL     1      34.055   5.850 102.617  1.00  0.00     0.293 HD
ENDBRANCH  37  50
ENDBRANCH  26  27
ENDBRANCH   5  26
BRANCH   4  52
ATOM     52  O   UNL     1      30.710  -2.225  98.853  1.00  0.00    -0.384 OA
ATOM     53  H   UNL     1      31.406  -2.886  98.586  1.00  0.00     0.211 HD
ENDBRANCH   4  52
TORSDOF 16
ENDMDL
MODEL 7
REMARK VINA RESULT:    -6.793      4.523      9.148
REMARK INTER + INTRA:         -13.215
REMARK INTER:                 -11.221
REMARK INTRA:                  -1.994
REMARK UNBOUND:                -2.054
REMARK SMILES C[C@@H]1O[C@@H](OC[C@H]2O[C@@H](Oc3c(-c4ccc(O)c(O)c4)oc4cc(O)cc(O)c4c3=O)[C@H](O)[C@@H](O)[C@@H]2O)[C@H](O)[C@H](O)[C@@H]1O
REMARK SMILES IDX 7 1 36 2 34 3 32 4 9 5 8 6 6 7 5 8 4 9 1 10 2 11 42 12 3 13
REMARK SMILES IDX 40 14 38 15 43 16 41 18 39 20 37 22 35 24 10 26 11 27 12 28
REMARK SMILES IDX 30 29 21 30 29 31 31 32 22 33 27 34 23 35 26 36 24 37 13 38
REMARK SMILES IDX 20 39 14 40 18 41 15 42 16 43 19 44 17 46 28 48 25 50 33 52
REMARK H PARENT 43 17 41 19 39 21 37 23 35 25 19 45 17 47 28 49 25 51 33 53
REMARK Flexibility Score: inf
ROOT
ATOM      1  C   UNL     1      29.075  -2.623 105.941  1.00  0.00     0.180 C 
ATOM      2  C   UNL     1      28.575  -3.878 105.160  1.00  0.00     0.177 C 
ATOM      3  C   UNL     1      27.185  -3.638 104.543  1.00  0.00     0.180 C 
ATOM      4  C   UNL     1      27.200  -2.307 103.782  1.00  0.00     0.214 C 
ATOM      5  C   UNL     1      27.600  -1.218 104.785  1.00  0.00     0.339 C 
ATOM      6  O   UNL     1      28.937  -1.435 105.182  1.00  0.00    -0.332 OA
ENDROOT
BRANCH   1   7
ATOM      7  C   UNL     1      30.569  -2.770 106.297  1.00  0.00     0.198 C 
BRANCH   7   8
ATOM      8  O   UNL     1      30.682  -3.204 107.640  1.00  0.00    -0.347 OA
BRANCH   8   9
ATOM      9  C   UNL     1      29.928  -2.425 108.561  1.00  0.00     0.281 C 
ATOM     10  C   UNL     1      32.749  -0.827 110.325  1.00  0.00     0.041 C 
ATOM     11  C   UNL     1      31.864  -1.968 109.818  1.00  0.00     0.150 C 
ATOM     12  C   UNL     1      31.434  -2.889 110.986  1.00  0.00     0.174 C 
ATOM     13  O   UNL     1      30.735  -1.413 109.150  1.00  0.00    -0.344 OA
ATOM     14  C   UNL     1      30.477  -3.975 110.458  1.00  0.00     0.179 C 
ATOM     15  C   UNL     1      29.338  -3.337 109.648  1.00  0.00     0.202 C 
BRANCH  12  16
ATOM     16  O   UNL     1      30.815  -2.134 111.998  1.00  0.00    -0.388 OA
ATOM     17  H   UNL     1      30.847  -2.678 112.824  1.00  0.00     0.211 HD
ENDBRANCH  12  16
BRANCH  14  18
ATOM     18  O   UNL     1      29.947  -4.746 111.507  1.00  0.00    -0.387 OA
ATOM     19  H   UNL     1      29.809  -4.123 112.272  1.00  0.00     0.211 HD
ENDBRANCH  14  18
BRANCH  15  20
ATOM     20  O   UNL     1      28.504  -2.571 110.486  1.00  0.00    -0.385 OA
ATOM     21  H   UNL     1      27.727  -2.290 109.938  1.00  0.00     0.211 HD
ENDBRANCH  15  20
ENDBRANCH   8   9
ENDBRANCH   7   8
ENDBRANCH   1   7
BRANCH   2  22
ATOM     22  O   UNL     1      28.507  -4.981 106.026  1.00  0.00    -0.387 OA
ATOM     23  H   UNL     1      29.409  -5.390 106.054  1.00  0.00     0.211 HD
ENDBRANCH   2  22
BRANCH   3  24
ATOM     24  O   UNL     1      26.888  -4.711 103.687  1.00  0.00    -0.387 OA
ATOM     25  H   UNL     1      26.899  -4.350 102.759  1.00  0.00     0.211 HD
ENDBRANCH   3  24
BRANCH   5  26
ATOM     26  O   UNL     1      27.520   0.062 104.158  1.00  0.00    -0.454 OA
BRANCH  26  27
ATOM     27  C   UNL     1      28.604   0.918 103.854  1.00  0.00     0.214 A 
ATOM     28  C   UNL     1      29.140   0.854 102.556  1.00  0.00     0.180 A 
ATOM     29  C   UNL     1      29.173   1.842 104.765  1.00  0.00     0.239 A 
ATOM     30  O   UNL     1      30.106   1.679 102.177  1.00  0.00    -0.452 OA
ATOM     31  C   UNL     1      30.185   2.721 104.319  1.00  0.00     0.111 A 
ATOM     32  O   UNL     1      28.792   1.884 105.963  1.00  0.00    -0.285 OA
ATOM     33  C   UNL     1      30.625   2.601 102.979  1.00  0.00     0.146 A 
ATOM     34  C   UNL     1      30.753   3.726 105.140  1.00  0.00     0.134 A 
ATOM     35  C   UNL     1      31.611   3.460 102.483  1.00  0.00     0.094 A 
ATOM     36  C   UNL     1      31.739   4.577 104.625  1.00  0.00     0.093 A 
ATOM     37  C   UNL     1      32.171   4.449 103.305  1.00  0.00     0.123 A 
BRANCH  28  38
ATOM     38  C   UNL     1      28.671  -0.171 101.612  1.00  0.00     0.025 A 
ATOM     39  C   UNL     1      27.475   0.018 100.906  1.00  0.00     0.062 A 
ATOM     40  C   UNL     1      29.444  -1.317 101.377  1.00  0.00     0.016 A 
ATOM     41  C   UNL     1      27.055  -0.909  99.943  1.00  0.00     0.158 A 
ATOM     42  C   UNL     1      29.019  -2.263 100.450  1.00  0.00     0.051 A 
ATOM     43  C   UNL     1      27.847  -2.065  99.713  1.00  0.00     0.157 A 
BRANCH  41  44
ATOM     44  O   UNL     1      25.883  -0.641  99.234  1.00  0.00    -0.504 OA
ATOM     45  H   UNL     1      24.974  -0.985  99.510  1.00  0.00     0.293 HD
ENDBRANCH  41  44
BRANCH  43  46
ATOM     46  O   UNL     1      27.512  -3.028  98.762  1.00  0.00    -0.504 OA
ATOM     47  H   UNL     1      28.141  -3.347  98.032  1.00  0.00     0.293 HD
ENDBRANCH  43  46
ENDBRANCH  28  38
BRANCH  34  48
ATOM     48  O   UNL     1      30.357   3.885 106.470  1.00  0.00    -0.507 OA
ATOM     49  H   UNL     1      30.601   4.699 107.011  1.00  0.00     0.293 HD
ENDBRANCH  34  48
BRANCH  37  50
ATOM     50  O   UNL     1      33.158   5.306 102.813  1.00  0.00    -0.508 OA
ATOM     51  H   UNL     1      34.127   5.226 103.107  1.00  0.00     0.293 HD
ENDBRANCH  37  50
ENDBRANCH  26  27
ENDBRANCH   5  26
BRANCH   4  52
ATOM     52  O   UNL     1      25.934  -2.025 103.240  1.00  0.00    -0.384 OA
ATOM     53  H   UNL     1      25.678  -2.831 102.714  1.00  0.00     0.211 HD
ENDBRANCH   4  52
TORSDOF 16
ENDMDL
MODEL 8
REMARK VINA RESULT:    -6.660      2.287      4.787
REMARK INTER + INTRA:         -12.998
REMARK INTER:                 -10.117
REMARK INTRA:                  -2.881
REMARK UNBOUND:                -2.054
REMARK SMILES C[C@@H]1O[C@@H](OC[C@H]2O[C@@H](Oc3c(-c4ccc(O)c(O)c4)oc4cc(O)cc(O)c4c3=O)[C@H](O)[C@@H](O)[C@@H]2O)[C@H](O)[C@H](O)[C@@H]1O
REMARK SMILES IDX 7 1 36 2 34 3 32 4 9 5 8 6 6 7 5 8 4 9 1 10 2 11 42 12 3 13
REMARK SMILES IDX 40 14 38 15 43 16 41 18 39 20 37 22 35 24 10 26 11 27 12 28
REMARK SMILES IDX 30 29 21 30 29 31 31 32 22 33 27 34 23 35 26 36 24 37 13 38
REMARK SMILES IDX 20 39 14 40 18 41 15 42 16 43 19 44 17 46 28 48 25 50 33 52
REMARK H PARENT 43 17 41 19 39 21 37 23 35 25 19 45 17 47 28 49 25 51 33 53
REMARK Flexibility Score: inf
ROOT
ATOM      1  C   UNL     1      24.781  -2.647 101.290  1.00  0.00     0.180 C 
ATOM      2  C   UNL     1      23.708  -2.559 100.160  1.00  0.00     0.177 C 
ATOM      3  C   UNL     1      23.634  -3.867  99.352  1.00  0.00     0.180 C 
ATOM      4  C   UNL     1      23.525  -5.049 100.324  1.00  0.00     0.214 C 
ATOM      5  C   UNL     1      24.749  -4.989 101.246  1.00  0.00     0.339 C 
ATOM      6  O   UNL     1      24.654  -3.834 102.052  1.00  0.00    -0.332 OA
ENDROOT
BRANCH   1   7
ATOM      7  C   UNL     1      24.639  -1.458 102.262  1.00  0.00     0.198 C 
BRANCH   7   8
ATOM      8  O   UNL     1      25.789  -0.638 102.158  1.00  0.00    -0.347 OA
BRANCH   8   9
ATOM      9  C   UNL     1      27.009  -1.325 102.406  1.00  0.00     0.281 C 
ATOM     10  C   UNL     1      27.755   0.115 105.721  1.00  0.00     0.041 C 
ATOM     11  C   UNL     1      27.489   0.102 104.214  1.00  0.00     0.150 C 
ATOM     12  C   UNL     1      28.618   0.838 103.452  1.00  0.00     0.174 C 
ATOM     13  O   UNL     1      27.364  -1.249 103.781  1.00  0.00    -0.344 OA
ATOM     14  C   UNL     1      28.367   0.733 101.935  1.00  0.00     0.179 C 
ATOM     15  C   UNL     1      28.124  -0.729 101.533  1.00  0.00     0.202 C 
BRANCH  12  16
ATOM     16  O   UNL     1      29.869   0.288 103.785  1.00  0.00    -0.388 OA
ATOM     17  H   UNL     1      30.416   1.023 104.159  1.00  0.00     0.211 HD
ENDBRANCH  12  16
BRANCH  14  18
ATOM     18  O   UNL     1      29.440   1.263 101.199  1.00  0.00    -0.387 OA
ATOM     19  H   UNL     1      29.132   2.141 100.844  1.00  0.00     0.211 HD
ENDBRANCH  14  18
BRANCH  15  20
ATOM     20  O   UNL     1      29.297  -1.490 101.705  1.00  0.00    -0.385 OA
ATOM     21  H   UNL     1      29.497  -1.912 100.830  1.00  0.00     0.211 HD
ENDBRANCH  15  20
ENDBRANCH   8   9
ENDBRANCH   7   8
ENDBRANCH   1   7
BRANCH   2  22
ATOM     22  O   UNL     1      24.018  -1.501  99.291  1.00  0.00    -0.387 OA
ATOM     23  H   UNL     1      24.257  -0.719  99.852  1.00  0.00     0.211 HD
ENDBRANCH   2  22
BRANCH   3  24
ATOM     24  O   UNL     1      22.518  -3.802  98.502  1.00  0.00    -0.387 OA
ATOM     25  H   UNL     1      22.015  -4.652  98.623  1.00  0.00     0.211 HD
ENDBRANCH   3  24
BRANCH   5  26
ATOM     26  O   UNL     1      24.759  -6.132 102.100  1.00  0.00    -0.454 OA
BRANCH  26  27
ATOM     27  C   UNL     1      24.351  -6.175 103.453  1.00  0.00     0.214 A 
ATOM     28  C   UNL     1      25.336  -5.977 104.437  1.00  0.00     0.180 A 
ATOM     29  C   UNL     1      23.017  -6.389 103.880  1.00  0.00     0.239 A 
ATOM     30  O   UNL     1      25.014  -5.929 105.722  1.00  0.00    -0.452 OA
ATOM     31  C   UNL     1      22.707  -6.308 105.256  1.00  0.00     0.111 A 
ATOM     32  O   UNL     1      22.109  -6.655 103.050  1.00  0.00    -0.285 OA
ATOM     33  C   UNL     1      23.768  -6.063 106.161  1.00  0.00     0.146 A 
ATOM     34  C   UNL     1      21.389  -6.431 105.760  1.00  0.00     0.134 A 
ATOM     35  C   UNL     1      23.511  -5.954 107.532  1.00  0.00     0.094 A 
ATOM     36  C   UNL     1      21.152  -6.317 107.136  1.00  0.00     0.093 A 
ATOM     37  C   UNL     1      22.204  -6.082 108.022  1.00  0.00     0.123 A 
BRANCH  28  38
ATOM     38  C   UNL     1      26.752  -5.875 104.057  1.00  0.00     0.025 A 
ATOM     39  C   UNL     1      27.414  -4.642 104.137  1.00  0.00     0.062 A 
ATOM     40  C   UNL     1      27.458  -7.019 103.659  1.00  0.00     0.016 A 
ATOM     41  C   UNL     1      28.784  -4.543 103.856  1.00  0.00     0.158 A 
ATOM     42  C   UNL     1      28.809  -6.926 103.342  1.00  0.00     0.051 A 
ATOM     43  C   UNL     1      29.488  -5.709 103.456  1.00  0.00     0.157 A 
BRANCH  41  44
ATOM     44  O   UNL     1      29.400  -3.300 104.005  1.00  0.00    -0.504 OA
ATOM     45  H   UNL     1      29.851  -3.000 104.858  1.00  0.00     0.293 HD
ENDBRANCH  41  44
BRANCH  43  46
ATOM     46  O   UNL     1      30.854  -5.702 103.176  1.00  0.00    -0.504 OA
ATOM     47  H   UNL     1      31.271  -5.201 102.398  1.00  0.00     0.293 HD
ENDBRANCH  43  46
ENDBRANCH  28  38
BRANCH  34  48
ATOM     48  O   UNL     1      20.308  -6.675 104.911  1.00  0.00    -0.507 OA
ATOM     49  H   UNL     1      20.136  -7.581 104.505  1.00  0.00     0.293 HD
ENDBRANCH  34  48
BRANCH  37  50
ATOM     50  O   UNL     1      21.945  -5.977 109.391  1.00  0.00    -0.508 OA
ATOM     51  H   UNL     1      21.758  -5.079 109.829  1.00  0.00     0.293 HD
ENDBRANCH  37  50
ENDBRANCH  26  27
ENDBRANCH   5  26
BRANCH   4  52
ATOM     52  O   UNL     1      23.502  -6.270  99.628  1.00  0.00    -0.384 OA
ATOM     53  H   UNL     1      23.991  -6.919 100.203  1.00  0.00     0.211 HD
ENDBRANCH   4  52
TORSDOF 16
ENDMDL
MODEL 9
REMARK VINA RESULT:    -6.645      4.261      7.722
REMARK INTER + INTRA:         -12.972
REMARK INTER:                  -9.980
REMARK INTRA:                  -2.991
REMARK UNBOUND:                -2.054
REMARK SMILES C[C@@H]1O[C@@H](OC[C@H]2O[C@@H](Oc3c(-c4ccc(O)c(O)c4)oc4cc(O)cc(O)c4c3=O)[C@H](O)[C@@H](O)[C@@H]2O)[C@H](O)[C@H](O)[C@@H]1O
REMARK SMILES IDX 7 1 36 2 34 3 32 4 9 5 8 6 6 7 5 8 4 9 1 10 2 11 42 12 3 13
REMARK SMILES IDX 40 14 38 15 43 16 41 18 39 20 37 22 35 24 10 26 11 27 12 28
REMARK SMILES IDX 30 29 21 30 29 31 31 32 22 33 27 34 23 35 26 36 24 37 13 38
REMARK SMILES IDX 20 39 14 40 18 41 15 42 16 43 19 44 17 46 28 48 25 50 33 52
REMARK H PARENT 43 17 41 19 39 21 37 23 35 25 19 45 17 47 28 49 25 51 33 53
REMARK Flexibility Score: inf
ROOT
ATOM      1  C   UNL     1      31.237   1.238 102.630  1.00  0.00     0.180 C 
ATOM      2  C   UNL     1      32.528   0.690 101.944  1.00  0.00     0.177 C 
ATOM      3  C   UNL     1      32.477  -0.841 101.795  1.00  0.00     0.180 C 
ATOM      4  C   UNL     1      31.135  -1.237 101.166  1.00  0.00     0.214 C 
ATOM      5  C   UNL     1      30.031  -0.694 102.082  1.00  0.00     0.339 C 
ATOM      6  O   UNL     1      30.060   0.717 102.039  1.00  0.00    -0.332 OA
ENDROOT
BRANCH   1   7
ATOM      7  C   UNL     1      31.173   2.774 102.507  1.00  0.00     0.198 C 
BRANCH   7   8
ATOM      8  O   UNL     1      31.919   3.353 103.562  1.00  0.00    -0.347 OA
BRANCH   8   9
ATOM      9  C   UNL     1      31.336   3.171 104.846  1.00  0.00     0.281 C 
ATOM     10  C   UNL     1      29.880   6.539 105.241  1.00  0.00     0.041 C 
ATOM     11  C   UNL     1      30.975   5.486 105.053  1.00  0.00     0.150 C 
ATOM     12  C   UNL     1      32.088   5.658 106.115  1.00  0.00     0.174 C 
ATOM     13  O   UNL     1      30.385   4.192 105.122  1.00  0.00    -0.344 OA
ATOM     14  C   UNL     1      33.130   4.533 105.953  1.00  0.00     0.179 C 
ATOM     15  C   UNL     1      32.438   3.163 105.917  1.00  0.00     0.202 C 
BRANCH  12  16
ATOM     16  O   UNL     1      31.535   5.637 107.407  1.00  0.00    -0.388 OA
ATOM     17  H   UNL     1      31.692   6.531 107.802  1.00  0.00     0.211 HD
ENDBRANCH  12  16
BRANCH  14  18
ATOM     18  O   UNL     1      34.083   4.564 106.985  1.00  0.00    -0.387 OA
ATOM     19  H   UNL     1      34.377   3.623 107.125  1.00  0.00     0.211 HD
ENDBRANCH  14  18
BRANCH  15  20
ATOM     20  O   UNL     1      31.858   2.870 107.168  1.00  0.00    -0.385 OA
ATOM     21  H   UNL     1      30.912   2.630 106.997  1.00  0.00     0.211 HD
ENDBRANCH  15  20
ENDBRANCH   8   9
ENDBRANCH   7   8
ENDBRANCH   1   7
BRANCH   2  22
ATOM     22  O   UNL     1      33.655   1.038 102.705  1.00  0.00    -0.387 OA
ATOM     23  H   UNL     1      34.276   1.525 102.106  1.00  0.00     0.211 HD
ENDBRANCH   2  22
BRANCH   3  24
ATOM     24  O   UNL     1      33.555  -1.245 100.990  1.00  0.00    -0.387 OA
ATOM     25  H   UNL     1      34.354  -0.742 101.305  1.00  0.00     0.211 HD
ENDBRANCH   3  24
BRANCH   5  26
ATOM     26  O   UNL     1      28.758  -1.130 101.606  1.00  0.00    -0.454 OA
BRANCH  26  27
ATOM     27  C   UNL     1      27.848  -1.970 102.288  1.00  0.00     0.214 A 
ATOM     28  C   UNL     1      26.944  -1.364 103.177  1.00  0.00     0.180 A 
ATOM     29  C   UNL     1      27.779  -3.376 102.123  1.00  0.00     0.239 A 
ATOM     30  O   UNL     1      26.014  -2.079 103.794  1.00  0.00    -0.452 OA
ATOM     31  C   UNL     1      26.760  -4.102 102.779  1.00  0.00     0.111 A 
ATOM     32  O   UNL     1      28.617  -3.983 101.407  1.00  0.00    -0.285 OA
ATOM     33  C   UNL     1      25.874  -3.388 103.621  1.00  0.00     0.146 A 
ATOM     34  C   UNL     1      26.572  -5.496 102.608  1.00  0.00     0.134 A 
ATOM     35  C   UNL     1      24.836  -4.057 104.278  1.00  0.00     0.094 A 
ATOM     36  C   UNL     1      25.525  -6.147 103.274  1.00  0.00     0.093 A 
ATOM     37  C   UNL     1      24.660  -5.438 104.106  1.00  0.00     0.123 A 
BRANCH  28  38
ATOM     38  C   UNL     1      27.052   0.070 103.479  1.00  0.00     0.025 A 
ATOM     39  C   UNL     1      27.591   0.493 104.702  1.00  0.00     0.062 A 
ATOM     40  C   UNL     1      26.663   1.022 102.526  1.00  0.00     0.016 A 
ATOM     41  C   UNL     1      27.776   1.855 104.974  1.00  0.00     0.158 A 
ATOM     42  C   UNL     1      26.807   2.378 102.798  1.00  0.00     0.051 A 
ATOM     43  C   UNL     1      27.379   2.808 103.999  1.00  0.00     0.157 A 
BRANCH  41  44
ATOM     44  O   UNL     1      28.367   2.213 106.187  1.00  0.00    -0.504 OA
ATOM     45  H   UNL     1      27.843   2.548 106.983  1.00  0.00     0.293 HD
ENDBRANCH  41  44
BRANCH  43  46
ATOM     46  O   UNL     1      27.545   4.181 104.180  1.00  0.00    -0.504 OA
ATOM     47  H   UNL     1      26.873   4.775 104.655  1.00  0.00     0.293 HD
ENDBRANCH  43  46
ENDBRANCH  28  38
BRANCH  34  48
ATOM     48  O   UNL     1      27.418  -6.247 101.791  1.00  0.00    -0.507 OA
ATOM     49  H   UNL     1      27.089  -6.725 100.968  1.00  0.00     0.293 HD
ENDBRANCH  34  48
BRANCH  37  50
ATOM     50  O   UNL     1      23.626  -6.109 104.763  1.00  0.00    -0.508 OA
ATOM     51  H   UNL     1      23.181  -6.927 104.358  1.00  0.00     0.293 HD
ENDBRANCH  37  50
ENDBRANCH  26  27
ENDBRANCH   5  26
BRANCH   4  52
ATOM     52  O   UNL     1      31.027  -2.634 101.054  1.00  0.00    -0.384 OA
ATOM     53  H   UNL     1      31.362  -2.861 100.144  1.00  0.00     0.211 HD
ENDBRANCH   4  52
TORSDOF 16
ENDMDL
