MODEL 1
REMARK VINA RESULT:    -0.516      0.000      0.000
REMARK INTER + INTRA:          -0.902
REMARK INTER:                  -0.607
REMARK INTRA:                  -0.295
REMARK UNBOUND:                -0.295
REMARK SMILES O=c1cc(-c2ccc(O)c(O)c2)oc2cc(O)cc(O)c12
REMARK SMILES IDX 4 1 3 2 2 3 1 4 21 5 19 6 18 7 16 8 15 9 14 10 13 11 5 12
REMARK SMILES IDX 6 13 7 14 8 15 12 16 10 17 9 18 11 20 20 22 17 24
REMARK H PARENT 9 19 11 21 20 23 17 25
REMARK Flexibility Score: inf
ROOT
ATOM      1  C   UNL     1      10.751 -32.643  14.341  1.00  0.00     0.138 A 
ATOM      2  C   UNL     1       9.975 -31.936  15.269  1.00  0.00     0.100 A 
ATOM      3  C   UNL     1       8.691 -32.384  15.580  1.00  0.00     0.197 A 
ATOM      4  O   UNL     1       8.041 -31.760  16.459  1.00  0.00    -0.289 OA
ATOM      5  C   UNL     1       8.168 -33.529  14.932  1.00  0.00     0.107 A 
ATOM      6  C   UNL     1       6.859 -34.059  15.144  1.00  0.00     0.134 A 
ATOM      7  C   UNL     1       6.490 -35.254  14.516  1.00  0.00     0.093 A 
ATOM      8  C   UNL     1       7.356 -35.908  13.640  1.00  0.00     0.123 A 
ATOM      9  C   UNL     1       8.619 -35.371  13.387  1.00  0.00     0.094 A 
ATOM     10  C   UNL     1       9.031 -34.199  14.024  1.00  0.00     0.146 A 
ATOM     11  O   UNL     1      10.249 -33.732  13.768  1.00  0.00    -0.456 OA
ENDROOT
BRANCH   1  12
ATOM     12  C   UNL     1      12.121 -32.209  13.969  1.00  0.00     0.021 A 
ATOM     13  C   UNL     1      12.945 -33.077  13.232  1.00  0.00     0.016 A 
ATOM     14  C   UNL     1      14.241 -32.696  12.876  1.00  0.00     0.051 A 
ATOM     15  C   UNL     1      14.739 -31.445  13.259  1.00  0.00     0.157 A 
ATOM     16  C   UNL     1      12.634 -30.957  14.362  1.00  0.00     0.062 A 
ATOM     17  C   UNL     1      13.936 -30.576  14.005  1.00  0.00     0.158 A 
BRANCH  15  18
ATOM     18  O   UNL     1      16.031 -31.061  12.904  1.00  0.00    -0.504 OA
ATOM     19  H   UNL     1      16.362 -30.115  13.050  1.00  0.00     0.293 HD
ENDBRANCH  15  18
BRANCH  17  20
ATOM     20  O   UNL     1      14.439 -29.335  14.394  1.00  0.00    -0.504 OA
ATOM     21  H   UNL     1      14.002 -28.470  14.100  1.00  0.00     0.293 HD
ENDBRANCH  17  20
ENDBRANCH   1  12
BRANCH   6  22
ATOM     22  O   UNL     1       5.884 -33.445  15.936  1.00  0.00    -0.507 OA
ATOM     23  H   UNL     1       5.080 -33.909  16.328  1.00  0.00     0.293 HD
ENDBRANCH   6  22
BRANCH   8  24
ATOM     24  O   UNL     1       6.947 -37.087  13.022  1.00  0.00    -0.508 OA
ATOM     25  H   UNL     1       7.609 -37.818  12.785  1.00  0.00     0.293 HD
ENDBRANCH   8  24
TORSDOF 5
ENDMDL
MODEL 2
REMARK VINA RESULT:     1.124      1.945      3.149
REMARK INTER + INTRA:           1.026
REMARK INTER:                   1.312
REMARK INTRA:                  -0.287
REMARK UNBOUND:                -0.295
REMARK SMILES O=c1cc(-c2ccc(O)c(O)c2)oc2cc(O)cc(O)c12
REMARK SMILES IDX 4 1 3 2 2 3 1 4 21 5 19 6 18 7 16 8 15 9 14 10 13 11 5 12
REMARK SMILES IDX 6 13 7 14 8 15 12 16 10 17 9 18 11 20 20 22 17 24
REMARK H PARENT 9 19 11 21 20 23 17 25
REMARK Flexibility Score: inf
ROOT
ATOM      1  C   UNL     1      10.913 -31.874  14.375  1.00  0.00     0.138 A 
ATOM      2  C   UNL     1       9.943 -32.314  13.465  1.00  0.00     0.100 A 
ATOM      3  C   UNL     1       8.621 -32.463  13.884  1.00  0.00     0.197 A 
ATOM      4  O   UNL     1       7.762 -32.806  13.029  1.00  0.00    -0.289 OA
ATOM      5  C   UNL     1       8.275 -32.202  15.232  1.00  0.00     0.107 A 
ATOM      6  C   UNL     1       6.966 -32.353  15.781  1.00  0.00     0.134 A 
ATOM      7  C   UNL     1       6.726 -31.969  17.106  1.00  0.00     0.093 A 
ATOM      8  C   UNL     1       7.756 -31.498  17.919  1.00  0.00     0.123 A 
ATOM      9  C   UNL     1       9.051 -31.395  17.408  1.00  0.00     0.094 A 
ATOM     10  C   UNL     1       9.315 -31.736  16.080  1.00  0.00     0.146 A 
ATOM     11  O   UNL     1      10.558 -31.606  15.627  1.00  0.00    -0.456 OA
ENDROOT
BRANCH   1  12
ATOM     12  C   UNL     1      12.336 -31.702  13.984  1.00  0.00     0.021 A 
ATOM     13  C   UNL     1      13.008 -32.756  13.343  1.00  0.00     0.016 A 
ATOM     14  C   UNL     1      14.349 -32.623  12.972  1.00  0.00     0.051 A 
ATOM     15  C   UNL     1      15.042 -31.439  13.245  1.00  0.00     0.157 A 
ATOM     16  C   UNL     1      13.045 -30.518  14.268  1.00  0.00     0.062 A 
ATOM     17  C   UNL     1      14.391 -30.386  13.897  1.00  0.00     0.158 A 
BRANCH  15  18
ATOM     18  O   UNL     1      16.379 -31.303  12.875  1.00  0.00    -0.504 OA
ATOM     19  H   UNL     1      16.656 -30.722  12.092  1.00  0.00     0.293 HD
ENDBRANCH  15  18
BRANCH  17  20
ATOM     20  O   UNL     1      15.089 -29.213  14.178  1.00  0.00    -0.504 OA
ATOM     21  H   UNL     1      15.494 -29.042  15.091  1.00  0.00     0.293 HD
ENDBRANCH  17  20
ENDBRANCH   1  12
BRANCH   6  22
ATOM     22  O   UNL     1       5.879 -32.888  15.082  1.00  0.00    -0.507 OA
ATOM     23  H   UNL     1       4.951 -32.496  15.066  1.00  0.00     0.293 HD
ENDBRANCH   6  22
BRANCH   8  24
ATOM     24  O   UNL     1       7.483 -31.142  19.238  1.00  0.00    -0.508 OA
ATOM     25  H   UNL     1       7.973 -31.570  20.015  1.00  0.00     0.293 HD
ENDBRANCH   8  24
TORSDOF 5
ENDMDL
MODEL 3
REMARK VINA RESULT:     1.624      1.753      3.175
REMARK INTER + INTRA:           1.613
REMARK INTER:                   1.896
REMARK INTRA:                  -0.283
REMARK UNBOUND:                -0.295
REMARK SMILES O=c1cc(-c2ccc(O)c(O)c2)oc2cc(O)cc(O)c12
REMARK SMILES IDX 4 1 3 2 2 3 1 4 21 5 19 6 18 7 16 8 15 9 14 10 13 11 5 12
REMARK SMILES IDX 6 13 7 14 8 15 12 16 10 17 9 18 11 20 20 22 17 24
REMARK H PARENT 9 19 11 21 20 23 17 25
REMARK Flexibility Score: inf
ROOT
ATOM      1  C   UNL     1      11.802 -32.841  13.624  1.00  0.00     0.138 A 
ATOM      2  C   UNL     1      12.193 -34.175  13.445  1.00  0.00     0.100 A 
ATOM      3  C   UNL     1      11.226 -35.151  13.206  1.00  0.00     0.197 A 
ATOM      4  O   UNL     1      11.613 -36.330  12.994  1.00  0.00    -0.289 OA
ATOM      5  C   UNL     1       9.857 -34.795  13.180  1.00  0.00     0.107 A 
ATOM      6  C   UNL     1       8.780 -35.711  12.979  1.00  0.00     0.134 A 
ATOM      7  C   UNL     1       7.471 -35.225  12.876  1.00  0.00     0.093 A 
ATOM      8  C   UNL     1       7.191 -33.867  13.025  1.00  0.00     0.123 A 
ATOM      9  C   UNL     1       8.231 -32.969  13.273  1.00  0.00     0.094 A 
ATOM     10  C   UNL     1       9.551 -33.418  13.346  1.00  0.00     0.146 A 
ATOM     11  O   UNL     1      10.513 -32.527  13.566  1.00  0.00    -0.456 OA
ENDROOT
BRANCH   1  12
ATOM     12  C   UNL     1      12.789 -31.761  13.887  1.00  0.00     0.021 A 
ATOM     13  C   UNL     1      12.454 -30.720  14.769  1.00  0.00     0.016 A 
ATOM     14  C   UNL     1      13.360 -29.688  15.027  1.00  0.00     0.051 A 
ATOM     15  C   UNL     1      14.612 -29.676  14.399  1.00  0.00     0.157 A 
ATOM     16  C   UNL     1      14.045 -31.734  13.249  1.00  0.00     0.062 A 
ATOM     17  C   UNL     1      14.953 -30.697  13.507  1.00  0.00     0.158 A 
BRANCH  15  18
ATOM     18  O   UNL     1      15.519 -28.649  14.656  1.00  0.00    -0.504 OA
ATOM     19  H   UNL     1      16.096 -28.647  15.489  1.00  0.00     0.293 HD
ENDBRANCH  15  18
BRANCH  17  20
ATOM     20  O   UNL     1      16.196 -30.675  12.876  1.00  0.00    -0.504 OA
ATOM     21  H   UNL     1      16.705 -31.528  12.678  1.00  0.00     0.293 HD
ENDBRANCH  17  20
ENDBRANCH   1  12
BRANCH   6  22
ATOM     22  O   UNL     1       8.936 -37.098  12.896  1.00  0.00    -0.507 OA
ATOM     23  H   UNL     1       8.315 -37.723  12.407  1.00  0.00     0.293 HD
ENDBRANCH   6  22
BRANCH   8  24
ATOM     24  O   UNL     1       5.875 -33.422  12.932  1.00  0.00    -0.508 OA
ATOM     25  H   UNL     1       5.445 -32.880  13.674  1.00  0.00     0.293 HD
ENDBRANCH   8  24
TORSDOF 5
ENDMDL
MODEL 4
REMARK VINA RESULT:     1.815      1.898      2.766
REMARK INTER + INTRA:           1.837
REMARK INTER:                   2.105
REMARK INTRA:                  -0.268
REMARK UNBOUND:                -0.295
REMARK SMILES O=c1cc(-c2ccc(O)c(O)c2)oc2cc(O)cc(O)c12
REMARK SMILES IDX 4 1 3 2 2 3 1 4 21 5 19 6 18 7 16 8 15 9 14 10 13 11 5 12
REMARK SMILES IDX 6 13 7 14 8 15 12 16 10 17 9 18 11 20 20 22 17 24
REMARK H PARENT 9 19 11 21 20 23 17 25
REMARK Flexibility Score: inf
ROOT
ATOM      1  C   UNL     1      10.194 -32.560  14.881  1.00  0.00     0.138 A 
ATOM      2  C   UNL     1       9.309 -32.573  13.793  1.00  0.00     0.100 A 
ATOM      3  C   UNL     1       8.166 -33.371  13.843  1.00  0.00     0.197 A 
ATOM      4  O   UNL     1       7.363 -33.318  12.875  1.00  0.00    -0.289 OA
ATOM      5  C   UNL     1       7.926 -34.189  14.974  1.00  0.00     0.107 A 
ATOM      6  C   UNL     1       6.812 -35.070  15.121  1.00  0.00     0.134 A 
ATOM      7  C   UNL     1       6.630 -35.755  16.328  1.00  0.00     0.093 A 
ATOM      8  C   UNL     1       7.549 -35.639  17.370  1.00  0.00     0.123 A 
ATOM      9  C   UNL     1       8.668 -34.819  17.218  1.00  0.00     0.094 A 
ATOM     10  C   UNL     1       8.860 -34.096  16.040  1.00  0.00     0.146 A 
ATOM     11  O   UNL     1       9.931 -33.313  15.943  1.00  0.00    -0.456 OA
ENDROOT
BRANCH   1  12
ATOM     12  C   UNL     1      11.427 -31.732  14.880  1.00  0.00     0.021 A 
ATOM     13  C   UNL     1      11.605 -30.758  15.877  1.00  0.00     0.016 A 
ATOM     14  C   UNL     1      12.753 -29.961  15.894  1.00  0.00     0.051 A 
ATOM     15  C   UNL     1      13.736 -30.118  14.910  1.00  0.00     0.157 A 
ATOM     16  C   UNL     1      12.415 -31.875  13.885  1.00  0.00     0.062 A 
ATOM     17  C   UNL     1      13.565 -31.073  13.903  1.00  0.00     0.158 A 
BRANCH  15  18
ATOM     18  O   UNL     1      14.882 -29.325  14.926  1.00  0.00    -0.504 OA
ATOM     19  H   UNL     1      14.831 -28.321  15.044  1.00  0.00     0.293 HD
ENDBRANCH  15  18
BRANCH  17  20
ATOM     20  O   UNL     1      14.541 -31.218  12.918  1.00  0.00    -0.504 OA
ATOM     21  H   UNL     1      15.162 -32.019  12.901  1.00  0.00     0.293 HD
ENDBRANCH  17  20
ENDBRANCH   1  12
BRANCH   6  22
ATOM     22  O   UNL     1       5.875 -35.323  14.114  1.00  0.00    -0.507 OA
ATOM     23  H   UNL     1       4.976 -34.876  14.033  1.00  0.00     0.293 HD
ENDBRANCH   6  22
BRANCH   8  24
ATOM     24  O   UNL     1       7.343 -36.348  18.551  1.00  0.00    -0.508 OA
ATOM     25  H   UNL     1       8.061 -36.948  18.942  1.00  0.00     0.293 HD
ENDBRANCH   8  24
TORSDOF 5
ENDMDL
MODEL 5
REMARK VINA RESULT:     1.828      1.253      6.830
REMARK INTER + INTRA:           1.853
REMARK INTER:                   2.141
REMARK INTRA:                  -0.288
REMARK UNBOUND:                -0.295
REMARK SMILES O=c1cc(-c2ccc(O)c(O)c2)oc2cc(O)cc(O)c12
REMARK SMILES IDX 4 1 3 2 2 3 1 4 21 5 19 6 18 7 16 8 15 9 14 10 13 11 5 12
REMARK SMILES IDX 6 13 7 14 8 15 12 16 10 17 9 18 11 20 20 22 17 24
REMARK H PARENT 9 19 11 21 20 23 17 25
REMARK Flexibility Score: inf
ROOT
ATOM      1  C   UNL     1       9.816 -33.136  14.687  1.00  0.00     0.138 A 
ATOM      2  C   UNL     1       9.594 -32.088  15.591  1.00  0.00     0.100 A 
ATOM      3  C   UNL     1      10.596 -31.143  15.811  1.00  0.00     0.197 A 
ATOM      4  O   UNL     1      10.345 -30.183  16.586  1.00  0.00    -0.289 OA
ATOM      5  C   UNL     1      11.840 -31.268  15.148  1.00  0.00     0.107 A 
ATOM      6  C   UNL     1      12.948 -30.383  15.321  1.00  0.00     0.134 A 
ATOM      7  C   UNL     1      14.094 -30.553  14.536  1.00  0.00     0.093 A 
ATOM      8  C   UNL     1      14.199 -31.606  13.628  1.00  0.00     0.123 A 
ATOM      9  C   UNL     1      13.141 -32.507  13.488  1.00  0.00     0.094 A 
ATOM     10  C   UNL     1      11.971 -32.344  14.231  1.00  0.00     0.146 A 
ATOM     11  O   UNL     1      10.981 -33.214  14.054  1.00  0.00    -0.456 OA
ENDROOT
BRANCH   1  12
ATOM     12  C   UNL     1       8.786 -34.172  14.417  1.00  0.00     0.021 A 
ATOM     13  C   UNL     1       8.745 -34.793  13.157  1.00  0.00     0.016 A 
ATOM     14  C   UNL     1       7.782 -35.765  12.875  1.00  0.00     0.051 A 
ATOM     15  C   UNL     1       6.838 -36.125  13.844  1.00  0.00     0.157 A 
ATOM     16  C   UNL     1       7.824 -34.530  15.382  1.00  0.00     0.062 A 
ATOM     17  C   UNL     1       6.856 -35.505  15.097  1.00  0.00     0.158 A 
BRANCH  15  18
ATOM     18  O   UNL     1       5.877 -37.096  13.566  1.00  0.00    -0.504 OA
ATOM     19  H   UNL     1       5.127 -36.926  12.906  1.00  0.00     0.293 HD
ENDBRANCH  15  18
BRANCH  17  20
ATOM     20  O   UNL     1       5.907 -35.858  16.055  1.00  0.00    -0.504 OA
ATOM     21  H   UNL     1       5.416 -36.743  16.014  1.00  0.00     0.293 HD
ENDBRANCH  17  20
ENDBRANCH   1  12
BRANCH   6  22
ATOM     22  O   UNL     1      12.983 -29.345  16.257  1.00  0.00    -0.507 OA
ATOM     23  H   UNL     1      13.235 -29.447  17.227  1.00  0.00     0.293 HD
ENDBRANCH   6  22
BRANCH   8  24
ATOM     24  O   UNL     1      15.361 -31.753  12.875  1.00  0.00    -0.508 OA
ATOM     25  H   UNL     1      16.268 -31.860  13.316  1.00  0.00     0.293 HD
ENDBRANCH   8  24
TORSDOF 5
ENDMDL
MODEL 6
REMARK VINA RESULT:     1.936      1.169      2.668
REMARK INTER + INTRA:           1.980
REMARK INTER:                   2.294
REMARK INTRA:                  -0.314
REMARK UNBOUND:                -0.295
REMARK SMILES O=c1cc(-c2ccc(O)c(O)c2)oc2cc(O)cc(O)c12
REMARK SMILES IDX 4 1 3 2 2 3 1 4 21 5 19 6 18 7 16 8 15 9 14 10 13 11 5 12
REMARK SMILES IDX 6 13 7 14 8 15 12 16 10 17 9 18 11 20 20 22 17 24
REMARK H PARENT 9 19 11 21 20 23 17 25
REMARK Flexibility Score: inf
ROOT
ATOM      1  C   UNL     1      11.098 -33.126  13.678  1.00  0.00     0.138 A 
ATOM      2  C   UNL     1      10.752 -34.387  13.172  1.00  0.00     0.100 A 
ATOM      3  C   UNL     1       9.474 -34.896  13.403  1.00  0.00     0.197 A 
ATOM      4  O   UNL     1       9.176 -36.005  12.888  1.00  0.00    -0.289 OA
ATOM      5  C   UNL     1       8.549 -34.154  14.177  1.00  0.00     0.107 A 
ATOM      6  C   UNL     1       7.230 -34.588  14.507  1.00  0.00     0.134 A 
ATOM      7  C   UNL     1       6.372 -33.723  15.196  1.00  0.00     0.093 A 
ATOM      8  C   UNL     1       6.800 -32.466  15.618  1.00  0.00     0.123 A 
ATOM      9  C   UNL     1       8.105 -32.051  15.345  1.00  0.00     0.094 A 
ATOM     10  C   UNL     1       8.974 -32.877  14.629  1.00  0.00     0.146 A 
ATOM     11  O   UNL     1      10.202 -32.436  14.375  1.00  0.00    -0.456 OA
ENDROOT
BRANCH   1  12
ATOM     12  C   UNL     1      12.445 -32.537  13.466  1.00  0.00     0.021 A 
ATOM     13  C   UNL     1      13.508 -33.369  13.075  1.00  0.00     0.016 A 
ATOM     14  C   UNL     1      14.787 -32.841  12.876  1.00  0.00     0.051 A 
ATOM     15  C   UNL     1      15.026 -31.476  13.075  1.00  0.00     0.157 A 
ATOM     16  C   UNL     1      12.697 -31.167  13.678  1.00  0.00     0.062 A 
ATOM     17  C   UNL     1      13.981 -30.639  13.480  1.00  0.00     0.158 A 
BRANCH  15  18
ATOM     18  O   UNL     1      16.300 -30.947  12.876  1.00  0.00    -0.504 OA
ATOM     19  H   UNL     1      16.585 -30.076  13.306  1.00  0.00     0.293 HD
ENDBRANCH  15  18
BRANCH  17  20
ATOM     20  O   UNL     1      14.226 -29.283  13.688  1.00  0.00    -0.504 OA
ATOM     21  H   UNL     1      14.104 -28.856  14.599  1.00  0.00     0.293 HD
ENDBRANCH  17  20
ENDBRANCH   1  12
BRANCH   6  22
ATOM     22  O   UNL     1       6.723 -35.856  14.203  1.00  0.00    -0.507 OA
ATOM     23  H   UNL     1       7.280 -36.663  13.974  1.00  0.00     0.293 HD
ENDBRANCH   6  22
BRANCH   8  24
ATOM     24  O   UNL     1       5.923 -31.639  16.316  1.00  0.00    -0.508 OA
ATOM     25  H   UNL     1       4.986 -31.454  15.977  1.00  0.00     0.293 HD
ENDBRANCH   8  24
TORSDOF 5
ENDMDL
