MODEL 1
REMARK VINA RESULT:    -2.631      0.000      0.000
REMARK INTER + INTRA:          -7.030
REMARK INTER:                  -5.092
REMARK INTRA:                  -1.938
REMARK UNBOUND:                -1.938
REMARK SMILES CCCCCCCCCCCCCCCCCC(=O)[O-]
REMARK SMILES IDX 10 1 11 2 12 3 13 4 14 5 15 6 16 7 17 8 18 9 19 10 20 11
REMARK SMILES IDX 9 12 8 13 7 14 6 15 5 16 4 17 3 18 2 19 1 20
REMARK H PARENT
REMARK Flexibility Score: inf
ROOT
ATOM      1  C   UNL     1      53.257  81.891  30.916  1.00  0.00     0.000 C 
ENDROOT
BRANCH   1   2
ATOM      2  C   UNL     1      53.233  80.825  29.804  1.00  0.00     0.000 C 
BRANCH   2   3
ATOM      3  C   UNL     1      54.462  80.823  28.875  1.00  0.00     0.000 C 
BRANCH   3   4
ATOM      4  C   UNL     1      55.773  81.245  29.575  1.00  0.00     0.000 C 
BRANCH   4   5
ATOM      5  C   UNL     1      56.406  82.493  28.934  1.00  0.00     0.000 C 
BRANCH   5   6
ATOM      6  C   UNL     1      55.422  83.680  28.875  1.00  0.00     0.000 C 
BRANCH   6   7
ATOM      7  C   UNL     1      55.589  84.678  30.033  1.00  0.00     0.006 C 
BRANCH   7   8
ATOM      8  C   UNL     1      56.614  84.217  31.074  1.00  0.00     0.053 C 
BRANCH   8   9
ATOM      9  C   UNL     1      55.975  84.102  32.422  1.00  0.00     0.041 C 
ATOM     10  O   UNL     1      56.469  83.342  33.296  1.00  0.00    -0.550 OA
ATOM     11  O   UNL     1      54.805  84.796  32.698  1.00  0.00    -0.550 OA
ENDBRANCH   8   9
ENDBRANCH   7   8
ENDBRANCH   6   7
ENDBRANCH   5   6
ENDBRANCH   4   5
ENDBRANCH   3   4
ENDBRANCH   2   3
ENDBRANCH   1   2
BRANCH   1  12
ATOM     12  C   UNL     1      51.949  82.689  31.080  1.00  0.00     0.000 C 
BRANCH  12  13
ATOM     13  C   UNL     1      52.021  84.158  30.620  1.00  0.00    -0.000 C 
BRANCH  13  14
ATOM     14  C   UNL     1      51.171  85.120  31.478  1.00  0.00    -0.000 C 
BRANCH  14  15
ATOM     15  C   UNL     1      51.283  84.820  32.981  1.00  0.00    -0.000 C 
BRANCH  15  16
ATOM     16  C   UNL     1      49.957  85.099  33.698  1.00  0.00    -0.000 C 
BRANCH  16  17
ATOM     17  C   UNL     1      48.773  84.998  32.723  1.00  0.00    -0.000 C 
BRANCH  17  18
ATOM     18  C   UNL     1      48.245  83.563  32.580  1.00  0.00    -0.000 C 
BRANCH  18  19
ATOM     19  C   UNL     1      48.041  83.152  31.114  1.00  0.00    -0.003 C 
ATOM     20  C   UNL     1      48.293  84.328  30.174  1.00  0.00     0.004 C 
ENDBRANCH  18  19
ENDBRANCH  17  18
ENDBRANCH  16  17
ENDBRANCH  15  16
ENDBRANCH  14  15
ENDBRANCH  13  14
ENDBRANCH  12  13
ENDBRANCH   1  12
TORSDOF 16
ENDMDL
MODEL 2
REMARK VINA RESULT:    -1.944      2.311      5.447
REMARK INTER + INTRA:          -5.702
REMARK INTER:                  -3.905
REMARK INTRA:                  -1.797
REMARK UNBOUND:                -1.938
REMARK SMILES CCCCCCCCCCCCCCCCCC(=O)[O-]
REMARK SMILES IDX 10 1 11 2 12 3 13 4 14 5 15 6 16 7 17 8 18 9 19 10 20 11
REMARK SMILES IDX 9 12 8 13 7 14 6 15 5 16 4 17 3 18 2 19 1 20
REMARK H PARENT
REMARK Flexibility Score: inf
ROOT
ATOM      1  C   UNL     1      55.552  81.953  29.358  1.00  0.00     0.000 C 
ENDROOT
BRANCH   1   2
ATOM      2  C   UNL     1      54.045  82.190  29.137  1.00  0.00     0.000 C 
BRANCH   2   3
ATOM      3  C   UNL     1      53.648  83.655  28.875  1.00  0.00     0.000 C 
BRANCH   3   4
ATOM      4  C   UNL     1      52.208  83.999  29.318  1.00  0.00     0.000 C 
BRANCH   4   5
ATOM      5  C   UNL     1      51.230  82.831  29.099  1.00  0.00     0.000 C 
BRANCH   5   6
ATOM      6  C   UNL     1      49.778  83.316  28.900  1.00  0.00     0.000 C 
BRANCH   6   7
ATOM      7  C   UNL     1      49.453  84.615  29.654  1.00  0.00     0.006 C 
BRANCH   7   8
ATOM      8  C   UNL     1      48.342  84.438  30.696  1.00  0.00     0.053 C 
BRANCH   8   9
ATOM      9  C   UNL     1      48.921  84.019  32.010  1.00  0.00     0.041 C 
ATOM     10  O   UNL     1      48.216  83.387  32.841  1.00  0.00    -0.550 OA
ATOM     11  O   UNL     1      50.223  84.370  32.340  1.00  0.00    -0.550 OA
ENDBRANCH   8   9
ENDBRANCH   7   8
ENDBRANCH   6   7
ENDBRANCH   5   6
ENDBRANCH   4   5
ENDBRANCH   3   4
ENDBRANCH   2   3
ENDBRANCH   1   2
BRANCH   1  12
ATOM     12  C   UNL     1      56.450  83.174  29.080  1.00  0.00     0.000 C 
BRANCH  12  13
ATOM     13  C   UNL     1      56.435  84.255  30.177  1.00  0.00    -0.000 C 
BRANCH  13  14
ATOM     14  C   UNL     1      56.885  83.742  31.563  1.00  0.00    -0.000 C 
BRANCH  14  15
ATOM     15  C   UNL     1      56.010  84.286  32.702  1.00  0.00    -0.000 C 
BRANCH  15  16
ATOM     16  C   UNL     1      54.626  84.698  32.184  1.00  0.00    -0.000 C 
BRANCH  16  17
ATOM     17  C   UNL     1      53.599  83.577  32.410  1.00  0.00    -0.000 C 
BRANCH  17  18
ATOM     18  C   UNL     1      54.255  82.243  32.797  1.00  0.00    -0.000 C 
BRANCH  18  19
ATOM     19  C   UNL     1      53.283  81.057  32.699  1.00  0.00    -0.003 C 
ATOM     20  C   UNL     1      52.017  81.446  31.940  1.00  0.00     0.004 C 
ENDBRANCH  18  19
ENDBRANCH  17  18
ENDBRANCH  16  17
ENDBRANCH  15  16
ENDBRANCH  14  15
ENDBRANCH  13  14
ENDBRANCH  12  13
ENDBRANCH   1  12
TORSDOF 16
ENDMDL
MODEL 3
REMARK VINA RESULT:    -1.840      1.719      3.083
REMARK INTER + INTRA:          -5.500
REMARK INTER:                  -4.455
REMARK INTRA:                  -1.045
REMARK UNBOUND:                -1.938
REMARK SMILES CCCCCCCCCCCCCCCCCC(=O)[O-]
REMARK SMILES IDX 10 1 11 2 12 3 13 4 14 5 15 6 16 7 17 8 18 9 19 10 20 11
REMARK SMILES IDX 9 12 8 13 7 14 6 15 5 16 4 17 3 18 2 19 1 20
REMARK H PARENT
REMARK Flexibility Score: inf
ROOT
ATOM      1  C   UNL     1      54.951  81.378  29.595  1.00  0.00     0.000 C 
ENDROOT
BRANCH   1   2
ATOM      2  C   UNL     1      56.182  81.960  28.875  1.00  0.00     0.000 C 
BRANCH   2   3
ATOM      3  C   UNL     1      56.332  83.490  28.972  1.00  0.00     0.000 C 
BRANCH   3   4
ATOM      4  C   UNL     1      57.587  83.946  29.750  1.00  0.00     0.000 C 
BRANCH   4   5
ATOM      5  C   UNL     1      57.259  84.395  31.184  1.00  0.00     0.000 C 
BRANCH   5   6
ATOM      6  C   UNL     1      55.738  84.494  31.430  1.00  0.00     0.000 C 
BRANCH   6   7
ATOM      7  C   UNL     1      55.267  83.748  32.690  1.00  0.00     0.006 C 
BRANCH   7   8
ATOM      8  C   UNL     1      55.281  82.225  32.520  1.00  0.00     0.053 C 
BRANCH   8   9
ATOM      9  C   UNL     1      53.985  81.635  32.978  1.00  0.00     0.041 C 
ATOM     10  O   UNL     1      53.962  80.823  33.940  1.00  0.00    -0.550 OA
ATOM     11  O   UNL     1      52.806  81.945  32.312  1.00  0.00    -0.550 OA
ENDBRANCH   8   9
ENDBRANCH   7   8
ENDBRANCH   6   7
ENDBRANCH   5   6
ENDBRANCH   4   5
ENDBRANCH   3   4
ENDBRANCH   2   3
ENDBRANCH   1   2
BRANCH   1  12
ATOM     12  C   UNL     1      53.597  81.701  28.932  1.00  0.00     0.000 C 
BRANCH  12  13
ATOM     13  C   UNL     1      53.241  83.198  28.876  1.00  0.00    -0.000 C 
BRANCH  13  14
ATOM     14  C   UNL     1      52.169  83.622  29.903  1.00  0.00    -0.000 C 
BRANCH  14  15
ATOM     15  C   UNL     1      50.740  83.444  29.366  1.00  0.00    -0.000 C 
BRANCH  15  16
ATOM     16  C   UNL     1      49.985  82.369  30.156  1.00  0.00    -0.000 C 
BRANCH  16  17
ATOM     17  C   UNL     1      48.785  82.975  30.901  1.00  0.00    -0.000 C 
BRANCH  17  18
ATOM     18  C   UNL     1      48.952  84.479  31.166  1.00  0.00    -0.000 C 
BRANCH  18  19
ATOM     19  C   UNL     1      48.709  84.850  32.637  1.00  0.00    -0.003 C 
ATOM     20  C   UNL     1      50.028  85.031  33.383  1.00  0.00     0.004 C 
ENDBRANCH  18  19
ENDBRANCH  17  18
ENDBRANCH  16  17
ENDBRANCH  15  16
ENDBRANCH  14  15
ENDBRANCH  13  14
ENDBRANCH  12  13
ENDBRANCH   1  12
TORSDOF 16
ENDMDL
MODEL 4
REMARK VINA RESULT:    -1.770      1.957      2.950
REMARK INTER + INTRA:          -5.364
REMARK INTER:                  -4.549
REMARK INTRA:                  -0.815
REMARK UNBOUND:                -1.938
REMARK SMILES CCCCCCCCCCCCCCCCCC(=O)[O-]
REMARK SMILES IDX 10 1 11 2 12 3 13 4 14 5 15 6 16 7 17 8 18 9 19 10 20 11
REMARK SMILES IDX 9 12 8 13 7 14 6 15 5 16 4 17 3 18 2 19 1 20
REMARK H PARENT
REMARK Flexibility Score: inf
ROOT
ATOM      1  C   UNL     1      52.916  81.142  29.918  1.00  0.00     0.000 C 
ENDROOT
BRANCH   1   2
ATOM      2  C   UNL     1      52.021  80.715  31.098  1.00  0.00     0.000 C 
BRANCH   2   3
ATOM      3  C   UNL     1      52.333  81.409  32.437  1.00  0.00     0.000 C 
BRANCH   3   4
ATOM      4  C   UNL     1      53.821  81.335  32.847  1.00  0.00     0.000 C 
BRANCH   4   5
ATOM      5  C   UNL     1      54.717  82.226  31.969  1.00  0.00     0.000 C 
BRANCH   5   6
ATOM      6  C   UNL     1      54.327  83.717  32.062  1.00  0.00     0.000 C 
BRANCH   6   7
ATOM      7  C   UNL     1      55.531  84.665  32.176  1.00  0.00     0.006 C 
BRANCH   7   8
ATOM      8  C   UNL     1      56.814  84.073  31.579  1.00  0.00     0.053 C 
BRANCH   8   9
ATOM      9  C   UNL     1      57.001  84.545  30.172  1.00  0.00     0.041 C 
ATOM     10  O   UNL     1      58.146  84.541  29.649  1.00  0.00    -0.550 OA
ATOM     11  O   UNL     1      55.919  85.036  29.453  1.00  0.00    -0.550 OA
ENDBRANCH   8   9
ENDBRANCH   7   8
ENDBRANCH   6   7
ENDBRANCH   5   6
ENDBRANCH   4   5
ENDBRANCH   3   4
ENDBRANCH   2   3
ENDBRANCH   1   2
BRANCH   1  12
ATOM     12  C   UNL     1      52.241  82.079  28.898  1.00  0.00     0.000 C 
BRANCH  12  13
ATOM     13  C   UNL     1      51.632  83.361  29.495  1.00  0.00    -0.000 C 
BRANCH  13  14
ATOM     14  C   UNL     1      50.089  83.408  29.425  1.00  0.00    -0.000 C 
BRANCH  14  15
ATOM     15  C   UNL     1      49.549  84.846  29.366  1.00  0.00    -0.000 C 
BRANCH  15  16
ATOM     16  C   UNL     1      48.072  84.895  29.774  1.00  0.00    -0.000 C 
BRANCH  16  17
ATOM     17  C   UNL     1      47.926  84.987  31.301  1.00  0.00    -0.000 C 
BRANCH  17  18
ATOM     18  C   UNL     1      48.030  83.617  31.989  1.00  0.00    -0.000 C 
BRANCH  18  19
ATOM     19  C   UNL     1      48.680  83.702  33.379  1.00  0.00    -0.003 C 
ATOM     20  C   UNL     1      49.318  85.070  33.604  1.00  0.00     0.004 C 
ENDBRANCH  18  19
ENDBRANCH  17  18
ENDBRANCH  16  17
ENDBRANCH  15  16
ENDBRANCH  14  15
ENDBRANCH  13  14
ENDBRANCH  12  13
ENDBRANCH   1  12
TORSDOF 16
ENDMDL
MODEL 5
REMARK VINA RESULT:    -1.752      2.266      6.209
REMARK INTER + INTRA:          -5.329
REMARK INTER:                  -4.558
REMARK INTRA:                  -0.770
REMARK UNBOUND:                -1.938
REMARK SMILES CCCCCCCCCCCCCCCCCC(=O)[O-]
REMARK SMILES IDX 10 1 11 2 12 3 13 4 14 5 15 6 16 7 17 8 18 9 19 10 20 11
REMARK SMILES IDX 9 12 8 13 7 14 6 15 5 16 4 17 3 18 2 19 1 20
REMARK H PARENT
REMARK Flexibility Score: inf
ROOT
ATOM      1  C   UNL     1      54.664  81.757  32.262  1.00  0.00     0.000 C 
ENDROOT
BRANCH   1   2
ATOM      2  C   UNL     1      53.154  81.644  32.545  1.00  0.00     0.000 C 
BRANCH   2   3
ATOM      3  C   UNL     1      52.242  81.906  31.332  1.00  0.00     0.000 C 
BRANCH   3   4
ATOM      4  C   UNL     1      50.734  81.794  31.649  1.00  0.00     0.000 C 
BRANCH   4   5
ATOM      5  C   UNL     1      49.855  82.466  30.580  1.00  0.00     0.000 C 
BRANCH   5   6
ATOM      6  C   UNL     1      50.031  83.999  30.561  1.00  0.00     0.000 C 
BRANCH   6   7
ATOM      7  C   UNL     1      48.794  84.768  31.055  1.00  0.00     0.006 C 
BRANCH   7   8
ATOM      8  C   UNL     1      48.352  84.346  32.460  1.00  0.00     0.053 C 
BRANCH   8   9
ATOM      9  C   UNL     1      49.309  84.864  33.487  1.00  0.00     0.041 C 
ATOM     10  O   UNL     1      50.499  85.125  33.171  1.00  0.00    -0.550 OA
ATOM     11  O   UNL     1      48.900  85.013  34.806  1.00  0.00    -0.550 OA
ENDBRANCH   8   9
ENDBRANCH   7   8
ENDBRANCH   6   7
ENDBRANCH   5   6
ENDBRANCH   4   5
ENDBRANCH   3   4
ENDBRANCH   2   3
ENDBRANCH   1   2
BRANCH   1  12
ATOM     12  C   UNL     1      55.371  82.933  32.964  1.00  0.00     0.000 C 
BRANCH  12  13
ATOM     13  C   UNL     1      55.174  84.305  32.291  1.00  0.00    -0.000 C 
BRANCH  13  14
ATOM     14  C   UNL     1      53.741  84.540  31.765  1.00  0.00    -0.000 C 
BRANCH  14  15
ATOM     15  C   UNL     1      53.727  85.107  30.337  1.00  0.00    -0.000 C 
BRANCH  15  16
ATOM     16  C   UNL     1      53.473  83.999  29.307  1.00  0.00    -0.000 C 
BRANCH  16  17
ATOM     17  C   UNL     1      54.788  83.322  28.892  1.00  0.00    -0.000 C 
BRANCH  17  18
ATOM     18  C   UNL     1      55.976  84.297  28.875  1.00  0.00    -0.000 C 
BRANCH  18  19
ATOM     19  C   UNL     1      57.273  83.656  29.391  1.00  0.00    -0.003 C 
ATOM     20  C   UNL     1      58.291  84.722  29.789  1.00  0.00     0.004 C 
ENDBRANCH  18  19
ENDBRANCH  17  18
ENDBRANCH  16  17
ENDBRANCH  15  16
ENDBRANCH  14  15
ENDBRANCH  13  14
ENDBRANCH  12  13
ENDBRANCH   1  12
TORSDOF 16
ENDMDL
MODEL 6
REMARK VINA RESULT:    -1.746      2.456      5.191
REMARK INTER + INTRA:          -5.318
REMARK INTER:                  -3.440
REMARK INTRA:                  -1.878
REMARK UNBOUND:                -1.938
REMARK SMILES CCCCCCCCCCCCCCCCCC(=O)[O-]
REMARK SMILES IDX 10 1 11 2 12 3 13 4 14 5 15 6 16 7 17 8 18 9 19 10 20 11
REMARK SMILES IDX 9 12 8 13 7 14 6 15 5 16 4 17 3 18 2 19 1 20
REMARK H PARENT
REMARK Flexibility Score: inf
ROOT
ATOM      1  C   UNL     1      55.087  81.268  29.792  1.00  0.00     0.000 C 
ENDROOT
BRANCH   1   2
ATOM      2  C   UNL     1      55.732  82.335  28.886  1.00  0.00     0.000 C 
BRANCH   2   3
ATOM      3  C   UNL     1      55.766  83.757  29.476  1.00  0.00     0.000 C 
BRANCH   3   4
ATOM      4  C   UNL     1      54.689  84.700  28.894  1.00  0.00     0.000 C 
BRANCH   4   5
ATOM      5  C   UNL     1      53.291  84.057  28.876  1.00  0.00     0.000 C 
BRANCH   5   6
ATOM      6  C   UNL     1      52.168  85.102  29.048  1.00  0.00     0.000 C 
BRANCH   6   7
ATOM      7  C   UNL     1      51.459  85.027  30.410  1.00  0.00     0.006 C 
BRANCH   7   8
ATOM      8  C   UNL     1      49.933  85.125  30.294  1.00  0.00     0.053 C 
BRANCH   8   9
ATOM      9  C   UNL     1      49.274  84.249  31.312  1.00  0.00     0.041 C 
ATOM     10  O   UNL     1      49.300  84.563  32.531  1.00  0.00    -0.550 OA
ATOM     11  O   UNL     1      48.674  83.059  30.922  1.00  0.00    -0.550 OA
ENDBRANCH   8   9
ENDBRANCH   7   8
ENDBRANCH   6   7
ENDBRANCH   5   6
ENDBRANCH   4   5
ENDBRANCH   3   4
ENDBRANCH   2   3
ENDBRANCH   1   2
BRANCH   1  12
ATOM     12  C   UNL     1      54.091  80.329  29.083  1.00  0.00     0.000 C 
BRANCH  12  13
ATOM     13  C   UNL     1      52.606  80.689  29.278  1.00  0.00    -0.000 C 
BRANCH  13  14
ATOM     14  C   UNL     1      52.091  80.445  30.714  1.00  0.00    -0.000 C 
BRANCH  14  15
ATOM     15  C   UNL     1      51.766  81.754  31.450  1.00  0.00    -0.000 C 
BRANCH  15  16
ATOM     16  C   UNL     1      52.723  81.974  32.628  1.00  0.00    -0.000 C 
BRANCH  16  17
ATOM     17  C   UNL     1      53.899  82.875  32.220  1.00  0.00    -0.000 C 
BRANCH  17  18
ATOM     18  C   UNL     1      53.700  84.337  32.647  1.00  0.00    -0.000 C 
BRANCH  18  19
ATOM     19  C   UNL     1      55.025  85.039  32.984  1.00  0.00    -0.003 C 
ATOM     20  C   UNL     1      56.216  84.121  32.720  1.00  0.00     0.004 C 
ENDBRANCH  18  19
ENDBRANCH  17  18
ENDBRANCH  16  17
ENDBRANCH  15  16
ENDBRANCH  14  15
ENDBRANCH  13  14
ENDBRANCH  12  13
ENDBRANCH   1  12
TORSDOF 16
ENDMDL
MODEL 7
REMARK VINA RESULT:    -1.667      1.828      3.482
REMARK INTER + INTRA:          -5.165
REMARK INTER:                  -3.876
REMARK INTRA:                  -1.289
REMARK UNBOUND:                -1.938
REMARK SMILES CCCCCCCCCCCCCCCCCC(=O)[O-]
REMARK SMILES IDX 10 1 11 2 12 3 13 4 14 5 15 6 16 7 17 8 18 9 19 10 20 11
REMARK SMILES IDX 9 12 8 13 7 14 6 15 5 16 4 17 3 18 2 19 1 20
REMARK H PARENT
REMARK Flexibility Score: inf
ROOT
ATOM      1  C   UNL     1      53.060  84.520  29.612  1.00  0.00     0.000 C 
ENDROOT
BRANCH   1   2
ATOM      2  C   UNL     1      54.375  85.121  29.078  1.00  0.00     0.000 C 
BRANCH   2   3
ATOM      3  C   UNL     1      55.598  84.189  29.159  1.00  0.00     0.000 C 
BRANCH   3   4
ATOM      4  C   UNL     1      55.255  82.693  28.977  1.00  0.00     0.000 C 
BRANCH   4   5
ATOM      5  C   UNL     1      55.628  81.850  30.209  1.00  0.00     0.000 C 
BRANCH   5   6
ATOM      6  C   UNL     1      55.732  82.705  31.490  1.00  0.00     0.000 C 
BRANCH   6   7
ATOM      7  C   UNL     1      55.022  82.085  32.705  1.00  0.00     0.006 C 
BRANCH   7   8
ATOM      8  C   UNL     1      53.803  81.240  32.316  1.00  0.00     0.053 C 
BRANCH   8   9
ATOM      9  C   UNL     1      52.579  82.097  32.232  1.00  0.00     0.041 C 
ATOM     10  O   UNL     1      51.489  81.608  31.835  1.00  0.00    -0.550 OA
ATOM     11  O   UNL     1      52.652  83.447  32.547  1.00  0.00    -0.550 OA
ENDBRANCH   8   9
ENDBRANCH   7   8
ENDBRANCH   6   7
ENDBRANCH   5   6
ENDBRANCH   4   5
ENDBRANCH   3   4
ENDBRANCH   2   3
ENDBRANCH   1   2
BRANCH   1  12
ATOM     12  C   UNL     1      51.779  85.092  28.975  1.00  0.00     0.000 C 
BRANCH  12  13
ATOM     13  C   UNL     1      50.551  84.164  29.037  1.00  0.00    -0.000 C 
BRANCH  13  14
ATOM     14  C   UNL     1      49.213  84.914  29.218  1.00  0.00    -0.000 C 
BRANCH  14  15
ATOM     15  C   UNL     1      48.015  83.957  29.321  1.00  0.00    -0.000 C 
BRANCH  15  16
ATOM     16  C   UNL     1      47.877  83.399  30.743  1.00  0.00    -0.000 C 
BRANCH  16  17
ATOM     17  C   UNL     1      48.153  84.490  31.790  1.00  0.00    -0.000 C 
BRANCH  17  18
ATOM     18  C   UNL     1      49.330  84.139  32.714  1.00  0.00    -0.000 C 
BRANCH  18  19
ATOM     19  C   UNL     1      49.440  85.089  33.917  1.00  0.00    -0.003 C 
ATOM     20  C   UNL     1      48.198  85.001  34.800  1.00  0.00     0.004 C 
ENDBRANCH  18  19
ENDBRANCH  17  18
ENDBRANCH  16  17
ENDBRANCH  15  16
ENDBRANCH  14  15
ENDBRANCH  13  14
ENDBRANCH  12  13
ENDBRANCH   1  12
TORSDOF 16
ENDMDL
MODEL 8
REMARK VINA RESULT:    -1.615      1.592      2.803
REMARK INTER + INTRA:          -5.064
REMARK INTER:                  -3.682
REMARK INTRA:                  -1.381
REMARK UNBOUND:                -1.938
REMARK SMILES CCCCCCCCCCCCCCCCCC(=O)[O-]
REMARK SMILES IDX 10 1 11 2 12 3 13 4 14 5 15 6 16 7 17 8 18 9 19 10 20 11
REMARK SMILES IDX 9 12 8 13 7 14 6 15 5 16 4 17 3 18 2 19 1 20
REMARK H PARENT
REMARK Flexibility Score: inf
ROOT
ATOM      1  C   UNL     1      53.062  84.360  31.238  1.00  0.00     0.000 C 
ENDROOT
BRANCH   1   2
ATOM      2  C   UNL     1      54.091  84.079  32.351  1.00  0.00     0.000 C 
BRANCH   2   3
ATOM      3  C   UNL     1      54.765  82.697  32.283  1.00  0.00     0.000 C 
BRANCH   3   4
ATOM      4  C   UNL     1      54.108  81.732  31.270  1.00  0.00     0.000 C 
BRANCH   4   5
ATOM      5  C   UNL     1      54.927  81.590  29.975  1.00  0.00     0.000 C 
BRANCH   5   6
ATOM      6  C   UNL     1      54.523  82.636  28.914  1.00  0.00     0.000 C 
BRANCH   6   7
ATOM      7  C   UNL     1      55.447  83.864  28.875  1.00  0.00     0.006 C 
BRANCH   7   8
ATOM      8  C   UNL     1      56.932  83.496  28.970  1.00  0.00     0.053 C 
BRANCH   8   9
ATOM      9  C   UNL     1      57.589  84.257  30.078  1.00  0.00     0.041 C 
ATOM     10  O   UNL     1      58.807  84.567  29.998  1.00  0.00    -0.550 OA
ATOM     11  O   UNL     1      56.871  84.580  31.221  1.00  0.00    -0.550 OA
ENDBRANCH   8   9
ENDBRANCH   7   8
ENDBRANCH   6   7
ENDBRANCH   5   6
ENDBRANCH   4   5
ENDBRANCH   3   4
ENDBRANCH   2   3
ENDBRANCH   1   2
BRANCH   1  12
ATOM     12  C   UNL     1      51.804  85.124  31.694  1.00  0.00     0.000 C 
BRANCH  12  13
ATOM     13  C   UNL     1      51.540  85.096  33.211  1.00  0.00    -0.000 C 
BRANCH  13  14
ATOM     14  C   UNL     1      50.115  84.632  33.586  1.00  0.00    -0.000 C 
BRANCH  14  15
ATOM     15  C   UNL     1      49.084  84.968  32.498  1.00  0.00    -0.000 C 
BRANCH  15  16
ATOM     16  C   UNL     1      48.045  83.849  32.360  1.00  0.00    -0.000 C 
BRANCH  16  17
ATOM     17  C   UNL     1      47.908  83.403  30.896  1.00  0.00    -0.000 C 
BRANCH  17  18
ATOM     18  C   UNL     1      49.264  83.290  30.182  1.00  0.00    -0.000 C 
BRANCH  18  19
ATOM     19  C   UNL     1      50.098  82.101  30.684  1.00  0.00    -0.003 C 
ATOM     20  C   UNL     1      51.080  81.630  29.614  1.00  0.00     0.004 C 
ENDBRANCH  18  19
ENDBRANCH  17  18
ENDBRANCH  16  17
ENDBRANCH  15  16
ENDBRANCH  14  15
ENDBRANCH  13  14
ENDBRANCH  12  13
ENDBRANCH   1  12
TORSDOF 16
ENDMDL
MODEL 9
REMARK VINA RESULT:    -1.397      2.775      6.425
REMARK INTER + INTRA:          -4.643
REMARK INTER:                  -4.211
REMARK INTRA:                  -0.431
REMARK UNBOUND:                -1.938
REMARK SMILES CCCCCCCCCCCCCCCCCC(=O)[O-]
REMARK SMILES IDX 10 1 11 2 12 3 13 4 14 5 15 6 16 7 17 8 18 9 19 10 20 11
REMARK SMILES IDX 9 12 8 13 7 14 6 15 5 16 4 17 3 18 2 19 1 20
REMARK H PARENT
REMARK Flexibility Score: inf
ROOT
ATOM      1  C   UNL     1      54.898  81.719  32.807  1.00  0.00     0.000 C 
ENDROOT
BRANCH   1   2
ATOM      2  C   UNL     1      53.599  81.849  31.988  1.00  0.00     0.000 C 
BRANCH   2   3
ATOM      3  C   UNL     1      52.427  82.522  32.726  1.00  0.00     0.000 C 
BRANCH   3   4
ATOM      4  C   UNL     1      51.799  83.703  31.952  1.00  0.00     0.000 C 
BRANCH   4   5
ATOM      5  C   UNL     1      52.384  83.857  30.537  1.00  0.00     0.000 C 
BRANCH   5   6
ATOM      6  C   UNL     1      51.371  84.479  29.553  1.00  0.00     0.000 C 
BRANCH   6   7
ATOM      7  C   UNL     1      50.145  85.102  30.241  1.00  0.00     0.006 C 
BRANCH   7   8
ATOM      8  C   UNL     1      48.827  84.441  29.822  1.00  0.00     0.053 C 
BRANCH   8   9
ATOM      9  C   UNL     1      48.222  83.703  30.974  1.00  0.00     0.041 C 
ATOM     10  O   UNL     1      48.063  84.279  32.082  1.00  0.00    -0.550 OA
ATOM     11  O   UNL     1      47.879  82.364  30.839  1.00  0.00    -0.550 OA
ENDBRANCH   8   9
ENDBRANCH   7   8
ENDBRANCH   6   7
ENDBRANCH   5   6
ENDBRANCH   4   5
ENDBRANCH   3   4
ENDBRANCH   2   3
ENDBRANCH   1   2
BRANCH   1  12
ATOM     12  C   UNL     1      55.995  82.742  32.453  1.00  0.00     0.000 C 
BRANCH  12  13
ATOM     13  C   UNL     1      55.693  84.192  32.877  1.00  0.00    -0.000 C 
BRANCH  13  14
ATOM     14  C   UNL     1      55.342  85.125  31.697  1.00  0.00    -0.000 C 
BRANCH  14  15
ATOM     15  C   UNL     1      55.429  84.410  30.340  1.00  0.00    -0.000 C 
BRANCH  15  16
ATOM     16  C   UNL     1      56.508  85.043  29.453  1.00  0.00    -0.000 C 
BRANCH  16  17
ATOM     17  C   UNL     1      57.601  84.020  29.103  1.00  0.00    -0.000 C 
BRANCH  17  18
ATOM     18  C   UNL     1      57.042  82.602  28.905  1.00  0.00    -0.000 C 
BRANCH  18  19
ATOM     19  C   UNL     1      55.506  82.571  28.875  1.00  0.00    -0.003 C 
ATOM     20  C   UNL     1      54.986  81.136  28.875  1.00  0.00     0.004 C 
ENDBRANCH  18  19
ENDBRANCH  17  18
ENDBRANCH  16  17
ENDBRANCH  15  16
ENDBRANCH  14  15
ENDBRANCH  13  14
ENDBRANCH  12  13
ENDBRANCH   1  12
TORSDOF 16
ENDMDL
