MODEL 1
REMARK VINA RESULT:    -6.856      0.000      0.000
REMARK INTER + INTRA:          -7.518
REMARK INTER:                  -7.457
REMARK INTRA:                  -0.061
REMARK UNBOUND:                -0.061
REMARK SMILES COc1cc2ccc(=O)oc2cc1O
REMARK SMILES IDX 3 1 13 2 12 3 11 4 5 5 4 6 6 7 7 8 8 9 9 10 10 11 2 12 1 13
REMARK SMILES IDX 14 14
REMARK H PARENT 14 15
REMARK Flexibility Score: inf
ROOT
ATOM      1  C   UNL     1      -2.546  44.873   2.467  1.00  0.00     0.161 A 
ATOM      2  C   UNL     1      -3.658  45.122   1.647  1.00  0.00     0.161 A 
ATOM      3  C   UNL     1      -3.506  45.210   0.255  1.00  0.00     0.098 A 
ATOM      4  C   UNL     1      -2.246  45.049  -0.327  1.00  0.00     0.142 A 
ATOM      5  C   UNL     1      -1.124  44.799   0.489  1.00  0.00     0.022 A 
ATOM      6  C   UNL     1      -1.275  44.710   1.881  1.00  0.00     0.062 A 
ATOM      7  C   UNL     1       0.125  44.643  -0.122  1.00  0.00     0.019 A 
ATOM      8  C   UNL     1       0.224  44.739  -1.510  1.00  0.00     0.094 A 
ATOM      9  C   UNL     1      -0.933  44.990  -2.256  1.00  0.00     0.336 A 
ATOM     10  O   UNL     1      -0.865  45.081  -3.510  1.00  0.00    -0.246 OA
ATOM     11  O   UNL     1      -2.109  45.134  -1.648  1.00  0.00    -0.423 OA
ENDROOT
BRANCH   1  12
ATOM     12  O   UNL     1      -2.745  44.792   3.854  1.00  0.00    -0.493 OA
ATOM     13  C   UNL     1      -2.156  45.673   4.805  1.00  0.00     0.278 C 
ENDBRANCH   1  12
BRANCH   2  14
ATOM     14  O   UNL     1      -4.916  45.282   2.225  1.00  0.00    -0.504 OA
ATOM     15  H   UNL     1      -5.110  46.036   2.874  1.00  0.00     0.293 HD
ENDBRANCH   2  14
TORSDOF 2
ENDMDL
MODEL 2
REMARK VINA RESULT:    -6.813      1.171      5.030
REMARK INTER + INTRA:          -7.471
REMARK INTER:                  -7.410
REMARK INTRA:                  -0.061
REMARK UNBOUND:                -0.061
REMARK SMILES COc1cc2ccc(=O)oc2cc1O
REMARK SMILES IDX 3 1 13 2 12 3 11 4 5 5 4 6 6 7 7 8 8 9 9 10 10 11 2 12 1 13
REMARK SMILES IDX 14 14
REMARK H PARENT 14 15
REMARK Flexibility Score: inf
ROOT
ATOM      1  C   UNL     1      -1.597  45.164  -0.159  1.00  0.00     0.161 A 
ATOM      2  C   UNL     1      -2.881  44.598  -0.176  1.00  0.00     0.161 A 
ATOM      3  C   UNL     1      -3.596  44.427   1.018  1.00  0.00     0.098 A 
ATOM      4  C   UNL     1      -3.036  44.820   2.236  1.00  0.00     0.142 A 
ATOM      5  C   UNL     1      -1.747  45.389   2.263  1.00  0.00     0.022 A 
ATOM      6  C   UNL     1      -1.031  45.561   1.069  1.00  0.00     0.062 A 
ATOM      7  C   UNL     1      -1.212  45.772   3.498  1.00  0.00     0.019 A 
ATOM      8  C   UNL     1      -1.963  45.581   4.657  1.00  0.00     0.094 A 
ATOM      9  C   UNL     1      -3.236  45.010   4.554  1.00  0.00     0.336 A 
ATOM     10  O   UNL     1      -3.930  44.828   5.589  1.00  0.00    -0.246 OA
ATOM     11  O   UNL     1      -3.721  44.654   3.366  1.00  0.00    -0.423 OA
ENDROOT
BRANCH   1  12
ATOM     12  O   UNL     1      -0.919  45.317  -1.378  1.00  0.00    -0.493 OA
ATOM     13  C   UNL     1       0.309  44.673  -1.704  1.00  0.00     0.278 C 
ENDBRANCH   1  12
BRANCH   2  14
ATOM     14  O   UNL     1      -3.443  44.206  -1.391  1.00  0.00    -0.504 OA
ATOM     15  H   UNL     1      -4.417  44.385  -1.607  1.00  0.00     0.293 HD
ENDBRANCH   2  14
TORSDOF 2
ENDMDL
MODEL 3
REMARK VINA RESULT:    -6.412      2.015      4.332
REMARK INTER + INTRA:          -7.036
REMARK INTER:                  -6.987
REMARK INTRA:                  -0.049
REMARK UNBOUND:                -0.061
REMARK SMILES COc1cc2ccc(=O)oc2cc1O
REMARK SMILES IDX 3 1 13 2 12 3 11 4 5 5 4 6 6 7 7 8 8 9 9 10 10 11 2 12 1 13
REMARK SMILES IDX 14 14
REMARK H PARENT 14 15
REMARK Flexibility Score: inf
ROOT
ATOM      1  C   UNL     1       0.795  44.722   0.453  1.00  0.00     0.161 A 
ATOM      2  C   UNL     1       0.429  44.848  -0.896  1.00  0.00     0.161 A 
ATOM      3  C   UNL     1      -0.923  44.939  -1.257  1.00  0.00     0.098 A 
ATOM      4  C   UNL     1      -1.918  44.906  -0.276  1.00  0.00     0.142 A 
ATOM      5  C   UNL     1      -1.559  44.778   1.082  1.00  0.00     0.022 A 
ATOM      6  C   UNL     1      -0.207  44.688   1.443  1.00  0.00     0.062 A 
ATOM      7  C   UNL     1      -2.577  44.747   2.041  1.00  0.00     0.019 A 
ATOM      8  C   UNL     1      -3.906  44.841   1.631  1.00  0.00     0.094 A 
ATOM      9  C   UNL     1      -4.188  44.965   0.266  1.00  0.00     0.336 A 
ATOM     10  O   UNL     1      -5.381  45.050  -0.125  1.00  0.00    -0.246 OA
ATOM     11  O   UNL     1      -3.200  44.992  -0.626  1.00  0.00    -0.423 OA
ENDROOT
BRANCH   1  12
ATOM     12  O   UNL     1       2.160  44.635   0.768  1.00  0.00    -0.493 OA
ATOM     13  C   UNL     1       2.753  45.180   1.942  1.00  0.00     0.278 C 
ENDBRANCH   1  12
BRANCH   2  14
ATOM     14  O   UNL     1       1.419  44.883  -1.877  1.00  0.00    -0.504 OA
ATOM     15  H   UNL     1       1.975  44.065  -2.098  1.00  0.00     0.293 HD
ENDBRANCH   2  14
TORSDOF 2
ENDMDL
MODEL 4
REMARK VINA RESULT:    -6.411      2.373      3.576
REMARK INTER + INTRA:          -7.035
REMARK INTER:                  -6.984
REMARK INTRA:                  -0.051
REMARK UNBOUND:                -0.061
REMARK SMILES COc1cc2ccc(=O)oc2cc1O
REMARK SMILES IDX 3 1 13 2 12 3 11 4 5 5 4 6 6 7 7 8 8 9 9 10 10 11 2 12 1 13
REMARK SMILES IDX 14 14
REMARK H PARENT 14 15
REMARK Flexibility Score: inf
ROOT
ATOM      1  C   UNL     1      -0.561  45.918   3.356  1.00  0.00     0.161 A 
ATOM      2  C   UNL     1      -1.628  45.518   4.176  1.00  0.00     0.161 A 
ATOM      3  C   UNL     1      -2.819  45.044   3.607  1.00  0.00     0.098 A 
ATOM      4  C   UNL     1      -2.953  44.965   2.219  1.00  0.00     0.142 A 
ATOM      5  C   UNL     1      -1.887  45.366   1.388  1.00  0.00     0.022 A 
ATOM      6  C   UNL     1      -0.696  45.840   1.956  1.00  0.00     0.062 A 
ATOM      7  C   UNL     1      -2.052  45.276   0.001  1.00  0.00     0.019 A 
ATOM      8  C   UNL     1      -3.256  44.799  -0.515  1.00  0.00     0.094 A 
ATOM      9  C   UNL     1      -4.270  44.419   0.370  1.00  0.00     0.336 A 
ATOM     10  O   UNL     1      -5.365  43.986  -0.075  1.00  0.00    -0.246 OA
ATOM     11  O   UNL     1      -4.087  44.514   1.685  1.00  0.00    -0.423 OA
ENDROOT
BRANCH   1  12
ATOM     12  O   UNL     1       0.612  46.386   3.969  1.00  0.00    -0.493 OA
ATOM     13  C   UNL     1       1.930  46.086   3.521  1.00  0.00     0.278 C 
ENDBRANCH   1  12
BRANCH   2  14
ATOM     14  O   UNL     1      -1.496  45.594   5.562  1.00  0.00    -0.504 OA
ATOM     15  H   UNL     1      -1.809  46.407   6.081  1.00  0.00     0.293 HD
ENDBRANCH   2  14
TORSDOF 2
ENDMDL
MODEL 5
REMARK VINA RESULT:    -6.275      2.230      6.241
REMARK INTER + INTRA:          -6.886
REMARK INTER:                  -6.821
REMARK INTRA:                  -0.065
REMARK UNBOUND:                -0.061
REMARK SMILES COc1cc2ccc(=O)oc2cc1O
REMARK SMILES IDX 3 1 13 2 12 3 11 4 5 5 4 6 6 7 7 8 8 9 9 10 10 11 2 12 1 13
REMARK SMILES IDX 14 14
REMARK H PARENT 14 15
REMARK Flexibility Score: inf
ROOT
ATOM      1  C   UNL     1      -1.384  44.910   1.989  1.00  0.00     0.161 A 
ATOM      2  C   UNL     1      -0.350  45.502   2.732  1.00  0.00     0.161 A 
ATOM      3  C   UNL     1      -0.567  45.892   4.062  1.00  0.00     0.098 A 
ATOM      4  C   UNL     1      -1.815  45.695   4.658  1.00  0.00     0.142 A 
ATOM      5  C   UNL     1      -2.859  45.102   3.919  1.00  0.00     0.022 A 
ATOM      6  C   UNL     1      -2.643  44.711   2.590  1.00  0.00     0.062 A 
ATOM      7  C   UNL     1      -4.098  44.917   4.544  1.00  0.00     0.019 A 
ATOM      8  C   UNL     1      -4.263  45.323   5.867  1.00  0.00     0.094 A 
ATOM      9  C   UNL     1      -3.183  45.905   6.539  1.00  0.00     0.336 A 
ATOM     10  O   UNL     1      -3.311  46.278   7.734  1.00  0.00    -0.246 OA
ATOM     11  O   UNL     1      -2.015  46.068   5.921  1.00  0.00    -0.423 OA
ENDROOT
BRANCH   1  12
ATOM     12  O   UNL     1      -1.121  44.535   0.663  1.00  0.00    -0.493 OA
ATOM     13  C   UNL     1      -1.587  45.242  -0.482  1.00  0.00     0.278 C 
ENDBRANCH   1  12
BRANCH   2  14
ATOM     14  O   UNL     1       0.896  45.699   2.139  1.00  0.00    -0.504 OA
ATOM     15  H   UNL     1       0.996  45.796   1.135  1.00  0.00     0.293 HD
ENDBRANCH   2  14
TORSDOF 2
ENDMDL
MODEL 6
REMARK VINA RESULT:    -6.274      2.036      3.210
REMARK INTER + INTRA:          -6.885
REMARK INTER:                  -6.828
REMARK INTRA:                  -0.058
REMARK UNBOUND:                -0.061
REMARK SMILES COc1cc2ccc(=O)oc2cc1O
REMARK SMILES IDX 3 1 13 2 12 3 11 4 5 5 4 6 6 7 7 8 8 9 9 10 10 11 2 12 1 13
REMARK SMILES IDX 14 14
REMARK H PARENT 14 15
REMARK Flexibility Score: inf
ROOT
ATOM      1  C   UNL     1      -3.831  45.019   0.713  1.00  0.00     0.161 A 
ATOM      2  C   UNL     1      -3.357  44.898   2.029  1.00  0.00     0.161 A 
ATOM      3  C   UNL     1      -1.984  44.769   2.278  1.00  0.00     0.098 A 
ATOM      4  C   UNL     1      -1.074  44.759   1.218  1.00  0.00     0.142 A 
ATOM      5  C   UNL     1      -1.540  44.879  -0.107  1.00  0.00     0.022 A 
ATOM      6  C   UNL     1      -2.914  45.009  -0.357  1.00  0.00     0.062 A 
ATOM      7  C   UNL     1      -0.605  44.865  -1.147  1.00  0.00     0.019 A 
ATOM      8  C   UNL     1       0.750  44.734  -0.847  1.00  0.00     0.094 A 
ATOM      9  C   UNL     1       1.140  44.619   0.491  1.00  0.00     0.336 A 
ATOM     10  O   UNL     1       2.359  44.499   0.784  1.00  0.00    -0.246 OA
ATOM     11  O   UNL     1       0.230  44.635   1.462  1.00  0.00    -0.423 OA
ENDROOT
BRANCH   1  12
ATOM     12  O   UNL     1      -5.213  45.147   0.511  1.00  0.00    -0.493 OA
ATOM     13  C   UNL     1      -5.991  44.286  -0.315  1.00  0.00     0.278 C 
ENDBRANCH   1  12
BRANCH   2  14
ATOM     14  O   UNL     1      -4.263  44.909   3.089  1.00  0.00    -0.504 OA
ATOM     15  H   UNL     1      -4.388  45.729   3.672  1.00  0.00     0.293 HD
ENDBRANCH   2  14
TORSDOF 2
ENDMDL
MODEL 7
REMARK VINA RESULT:    -6.270      1.881      3.130
REMARK INTER + INTRA:          -6.880
REMARK INTER:                  -6.829
REMARK INTRA:                  -0.051
REMARK UNBOUND:                -0.061
REMARK SMILES COc1cc2ccc(=O)oc2cc1O
REMARK SMILES IDX 3 1 13 2 12 3 11 4 5 5 4 6 6 7 7 8 8 9 9 10 10 11 2 12 1 13
REMARK SMILES IDX 14 14
REMARK H PARENT 14 15
REMARK Flexibility Score: inf
ROOT
ATOM      1  C   UNL     1      -1.684  45.651   4.238  1.00  0.00     0.161 A 
ATOM      2  C   UNL     1      -0.541  46.121   3.571  1.00  0.00     0.161 A 
ATOM      3  C   UNL     1      -0.465  46.067   2.172  1.00  0.00     0.098 A 
ATOM      4  C   UNL     1      -1.527  45.545   1.429  1.00  0.00     0.142 A 
ATOM      5  C   UNL     1      -2.678  45.070   2.090  1.00  0.00     0.022 A 
ATOM      6  C   UNL     1      -2.756  45.125   3.489  1.00  0.00     0.062 A 
ATOM      7  C   UNL     1      -3.725  44.553   1.319  1.00  0.00     0.019 A 
ATOM      8  C   UNL     1      -3.601  44.521  -0.069  1.00  0.00     0.094 A 
ATOM      9  C   UNL     1      -2.429  45.009  -0.656  1.00  0.00     0.336 A 
ATOM     10  O   UNL     1      -2.297  44.988  -1.908  1.00  0.00    -0.246 OA
ATOM     11  O   UNL     1      -1.448  45.496   0.101  1.00  0.00    -0.423 OA
ENDROOT
BRANCH   1  12
ATOM     12  O   UNL     1      -1.716  45.726   5.639  1.00  0.00    -0.493 OA
ATOM     13  C   UNL     1      -2.860  46.102   6.400  1.00  0.00     0.278 C 
ENDBRANCH   1  12
BRANCH   2  14
ATOM     14  O   UNL     1       0.519  46.643   4.310  1.00  0.00    -0.504 OA
ATOM     15  H   UNL     1       0.677  47.642   4.380  1.00  0.00     0.293 HD
ENDBRANCH   2  14
TORSDOF 2
ENDMDL
MODEL 8
REMARK VINA RESULT:    -6.259      1.882      4.660
REMARK INTER + INTRA:          -6.869
REMARK INTER:                  -6.822
REMARK INTRA:                  -0.047
REMARK UNBOUND:                -0.061
REMARK SMILES COc1cc2ccc(=O)oc2cc1O
REMARK SMILES IDX 3 1 13 2 12 3 11 4 5 5 4 6 6 7 7 8 8 9 9 10 10 11 2 12 1 13
REMARK SMILES IDX 14 14
REMARK H PARENT 14 15
REMARK Flexibility Score: inf
ROOT
ATOM      1  C   UNL     1      -3.613  44.503   0.022  1.00  0.00     0.161 A 
ATOM      2  C   UNL     1      -2.417  44.858  -0.622  1.00  0.00     0.161 A 
ATOM      3  C   UNL     1      -1.320  45.315   0.122  1.00  0.00     0.098 A 
ATOM      4  C   UNL     1      -1.407  45.420   1.513  1.00  0.00     0.142 A 
ATOM      5  C   UNL     1      -2.604  45.066   2.168  1.00  0.00     0.022 A 
ATOM      6  C   UNL     1      -3.702  44.609   1.424  1.00  0.00     0.062 A 
ATOM      7  C   UNL     1      -2.661  45.182   3.561  1.00  0.00     0.019 A 
ATOM      8  C   UNL     1      -1.543  45.641   4.256  1.00  0.00     0.094 A 
ATOM      9  C   UNL     1      -0.389  45.974   3.539  1.00  0.00     0.336 A 
ATOM     10  O   UNL     1       0.631  46.392   4.147  1.00  0.00    -0.246 OA
ATOM     11  O   UNL     1      -0.361  45.854   2.213  1.00  0.00    -0.423 OA
ENDROOT
BRANCH   1  12
ATOM     12  O   UNL     1      -4.684  44.051  -0.763  1.00  0.00    -0.493 OA
ATOM     13  C   UNL     1      -6.054  44.136  -0.383  1.00  0.00     0.278 C 
ENDBRANCH   1  12
BRANCH   2  14
ATOM     14  O   UNL     1      -2.327  44.754  -2.010  1.00  0.00    -0.504 OA
ATOM     15  H   UNL     1      -3.017  44.243  -2.549  1.00  0.00     0.293 HD
ENDBRANCH   2  14
TORSDOF 2
ENDMDL
MODEL 9
REMARK VINA RESULT:    -6.240      1.775      5.289
REMARK INTER + INTRA:          -6.848
REMARK INTER:                  -6.788
REMARK INTRA:                  -0.060
REMARK UNBOUND:                -0.061
REMARK SMILES COc1cc2ccc(=O)oc2cc1O
REMARK SMILES IDX 3 1 13 2 12 3 11 4 5 5 4 6 6 7 7 8 8 9 9 10 10 11 2 12 1 13
REMARK SMILES IDX 14 14
REMARK H PARENT 14 15
REMARK Flexibility Score: inf
ROOT
ATOM      1  C   UNL     1       0.263  44.828  -0.969  1.00  0.00     0.161 A 
ATOM      2  C   UNL     1       0.799  44.492   0.285  1.00  0.00     0.161 A 
ATOM      3  C   UNL     1      -0.032  44.408   1.411  1.00  0.00     0.098 A 
ATOM      4  C   UNL     1      -1.402  44.658   1.295  1.00  0.00     0.142 A 
ATOM      5  C   UNL     1      -1.949  44.997   0.041  1.00  0.00     0.022 A 
ATOM      6  C   UNL     1      -1.119  45.080  -1.086  1.00  0.00     0.062 A 
ATOM      7  C   UNL     1      -3.324  45.242  -0.043  1.00  0.00     0.019 A 
ATOM      8  C   UNL     1      -4.107  45.147   1.106  1.00  0.00     0.094 A 
ATOM      9  C   UNL     1      -3.495  44.806   2.317  1.00  0.00     0.336 A 
ATOM     10  O   UNL     1      -4.184  44.715   3.367  1.00  0.00    -0.246 OA
ATOM     11  O   UNL     1      -2.185  44.577   2.369  1.00  0.00    -0.423 OA
ENDROOT
BRANCH   1  12
ATOM     12  O   UNL     1       1.132  44.899  -2.068  1.00  0.00    -0.493 OA
ATOM     13  C   UNL     1       1.015  44.100  -3.241  1.00  0.00     0.278 C 
ENDBRANCH   1  12
BRANCH   2  14
ATOM     14  O   UNL     1       2.165  44.241   0.402  1.00  0.00    -0.504 OA
ATOM     15  H   UNL     1       2.826  44.562  -0.296  1.00  0.00     0.293 HD
ENDBRANCH   2  14
TORSDOF 2
ENDMDL
