MODEL 1
REMARK VINA RESULT:    -1.299      0.000      0.000
REMARK INTER + INTRA:          -2.265
REMARK INTER:                  -1.792
REMARK INTRA:                  -0.473
REMARK UNBOUND:                -0.473
REMARK SMILES CC[C@H](CC[C@@H](C)[C@@H]1CC[C@@H]2[C@@H]3CC=C4C[C@H](O)CC[C@]4(C)[C@@H]3CC[C@]21C)C(C)C
REMARK SMILES IDX 5 1 4 2 3 3 2 4 1 5 28 6 29 7 30 8 6 9 7 10 8 11 9 12 26 13
REMARK SMILES IDX 10 14 11 15 25 16 27 17 12 18 24 19 23 20 13 21 21 22 14 23
REMARK SMILES IDX 15 24 20 25 22 26 16 27 19 28 17 29 18 30
REMARK H PARENT 18 31
REMARK Flexibility Score: inf
ROOT
ATOM      1  C   UNL     1       9.178  -5.788  17.203  1.00  0.00     0.004 C 
ENDROOT
BRANCH   1   2
ATOM      2  C   UNL     1       8.499  -7.042  17.788  1.00  0.00     0.004 C 
BRANCH   2   3
ATOM      3  C   UNL     1       7.354  -6.770  18.807  1.00  0.00    -0.009 C 
BRANCH   3   4
ATOM      4  C   UNL     1       7.796  -5.968  20.063  1.00  0.00     0.000 C 
ATOM      5  C   UNL     1       8.513  -6.829  21.107  1.00  0.00     0.004 C 
ENDBRANCH   3   4
BRANCH   3   6
ATOM      6  C   UNL     1       6.063  -6.193  18.126  1.00  0.00    -0.014 C 
ATOM      7  C   UNL     1       5.656  -7.036  16.904  1.00  0.00     0.007 C 
ATOM      8  C   UNL     1       4.852  -6.050  19.068  1.00  0.00     0.007 C 
ENDBRANCH   3   6
ENDBRANCH   2   3
ENDBRANCH   1   2
BRANCH   1   9
ATOM      9  C   UNL     1       9.505  -5.917  15.692  1.00  0.00    -0.011 C 
ATOM     10  C   UNL     1       8.757  -7.125  15.085  1.00  0.00     0.008 C 
BRANCH   9  11
ATOM     11  C   UNL     1       9.240  -4.551  14.959  1.00  0.00    -0.002 C 
ATOM     12  C   UNL     1      10.462  -3.847  14.300  1.00  0.00     0.005 C 
ATOM     13  C   UNL     1       8.536  -3.421  15.765  1.00  0.00    -0.026 C 
ATOM     14  C   UNL     1      10.127  -2.341  14.259  1.00  0.00     0.005 C 
ATOM     15  C   UNL     1       8.686  -2.271  14.748  1.00  0.00    -0.001 C 
ATOM     16  C   UNL     1       7.028  -3.633  16.007  1.00  0.00     0.007 C 
ATOM     17  C   UNL     1       9.255  -3.208  17.130  1.00  0.00     0.012 C 
ATOM     18  C   UNL     1       8.052  -0.911  15.118  1.00  0.00     0.000 C 
ATOM     19  C   UNL     1       6.335  -2.324  16.466  1.00  0.00     0.005 C 
ATOM     20  C   UNL     1       6.550  -1.121  15.493  1.00  0.00     0.003 C 
ATOM     21  C   UNL     1       8.868  -0.065  16.118  1.00  0.00     0.031 C 
ATOM     22  C   UNL     1       5.857   0.239  15.914  1.00  0.00    -0.008 C 
ATOM     23  C   UNL     1       8.070   0.959  16.876  1.00  0.00    -0.027 C 
ATOM     24  C   UNL     1       6.726   1.055  16.873  1.00  0.00    -0.065 C 
ATOM     25  C   UNL     1       4.463  -0.018  16.576  1.00  0.00     0.014 C 
ATOM     26  C   UNL     1       5.640   1.094  14.633  1.00  0.00     0.016 C 
ATOM     27  C   UNL     1       6.101   2.232  17.605  1.00  0.00     0.063 C 
ATOM     28  C   UNL     1       3.816   1.235  17.185  1.00  0.00     0.033 C 
ATOM     29  C   UNL     1       4.740   1.882  18.224  1.00  0.00     0.118 C 
BRANCH  29  30
ATOM     30  O   UNL     1       4.912   1.012  19.315  1.00  0.00    -0.393 OA
ATOM     31  H   UNL     1       4.938   1.577  20.132  1.00  0.00     0.210 HD
ENDBRANCH  29  30
ENDBRANCH   9  11
ENDBRANCH   1   9
TORSDOF 7
ENDMDL
MODEL 2
REMARK VINA RESULT:    -0.536      2.181      6.806
REMARK INTER + INTRA:          -1.212
REMARK INTER:                  -2.417
REMARK INTRA:                   1.204
REMARK UNBOUND:                -0.473
REMARK SMILES CC[C@H](CC[C@@H](C)[C@@H]1CC[C@@H]2[C@@H]3CC=C4C[C@H](O)CC[C@]4(C)[C@@H]3CC[C@]21C)C(C)C
REMARK SMILES IDX 5 1 4 2 3 3 2 4 1 5 28 6 29 7 30 8 6 9 7 10 8 11 9 12 26 13
REMARK SMILES IDX 10 14 11 15 25 16 27 17 12 18 24 19 23 20 13 21 21 22 14 23
REMARK SMILES IDX 15 24 20 25 22 26 16 27 19 28 17 29 18 30
REMARK H PARENT 18 31
REMARK Flexibility Score: inf
ROOT
ATOM      1  C   UNL     1       6.796   1.872  16.110  1.00  0.00     0.004 C 
ENDROOT
BRANCH   1   2
ATOM      2  C   UNL     1       6.458   1.892  17.613  1.00  0.00     0.004 C 
BRANCH   2   3
ATOM      3  C   UNL     1       5.026   1.406  17.983  1.00  0.00    -0.009 C 
BRANCH   3   4
ATOM      4  C   UNL     1       4.111   1.126  16.757  1.00  0.00     0.000 C 
ATOM      5  C   UNL     1       4.871   0.563  15.553  1.00  0.00     0.004 C 
ENDBRANCH   3   4
BRANCH   3   6
ATOM      6  C   UNL     1       5.037   0.235  19.029  1.00  0.00    -0.014 C 
ATOM      7  C   UNL     1       4.722   0.752  20.444  1.00  0.00     0.007 C 
ATOM      8  C   UNL     1       4.086  -0.931  18.693  1.00  0.00     0.007 C 
ENDBRANCH   3   6
ENDBRANCH   2   3
ENDBRANCH   1   2
BRANCH   1   9
ATOM      9  C   UNL     1       8.314   2.023  15.823  1.00  0.00    -0.011 C 
ATOM     10  C   UNL     1       8.865   3.290  16.515  1.00  0.00     0.008 C 
BRANCH   9  11
ATOM     11  C   UNL     1       9.072   0.696  16.193  1.00  0.00    -0.002 C 
ATOM     12  C   UNL     1      10.549   0.562  15.720  1.00  0.00     0.005 C 
ATOM     13  C   UNL     1       8.414  -0.653  15.782  1.00  0.00    -0.026 C 
ATOM     14  C   UNL     1      10.832  -0.950  15.597  1.00  0.00     0.005 C 
ATOM     15  C   UNL     1       9.572  -1.606  16.146  1.00  0.00    -0.001 C 
ATOM     16  C   UNL     1       7.191  -1.067  16.623  1.00  0.00     0.007 C 
ATOM     17  C   UNL     1       8.022  -0.621  14.276  1.00  0.00     0.012 C 
ATOM     18  C   UNL     1       9.331  -3.120  15.952  1.00  0.00     0.000 C 
ATOM     19  C   UNL     1       6.834  -2.562  16.414  1.00  0.00     0.005 C 
ATOM     20  C   UNL     1       8.021  -3.538  16.692  1.00  0.00     0.003 C 
ATOM     21  C   UNL     1       9.450  -3.614  14.495  1.00  0.00     0.031 C 
ATOM     22  C   UNL     1       7.706  -5.079  16.498  1.00  0.00    -0.008 C 
ATOM     23  C   UNL     1       8.731  -4.901  14.204  1.00  0.00    -0.027 C 
ATOM     24  C   UNL     1       7.879  -5.523  15.044  1.00  0.00    -0.065 C 
ATOM     25  C   UNL     1       6.255  -5.423  16.971  1.00  0.00     0.014 C 
ATOM     26  C   UNL     1       8.709  -5.895  17.361  1.00  0.00     0.016 C 
ATOM     27  C   UNL     1       7.339  -6.881  14.624  1.00  0.00     0.063 C 
ATOM     28  C   UNL     1       5.809  -6.854  16.636  1.00  0.00     0.033 C 
ATOM     29  C   UNL     1       5.910  -7.125  15.130  1.00  0.00     0.118 C 
BRANCH  29  30
ATOM     30  O   UNL     1       5.002  -6.305  14.437  1.00  0.00    -0.393 OA
ATOM     31  H   UNL     1       4.136  -6.791  14.413  1.00  0.00     0.210 HD
ENDBRANCH  29  30
ENDBRANCH   9  11
ENDBRANCH   1   9
TORSDOF 7
ENDMDL
MODEL 3
REMARK VINA RESULT:    -0.203      1.273      2.038
REMARK INTER + INTRA:          -0.753
REMARK INTER:                  -1.947
REMARK INTRA:                   1.194
REMARK UNBOUND:                -0.473
REMARK SMILES CC[C@H](CC[C@@H](C)[C@@H]1CC[C@@H]2[C@@H]3CC=C4C[C@H](O)CC[C@]4(C)[C@@H]3CC[C@]21C)C(C)C
REMARK SMILES IDX 5 1 4 2 3 3 2 4 1 5 28 6 29 7 30 8 6 9 7 10 8 11 9 12 26 13
REMARK SMILES IDX 10 14 11 15 25 16 27 17 12 18 24 19 23 20 13 21 21 22 14 23
REMARK SMILES IDX 15 24 20 25 22 26 16 27 19 28 17 29 18 30
REMARK H PARENT 18 31
REMARK Flexibility Score: inf
ROOT
ATOM      1  C   UNL     1       8.456  -6.488  17.949  1.00  0.00     0.004 C 
ENDROOT
BRANCH   1   2
ATOM      2  C   UNL     1       7.478  -5.990  19.031  1.00  0.00     0.004 C 
BRANCH   2   3
ATOM      3  C   UNL     1       7.011  -7.065  20.056  1.00  0.00    -0.009 C 
BRANCH   3   4
ATOM      4  C   UNL     1       7.751  -7.008  21.421  1.00  0.00     0.000 C 
ATOM      5  C   UNL     1       8.360  -5.636  21.722  1.00  0.00     0.004 C 
ENDBRANCH   3   4
BRANCH   3   6
ATOM      6  C   UNL     1       5.449  -7.125  20.200  1.00  0.00    -0.014 C 
ATOM      7  C   UNL     1       5.015  -6.882  21.656  1.00  0.00     0.007 C 
ATOM      8  C   UNL     1       4.684  -6.157  19.276  1.00  0.00     0.007 C 
ENDBRANCH   3   6
ENDBRANCH   2   3
ENDBRANCH   1   2
BRANCH   1   9
ATOM      9  C   UNL     1       7.762  -6.815  16.600  1.00  0.00    -0.011 C 
ATOM     10  C   UNL     1       6.266  -7.125  16.831  1.00  0.00     0.008 C 
BRANCH   9  11
ATOM     11  C   UNL     1       8.037  -5.671  15.557  1.00  0.00    -0.002 C 
ATOM     12  C   UNL     1       9.341  -5.775  14.712  1.00  0.00     0.005 C 
ATOM     13  C   UNL     1       8.031  -4.203  16.072  1.00  0.00    -0.026 C 
ATOM     14  C   UNL     1       9.712  -4.334  14.305  1.00  0.00     0.005 C 
ATOM     15  C   UNL     1       8.538  -3.499  14.796  1.00  0.00    -0.001 C 
ATOM     16  C   UNL     1       6.638  -3.629  16.396  1.00  0.00     0.007 C 
ATOM     17  C   UNL     1       8.951  -4.069  17.321  1.00  0.00     0.012 C 
ATOM     18  C   UNL     1       8.637  -1.957  14.830  1.00  0.00     0.000 C 
ATOM     19  C   UNL     1       6.673  -2.085  16.531  1.00  0.00     0.005 C 
ATOM     20  C   UNL     1       7.267  -1.356  15.283  1.00  0.00     0.003 C 
ATOM     21  C   UNL     1       9.874  -1.401  15.567  1.00  0.00     0.031 C 
ATOM     22  C   UNL     1       7.321   0.224  15.368  1.00  0.00    -0.008 C 
ATOM     23  C   UNL     1       9.731   0.010  16.065  1.00  0.00    -0.027 C 
ATOM     24  C   UNL     1       8.586   0.720  16.071  1.00  0.00    -0.065 C 
ATOM     25  C   UNL     1       6.065   0.794  16.108  1.00  0.00     0.014 C 
ATOM     26  C   UNL     1       7.334   0.792  13.920  1.00  0.00     0.016 C 
ATOM     27  C   UNL     1       8.661   2.177  16.501  1.00  0.00     0.063 C 
ATOM     28  C   UNL     1       6.138   2.300  16.401  1.00  0.00     0.033 C 
ATOM     29  C   UNL     1       7.388   2.642  17.222  1.00  0.00     0.118 C 
BRANCH  29  30
ATOM     30  O   UNL     1       7.301   2.043  18.491  1.00  0.00    -0.393 OA
ATOM     31  H   UNL     1       6.988   1.111  18.348  1.00  0.00     0.210 HD
ENDBRANCH  29  30
ENDBRANCH   9  11
ENDBRANCH   1   9
TORSDOF 7
ENDMDL
MODEL 4
REMARK VINA RESULT:     0.416      1.064      1.532
REMARK INTER + INTRA:           0.101
REMARK INTER:                   0.857
REMARK INTRA:                  -0.756
REMARK UNBOUND:                -0.473
REMARK SMILES CC[C@H](CC[C@@H](C)[C@@H]1CC[C@@H]2[C@@H]3CC=C4C[C@H](O)CC[C@]4(C)[C@@H]3CC[C@]21C)C(C)C
REMARK SMILES IDX 5 1 4 2 3 3 2 4 1 5 28 6 29 7 30 8 6 9 7 10 8 11 9 12 26 13
REMARK SMILES IDX 10 14 11 15 25 16 27 17 12 18 24 19 23 20 13 21 21 22 14 23
REMARK SMILES IDX 15 24 20 25 22 26 16 27 19 28 17 29 18 30
REMARK H PARENT 18 31
REMARK Flexibility Score: inf
ROOT
ATOM      1  C   UNL     1       9.637  -5.063  16.232  1.00  0.00     0.004 C 
ENDROOT
BRANCH   1   2
ATOM      2  C   UNL     1       8.910  -6.406  16.030  1.00  0.00     0.004 C 
BRANCH   2   3
ATOM      3  C   UNL     1       8.040  -6.882  17.230  1.00  0.00    -0.009 C 
BRANCH   3   4
ATOM      4  C   UNL     1       8.324  -6.132  18.561  1.00  0.00     0.000 C 
ATOM      5  C   UNL     1       8.624  -7.072  19.732  1.00  0.00     0.004 C 
ENDBRANCH   3   4
BRANCH   3   6
ATOM      6  C   UNL     1       6.513  -6.960  16.876  1.00  0.00    -0.014 C 
ATOM      7  C   UNL     1       5.670  -6.131  17.862  1.00  0.00     0.007 C 
ATOM      8  C   UNL     1       6.167  -6.535  15.435  1.00  0.00     0.007 C 
ENDBRANCH   3   6
ENDBRANCH   2   3
ENDBRANCH   1   2
BRANCH   1   9
ATOM      9  C   UNL     1      10.270  -4.508  14.927  1.00  0.00    -0.011 C 
ATOM     10  C   UNL     1      10.382  -5.628  13.869  1.00  0.00     0.008 C 
BRANCH   9  11
ATOM     11  C   UNL     1       9.488  -3.231  14.445  1.00  0.00    -0.002 C 
ATOM     12  C   UNL     1      10.301  -2.142  13.687  1.00  0.00     0.005 C 
ATOM     13  C   UNL     1       8.676  -2.434  15.506  1.00  0.00    -0.026 C 
ATOM     14  C   UNL     1       9.556  -0.809  13.910  1.00  0.00     0.005 C 
ATOM     15  C   UNL     1       8.286  -1.216  14.645  1.00  0.00    -0.001 C 
ATOM     16  C   UNL     1       7.371  -3.109  15.973  1.00  0.00     0.007 C 
ATOM     17  C   UNL     1       9.570  -2.123  16.742  1.00  0.00     0.012 C 
ATOM     18  C   UNL     1       7.386  -0.144  15.300  1.00  0.00     0.000 C 
ATOM     19  C   UNL     1       6.448  -2.111  16.719  1.00  0.00     0.005 C 
ATOM     20  C   UNL     1       6.113  -0.826  15.896  1.00  0.00     0.003 C 
ATOM     21  C   UNL     1       8.118   0.826  16.251  1.00  0.00     0.031 C 
ATOM     22  C   UNL     1       5.167   0.224  16.612  1.00  0.00    -0.008 C 
ATOM     23  C   UNL     1       7.238   1.498  17.267  1.00  0.00    -0.027 C 
ATOM     24  C   UNL     1       5.950   1.185  17.509  1.00  0.00    -0.065 C 
ATOM     25  C   UNL     1       4.068  -0.494  17.464  1.00  0.00     0.014 C 
ATOM     26  C   UNL     1       4.462   1.072  15.517  1.00  0.00     0.016 C 
ATOM     27  C   UNL     1       5.184   2.057  18.492  1.00  0.00     0.063 C 
ATOM     28  C   UNL     1       3.236   0.454  18.340  1.00  0.00     0.033 C 
ATOM     29  C   UNL     1       4.133   1.265  19.282  1.00  0.00     0.118 C 
BRANCH  29  30
ATOM     30  O   UNL     1       4.762   0.403  20.199  1.00  0.00    -0.393 OA
ATOM     31  H   UNL     1       5.606   0.098  19.773  1.00  0.00     0.210 HD
ENDBRANCH  29  30
ENDBRANCH   9  11
ENDBRANCH   1   9
TORSDOF 7
ENDMDL
MODEL 5
REMARK VINA RESULT:     0.416      2.197      6.764
REMARK INTER + INTRA:           0.101
REMARK INTER:                  -1.075
REMARK INTRA:                   1.177
REMARK UNBOUND:                -0.473
REMARK SMILES CC[C@H](CC[C@@H](C)[C@@H]1CC[C@@H]2[C@@H]3CC=C4C[C@H](O)CC[C@]4(C)[C@@H]3CC[C@]21C)C(C)C
REMARK SMILES IDX 5 1 4 2 3 3 2 4 1 5 28 6 29 7 30 8 6 9 7 10 8 11 9 12 26 13
REMARK SMILES IDX 10 14 11 15 25 16 27 17 12 18 24 19 23 20 13 21 21 22 14 23
REMARK SMILES IDX 15 24 20 25 22 26 16 27 19 28 17 29 18 30
REMARK H PARENT 18 31
REMARK Flexibility Score: inf
ROOT
ATOM      1  C   UNL     1       6.943   1.864  15.980  1.00  0.00     0.004 C 
ENDROOT
BRANCH   1   2
ATOM      2  C   UNL     1       6.509   2.181  17.425  1.00  0.00     0.004 C 
BRANCH   2   3
ATOM      3  C   UNL     1       5.384   1.272  17.999  1.00  0.00    -0.009 C 
BRANCH   3   4
ATOM      4  C   UNL     1       4.758   1.791  19.324  1.00  0.00     0.000 C 
ATOM      5  C   UNL     1       4.737   0.738  20.436  1.00  0.00     0.004 C 
ENDBRANCH   3   4
BRANCH   3   6
ATOM      6  C   UNL     1       4.314   0.879  16.920  1.00  0.00    -0.014 C 
ATOM      7  C   UNL     1       4.948   0.774  15.521  1.00  0.00     0.007 C 
ATOM      8  C   UNL     1       3.544  -0.421  17.225  1.00  0.00     0.007 C 
ENDBRANCH   3   6
ENDBRANCH   2   3
ENDBRANCH   1   2
BRANCH   1   9
ATOM      9  C   UNL     1       8.474   1.996  15.759  1.00  0.00    -0.011 C 
ATOM     10  C   UNL     1       9.010   3.259  16.470  1.00  0.00     0.008 C 
BRANCH   9  11
ATOM     11  C   UNL     1       9.199   0.661  16.166  1.00  0.00    -0.002 C 
ATOM     12  C   UNL     1      10.691   0.505  15.751  1.00  0.00     0.005 C 
ATOM     13  C   UNL     1       8.540  -0.682  15.738  1.00  0.00    -0.026 C 
ATOM     14  C   UNL     1      10.958  -1.011  15.649  1.00  0.00     0.005 C 
ATOM     15  C   UNL     1       9.669  -1.647  16.153  1.00  0.00    -0.001 C 
ATOM     16  C   UNL     1       7.279  -1.074  16.533  1.00  0.00     0.007 C 
ATOM     17  C   UNL     1       8.207  -0.654  14.217  1.00  0.00     0.012 C 
ATOM     18  C   UNL     1       9.416  -3.159  15.957  1.00  0.00     0.000 C 
ATOM     19  C   UNL     1       6.910  -2.565  16.319  1.00  0.00     0.005 C 
ATOM     20  C   UNL     1       8.072  -3.555  16.648  1.00  0.00     0.003 C 
ATOM     21  C   UNL     1       9.585  -3.664  14.509  1.00  0.00     0.031 C 
ATOM     22  C   UNL     1       7.745  -5.093  16.451  1.00  0.00    -0.008 C 
ATOM     23  C   UNL     1       8.860  -4.944  14.199  1.00  0.00    -0.027 C 
ATOM     24  C   UNL     1       7.968  -5.548  15.008  1.00  0.00    -0.065 C 
ATOM     25  C   UNL     1       6.272  -5.415  16.869  1.00  0.00     0.014 C 
ATOM     26  C   UNL     1       8.702  -5.917  17.358  1.00  0.00     0.016 C 
ATOM     27  C   UNL     1       7.427  -6.902  14.575  1.00  0.00     0.063 C 
ATOM     28  C   UNL     1       5.820  -6.842  16.525  1.00  0.00     0.033 C 
ATOM     29  C   UNL     1       5.977  -7.124  15.026  1.00  0.00     0.118 C 
BRANCH  29  30
ATOM     30  O   UNL     1       5.107  -6.296  14.293  1.00  0.00    -0.393 OA
ATOM     31  H   UNL     1       5.606  -5.998  13.488  1.00  0.00     0.210 HD
ENDBRANCH  29  30
ENDBRANCH   9  11
ENDBRANCH   1   9
TORSDOF 7
ENDMDL
