MODEL 1
REMARK VINA RESULT:    -5.854      0.000      0.000
REMARK INTER + INTRA:         -16.157
REMARK INTER:                 -12.699
REMARK INTRA:                  -3.457
REMARK UNBOUND:                -3.457
REMARK SMILES CCCCCCCCCCCCCCCCCCCCCC(=O)[O-]
REMARK SMILES IDX 12 1 11 2 10 3 9 4 8 5 7 6 6 7 5 8 4 9 3 10 2 11 1 12 13 13
REMARK SMILES IDX 14 14 15 15 16 16 17 17 18 18 19 19 20 20 21 21 22 22 23 23
REMARK SMILES IDX 24 24
REMARK H PARENT
REMARK Flexibility Score: inf
ROOT
ATOM      1  C   UNL     1     105.180 106.107 233.733  1.00  0.00     0.000 C 
ENDROOT
BRANCH   1   2
ATOM      2  C   UNL     1     103.650 106.083 233.872  1.00  0.00     0.000 C 
BRANCH   2   3
ATOM      3  C   UNL     1     102.983 105.798 232.521  1.00  0.00     0.000 C 
BRANCH   3   4
ATOM      4  C   UNL     1     102.104 106.981 232.080  1.00  0.00    -0.000 C 
BRANCH   4   5
ATOM      5  C   UNL     1     102.594 107.631 230.775  1.00  0.00    -0.000 C 
BRANCH   5   6
ATOM      6  C   UNL     1     104.053 108.110 230.861  1.00  0.00    -0.000 C 
BRANCH   6   7
ATOM      7  C   UNL     1     104.845 107.846 229.566  1.00  0.00    -0.000 C 
BRANCH   7   8
ATOM      8  C   UNL     1     104.841 106.381 229.089  1.00  0.00    -0.000 C 
BRANCH   8   9
ATOM      9  C   UNL     1     104.089 106.132 227.768  1.00  0.00    -0.000 C 
BRANCH   9  10
ATOM     10  C   UNL     1     104.583 104.885 226.999  1.00  0.00    -0.000 C 
BRANCH  10  11
ATOM     11  C   UNL     1     105.943 104.360 227.488  1.00  0.00    -0.003 C 
ATOM     12  C   UNL     1     106.803 103.817 226.347  1.00  0.00     0.004 C 
ENDBRANCH  10  11
ENDBRANCH   9  10
ENDBRANCH   8   9
ENDBRANCH   7   8
ENDBRANCH   6   7
ENDBRANCH   5   6
ENDBRANCH   4   5
ENDBRANCH   3   4
ENDBRANCH   2   3
ENDBRANCH   1   2
BRANCH   1  13
ATOM     13  C   UNL     1     105.686 105.166 232.628  1.00  0.00     0.000 C 
BRANCH  13  14
ATOM     14  C   UNL     1     107.057 104.550 232.962  1.00  0.00     0.000 C 
BRANCH  14  15
ATOM     15  C   UNL     1     107.859 104.186 231.703  1.00  0.00     0.000 C 
BRANCH  15  16
ATOM     16  C   UNL     1     107.027 103.384 230.686  1.00  0.00     0.000 C 
BRANCH  16  17
ATOM     17  C   UNL     1     106.580 102.015 231.231  1.00  0.00     0.000 C 
BRANCH  17  18
ATOM     18  C   UNL     1     105.264 101.485 230.633  1.00  0.00     0.000 C 
BRANCH  18  19
ATOM     19  C   UNL     1     104.022 102.184 231.213  1.00  0.00     0.000 C 
BRANCH  19  20
ATOM     20  C   UNL     1     103.357 103.134 230.205  1.00  0.00     0.006 C 
BRANCH  20  21
ATOM     21  C   UNL     1     101.879 102.797 229.967  1.00  0.00     0.053 C 
BRANCH  21  22
ATOM     22  C   UNL     1     101.207 103.897 229.207  1.00  0.00     0.041 C 
ATOM     23  O   UNL     1     100.681 104.863 229.820  1.00  0.00    -0.550 OA
ATOM     24  O   UNL     1     101.198 103.877 227.817  1.00  0.00    -0.550 OA
ENDBRANCH  21  22
ENDBRANCH  20  21
ENDBRANCH  19  20
ENDBRANCH  18  19
ENDBRANCH  17  18
ENDBRANCH  16  17
ENDBRANCH  15  16
ENDBRANCH  14  15
ENDBRANCH  13  14
ENDBRANCH   1  13
TORSDOF 20
ENDMDL
MODEL 2
REMARK VINA RESULT:    -5.762      2.409      4.114
REMARK INTER + INTRA:         -15.956
REMARK INTER:                 -12.107
REMARK INTRA:                  -3.848
REMARK UNBOUND:                -3.457
REMARK SMILES CCCCCCCCCCCCCCCCCCCCCC(=O)[O-]
REMARK SMILES IDX 12 1 11 2 10 3 9 4 8 5 7 6 6 7 5 8 4 9 3 10 2 11 1 12 13 13
REMARK SMILES IDX 14 14 15 15 16 16 17 17 18 18 19 19 20 20 21 21 22 22 23 23
REMARK SMILES IDX 24 24
REMARK H PARENT
REMARK Flexibility Score: inf
ROOT
ATOM      1  C   UNL     1     102.362 105.479 233.049  1.00  0.00     0.000 C 
ENDROOT
BRANCH   1   2
ATOM      2  C   UNL     1     103.217 106.189 234.110  1.00  0.00     0.000 C 
BRANCH   2   3
ATOM      3  C   UNL     1     104.707 106.105 233.757  1.00  0.00     0.000 C 
BRANCH   3   4
ATOM      4  C   UNL     1     104.906 105.573 232.329  1.00  0.00    -0.000 C 
BRANCH   4   5
ATOM      5  C   UNL     1     105.566 106.603 231.397  1.00  0.00    -0.000 C 
BRANCH   5   6
ATOM      6  C   UNL     1     104.616 107.751 231.014  1.00  0.00    -0.000 C 
BRANCH   6   7
ATOM      7  C   UNL     1     104.394 107.860 229.494  1.00  0.00    -0.000 C 
BRANCH   7   8
ATOM      8  C   UNL     1     104.952 106.684 228.669  1.00  0.00    -0.000 C 
BRANCH   8   9
ATOM      9  C   UNL     1     104.059 106.234 227.497  1.00  0.00    -0.000 C 
BRANCH   9  10
ATOM     10  C   UNL     1     104.491 104.889 226.870  1.00  0.00    -0.000 C 
BRANCH  10  11
ATOM     11  C   UNL     1     105.837 104.366 227.402  1.00  0.00    -0.003 C 
ATOM     12  C   UNL     1     106.788 103.955 226.279  1.00  0.00     0.004 C 
ENDBRANCH  10  11
ENDBRANCH   9  10
ENDBRANCH   8   9
ENDBRANCH   7   8
ENDBRANCH   6   7
ENDBRANCH   5   6
ENDBRANCH   4   5
ENDBRANCH   3   4
ENDBRANCH   2   3
ENDBRANCH   1   2
BRANCH   1  13
ATOM     13  C   UNL     1     101.070 106.245 232.723  1.00  0.00     0.000 C 
BRANCH  13  14
ATOM     14  C   UNL     1     100.509 105.889 231.334  1.00  0.00     0.000 C 
BRANCH  14  15
ATOM     15  C   UNL     1     101.618 105.666 230.293  1.00  0.00     0.000 C 
BRANCH  15  16
ATOM     16  C   UNL     1     101.644 104.222 229.762  1.00  0.00     0.000 C 
BRANCH  16  17
ATOM     17  C   UNL     1     103.025 103.558 229.910  1.00  0.00     0.000 C 
BRANCH  17  18
ATOM     18  C   UNL     1     103.005 102.182 230.601  1.00  0.00     0.000 C 
BRANCH  18  19
ATOM     19  C   UNL     1     104.389 101.758 231.122  1.00  0.00     0.000 C 
BRANCH  19  20
ATOM     20  C   UNL     1     105.529 102.575 230.495  1.00  0.00     0.006 C 
BRANCH  20  21
ATOM     21  C   UNL     1     106.810 102.542 231.340  1.00  0.00     0.053 C 
BRANCH  21  22
ATOM     22  C   UNL     1     107.898 103.323 230.673  1.00  0.00     0.041 C 
ATOM     23  O   UNL     1     108.327 102.975 229.541  1.00  0.00    -0.550 OA
ATOM     24  O   UNL     1     108.410 104.461 231.283  1.00  0.00    -0.550 OA
ENDBRANCH  21  22
ENDBRANCH  20  21
ENDBRANCH  19  20
ENDBRANCH  18  19
ENDBRANCH  17  18
ENDBRANCH  16  17
ENDBRANCH  15  16
ENDBRANCH  14  15
ENDBRANCH  13  14
ENDBRANCH   1  13
TORSDOF 20
ENDMDL
MODEL 3
REMARK VINA RESULT:    -5.745      2.057      4.702
REMARK INTER + INTRA:         -15.920
REMARK INTER:                 -12.031
REMARK INTRA:                  -3.890
REMARK UNBOUND:                -3.457
REMARK SMILES CCCCCCCCCCCCCCCCCCCCCC(=O)[O-]
REMARK SMILES IDX 12 1 11 2 10 3 9 4 8 5 7 6 6 7 5 8 4 9 3 10 2 11 1 12 13 13
REMARK SMILES IDX 14 14 15 15 16 16 17 17 18 18 19 19 20 20 21 21 22 22 23 23
REMARK SMILES IDX 24 24
REMARK H PARENT
REMARK Flexibility Score: inf
ROOT
ATOM      1  C   UNL     1     102.786 105.517 233.001  1.00  0.00     0.000 C 
ENDROOT
BRANCH   1   2
ATOM      2  C   UNL     1     101.467 106.304 232.958  1.00  0.00     0.000 C 
BRANCH   2   3
ATOM      3  C   UNL     1     100.839 106.243 231.560  1.00  0.00     0.000 C 
BRANCH   3   4
ATOM      4  C   UNL     1     101.846 105.715 230.526  1.00  0.00    -0.000 C 
BRANCH   4   5
ATOM      5  C   UNL     1     101.196 104.797 229.477  1.00  0.00    -0.000 C 
BRANCH   5   6
ATOM      6  C   UNL     1     101.940 103.460 229.318  1.00  0.00    -0.000 C 
BRANCH   6   7
ATOM      7  C   UNL     1     101.747 102.522 230.525  1.00  0.00    -0.000 C 
BRANCH   7   8
ATOM      8  C   UNL     1     103.044 102.128 231.256  1.00  0.00    -0.000 C 
BRANCH   8   9
ATOM      9  C   UNL     1     104.185 101.648 230.340  1.00  0.00    -0.000 C 
BRANCH   9  10
ATOM     10  C   UNL     1     105.570 101.642 231.026  1.00  0.00    -0.000 C 
BRANCH  10  11
ATOM     11  C   UNL     1     105.855 102.911 231.848  1.00  0.00    -0.003 C 
ATOM     12  C   UNL     1     107.275 103.435 231.639  1.00  0.00     0.004 C 
ENDBRANCH  10  11
ENDBRANCH   9  10
ENDBRANCH   8   9
ENDBRANCH   7   8
ENDBRANCH   6   7
ENDBRANCH   5   6
ENDBRANCH   4   5
ENDBRANCH   3   4
ENDBRANCH   2   3
ENDBRANCH   1   2
BRANCH   1  13
ATOM     13  C   UNL     1     103.751 106.043 234.075  1.00  0.00     0.000 C 
BRANCH  13  14
ATOM     14  C   UNL     1     105.179 106.242 233.536  1.00  0.00     0.000 C 
BRANCH  14  15
ATOM     15  C   UNL     1     105.207 106.455 232.014  1.00  0.00     0.000 C 
BRANCH  15  16
ATOM     16  C   UNL     1     104.990 107.927 231.623  1.00  0.00     0.000 C 
BRANCH  16  17
ATOM     17  C   UNL     1     104.705 108.108 230.121  1.00  0.00     0.000 C 
BRANCH  17  18
ATOM     18  C   UNL     1     105.249 106.981 229.223  1.00  0.00     0.000 C 
BRANCH  18  19
ATOM     19  C   UNL     1     104.382 106.744 227.975  1.00  0.00     0.000 C 
BRANCH  19  20
ATOM     20  C   UNL     1     104.502 105.308 227.439  1.00  0.00     0.006 C 
BRANCH  20  21
ATOM     21  C   UNL     1     105.350 104.410 228.350  1.00  0.00     0.053 C 
BRANCH  21  22
ATOM     22  C   UNL     1     106.498 103.826 227.589  1.00  0.00     0.041 C 
ATOM     23  O   UNL     1     107.523 103.421 228.198  1.00  0.00    -0.550 OA
ATOM     24  O   UNL     1     106.418 103.689 226.209  1.00  0.00    -0.550 OA
ENDBRANCH  21  22
ENDBRANCH  20  21
ENDBRANCH  19  20
ENDBRANCH  18  19
ENDBRANCH  17  18
ENDBRANCH  16  17
ENDBRANCH  15  16
ENDBRANCH  14  15
ENDBRANCH  13  14
ENDBRANCH   1  13
TORSDOF 20
ENDMDL
MODEL 4
REMARK VINA RESULT:    -5.741      3.224      5.613
REMARK INTER + INTRA:         -15.912
REMARK INTER:                 -12.374
REMARK INTRA:                  -3.537
REMARK UNBOUND:                -3.457
REMARK SMILES CCCCCCCCCCCCCCCCCCCCCC(=O)[O-]
REMARK SMILES IDX 12 1 11 2 10 3 9 4 8 5 7 6 6 7 5 8 4 9 3 10 2 11 1 12 13 13
REMARK SMILES IDX 14 14 15 15 16 16 17 17 18 18 19 19 20 20 21 21 22 22 23 23
REMARK SMILES IDX 24 24
REMARK H PARENT
REMARK Flexibility Score: inf
ROOT
ATOM      1  C   UNL     1     101.129 103.285 229.437  1.00  0.00     0.000 C 
ENDROOT
BRANCH   1   2
ATOM      2  C   UNL     1     101.106 104.699 230.039  1.00  0.00     0.000 C 
BRANCH   2   3
ATOM      3  C   UNL     1     101.759 105.709 229.088  1.00  0.00     0.000 C 
BRANCH   3   4
ATOM      4  C   UNL     1     102.063 105.066 227.725  1.00  0.00    -0.000 C 
BRANCH   4   5
ATOM      5  C   UNL     1     103.355 105.605 227.088  1.00  0.00    -0.000 C 
BRANCH   5   6
ATOM      6  C   UNL     1     104.564 104.685 227.327  1.00  0.00    -0.000 C 
BRANCH   6   7
ATOM      7  C   UNL     1     105.591 105.291 228.302  1.00  0.00    -0.000 C 
BRANCH   7   8
ATOM      8  C   UNL     1     105.227 106.685 228.847  1.00  0.00    -0.000 C 
BRANCH   8   9
ATOM      9  C   UNL     1     105.754 106.985 230.263  1.00  0.00    -0.000 C 
BRANCH   9  10
ATOM     10  C   UNL     1     104.636 107.238 231.300  1.00  0.00    -0.000 C 
BRANCH  10  11
ATOM     11  C   UNL     1     104.338 106.022 232.193  1.00  0.00    -0.003 C 
ATOM     12  C   UNL     1     105.189 106.008 233.462  1.00  0.00     0.004 C 
ENDBRANCH  10  11
ENDBRANCH   9  10
ENDBRANCH   8   9
ENDBRANCH   7   8
ENDBRANCH   6   7
ENDBRANCH   5   6
ENDBRANCH   4   5
ENDBRANCH   3   4
ENDBRANCH   2   3
ENDBRANCH   1   2
BRANCH   1  13
ATOM     13  C   UNL     1     101.701 102.240 230.408  1.00  0.00     0.000 C 
BRANCH  13  14
ATOM     14  C   UNL     1     102.895 102.779 231.217  1.00  0.00     0.000 C 
BRANCH  14  15
ATOM     15  C   UNL     1     104.224 102.655 230.455  1.00  0.00     0.000 C 
BRANCH  15  16
ATOM     16  C   UNL     1     105.009 101.389 230.845  1.00  0.00     0.000 C 
BRANCH  16  17
ATOM     17  C   UNL     1     106.474 101.686 231.210  1.00  0.00     0.000 C 
BRANCH  17  18
ATOM     18  C   UNL     1     106.725 103.104 231.758  1.00  0.00     0.000 C 
BRANCH  18  19
ATOM     19  C   UNL     1     107.782 103.876 230.950  1.00  0.00     0.000 C 
BRANCH  19  20
ATOM     20  C   UNL     1     108.233 103.116 229.693  1.00  0.00     0.006 C 
BRANCH  20  21
ATOM     21  C   UNL     1     109.621 102.483 229.856  1.00  0.00     0.053 C 
BRANCH  21  22
ATOM     22  C   UNL     1     110.645 103.264 229.095  1.00  0.00     0.041 C 
ATOM     23  O   UNL     1     111.588 103.837 229.704  1.00  0.00    -0.550 OA
ATOM     24  O   UNL     1     110.585 103.325 227.709  1.00  0.00    -0.550 OA
ENDBRANCH  21  22
ENDBRANCH  20  21
ENDBRANCH  19  20
ENDBRANCH  18  19
ENDBRANCH  17  18
ENDBRANCH  16  17
ENDBRANCH  15  16
ENDBRANCH  14  15
ENDBRANCH  13  14
ENDBRANCH   1  13
TORSDOF 20
ENDMDL
MODEL 5
REMARK VINA RESULT:    -5.741      1.704      4.160
REMARK INTER + INTRA:         -15.910
REMARK INTER:                 -12.141
REMARK INTRA:                  -3.769
REMARK UNBOUND:                -3.457
REMARK SMILES CCCCCCCCCCCCCCCCCCCCCC(=O)[O-]
REMARK SMILES IDX 12 1 11 2 10 3 9 4 8 5 7 6 6 7 5 8 4 9 3 10 2 11 1 12 13 13
REMARK SMILES IDX 14 14 15 15 16 16 17 17 18 18 19 19 20 20 21 21 22 22 23 23
REMARK SMILES IDX 24 24
REMARK H PARENT
REMARK Flexibility Score: inf
ROOT
ATOM      1  C   UNL     1     104.306 102.454 230.266  1.00  0.00     0.000 C 
ENDROOT
BRANCH   1   2
ATOM      2  C   UNL     1     102.934 102.577 230.948  1.00  0.00     0.000 C 
BRANCH   2   3
ATOM      3  C   UNL     1     101.806 102.583 229.909  1.00  0.00     0.000 C 
BRANCH   3   4
ATOM      4  C   UNL     1     100.841 103.755 230.151  1.00  0.00    -0.000 C 
BRANCH   4   5
ATOM      5  C   UNL     1     101.086 104.935 229.196  1.00  0.00    -0.000 C 
BRANCH   5   6
ATOM      6  C   UNL     1     101.649 104.491 227.836  1.00  0.00    -0.000 C 
BRANCH   6   7
ATOM      7  C   UNL     1     102.735 105.442 227.299  1.00  0.00    -0.000 C 
BRANCH   7   8
ATOM      8  C   UNL     1     104.174 104.897 227.379  1.00  0.00    -0.000 C 
BRANCH   8   9
ATOM      9  C   UNL     1     105.032 105.494 228.511  1.00  0.00    -0.000 C 
BRANCH   9  10
ATOM     10  C   UNL     1     104.680 106.962 228.847  1.00  0.00    -0.000 C 
BRANCH  10  11
ATOM     11  C   UNL     1     105.772 107.688 229.650  1.00  0.00    -0.003 C 
ATOM     12  C   UNL     1     105.196 108.735 230.602  1.00  0.00     0.004 C 
ENDBRANCH  10  11
ENDBRANCH   9  10
ENDBRANCH   8   9
ENDBRANCH   7   8
ENDBRANCH   6   7
ENDBRANCH   5   6
ENDBRANCH   4   5
ENDBRANCH   3   4
ENDBRANCH   2   3
ENDBRANCH   1   2
BRANCH   1  13
ATOM     13  C   UNL     1     105.053 101.174 230.672  1.00  0.00     0.000 C 
BRANCH  13  14
ATOM     14  C   UNL     1     106.464 101.464 231.215  1.00  0.00     0.000 C 
BRANCH  14  15
ATOM     15  C   UNL     1     106.476 102.618 232.230  1.00  0.00     0.000 C 
BRANCH  15  16
ATOM     16  C   UNL     1     107.327 103.809 231.756  1.00  0.00     0.000 C 
BRANCH  16  17
ATOM     17  C   UNL     1     106.595 105.156 231.893  1.00  0.00     0.000 C 
BRANCH  17  18
ATOM     18  C   UNL     1     105.895 105.372 233.248  1.00  0.00     0.000 C 
BRANCH  18  19
ATOM     19  C   UNL     1     104.668 106.294 233.144  1.00  0.00     0.000 C 
BRANCH  19  20
ATOM     20  C   UNL     1     103.550 105.690 232.278  1.00  0.00     0.006 C 
BRANCH  20  21
ATOM     21  C   UNL     1     102.400 106.676 232.034  1.00  0.00     0.053 C 
BRANCH  21  22
ATOM     22  C   UNL     1     101.276 106.416 232.988  1.00  0.00     0.041 C 
ATOM     23  O   UNL     1     100.100 106.276 232.560  1.00  0.00    -0.550 OA
ATOM     24  O   UNL     1     101.534 106.286 234.347  1.00  0.00    -0.550 OA
ENDBRANCH  21  22
ENDBRANCH  20  21
ENDBRANCH  19  20
ENDBRANCH  18  19
ENDBRANCH  17  18
ENDBRANCH  16  17
ENDBRANCH  15  16
ENDBRANCH  14  15
ENDBRANCH  13  14
ENDBRANCH   1  13
TORSDOF 20
ENDMDL
MODEL 6
REMARK VINA RESULT:    -5.716      2.859      5.060
REMARK INTER + INTRA:         -15.857
REMARK INTER:                 -12.389
REMARK INTRA:                  -3.468
REMARK UNBOUND:                -3.457
REMARK SMILES CCCCCCCCCCCCCCCCCCCCCC(=O)[O-]
REMARK SMILES IDX 12 1 11 2 10 3 9 4 8 5 7 6 6 7 5 8 4 9 3 10 2 11 1 12 13 13
REMARK SMILES IDX 14 14 15 15 16 16 17 17 18 18 19 19 20 20 21 21 22 22 23 23
REMARK SMILES IDX 24 24
REMARK H PARENT
REMARK Flexibility Score: inf
ROOT
ATOM      1  C   UNL     1     103.253 107.886 230.672  1.00  0.00     0.000 C 
ENDROOT
BRANCH   1   2
ATOM      2  C   UNL     1     104.761 108.144 230.824  1.00  0.00     0.000 C 
BRANCH   2   3
ATOM      3  C   UNL     1     105.560 107.334 229.796  1.00  0.00     0.000 C 
BRANCH   3   4
ATOM      4  C   UNL     1     104.674 106.922 228.609  1.00  0.00    -0.000 C 
BRANCH   4   5
ATOM      5  C   UNL     1     105.025 105.530 228.058  1.00  0.00    -0.000 C 
BRANCH   5   6
ATOM      6  C   UNL     1     104.038 105.052 226.979  1.00  0.00    -0.000 C 
BRANCH   6   7
ATOM      7  C   UNL     1     102.645 105.694 227.119  1.00  0.00    -0.000 C 
BRANCH   7   8
ATOM      8  C   UNL     1     101.548 104.754 227.655  1.00  0.00    -0.000 C 
BRANCH   8   9
ATOM      9  C   UNL     1     101.454 104.677 229.191  1.00  0.00    -0.000 C 
BRANCH   9  10
ATOM     10  C   UNL     1     100.929 103.319 229.712  1.00  0.00    -0.000 C 
BRANCH  10  11
ATOM     11  C   UNL     1     101.906 102.606 230.662  1.00  0.00    -0.003 C 
ATOM     12  C   UNL     1     103.355 102.699 230.185  1.00  0.00     0.004 C 
ENDBRANCH  10  11
ENDBRANCH   9  10
ENDBRANCH   8   9
ENDBRANCH   7   8
ENDBRANCH   6   7
ENDBRANCH   5   6
ENDBRANCH   4   5
ENDBRANCH   3   4
ENDBRANCH   2   3
ENDBRANCH   1   2
BRANCH   1  13
ATOM     13  C   UNL     1     102.697 106.975 231.779  1.00  0.00     0.000 C 
BRANCH  13  14
ATOM     14  C   UNL     1     103.672 105.846 232.157  1.00  0.00     0.000 C 
BRANCH  14  15
ATOM     15  C   UNL     1     104.097 105.906 233.633  1.00  0.00     0.000 C 
BRANCH  15  16
ATOM     16  C   UNL     1     105.626 105.951 233.804  1.00  0.00     0.000 C 
BRANCH  16  17
ATOM     17  C   UNL     1     106.373 105.239 232.662  1.00  0.00     0.000 C 
BRANCH  17  18
ATOM     18  C   UNL     1     106.760 103.779 232.960  1.00  0.00     0.000 C 
BRANCH  18  19
ATOM     19  C   UNL     1     106.839 102.913 231.691  1.00  0.00     0.000 C 
BRANCH  19  20
ATOM     20  C   UNL     1     106.811 103.752 230.404  1.00  0.00     0.006 C 
BRANCH  20  21
ATOM     21  C   UNL     1     107.800 103.241 229.348  1.00  0.00     0.053 C 
BRANCH  21  22
ATOM     22  C   UNL     1     109.130 102.955 229.970  1.00  0.00     0.041 C 
ATOM     23  O   UNL     1     109.586 101.781 229.983  1.00  0.00    -0.550 OA
ATOM     24  O   UNL     1     109.887 103.993 230.500  1.00  0.00    -0.550 OA
ENDBRANCH  21  22
ENDBRANCH  20  21
ENDBRANCH  19  20
ENDBRANCH  18  19
ENDBRANCH  17  18
ENDBRANCH  16  17
ENDBRANCH  15  16
ENDBRANCH  14  15
ENDBRANCH  13  14
ENDBRANCH   1  13
TORSDOF 20
ENDMDL
MODEL 7
REMARK VINA RESULT:    -5.685      2.769      4.693
REMARK INTER + INTRA:         -15.788
REMARK INTER:                 -12.186
REMARK INTRA:                  -3.602
REMARK UNBOUND:                -3.457
REMARK SMILES CCCCCCCCCCCCCCCCCCCCCC(=O)[O-]
REMARK SMILES IDX 12 1 11 2 10 3 9 4 8 5 7 6 6 7 5 8 4 9 3 10 2 11 1 12 13 13
REMARK SMILES IDX 14 14 15 15 16 16 17 17 18 18 19 19 20 20 21 21 22 22 23 23
REMARK SMILES IDX 24 24
REMARK H PARENT
REMARK Flexibility Score: inf
ROOT
ATOM      1  C   UNL     1     101.206 106.302 231.511  1.00  0.00     0.000 C 
ENDROOT
BRANCH   1   2
ATOM      2  C   UNL     1     100.803 106.527 232.977  1.00  0.00     0.000 C 
BRANCH   2   3
ATOM      3  C   UNL     1     101.945 106.139 233.924  1.00  0.00     0.000 C 
BRANCH   3   4
ATOM      4  C   UNL     1     103.148 105.589 233.140  1.00  0.00    -0.000 C 
BRANCH   4   5
ATOM      5  C   UNL     1     104.488 106.168 233.624  1.00  0.00    -0.000 C 
BRANCH   5   6
ATOM      6  C   UNL     1     105.468 106.439 232.470  1.00  0.00    -0.000 C 
BRANCH   6   7
ATOM      7  C   UNL     1     104.794 107.117 231.262  1.00  0.00    -0.000 C 
BRANCH   7   8
ATOM      8  C   UNL     1     105.705 107.314 230.035  1.00  0.00    -0.000 C 
BRANCH   8   9
ATOM      9  C   UNL     1     104.986 107.243 228.675  1.00  0.00    -0.000 C 
BRANCH   9  10
ATOM     10  C   UNL     1     103.882 106.162 228.614  1.00  0.00    -0.000 C 
BRANCH  10  11
ATOM     11  C   UNL     1     103.731 105.515 227.226  1.00  0.00    -0.003 C 
ATOM     12  C   UNL     1     104.970 104.720 226.816  1.00  0.00     0.004 C 
ENDBRANCH  10  11
ENDBRANCH   9  10
ENDBRANCH   8   9
ENDBRANCH   7   8
ENDBRANCH   6   7
ENDBRANCH   5   6
ENDBRANCH   4   5
ENDBRANCH   3   4
ENDBRANCH   2   3
ENDBRANCH   1   2
BRANCH   1  13
ATOM     13  C   UNL     1     100.343 105.234 230.820  1.00  0.00     0.000 C 
BRANCH  13  14
ATOM     14  C   UNL     1     100.844 104.900 229.403  1.00  0.00     0.000 C 
BRANCH  14  15
ATOM     15  C   UNL     1     101.217 103.416 229.247  1.00  0.00     0.000 C 
BRANCH  15  16
ATOM     16  C   UNL     1     101.667 102.780 230.575  1.00  0.00     0.000 C 
BRANCH  16  17
ATOM     17  C   UNL     1     103.064 102.142 230.486  1.00  0.00     0.000 C 
BRANCH  17  18
ATOM     18  C   UNL     1     104.232 103.115 230.732  1.00  0.00     0.000 C 
BRANCH  18  19
ATOM     19  C   UNL     1     105.539 102.659 230.060  1.00  0.00     0.000 C 
BRANCH  19  20
ATOM     20  C   UNL     1     106.541 103.810 229.881  1.00  0.00     0.006 C 
BRANCH  20  21
ATOM     21  C   UNL     1     107.649 103.795 230.942  1.00  0.00     0.053 C 
BRANCH  21  22
ATOM     22  C   UNL     1     108.980 103.541 230.306  1.00  0.00     0.041 C 
ATOM     23  O   UNL     1     109.989 104.207 230.658  1.00  0.00    -0.550 OA
ATOM     24  O   UNL     1     109.115 102.538 229.354  1.00  0.00    -0.550 OA
ENDBRANCH  21  22
ENDBRANCH  20  21
ENDBRANCH  19  20
ENDBRANCH  18  19
ENDBRANCH  17  18
ENDBRANCH  16  17
ENDBRANCH  15  16
ENDBRANCH  14  15
ENDBRANCH  13  14
ENDBRANCH   1  13
TORSDOF 20
ENDMDL
MODEL 8
REMARK VINA RESULT:    -5.678      2.218      4.643
REMARK INTER + INTRA:         -15.775
REMARK INTER:                 -11.739
REMARK INTRA:                  -4.035
REMARK UNBOUND:                -3.457
REMARK SMILES CCCCCCCCCCCCCCCCCCCCCC(=O)[O-]
REMARK SMILES IDX 12 1 11 2 10 3 9 4 8 5 7 6 6 7 5 8 4 9 3 10 2 11 1 12 13 13
REMARK SMILES IDX 14 14 15 15 16 16 17 17 18 18 19 19 20 20 21 21 22 22 23 23
REMARK SMILES IDX 24 24
REMARK H PARENT
REMARK Flexibility Score: inf
ROOT
ATOM      1  C   UNL     1     105.733 106.690 231.156  1.00  0.00     0.000 C 
ENDROOT
BRANCH   1   2
ATOM      2  C   UNL     1     104.875 105.692 231.949  1.00  0.00     0.000 C 
BRANCH   2   3
ATOM      3  C   UNL     1     105.028 105.918 233.458  1.00  0.00     0.000 C 
BRANCH   3   4
ATOM      4  C   UNL     1     103.657 106.103 234.129  1.00  0.00    -0.000 C 
BRANCH   4   5
ATOM      5  C   UNL     1     102.520 105.407 233.363  1.00  0.00    -0.000 C 
BRANCH   5   6
ATOM      6  C   UNL     1     101.379 106.369 232.991  1.00  0.00    -0.000 C 
BRANCH   6   7
ATOM      7  C   UNL     1     101.556 106.991 231.593  1.00  0.00    -0.000 C 
BRANCH   7   8
ATOM      8  C   UNL     1     101.650 105.977 230.437  1.00  0.00    -0.000 C 
BRANCH   8   9
ATOM      9  C   UNL     1     100.449 105.019 230.316  1.00  0.00    -0.000 C 
BRANCH   9  10
ATOM     10  C   UNL     1     100.847 103.525 230.308  1.00  0.00    -0.000 C 
BRANCH  10  11
ATOM     11  C   UNL     1     102.367 103.294 230.275  1.00  0.00    -0.003 C 
ATOM     12  C   UNL     1     102.783 102.043 231.048  1.00  0.00     0.004 C 
ENDBRANCH  10  11
ENDBRANCH   9  10
ENDBRANCH   8   9
ENDBRANCH   7   8
ENDBRANCH   6   7
ENDBRANCH   5   6
ENDBRANCH   4   5
ENDBRANCH   3   4
ENDBRANCH   2   3
ENDBRANCH   1   2
BRANCH   1  13
ATOM     13  C   UNL     1     104.988 108.001 230.859  1.00  0.00     0.000 C 
BRANCH  13  14
ATOM     14  C   UNL     1     104.716 108.195 229.356  1.00  0.00     0.000 C 
BRANCH  14  15
ATOM     15  C   UNL     1     105.232 107.020 228.510  1.00  0.00     0.000 C 
BRANCH  15  16
ATOM     16  C   UNL     1     104.102 106.301 227.752  1.00  0.00     0.000 C 
BRANCH  16  17
ATOM     17  C   UNL     1     104.356 104.791 227.597  1.00  0.00     0.000 C 
BRANCH  17  18
ATOM     18  C   UNL     1     105.683 104.431 226.902  1.00  0.00     0.000 C 
BRANCH  18  19
ATOM     19  C   UNL     1     106.662 103.695 227.834  1.00  0.00     0.000 C 
BRANCH  19  20
ATOM     20  C   UNL     1     106.051 103.397 229.213  1.00  0.00     0.006 C 
BRANCH  20  21
ATOM     21  C   UNL     1     107.114 103.281 230.313  1.00  0.00     0.053 C 
BRANCH  21  22
ATOM     22  C   UNL     1     106.646 102.362 231.397  1.00  0.00     0.041 C 
ATOM     23  O   UNL     1     106.610 102.758 232.593  1.00  0.00    -0.550 OA
ATOM     24  O   UNL     1     106.210 101.081 231.083  1.00  0.00    -0.550 OA
ENDBRANCH  21  22
ENDBRANCH  20  21
ENDBRANCH  19  20
ENDBRANCH  18  19
ENDBRANCH  17  18
ENDBRANCH  16  17
ENDBRANCH  15  16
ENDBRANCH  14  15
ENDBRANCH  13  14
ENDBRANCH   1  13
TORSDOF 20
ENDMDL
MODEL 9
REMARK VINA RESULT:    -5.594      2.897      5.718
REMARK INTER + INTRA:         -15.592
REMARK INTER:                 -12.210
REMARK INTRA:                  -3.381
REMARK UNBOUND:                -3.457
REMARK SMILES CCCCCCCCCCCCCCCCCCCCCC(=O)[O-]
REMARK SMILES IDX 12 1 11 2 10 3 9 4 8 5 7 6 6 7 5 8 4 9 3 10 2 11 1 12 13 13
REMARK SMILES IDX 14 14 15 15 16 16 17 17 18 18 19 19 20 20 21 21 22 22 23 23
REMARK SMILES IDX 24 24
REMARK H PARENT
REMARK Flexibility Score: inf
ROOT
ATOM      1  C   UNL     1     101.595 105.068 228.448  1.00  0.00     0.000 C 
ENDROOT
BRANCH   1   2
ATOM      2  C   UNL     1     102.133 105.297 227.027  1.00  0.00     0.000 C 
BRANCH   2   3
ATOM      3  C   UNL     1     103.665 105.361 227.026  1.00  0.00     0.000 C 
BRANCH   3   4
ATOM      4  C   UNL     1     104.219 105.342 228.459  1.00  0.00    -0.000 C 
BRANCH   4   5
ATOM      5  C   UNL     1     105.467 106.226 228.627  1.00  0.00    -0.000 C 
BRANCH   5   6
ATOM      6  C   UNL     1     105.119 107.689 228.947  1.00  0.00    -0.000 C 
BRANCH   6   7
ATOM      7  C   UNL     1     104.263 107.834 230.220  1.00  0.00    -0.000 C 
BRANCH   7   8
ATOM      8  C   UNL     1     104.769 107.038 231.438  1.00  0.00    -0.000 C 
BRANCH   8   9
ATOM      9  C   UNL     1     103.669 106.331 232.252  1.00  0.00    -0.000 C 
BRANCH   9  10
ATOM     10  C   UNL     1     102.253 106.493 231.652  1.00  0.00    -0.000 C 
BRANCH  10  11
ATOM     11  C   UNL     1     101.124 106.217 232.659  1.00  0.00    -0.003 C 
ATOM     12  C   UNL     1     101.606 106.281 234.108  1.00  0.00     0.004 C 
ENDBRANCH  10  11
ENDBRANCH   9  10
ENDBRANCH   8   9
ENDBRANCH   7   8
ENDBRANCH   6   7
ENDBRANCH   5   6
ENDBRANCH   4   5
ENDBRANCH   3   4
ENDBRANCH   2   3
ENDBRANCH   1   2
BRANCH   1  13
ATOM     13  C   UNL     1     101.135 103.620 228.678  1.00  0.00     0.000 C 
BRANCH  13  14
ATOM     14  C   UNL     1     100.880 103.312 230.166  1.00  0.00     0.000 C 
BRANCH  14  15
ATOM     15  C   UNL     1     101.850 102.257 230.721  1.00  0.00     0.000 C 
BRANCH  15  16
ATOM     16  C   UNL     1     103.290 102.787 230.839  1.00  0.00     0.000 C 
BRANCH  16  17
ATOM     17  C   UNL     1     104.338 101.783 230.325  1.00  0.00     0.000 C 
BRANCH  17  18
ATOM     18  C   UNL     1     105.674 101.800 231.091  1.00  0.00     0.000 C 
BRANCH  18  19
ATOM     19  C   UNL     1     105.997 103.179 231.692  1.00  0.00     0.000 C 
BRANCH  19  20
ATOM     20  C   UNL     1     107.153 103.883 230.963  1.00  0.00     0.006 C 
BRANCH  20  21
ATOM     21  C   UNL     1     107.476 103.233 229.611  1.00  0.00     0.053 C 
BRANCH  21  22
ATOM     22  C   UNL     1     108.861 102.667 229.619  1.00  0.00     0.041 C 
ATOM     23  O   UNL     1     109.111 101.611 230.259  1.00  0.00    -0.550 OA
ATOM     24  O   UNL     1     109.868 103.282 228.886  1.00  0.00    -0.550 OA
ENDBRANCH  21  22
ENDBRANCH  20  21
ENDBRANCH  19  20
ENDBRANCH  18  19
ENDBRANCH  17  18
ENDBRANCH  16  17
ENDBRANCH  15  16
ENDBRANCH  14  15
ENDBRANCH  13  14
ENDBRANCH   1  13
TORSDOF 20
ENDMDL
