MODEL 1
REMARK VINA RESULT:    -5.253      0.000      0.000
REMARK INTER + INTRA:          -5.560
REMARK INTER:                  -5.560
REMARK INTRA:                   0.000
REMARK UNBOUND:                 0.000
REMARK SMILES O=c1ccc2cc(O)c(O)cc2o1
REMARK SMILES IDX 4 1 3 2 2 3 1 4 13 5 12 6 11 7 9 8 7 9 6 10 5 11 8 12 10 14
REMARK H PARENT 8 13 10 15
REMARK Flexibility Score: inf
ROOT
ATOM      1  C   UNL     1     -39.240 -36.619 -20.885  1.00  0.00     0.019 A 
ATOM      2  C   UNL     1     -38.943 -37.977 -20.999  1.00  0.00     0.094 A 
ATOM      3  C   UNL     1     -39.926 -38.915 -20.670  1.00  0.00     0.336 A 
ATOM      4  O   UNL     1     -39.678 -40.146 -20.766  1.00  0.00    -0.246 OA
ATOM      5  O   UNL     1     -41.126 -38.517 -20.255  1.00  0.00    -0.423 OA
ATOM      6  C   UNL     1     -41.451 -37.232 -20.132  1.00  0.00     0.142 A 
ATOM      7  C   UNL     1     -42.727 -36.873 -19.691  1.00  0.00     0.098 A 
ATOM      8  C   UNL     1     -43.076 -35.519 -19.559  1.00  0.00     0.161 A 
ATOM      9  C   UNL     1     -42.136 -34.520 -19.873  1.00  0.00     0.158 A 
ATOM     10  C   UNL     1     -40.857 -34.877 -20.315  1.00  0.00     0.062 A 
ATOM     11  C   UNL     1     -40.509 -36.228 -20.446  1.00  0.00     0.022 A 
ENDROOT
BRANCH   9  12
ATOM     12  O   UNL     1     -42.456 -33.168 -19.751  1.00  0.00    -0.504 OA
ATOM     13  H   UNL     1     -42.478 -32.699 -18.853  1.00  0.00     0.293 HD
ENDBRANCH   9  12
BRANCH   8  14
ATOM     14  O   UNL     1     -44.350 -35.165 -19.119  1.00  0.00    -0.504 OA
ATOM     15  H   UNL     1     -44.499 -34.370 -18.509  1.00  0.00     0.293 HD
ENDBRANCH   8  14
TORSDOF 2
ENDMDL
MODEL 2
REMARK VINA RESULT:    -4.915      1.050      2.242
REMARK INTER + INTRA:          -5.202
REMARK INTER:                  -5.202
REMARK INTRA:                   0.000
REMARK UNBOUND:                 0.000
REMARK SMILES O=c1ccc2cc(O)c(O)cc2o1
REMARK SMILES IDX 4 1 3 2 2 3 1 4 13 5 12 6 11 7 9 8 7 9 6 10 5 11 8 12 10 14
REMARK H PARENT 8 13 10 15
REMARK Flexibility Score: inf
ROOT
ATOM      1  C   UNL     1     -41.344 -38.832 -20.241  1.00  0.00     0.019 A 
ATOM      2  C   UNL     1     -40.100 -39.224 -20.733  1.00  0.00     0.094 A 
ATOM      3  C   UNL     1     -39.172 -38.241 -21.090  1.00  0.00     0.336 A 
ATOM      4  O   UNL     1     -38.043 -38.574 -21.537  1.00  0.00    -0.246 OA
ATOM      5  O   UNL     1     -39.473 -36.952 -20.962  1.00  0.00    -0.423 OA
ATOM      6  C   UNL     1     -40.649 -36.533 -20.497  1.00  0.00     0.142 A 
ATOM      7  C   UNL     1     -40.909 -35.165 -20.383  1.00  0.00     0.098 A 
ATOM      8  C   UNL     1     -42.147 -34.719 -19.893  1.00  0.00     0.161 A 
ATOM      9  C   UNL     1     -43.129 -35.653 -19.514  1.00  0.00     0.158 A 
ATOM     10  C   UNL     1     -42.870 -37.024 -19.627  1.00  0.00     0.062 A 
ATOM     11  C   UNL     1     -41.635 -37.470 -20.116  1.00  0.00     0.022 A 
ENDROOT
BRANCH   9  12
ATOM     12  O   UNL     1     -44.367 -35.237 -19.024  1.00  0.00    -0.504 OA
ATOM     13  H   UNL     1     -45.239 -35.534 -19.444  1.00  0.00     0.293 HD
ENDBRANCH   9  12
BRANCH   8  14
ATOM     14  O   UNL     1     -42.403 -33.354 -19.782  1.00  0.00    -0.504 OA
ATOM     15  H   UNL     1     -41.655 -32.682 -19.648  1.00  0.00     0.293 HD
ENDBRANCH   8  14
TORSDOF 2
ENDMDL
MODEL 3
REMARK VINA RESULT:    -4.715      1.866      4.181
REMARK INTER + INTRA:          -4.990
REMARK INTER:                  -4.990
REMARK INTRA:                   0.000
REMARK UNBOUND:                 0.000
REMARK SMILES O=c1ccc2cc(O)c(O)cc2o1
REMARK SMILES IDX 4 1 3 2 2 3 1 4 13 5 12 6 11 7 9 8 7 9 6 10 5 11 8 12 10 14
REMARK H PARENT 8 13 10 15
REMARK Flexibility Score: inf
ROOT
ATOM      1  C   UNL     1     -42.676 -34.700 -19.815  1.00  0.00     0.019 A 
ATOM      2  C   UNL     1     -43.949 -35.269 -19.825  1.00  0.00     0.094 A 
ATOM      3  C   UNL     1     -44.073 -36.648 -20.028  1.00  0.00     0.336 A 
ATOM      4  O   UNL     1     -45.213 -37.181 -20.041  1.00  0.00    -0.246 OA
ATOM      5  O   UNL     1     -42.992 -37.402 -20.210  1.00  0.00    -0.423 OA
ATOM      6  C   UNL     1     -41.759 -36.900 -20.208  1.00  0.00     0.142 A 
ATOM      7  C   UNL     1     -40.661 -37.741 -20.403  1.00  0.00     0.098 A 
ATOM      8  C   UNL     1     -39.359 -37.217 -20.402  1.00  0.00     0.161 A 
ATOM      9  C   UNL     1     -39.158 -35.839 -20.203  1.00  0.00     0.158 A 
ATOM     10  C   UNL     1     -40.257 -34.994 -20.007  1.00  0.00     0.062 A 
ATOM     11  C   UNL     1     -41.557 -35.516 -20.009  1.00  0.00     0.022 A 
ENDROOT
BRANCH   9  12
ATOM     12  O   UNL     1     -37.875 -35.292 -20.197  1.00  0.00    -0.504 OA
ATOM     13  H   UNL     1     -37.119 -35.699 -19.661  1.00  0.00     0.293 HD
ENDBRANCH   9  12
BRANCH   8  14
ATOM     14  O   UNL     1     -38.266 -38.060 -20.597  1.00  0.00    -0.504 OA
ATOM     15  H   UNL     1     -37.367 -37.703 -20.897  1.00  0.00     0.293 HD
ENDBRANCH   8  14
TORSDOF 2
ENDMDL
MODEL 4
REMARK VINA RESULT:    -4.661      6.667      8.805
REMARK INTER + INTRA:          -4.934
REMARK INTER:                  -4.934
REMARK INTRA:                   0.000
REMARK UNBOUND:                 0.000
REMARK SMILES O=c1ccc2cc(O)c(O)cc2o1
REMARK SMILES IDX 4 1 3 2 2 3 1 4 13 5 12 6 11 7 9 8 7 9 6 10 5 11 8 12 10 14
REMARK H PARENT 8 13 10 15
REMARK Flexibility Score: inf
ROOT
ATOM      1  C   UNL     1     -49.316 -38.343 -19.772  1.00  0.00     0.019 A 
ATOM      2  C   UNL     1     -50.597 -38.417 -20.318  1.00  0.00     0.094 A 
ATOM      3  C   UNL     1     -51.439 -37.304 -20.223  1.00  0.00     0.336 A 
ATOM      4  O   UNL     1     -52.600 -37.350 -20.709  1.00  0.00    -0.246 OA
ATOM      5  O   UNL     1     -51.023 -36.194 -19.620  1.00  0.00    -0.423 OA
ATOM      6  C   UNL     1     -49.809 -36.081 -19.085  1.00  0.00     0.142 A 
ATOM      7  C   UNL     1     -49.426 -34.889 -18.465  1.00  0.00     0.098 A 
ATOM      8  C   UNL     1     -48.147 -34.764 -17.900  1.00  0.00     0.161 A 
ATOM      9  C   UNL     1     -47.246 -35.844 -17.958  1.00  0.00     0.158 A 
ATOM     10  C   UNL     1     -47.628 -37.039 -18.580  1.00  0.00     0.062 A 
ATOM     11  C   UNL     1     -48.904 -37.164 -19.144  1.00  0.00     0.022 A 
ENDROOT
BRANCH   9  12
ATOM     12  O   UNL     1     -45.970 -35.747 -17.405  1.00  0.00    -0.504 OA
ATOM     13  H   UNL     1     -45.636 -36.398 -16.705  1.00  0.00     0.293 HD
ENDBRANCH   9  12
BRANCH   8  14
ATOM     14  O   UNL     1     -47.769 -33.574 -17.282  1.00  0.00    -0.504 OA
ATOM     15  H   UNL     1     -46.983 -33.532 -16.644  1.00  0.00     0.293 HD
ENDBRANCH   8  14
TORSDOF 2
ENDMDL
MODEL 5
REMARK VINA RESULT:    -4.460      6.856      8.080
REMARK INTER + INTRA:          -4.721
REMARK INTER:                  -4.721
REMARK INTRA:                   0.000
REMARK UNBOUND:                 0.000
REMARK SMILES O=c1ccc2cc(O)c(O)cc2o1
REMARK SMILES IDX 4 1 3 2 2 3 1 4 13 5 12 6 11 7 9 8 7 9 6 10 5 11 8 12 10 14
REMARK H PARENT 8 13 10 15
REMARK Flexibility Score: inf
ROOT
ATOM      1  C   UNL     1     -50.483 -37.802 -19.863  1.00  0.00     0.019 A 
ATOM      2  C   UNL     1     -49.897 -38.989 -20.301  1.00  0.00     0.094 A 
ATOM      3  C   UNL     1     -48.532 -39.195 -20.073  1.00  0.00     0.336 A 
ATOM      4  O   UNL     1     -47.984 -40.260 -20.461  1.00  0.00    -0.246 OA
ATOM      5  O   UNL     1     -47.807 -38.272 -19.449  1.00  0.00    -0.423 OA
ATOM      6  C   UNL     1     -48.325 -37.125 -19.016  1.00  0.00     0.142 A 
ATOM      7  C   UNL     1     -47.514 -36.192 -18.366  1.00  0.00     0.098 A 
ATOM      8  C   UNL     1     -48.056 -34.981 -17.906  1.00  0.00     0.161 A 
ATOM      9  C   UNL     1     -49.422 -34.706 -18.100  1.00  0.00     0.158 A 
ATOM     10  C   UNL     1     -50.237 -35.640 -18.751  1.00  0.00     0.062 A 
ATOM     11  C   UNL     1     -49.696 -36.848 -19.210  1.00  0.00     0.022 A 
ENDROOT
BRANCH   9  12
ATOM     12  O   UNL     1     -49.986 -33.511 -17.653  1.00  0.00    -0.504 OA
ATOM     13  H   UNL     1     -50.042 -32.689 -18.243  1.00  0.00     0.293 HD
ENDBRANCH   9  12
BRANCH   8  14
ATOM     14  O   UNL     1     -47.242 -34.053 -17.258  1.00  0.00    -0.504 OA
ATOM     15  H   UNL     1     -47.160 -33.098 -17.587  1.00  0.00     0.293 HD
ENDBRANCH   8  14
TORSDOF 2
ENDMDL
MODEL 6
REMARK VINA RESULT:    -4.422      1.063      4.560
REMARK INTER + INTRA:          -4.680
REMARK INTER:                  -4.680
REMARK INTRA:                   0.000
REMARK UNBOUND:                 0.000
REMARK SMILES O=c1ccc2cc(O)c(O)cc2o1
REMARK SMILES IDX 4 1 3 2 2 3 1 4 13 5 12 6 11 7 9 8 7 9 6 10 5 11 8 12 10 14
REMARK H PARENT 8 13 10 15
REMARK Flexibility Score: inf
ROOT
ATOM      1  C   UNL     1     -40.492 -35.002 -20.282  1.00  0.00     0.019 A 
ATOM      2  C   UNL     1     -41.715 -34.469 -19.876  1.00  0.00     0.094 A 
ATOM      3  C   UNL     1     -42.801 -35.330 -19.690  1.00  0.00     0.336 A 
ATOM      4  O   UNL     1     -43.914 -34.869 -19.324  1.00  0.00    -0.246 OA
ATOM      5  O   UNL     1     -42.668 -36.637 -19.900  1.00  0.00    -0.423 OA
ATOM      6  C   UNL     1     -41.520 -37.187 -20.289  1.00  0.00     0.142 A 
ATOM      7  C   UNL     1     -41.439 -38.567 -20.494  1.00  0.00     0.098 A 
ATOM      8  C   UNL     1     -40.231 -39.152 -20.904  1.00  0.00     0.161 A 
ATOM      9  C   UNL     1     -39.096 -38.346 -21.109  1.00  0.00     0.158 A 
ATOM     10  C   UNL     1     -39.174 -36.964 -20.904  1.00  0.00     0.062 A 
ATOM     11  C   UNL     1     -40.380 -36.379 -20.496  1.00  0.00     0.022 A 
ENDROOT
BRANCH   9  12
ATOM     12  O   UNL     1     -37.883 -38.902 -21.516  1.00  0.00    -0.504 OA
ATOM     13  H   UNL     1     -37.254 -39.357 -20.866  1.00  0.00     0.293 HD
ENDBRANCH   9  12
BRANCH   8  14
ATOM     14  O   UNL     1     -40.155 -40.529 -21.107  1.00  0.00    -0.504 OA
ATOM     15  H   UNL     1     -39.963 -41.168 -20.344  1.00  0.00     0.293 HD
ENDBRANCH   8  14
TORSDOF 2
ENDMDL
MODEL 7
REMARK VINA RESULT:    -4.361      8.820      9.731
REMARK INTER + INTRA:          -4.616
REMARK INTER:                  -4.616
REMARK INTRA:                   0.000
REMARK UNBOUND:                 0.000
REMARK SMILES O=c1ccc2cc(O)c(O)cc2o1
REMARK SMILES IDX 4 1 3 2 2 3 1 4 13 5 12 6 11 7 9 8 7 9 6 10 5 11 8 12 10 14
REMARK H PARENT 8 13 10 15
REMARK Flexibility Score: inf
ROOT
ATOM      1  C   UNL     1     -50.137 -37.531 -18.641  1.00  0.00     0.019 A 
ATOM      2  C   UNL     1     -50.700 -37.033 -19.816  1.00  0.00     0.094 A 
ATOM      3  C   UNL     1     -50.663 -37.819 -20.972  1.00  0.00     0.336 A 
ATOM      4  O   UNL     1     -51.165 -37.388 -22.043  1.00  0.00    -0.246 OA
ATOM      5  O   UNL     1     -50.097 -39.023 -20.949  1.00  0.00    -0.423 OA
ATOM      6  C   UNL     1     -49.548 -39.537 -19.850  1.00  0.00     0.142 A 
ATOM      7  C   UNL     1     -48.969 -40.808 -19.886  1.00  0.00     0.098 A 
ATOM      8  C   UNL     1     -48.389 -41.354 -18.730  1.00  0.00     0.161 A 
ATOM      9  C   UNL     1     -48.391 -40.618 -17.530  1.00  0.00     0.158 A 
ATOM     10  C   UNL     1     -48.971 -39.345 -17.492  1.00  0.00     0.062 A 
ATOM     11  C   UNL     1     -49.549 -38.799 -18.646  1.00  0.00     0.022 A 
ENDROOT
BRANCH   9  12
ATOM     12  O   UNL     1     -47.821 -41.137 -16.368  1.00  0.00    -0.504 OA
ATOM     13  H   UNL     1     -47.007 -41.740 -16.390  1.00  0.00     0.293 HD
ENDBRANCH   9  12
BRANCH   8  14
ATOM     14  O   UNL     1     -47.812 -42.622 -18.770  1.00  0.00    -0.504 OA
ATOM     15  H   UNL     1     -46.967 -42.838 -18.254  1.00  0.00     0.293 HD
ENDBRANCH   8  14
TORSDOF 2
ENDMDL
MODEL 8
REMARK VINA RESULT:    -4.329     16.944     18.009
REMARK INTER + INTRA:          -4.582
REMARK INTER:                  -4.582
REMARK INTRA:                   0.000
REMARK UNBOUND:                 0.000
REMARK SMILES O=c1ccc2cc(O)c(O)cc2o1
REMARK SMILES IDX 4 1 3 2 2 3 1 4 13 5 12 6 11 7 9 8 7 9 6 10 5 11 8 12 10 14
REMARK H PARENT 8 13 10 15
REMARK Flexibility Score: inf
ROOT
ATOM      1  C   UNL     1     -57.744 -27.735 -19.774  1.00  0.00     0.019 A 
ATOM      2  C   UNL     1     -57.387 -28.372 -18.586  1.00  0.00     0.094 A 
ATOM      3  C   UNL     1     -56.836 -29.656 -18.645  1.00  0.00     0.336 A 
ATOM      4  O   UNL     1     -56.508 -30.249 -17.584  1.00  0.00    -0.246 OA
ATOM      5  O   UNL     1     -56.655 -30.258 -19.817  1.00  0.00    -0.423 OA
ATOM      6  C   UNL     1     -56.981 -29.686 -20.975  1.00  0.00     0.142 A 
ATOM      7  C   UNL     1     -56.767 -30.367 -22.176  1.00  0.00     0.098 A 
ATOM      8  C   UNL     1     -57.108 -29.768 -23.399  1.00  0.00     0.161 A 
ATOM      9  C   UNL     1     -57.668 -28.477 -23.415  1.00  0.00     0.158 A 
ATOM     10  C   UNL     1     -57.883 -27.794 -22.213  1.00  0.00     0.062 A 
ATOM     11  C   UNL     1     -57.543 -28.391 -20.992  1.00  0.00     0.022 A 
ENDROOT
BRANCH   9  12
ATOM     12  O   UNL     1     -58.017 -27.860 -24.616  1.00  0.00    -0.504 OA
ATOM     13  H   UNL     1     -57.477 -27.096 -25.006  1.00  0.00     0.293 HD
ENDBRANCH   9  12
BRANCH   8  14
ATOM     14  O   UNL     1     -56.894 -30.451 -24.595  1.00  0.00    -0.504 OA
ATOM     15  H   UNL     1     -57.466 -31.243 -24.864  1.00  0.00     0.293 HD
ENDBRANCH   8  14
TORSDOF 2
ENDMDL
MODEL 9
REMARK VINA RESULT:    -4.196      7.406      9.090
REMARK INTER + INTRA:          -4.441
REMARK INTER:                  -4.441
REMARK INTRA:                   0.000
REMARK UNBOUND:                 0.000
REMARK SMILES O=c1ccc2cc(O)c(O)cc2o1
REMARK SMILES IDX 4 1 3 2 2 3 1 4 13 5 12 6 11 7 9 8 7 9 6 10 5 11 8 12 10 14
REMARK H PARENT 8 13 10 15
REMARK Flexibility Score: inf
ROOT
ATOM      1  C   UNL     1     -49.880 -36.994 -23.855  1.00  0.00     0.019 A 
ATOM      2  C   UNL     1     -48.537 -37.118 -24.211  1.00  0.00     0.094 A 
ATOM      3  C   UNL     1     -47.572 -37.181 -23.201  1.00  0.00     0.336 A 
ATOM      4  O   UNL     1     -46.354 -37.292 -23.501  1.00  0.00    -0.246 OA
ATOM      5  O   UNL     1     -47.931 -37.123 -21.921  1.00  0.00    -0.423 OA
ATOM      6  C   UNL     1     -49.200 -37.004 -21.538  1.00  0.00     0.142 A 
ATOM      7  C   UNL     1     -49.518 -36.948 -20.178  1.00  0.00     0.098 A 
ATOM      8  C   UNL     1     -50.855 -36.824 -19.768  1.00  0.00     0.161 A 
ATOM      9  C   UNL     1     -51.879 -36.755 -20.730  1.00  0.00     0.158 A 
ATOM     10  C   UNL     1     -51.563 -36.811 -22.093  1.00  0.00     0.062 A 
ATOM     11  C   UNL     1     -50.229 -36.935 -22.502  1.00  0.00     0.022 A 
ENDROOT
BRANCH   9  12
ATOM     12  O   UNL     1     -53.216 -36.631 -20.350  1.00  0.00    -0.504 OA
ATOM     13  H   UNL     1     -53.634 -35.733 -20.139  1.00  0.00     0.293 HD
ENDBRANCH   9  12
BRANCH   8  14
ATOM     14  O   UNL     1     -51.167 -36.768 -18.411  1.00  0.00    -0.504 OA
ATOM     15  H   UNL     1     -51.902 -36.165 -18.059  1.00  0.00     0.293 HD
ENDBRANCH   8  14
TORSDOF 2
ENDMDL
