MODEL 1
REMARK VINA RESULT:    -3.672      0.000      0.000
REMARK INTER + INTRA:         -12.089
REMARK INTER:                  -9.253
REMARK INTRA:                  -2.836
REMARK UNBOUND:                -2.836
REMARK SMILES CCCCCCCCCCCCCCCCCCCCCCCCCCCC(=O)[O-]
REMARK SMILES IDX 15 1 16 2 17 3 18 4 19 5 20 6 21 7 22 8 23 9 24 10 25 11
REMARK SMILES IDX 26 12 27 13 28 14 29 15 30 16 14 17 13 18 12 19 11 20 10 21
REMARK SMILES IDX 9 22 8 23 7 24 6 25 5 26 4 27 3 28 2 29 1 30
REMARK H PARENT
REMARK Flexibility Score: inf
ROOT
ATOM      1  C   UNL     1      43.202  28.068   1.786  1.00  0.00     0.000 C 
ENDROOT
BRANCH   1   2
ATOM      2  C   UNL     1      44.212  29.164   2.187  1.00  0.00     0.000 C 
BRANCH   2   3
ATOM      3  C   UNL     1      45.691  28.736   2.174  1.00  0.00     0.000 C 
BRANCH   3   4
ATOM      4  C   UNL     1      45.895  27.313   1.624  1.00  0.00     0.000 C 
BRANCH   4   5
ATOM      5  C   UNL     1      45.299  26.232   2.540  1.00  0.00     0.000 C 
BRANCH   5   6
ATOM      6  C   UNL     1      46.288  25.752   3.616  1.00  0.00     0.000 C 
BRANCH   6   7
ATOM      7  C   UNL     1      45.728  25.890   5.044  1.00  0.00     0.000 C 
BRANCH   7   8
ATOM      8  C   UNL     1      46.387  26.987   5.909  1.00  0.00     0.000 C 
BRANCH   8   9
ATOM      9  C   UNL     1      45.901  28.419   5.622  1.00  0.00     0.000 C 
BRANCH   9  10
ATOM     10  C   UNL     1      46.021  29.341   6.848  1.00  0.00     0.000 C 
BRANCH  10  11
ATOM     11  C   UNL     1      46.871  28.723   7.970  1.00  0.00     0.000 C 
BRANCH  11  12
ATOM     12  C   UNL     1      46.043  28.401   9.228  1.00  0.00     0.006 C 
BRANCH  12  13
ATOM     13  C   UNL     1      46.681  27.293  10.074  1.00  0.00     0.053 C 
BRANCH  13  14
ATOM     14  C   UNL     1      46.127  25.944   9.733  1.00  0.00     0.041 C 
ATOM     15  O   UNL     1      45.123  25.844   8.977  1.00  0.00    -0.550 OA
ATOM     16  O   UNL     1      46.742  24.796  10.216  1.00  0.00    -0.550 OA
ENDBRANCH  13  14
ENDBRANCH  12  13
ENDBRANCH  11  12
ENDBRANCH  10  11
ENDBRANCH   9  10
ENDBRANCH   8   9
ENDBRANCH   7   8
ENDBRANCH   6   7
ENDBRANCH   5   6
ENDBRANCH   4   5
ENDBRANCH   3   4
ENDBRANCH   2   3
ENDBRANCH   1   2
BRANCH   1  17
ATOM     17  C   UNL     1      42.094  28.516   0.814  1.00  0.00     0.000 C 
BRANCH  17  18
ATOM     18  C   UNL     1      42.484  29.759  -0.002  1.00  0.00     0.000 C 
BRANCH  18  19
ATOM     19  C   UNL     1      42.563  29.476  -1.511  1.00  0.00     0.000 C 
BRANCH  19  20
ATOM     20  C   UNL     1      43.973  29.675  -2.084  1.00  0.00     0.000 C 
BRANCH  20  21
ATOM     21  C   UNL     1      44.933  28.599  -1.556  1.00  0.00     0.000 C 
BRANCH  21  22
ATOM     22  C   UNL     1      45.224  27.495  -2.588  1.00  0.00    -0.000 C 
BRANCH  22  23
ATOM     23  C   UNL     1      46.653  27.499  -3.163  1.00  0.00    -0.000 C 
BRANCH  23  24
ATOM     24  C   UNL     1      46.738  26.878  -4.565  1.00  0.00    -0.000 C 
BRANCH  24  25
ATOM     25  C   UNL     1      46.804  27.969  -5.645  1.00  0.00    -0.000 C 
BRANCH  25  26
ATOM     26  C   UNL     1      46.018  27.598  -6.914  1.00  0.00    -0.000 C 
BRANCH  26  27
ATOM     27  C   UNL     1      44.692  28.362  -7.102  1.00  0.00    -0.000 C 
BRANCH  27  28
ATOM     28  C   UNL     1      44.268  29.187  -5.869  1.00  0.00    -0.000 C 
BRANCH  28  29
ATOM     29  C   UNL     1      42.753  29.120  -5.614  1.00  0.00    -0.003 C 
ATOM     30  C   UNL     1      42.369  27.821  -4.911  1.00  0.00     0.004 C 
ENDBRANCH  28  29
ENDBRANCH  27  28
ENDBRANCH  26  27
ENDBRANCH  25  26
ENDBRANCH  24  25
ENDBRANCH  23  24
ENDBRANCH  22  23
ENDBRANCH  21  22
ENDBRANCH  20  21
ENDBRANCH  19  20
ENDBRANCH  18  19
ENDBRANCH  17  18
ENDBRANCH   1  17
TORSDOF 26
ENDMDL
MODEL 2
REMARK VINA RESULT:    -3.414      1.248      2.020
REMARK INTER + INTRA:         -11.439
REMARK INTER:                  -8.532
REMARK INTRA:                  -2.907
REMARK UNBOUND:                -2.836
REMARK SMILES CCCCCCCCCCCCCCCCCCCCCCCCCCCC(=O)[O-]
REMARK SMILES IDX 15 1 16 2 17 3 18 4 19 5 20 6 21 7 22 8 23 9 24 10 25 11
REMARK SMILES IDX 26 12 27 13 28 14 29 15 30 16 14 17 13 18 12 19 11 20 10 21
REMARK SMILES IDX 9 22 8 23 7 24 6 25 5 26 4 27 3 28 2 29 1 30
REMARK H PARENT
REMARK Flexibility Score: inf
ROOT
ATOM      1  C   UNL     1      42.791  29.173   0.898  1.00  0.00     0.000 C 
ENDROOT
BRANCH   1   2
ATOM      2  C   UNL     1      42.495  27.732   1.365  1.00  0.00     0.000 C 
BRANCH   2   3
ATOM      3  C   UNL     1      43.599  26.701   1.068  1.00  0.00     0.000 C 
BRANCH   3   4
ATOM      4  C   UNL     1      44.593  26.543   2.232  1.00  0.00     0.000 C 
BRANCH   4   5
ATOM      5  C   UNL     1      46.048  26.808   1.810  1.00  0.00     0.000 C 
BRANCH   5   6
ATOM      6  C   UNL     1      46.850  27.567   2.882  1.00  0.00     0.000 C 
BRANCH   6   7
ATOM      7  C   UNL     1      46.268  28.960   3.186  1.00  0.00     0.000 C 
BRANCH   7   8
ATOM      8  C   UNL     1      45.514  29.082   4.528  1.00  0.00     0.000 C 
BRANCH   8   9
ATOM      9  C   UNL     1      46.408  29.337   5.755  1.00  0.00     0.000 C 
BRANCH   9  10
ATOM     10  C   UNL     1      46.997  28.041   6.337  1.00  0.00     0.000 C 
BRANCH  10  11
ATOM     11  C   UNL     1      45.939  26.940   6.519  1.00  0.00     0.000 C 
BRANCH  11  12
ATOM     12  C   UNL     1      46.251  26.012   7.706  1.00  0.00     0.006 C 
BRANCH  12  13
ATOM     13  C   UNL     1      45.669  26.540   9.023  1.00  0.00     0.053 C 
BRANCH  13  14
ATOM     14  C   UNL     1      46.462  26.076  10.206  1.00  0.00     0.041 C 
ATOM     15  O   UNL     1      46.942  26.914  11.016  1.00  0.00    -0.550 OA
ATOM     16  O   UNL     1      46.636  24.718  10.437  1.00  0.00    -0.550 OA
ENDBRANCH  13  14
ENDBRANCH  12  13
ENDBRANCH  11  12
ENDBRANCH  10  11
ENDBRANCH   9  10
ENDBRANCH   8   9
ENDBRANCH   7   8
ENDBRANCH   6   7
ENDBRANCH   5   6
ENDBRANCH   4   5
ENDBRANCH   3   4
ENDBRANCH   2   3
ENDBRANCH   1   2
BRANCH   1  17
ATOM     17  C   UNL     1      42.621  29.427  -0.612  1.00  0.00     0.000 C 
BRANCH  17  18
ATOM     18  C   UNL     1      43.898  29.972  -1.272  1.00  0.00     0.000 C 
BRANCH  18  19
ATOM     19  C   UNL     1      45.109  29.948  -0.325  1.00  0.00     0.000 C 
BRANCH  19  20
ATOM     20  C   UNL     1      46.272  29.101  -0.863  1.00  0.00     0.000 C 
BRANCH  20  21
ATOM     21  C   UNL     1      46.526  29.405  -2.347  1.00  0.00     0.000 C 
BRANCH  21  22
ATOM     22  C   UNL     1      46.652  28.136  -3.208  1.00  0.00    -0.000 C 
BRANCH  22  23
ATOM     23  C   UNL     1      46.878  28.387  -4.711  1.00  0.00    -0.000 C 
BRANCH  23  24
ATOM     24  C   UNL     1      46.299  27.275  -5.598  1.00  0.00    -0.000 C 
BRANCH  24  25
ATOM     25  C   UNL     1      46.099  27.769  -7.038  1.00  0.00    -0.000 C 
BRANCH  25  26
ATOM     26  C   UNL     1      45.473  29.173  -7.103  1.00  0.00    -0.000 C 
BRANCH  26  27
ATOM     27  C   UNL     1      43.989  29.241  -6.692  1.00  0.00    -0.000 C 
BRANCH  27  28
ATOM     28  C   UNL     1      43.358  27.863  -6.405  1.00  0.00    -0.000 C 
BRANCH  28  29
ATOM     29  C   UNL     1      42.416  27.892  -5.190  1.00  0.00    -0.003 C 
ATOM     30  C   UNL     1      43.140  27.448  -3.922  1.00  0.00     0.004 C 
ENDBRANCH  28  29
ENDBRANCH  27  28
ENDBRANCH  26  27
ENDBRANCH  25  26
ENDBRANCH  24  25
ENDBRANCH  23  24
ENDBRANCH  22  23
ENDBRANCH  21  22
ENDBRANCH  20  21
ENDBRANCH  19  20
ENDBRANCH  18  19
ENDBRANCH  17  18
ENDBRANCH   1  17
TORSDOF 26
ENDMDL
MODEL 3
REMARK VINA RESULT:    -3.192      1.385      2.314
REMARK INTER + INTRA:         -10.879
REMARK INTER:                  -8.174
REMARK INTRA:                  -2.705
REMARK UNBOUND:                -2.836
REMARK SMILES CCCCCCCCCCCCCCCCCCCCCCCCCCCC(=O)[O-]
REMARK SMILES IDX 15 1 16 2 17 3 18 4 19 5 20 6 21 7 22 8 23 9 24 10 25 11
REMARK SMILES IDX 26 12 27 13 28 14 29 15 30 16 14 17 13 18 12 19 11 20 10 21
REMARK SMILES IDX 9 22 8 23 7 24 6 25 5 26 4 27 3 28 2 29 1 30
REMARK H PARENT
REMARK Flexibility Score: inf
ROOT
ATOM      1  C   UNL     1      42.453  27.449   1.662  1.00  0.00     0.000 C 
ENDROOT
BRANCH   1   2
ATOM      2  C   UNL     1      42.614  28.968   1.879  1.00  0.00     0.000 C 
BRANCH   2   3
ATOM      3  C   UNL     1      43.965  29.411   2.470  1.00  0.00     0.000 C 
BRANCH   3   4
ATOM      4  C   UNL     1      44.872  30.099   1.434  1.00  0.00     0.000 C 
BRANCH   4   5
ATOM      5  C   UNL     1      45.909  29.142   0.825  1.00  0.00     0.000 C 
BRANCH   5   6
ATOM      6  C   UNL     1      46.741  28.409   1.891  1.00  0.00     0.000 C 
BRANCH   6   7
ATOM      7  C   UNL     1      46.599  26.878   1.810  1.00  0.00     0.000 C 
BRANCH   7   8
ATOM      8  C   UNL     1      45.640  26.248   2.842  1.00  0.00     0.000 C 
BRANCH   8   9
ATOM      9  C   UNL     1      45.712  26.858   4.254  1.00  0.00     0.000 C 
BRANCH   9  10
ATOM     10  C   UNL     1      46.462  25.958   5.250  1.00  0.00     0.000 C 
BRANCH  10  11
ATOM     11  C   UNL     1      46.813  26.686   6.558  1.00  0.00     0.000 C 
BRANCH  11  12
ATOM     12  C   UNL     1      45.976  26.191   7.751  1.00  0.00     0.006 C 
BRANCH  12  13
ATOM     13  C   UNL     1      46.303  26.950   9.043  1.00  0.00     0.053 C 
BRANCH  13  14
ATOM     14  C   UNL     1      46.622  26.017  10.170  1.00  0.00     0.041 C 
ATOM     15  O   UNL     1      46.743  24.781   9.955  1.00  0.00    -0.550 OA
ATOM     16  O   UNL     1      46.827  26.516  11.450  1.00  0.00    -0.550 OA
ENDBRANCH  13  14
ENDBRANCH  12  13
ENDBRANCH  11  12
ENDBRANCH  10  11
ENDBRANCH   9  10
ENDBRANCH   8   9
ENDBRANCH   7   8
ENDBRANCH   6   7
ENDBRANCH   5   6
ENDBRANCH   4   5
ENDBRANCH   3   4
ENDBRANCH   2   3
ENDBRANCH   1   2
BRANCH   1  17
ATOM     17  C   UNL     1      42.270  27.007   0.198  1.00  0.00     0.000 C 
BRANCH  17  18
ATOM     18  C   UNL     1      43.043  27.893  -0.793  1.00  0.00     0.000 C 
BRANCH  18  19
ATOM     19  C   UNL     1      43.701  27.084  -1.922  1.00  0.00     0.000 C 
BRANCH  19  20
ATOM     20  C   UNL     1      45.206  27.358  -2.056  1.00  0.00     0.000 C 
BRANCH  20  21
ATOM     21  C   UNL     1      45.625  27.381  -3.533  1.00  0.00     0.000 C 
BRANCH  21  22
ATOM     22  C   UNL     1      47.047  27.929  -3.747  1.00  0.00    -0.000 C 
BRANCH  22  23
ATOM     23  C   UNL     1      47.125  29.431  -4.080  1.00  0.00    -0.000 C 
BRANCH  23  24
ATOM     24  C   UNL     1      46.556  29.768  -5.466  1.00  0.00    -0.000 C 
BRANCH  24  25
ATOM     25  C   UNL     1      46.527  28.523  -6.366  1.00  0.00    -0.000 C 
BRANCH  25  26
ATOM     26  C   UNL     1      45.157  28.300  -7.029  1.00  0.00    -0.000 C 
BRANCH  26  27
ATOM     27  C   UNL     1      44.193  27.393  -6.238  1.00  0.00    -0.000 C 
BRANCH  27  28
ATOM     28  C   UNL     1      42.750  27.933  -6.162  1.00  0.00    -0.000 C 
BRANCH  28  29
ATOM     29  C   UNL     1      42.693  29.382  -5.653  1.00  0.00    -0.003 C 
ATOM     30  C   UNL     1      42.462  29.427  -4.145  1.00  0.00     0.004 C 
ENDBRANCH  28  29
ENDBRANCH  27  28
ENDBRANCH  26  27
ENDBRANCH  25  26
ENDBRANCH  24  25
ENDBRANCH  23  24
ENDBRANCH  22  23
ENDBRANCH  21  22
ENDBRANCH  20  21
ENDBRANCH  19  20
ENDBRANCH  18  19
ENDBRANCH  17  18
ENDBRANCH   1  17
TORSDOF 26
ENDMDL
MODEL 4
REMARK VINA RESULT:    -3.018      2.009      9.051
REMARK INTER + INTRA:         -10.442
REMARK INTER:                  -7.714
REMARK INTRA:                  -2.729
REMARK UNBOUND:                -2.836
REMARK SMILES CCCCCCCCCCCCCCCCCCCCCCCCCCCC(=O)[O-]
REMARK SMILES IDX 15 1 16 2 17 3 18 4 19 5 20 6 21 7 22 8 23 9 24 10 25 11
REMARK SMILES IDX 26 12 27 13 28 14 29 15 30 16 14 17 13 18 12 19 11 20 10 21
REMARK SMILES IDX 9 22 8 23 7 24 6 25 5 26 4 27 3 28 2 29 1 30
REMARK H PARENT
REMARK Flexibility Score: inf
ROOT
ATOM      1  C   UNL     1      45.557  26.779  -3.204  1.00  0.00     0.000 C 
ENDROOT
BRANCH   1   2
ATOM      2  C   UNL     1      44.034  27.010  -3.294  1.00  0.00     0.000 C 
BRANCH   2   3
ATOM      3  C   UNL     1      43.416  26.809  -4.690  1.00  0.00     0.000 C 
BRANCH   3   4
ATOM      4  C   UNL     1      42.721  28.075  -5.221  1.00  0.00     0.000 C 
BRANCH   4   5
ATOM      5  C   UNL     1      42.154  28.957  -4.096  1.00  0.00     0.000 C 
BRANCH   5   6
ATOM      6  C   UNL     1      43.124  30.071  -3.668  1.00  0.00     0.000 C 
BRANCH   6   7
ATOM      7  C   UNL     1      43.415  30.060  -2.156  1.00  0.00     0.000 C 
BRANCH   7   8
ATOM      8  C   UNL     1      42.335  29.388  -1.281  1.00  0.00     0.000 C 
BRANCH   8   9
ATOM      9  C   UNL     1      42.397  29.745   0.216  1.00  0.00     0.000 C 
BRANCH   9  10
ATOM     10  C   UNL     1      42.460  28.501   1.118  1.00  0.00     0.000 C 
BRANCH  10  11
ATOM     11  C   UNL     1      42.907  27.241   0.358  1.00  0.00     0.000 C 
BRANCH  11  12
ATOM     12  C   UNL     1      44.103  26.541   1.027  1.00  0.00     0.006 C 
BRANCH  12  13
ATOM     13  C   UNL     1      44.199  26.861   2.524  1.00  0.00     0.053 C 
BRANCH  13  14
ATOM     14  C   UNL     1      45.097  25.901   3.241  1.00  0.00     0.041 C 
ATOM     15  O   UNL     1      45.946  25.226   2.598  1.00  0.00    -0.550 OA
ATOM     16  O   UNL     1      45.026  25.780   4.622  1.00  0.00    -0.550 OA
ENDBRANCH  13  14
ENDBRANCH  12  13
ENDBRANCH  11  12
ENDBRANCH  10  11
ENDBRANCH   9  10
ENDBRANCH   8   9
ENDBRANCH   7   8
ENDBRANCH   6   7
ENDBRANCH   5   6
ENDBRANCH   4   5
ENDBRANCH   3   4
ENDBRANCH   2   3
ENDBRANCH   1   2
BRANCH   1  17
ATOM     17  C   UNL     1      46.419  28.055  -3.190  1.00  0.00     0.000 C 
BRANCH  17  18
ATOM     18  C   UNL     1      47.052  28.331  -1.816  1.00  0.00     0.000 C 
BRANCH  18  19
ATOM     19  C   UNL     1      46.032  28.844  -0.787  1.00  0.00     0.000 C 
BRANCH  19  20
ATOM     20  C   UNL     1      46.563  30.018   0.048  1.00  0.00     0.000 C 
BRANCH  20  21
ATOM     21  C   UNL     1      45.881  30.059   1.424  1.00  0.00     0.000 C 
BRANCH  21  22
ATOM     22  C   UNL     1      46.884  30.125   2.590  1.00  0.00    -0.000 C 
BRANCH  22  23
ATOM     23  C   UNL     1      46.532  29.244   3.803  1.00  0.00    -0.000 C 
BRANCH  23  24
ATOM     24  C   UNL     1      46.492  30.029   5.123  1.00  0.00    -0.000 C 
BRANCH  24  25
ATOM     25  C   UNL     1      45.993  29.144   6.274  1.00  0.00    -0.000 C 
BRANCH  25  26
ATOM     26  C   UNL     1      45.321  29.952   7.397  1.00  0.00    -0.000 C 
BRANCH  26  27
ATOM     27  C   UNL     1      45.942  29.760   8.795  1.00  0.00    -0.000 C 
BRANCH  27  28
ATOM     28  C   UNL     1      46.438  28.325   9.066  1.00  0.00    -0.000 C 
BRANCH  28  29
ATOM     29  C   UNL     1      45.395  27.263   8.682  1.00  0.00    -0.003 C 
ATOM     30  C   UNL     1      45.678  25.936   9.380  1.00  0.00     0.004 C 
ENDBRANCH  28  29
ENDBRANCH  27  28
ENDBRANCH  26  27
ENDBRANCH  25  26
ENDBRANCH  24  25
ENDBRANCH  23  24
ENDBRANCH  22  23
ENDBRANCH  21  22
ENDBRANCH  20  21
ENDBRANCH  19  20
ENDBRANCH  18  19
ENDBRANCH  17  18
ENDBRANCH   1  17
TORSDOF 26
ENDMDL
MODEL 5
REMARK VINA RESULT:    -2.917      1.460      2.857
REMARK INTER + INTRA:         -10.186
REMARK INTER:                  -7.742
REMARK INTRA:                  -2.444
REMARK UNBOUND:                -2.836
REMARK SMILES CCCCCCCCCCCCCCCCCCCCCCCCCCCC(=O)[O-]
REMARK SMILES IDX 15 1 16 2 17 3 18 4 19 5 20 6 21 7 22 8 23 9 24 10 25 11
REMARK SMILES IDX 26 12 27 13 28 14 29 15 30 16 14 17 13 18 12 19 11 20 10 21
REMARK SMILES IDX 9 22 8 23 7 24 6 25 5 26 4 27 3 28 2 29 1 30
REMARK H PARENT
REMARK Flexibility Score: inf
ROOT
ATOM      1  C   UNL     1      43.193  27.529   0.988  1.00  0.00     0.000 C 
ENDROOT
BRANCH   1   2
ATOM      2  C   UNL     1      44.335  27.239   1.986  1.00  0.00     0.000 C 
BRANCH   2   3
ATOM      3  C   UNL     1      45.729  27.054   1.358  1.00  0.00     0.000 C 
BRANCH   3   4
ATOM      4  C   UNL     1      46.395  28.389   0.981  1.00  0.00     0.000 C 
BRANCH   4   5
ATOM      5  C   UNL     1      47.071  29.073   2.180  1.00  0.00     0.000 C 
BRANCH   5   6
ATOM      6  C   UNL     1      46.064  29.745   3.128  1.00  0.00     0.000 C 
BRANCH   6   7
ATOM      7  C   UNL     1      46.676  30.096   4.497  1.00  0.00     0.000 C 
BRANCH   7   8
ATOM      8  C   UNL     1      46.026  29.396   5.710  1.00  0.00     0.000 C 
BRANCH   8   9
ATOM      9  C   UNL     1      46.908  28.337   6.397  1.00  0.00     0.000 C 
BRANCH   9  10
ATOM     10  C   UNL     1      46.111  27.092   6.823  1.00  0.00     0.000 C 
BRANCH  10  11
ATOM     11  C   UNL     1      45.473  27.246   8.214  1.00  0.00     0.000 C 
BRANCH  11  12
ATOM     12  C   UNL     1      45.435  25.921   8.995  1.00  0.00     0.006 C 
BRANCH  12  13
ATOM     13  C   UNL     1      46.809  25.542   9.564  1.00  0.00     0.053 C 
BRANCH  13  14
ATOM     14  C   UNL     1      46.955  25.966  10.993  1.00  0.00     0.041 C 
ATOM     15  O   UNL     1      47.125  25.103  11.895  1.00  0.00    -0.550 OA
ATOM     16  O   UNL     1      46.943  27.314  11.323  1.00  0.00    -0.550 OA
ENDBRANCH  13  14
ENDBRANCH  12  13
ENDBRANCH  11  12
ENDBRANCH  10  11
ENDBRANCH   9  10
ENDBRANCH   8   9
ENDBRANCH   7   8
ENDBRANCH   6   7
ENDBRANCH   5   6
ENDBRANCH   4   5
ENDBRANCH   3   4
ENDBRANCH   2   3
ENDBRANCH   1   2
BRANCH   1  17
ATOM     17  C   UNL     1      42.256  28.688   1.377  1.00  0.00     0.000 C 
BRANCH  17  18
ATOM     18  C   UNL     1      42.308  29.855   0.378  1.00  0.00     0.000 C 
BRANCH  18  19
ATOM     19  C   UNL     1      43.645  29.929  -0.377  1.00  0.00     0.000 C 
BRANCH  19  20
ATOM     20  C   UNL     1      43.468  30.115  -1.891  1.00  0.00     0.000 C 
BRANCH  20  21
ATOM     21  C   UNL     1      42.247  29.333  -2.396  1.00  0.00     0.000 C 
BRANCH  21  22
ATOM     22  C   UNL     1      42.618  28.203  -3.372  1.00  0.00    -0.000 C 
BRANCH  22  23
ATOM     23  C   UNL     1      42.034  28.346  -4.790  1.00  0.00    -0.000 C 
BRANCH  23  24
ATOM     24  C   UNL     1      43.057  28.870  -5.810  1.00  0.00    -0.000 C 
BRANCH  24  25
ATOM     25  C   UNL     1      43.748  27.708  -6.540  1.00  0.00    -0.000 C 
BRANCH  25  26
ATOM     26  C   UNL     1      44.584  26.826  -5.598  1.00  0.00    -0.000 C 
BRANCH  26  27
ATOM     27  C   UNL     1      46.099  27.108  -5.619  1.00  0.00    -0.000 C 
BRANCH  27  28
ATOM     28  C   UNL     1      46.755  27.095  -4.223  1.00  0.00    -0.000 C 
BRANCH  28  29
ATOM     29  C   UNL     1      46.374  28.327  -3.385  1.00  0.00    -0.003 C 
ATOM     30  C   UNL     1      46.694  29.619  -4.131  1.00  0.00     0.004 C 
ENDBRANCH  28  29
ENDBRANCH  27  28
ENDBRANCH  26  27
ENDBRANCH  25  26
ENDBRANCH  24  25
ENDBRANCH  23  24
ENDBRANCH  22  23
ENDBRANCH  21  22
ENDBRANCH  20  21
ENDBRANCH  19  20
ENDBRANCH  18  19
ENDBRANCH  17  18
ENDBRANCH   1  17
TORSDOF 26
ENDMDL
MODEL 6
REMARK VINA RESULT:    -2.871      3.214     10.952
REMARK INTER + INTRA:         -10.071
REMARK INTER:                  -8.039
REMARK INTRA:                  -2.032
REMARK UNBOUND:                -2.836
REMARK SMILES CCCCCCCCCCCCCCCCCCCCCCCCCCCC(=O)[O-]
REMARK SMILES IDX 15 1 16 2 17 3 18 4 19 5 20 6 21 7 22 8 23 9 24 10 25 11
REMARK SMILES IDX 26 12 27 13 28 14 29 15 30 16 14 17 13 18 12 19 11 20 10 21
REMARK SMILES IDX 9 22 8 23 7 24 6 25 5 26 4 27 3 28 2 29 1 30
REMARK H PARENT
REMARK Flexibility Score: inf
ROOT
ATOM      1  C   UNL     1      42.266  27.462   0.545  1.00  0.00     0.000 C 
ENDROOT
BRANCH   1   2
ATOM      2  C   UNL     1      43.085  27.909  -0.684  1.00  0.00     0.000 C 
BRANCH   2   3
ATOM      3  C   UNL     1      42.639  27.307  -2.030  1.00  0.00     0.000 C 
BRANCH   3   4
ATOM      4  C   UNL     1      42.452  28.372  -3.125  1.00  0.00     0.000 C 
BRANCH   4   5
ATOM      5  C   UNL     1      42.946  27.898  -4.502  1.00  0.00     0.000 C 
BRANCH   5   6
ATOM      6  C   UNL     1      42.063  28.402  -5.657  1.00  0.00     0.000 C 
BRANCH   6   7
ATOM      7  C   UNL     1      42.840  28.554  -6.978  1.00  0.00     0.000 C 
BRANCH   7   8
ATOM      8  C   UNL     1      43.865  29.708  -7.013  1.00  0.00     0.000 C 
BRANCH   8   9
ATOM      9  C   UNL     1      45.260  29.354  -6.467  1.00  0.00     0.000 C 
BRANCH   9  10
ATOM     10  C   UNL     1      45.732  27.959  -6.912  1.00  0.00     0.000 C 
BRANCH  10  11
ATOM     11  C   UNL     1      46.027  27.028  -5.724  1.00  0.00     0.000 C 
BRANCH  11  12
ATOM     12  C   UNL     1      47.074  27.614  -4.761  1.00  0.00     0.006 C 
BRANCH  12  13
ATOM     13  C   UNL     1      46.782  27.256  -3.299  1.00  0.00     0.053 C 
BRANCH  13  14
ATOM     14  C   UNL     1      46.391  28.460  -2.499  1.00  0.00     0.041 C 
ATOM     15  O   UNL     1      45.564  29.289  -2.964  1.00  0.00    -0.550 OA
ATOM     16  O   UNL     1      46.909  28.647  -1.224  1.00  0.00    -0.550 OA
ENDBRANCH  13  14
ENDBRANCH  12  13
ENDBRANCH  11  12
ENDBRANCH  10  11
ENDBRANCH   9  10
ENDBRANCH   8   9
ENDBRANCH   7   8
ENDBRANCH   6   7
ENDBRANCH   5   6
ENDBRANCH   4   5
ENDBRANCH   3   4
ENDBRANCH   2   3
ENDBRANCH   1   2
BRANCH   1  17
ATOM     17  C   UNL     1      42.764  27.997   1.901  1.00  0.00     0.000 C 
BRANCH  17  18
ATOM     18  C   UNL     1      44.048  28.834   1.775  1.00  0.00     0.000 C 
BRANCH  18  19
ATOM     19  C   UNL     1      45.276  28.126   2.368  1.00  0.00     0.000 C 
BRANCH  19  20
ATOM     20  C   UNL     1      45.414  26.671   1.896  1.00  0.00     0.000 C 
BRANCH  20  21
ATOM     21  C   UNL     1      45.119  25.696   3.045  1.00  0.00     0.000 C 
BRANCH  21  22
ATOM     22  C   UNL     1      46.375  25.312   3.846  1.00  0.00    -0.000 C 
BRANCH  22  23
ATOM     23  C   UNL     1      47.111  26.491   4.510  1.00  0.00    -0.000 C 
BRANCH  23  24
ATOM     24  C   UNL     1      46.274  27.187   5.593  1.00  0.00    -0.000 C 
BRANCH  24  25
ATOM     25  C   UNL     1      45.861  26.195   6.691  1.00  0.00    -0.000 C 
BRANCH  25  26
ATOM     26  C   UNL     1      47.007  25.876   7.666  1.00  0.00    -0.000 C 
BRANCH  26  27
ATOM     27  C   UNL     1      46.872  26.519   9.060  1.00  0.00    -0.000 C 
BRANCH  27  28
ATOM     28  C   UNL     1      45.499  27.178   9.312  1.00  0.00    -0.000 C 
BRANCH  28  29
ATOM     29  C   UNL     1      45.538  28.703   9.121  1.00  0.00    -0.003 C 
ATOM     30  C   UNL     1      46.522  29.354  10.088  1.00  0.00     0.004 C 
ENDBRANCH  28  29
ENDBRANCH  27  28
ENDBRANCH  26  27
ENDBRANCH  25  26
ENDBRANCH  24  25
ENDBRANCH  23  24
ENDBRANCH  22  23
ENDBRANCH  21  22
ENDBRANCH  20  21
ENDBRANCH  19  20
ENDBRANCH  18  19
ENDBRANCH  17  18
ENDBRANCH   1  17
TORSDOF 26
ENDMDL
MODEL 7
REMARK VINA RESULT:    -1.153      1.352      2.106
REMARK INTER + INTRA:          -5.741
REMARK INTER:                  -3.088
REMARK INTRA:                  -2.653
REMARK UNBOUND:                -2.836
REMARK SMILES CCCCCCCCCCCCCCCCCCCCCCCCCCCC(=O)[O-]
REMARK SMILES IDX 15 1 16 2 17 3 18 4 19 5 20 6 21 7 22 8 23 9 24 10 25 11
REMARK SMILES IDX 26 12 27 13 28 14 29 15 30 16 14 17 13 18 12 19 11 20 10 21
REMARK SMILES IDX 9 22 8 23 7 24 6 25 5 26 4 27 3 28 2 29 1 30
REMARK H PARENT
REMARK Flexibility Score: inf
ROOT
ATOM      1  C   UNL     1      42.108  28.645   1.408  1.00  0.00     0.000 C 
ENDROOT
BRANCH   1   2
ATOM      2  C   UNL     1      42.494  27.948   0.086  1.00  0.00     0.000 C 
BRANCH   2   3
ATOM      3  C   UNL     1      43.558  26.842   0.209  1.00  0.00     0.000 C 
BRANCH   3   4
ATOM      4  C   UNL     1      43.836  26.442   1.668  1.00  0.00     0.000 C 
BRANCH   4   5
ATOM      5  C   UNL     1      45.326  26.540   2.036  1.00  0.00     0.000 C 
BRANCH   5   6
ATOM      6  C   UNL     1      45.606  26.142   3.495  1.00  0.00     0.000 C 
BRANCH   6   7
ATOM      7  C   UNL     1      47.001  26.582   3.976  1.00  0.00     0.000 C 
BRANCH   7   8
ATOM      8  C   UNL     1      47.027  27.847   4.860  1.00  0.00     0.000 C 
BRANCH   8   9
ATOM      9  C   UNL     1      46.136  27.781   6.114  1.00  0.00     0.000 C 
BRANCH   9  10
ATOM     10  C   UNL     1      45.641  29.167   6.561  1.00  0.00     0.000 C 
BRANCH  10  11
ATOM     11  C   UNL     1      46.563  29.815   7.607  1.00  0.00     0.000 C 
BRANCH  11  12
ATOM     12  C   UNL     1      46.671  28.980   8.896  1.00  0.00     0.006 C 
BRANCH  12  13
ATOM     13  C   UNL     1      45.454  28.070   9.101  1.00  0.00     0.053 C 
BRANCH  13  14
ATOM     14  C   UNL     1      45.849  26.721   9.617  1.00  0.00     0.041 C 
ATOM     15  O   UNL     1      45.596  25.685   8.945  1.00  0.00    -0.550 OA
ATOM     16  O   UNL     1      46.533  26.610  10.821  1.00  0.00    -0.550 OA
ENDBRANCH  13  14
ENDBRANCH  12  13
ENDBRANCH  11  12
ENDBRANCH  10  11
ENDBRANCH   9  10
ENDBRANCH   8   9
ENDBRANCH   7   8
ENDBRANCH   6   7
ENDBRANCH   5   6
ENDBRANCH   4   5
ENDBRANCH   3   4
ENDBRANCH   2   3
ENDBRANCH   1   2
BRANCH   1  17
ATOM     17  C   UNL     1      42.743  30.029   1.634  1.00  0.00     0.000 C 
BRANCH  17  18
ATOM     18  C   UNL     1      43.826  30.016   2.725  1.00  0.00     0.000 C 
BRANCH  18  19
ATOM     19  C   UNL     1      45.247  30.124   2.148  1.00  0.00     0.000 C 
BRANCH  19  20
ATOM     20  C   UNL     1      45.271  30.125   0.613  1.00  0.00     0.000 C 
BRANCH  20  21
ATOM     21  C   UNL     1      46.346  29.162   0.086  1.00  0.00     0.000 C 
BRANCH  21  22
ATOM     22  C   UNL     1      46.953  29.615  -1.254  1.00  0.00    -0.000 C 
BRANCH  22  23
ATOM     23  C   UNL     1      46.173  29.174  -2.506  1.00  0.00    -0.000 C 
BRANCH  23  24
ATOM     24  C   UNL     1      45.912  27.661  -2.549  1.00  0.00    -0.000 C 
BRANCH  24  25
ATOM     25  C   UNL     1      45.622  27.194  -3.983  1.00  0.00    -0.000 C 
BRANCH  25  26
ATOM     26  C   UNL     1      45.035  28.309  -4.865  1.00  0.00    -0.000 C 
BRANCH  26  27
ATOM     27  C   UNL     1      44.766  27.905  -6.328  1.00  0.00    -0.000 C 
BRANCH  27  28
ATOM     28  C   UNL     1      43.326  27.414  -6.585  1.00  0.00    -0.000 C 
BRANCH  28  29
ATOM     29  C   UNL     1      42.280  28.246  -5.826  1.00  0.00    -0.003 C 
ATOM     30  C   UNL     1      42.299  29.702  -6.281  1.00  0.00     0.004 C 
ENDBRANCH  28  29
ENDBRANCH  27  28
ENDBRANCH  26  27
ENDBRANCH  25  26
ENDBRANCH  24  25
ENDBRANCH  23  24
ENDBRANCH  22  23
ENDBRANCH  21  22
ENDBRANCH  20  21
ENDBRANCH  19  20
ENDBRANCH  18  19
ENDBRANCH  17  18
ENDBRANCH   1  17
TORSDOF 26
ENDMDL
