MODEL 1
REMARK VINA RESULT:    -3.454      0.000      0.000
REMARK INTER + INTRA:         -11.779
REMARK INTER:                  -7.896
REMARK INTRA:                  -3.883
REMARK UNBOUND:                -3.883
REMARK SMILES CCCCCCCCCCCCCCCCCCCCCCCC(=O)[O-]
REMARK SMILES IDX 13 1 14 2 15 3 16 4 17 5 18 6 19 7 20 8 21 9 22 10 23 11
REMARK SMILES IDX 24 12 25 13 26 14 12 15 11 16 10 17 9 18 8 19 7 20 6 21 5 22
REMARK SMILES IDX 4 23 3 24 2 25 1 26
REMARK H PARENT
REMARK Flexibility Score: inf
ROOT
ATOM      1  C   UNL     1      -8.302   3.774  -3.573  1.00  0.00     0.000 C 
ENDROOT
BRANCH   1   2
ATOM      2  C   UNL     1      -7.059   2.952  -3.967  1.00  0.00     0.000 C 
BRANCH   2   3
ATOM      3  C   UNL     1      -5.981   3.732  -4.746  1.00  0.00     0.000 C 
BRANCH   3   4
ATOM      4  C   UNL     1      -5.931   5.242  -4.446  1.00  0.00     0.000 C 
BRANCH   4   5
ATOM      5  C   UNL     1      -5.963   6.105  -5.720  1.00  0.00     0.000 C 
BRANCH   5   6
ATOM      6  C   UNL     1      -7.208   7.003  -5.795  1.00  0.00     0.000 C 
BRANCH   6   7
ATOM      7  C   UNL     1      -8.457   6.246  -6.272  1.00  0.00     0.000 C 
BRANCH   7   8
ATOM      8  C   UNL     1      -8.113   5.284  -7.416  1.00  0.00     0.000 C 
BRANCH   8   9
ATOM      9  C   UNL     1      -8.880   3.964  -7.275  1.00  0.00     0.000 C 
BRANCH   9  10
ATOM     10  C   UNL     1      -8.084   2.798  -7.876  1.00  0.00     0.006 C 
BRANCH  10  11
ATOM     11  C   UNL     1      -8.283   1.518  -7.058  1.00  0.00     0.053 C 
BRANCH  11  12
ATOM     12  C   UNL     1      -7.163   0.556  -7.307  1.00  0.00     0.041 C 
ATOM     13  O   UNL     1      -7.371  -0.502  -7.961  1.00  0.00    -0.550 OA
ATOM     14  O   UNL     1      -5.904   0.803  -6.778  1.00  0.00    -0.550 OA
ENDBRANCH  11  12
ENDBRANCH  10  11
ENDBRANCH   9  10
ENDBRANCH   8   9
ENDBRANCH   7   8
ENDBRANCH   6   7
ENDBRANCH   5   6
ENDBRANCH   4   5
ENDBRANCH   3   4
ENDBRANCH   2   3
ENDBRANCH   1   2
BRANCH   1  15
ATOM     15  C   UNL     1      -8.634   3.773  -2.067  1.00  0.00     0.000 C 
BRANCH  15  16
ATOM     16  C   UNL     1      -9.047   5.140  -1.493  1.00  0.00     0.000 C 
BRANCH  16  17
ATOM     17  C   UNL     1      -8.977   6.271  -2.530  1.00  0.00     0.000 C 
BRANCH  17  18
ATOM     18  C   UNL     1      -8.122   7.438  -2.015  1.00  0.00    -0.000 C 
BRANCH  18  19
ATOM     19  C   UNL     1      -6.731   6.993  -1.529  1.00  0.00    -0.000 C 
BRANCH  19  20
ATOM     20  C   UNL     1      -6.368   7.428  -0.095  1.00  0.00    -0.000 C 
BRANCH  20  21
ATOM     21  C   UNL     1      -6.016   8.917   0.067  1.00  0.00    -0.000 C 
BRANCH  21  22
ATOM     22  C   UNL     1      -5.991   9.368   1.537  1.00  0.00    -0.000 C 
BRANCH  22  23
ATOM     23  C   UNL     1      -6.749   8.400   2.462  1.00  0.00    -0.000 C 
BRANCH  23  24
ATOM     24  C   UNL     1      -8.188   8.863   2.749  1.00  0.00    -0.000 C 
BRANCH  24  25
ATOM     25  C   UNL     1      -9.187   7.697   2.773  1.00  0.00    -0.003 C 
ATOM     26  C   UNL     1      -9.782   7.398   1.397  1.00  0.00     0.004 C 
ENDBRANCH  24  25
ENDBRANCH  23  24
ENDBRANCH  22  23
ENDBRANCH  21  22
ENDBRANCH  20  21
ENDBRANCH  19  20
ENDBRANCH  18  19
ENDBRANCH  17  18
ENDBRANCH  16  17
ENDBRANCH  15  16
ENDBRANCH   1  15
TORSDOF 22
ENDMDL
MODEL 2
REMARK VINA RESULT:    -3.452      1.412      3.473
REMARK INTER + INTRA:         -11.775
REMARK INTER:                  -7.343
REMARK INTRA:                  -4.432
REMARK UNBOUND:                -3.883
REMARK SMILES CCCCCCCCCCCCCCCCCCCCCCCC(=O)[O-]
REMARK SMILES IDX 13 1 14 2 15 3 16 4 17 5 18 6 19 7 20 8 21 9 22 10 23 11
REMARK SMILES IDX 24 12 25 13 26 14 12 15 11 16 10 17 9 18 8 19 7 20 6 21 5 22
REMARK SMILES IDX 4 23 3 24 2 25 1 26
REMARK H PARENT
REMARK Flexibility Score: inf
ROOT
ATOM      1  C   UNL     1      -5.637   5.699  -4.581  1.00  0.00     0.000 C 
ENDROOT
BRANCH   1   2
ATOM      2  C   UNL     1      -6.409   4.443  -4.132  1.00  0.00     0.000 C 
BRANCH   2   3
ATOM      3  C   UNL     1      -5.997   3.137  -4.840  1.00  0.00     0.000 C 
BRANCH   3   4
ATOM      4  C   UNL     1      -6.969   1.959  -4.643  1.00  0.00     0.000 C 
BRANCH   4   5
ATOM      5  C   UNL     1      -8.394   2.414  -4.281  1.00  0.00     0.000 C 
BRANCH   5   6
ATOM      6  C   UNL     1      -9.363   2.328  -5.471  1.00  0.00     0.000 C 
BRANCH   6   7
ATOM      7  C   UNL     1      -9.425   3.632  -6.281  1.00  0.00     0.000 C 
BRANCH   7   8
ATOM      8  C   UNL     1      -9.105   3.375  -7.758  1.00  0.00     0.000 C 
BRANCH   8   9
ATOM      9  C   UNL     1      -7.688   3.850  -8.104  1.00  0.00     0.000 C 
BRANCH   9  10
ATOM     10  C   UNL     1      -6.787   2.666  -8.479  1.00  0.00     0.006 C 
BRANCH  10  11
ATOM     11  C   UNL     1      -7.616   1.398  -8.715  1.00  0.00     0.053 C 
BRANCH  11  12
ATOM     12  C   UNL     1      -7.105   0.272  -7.872  1.00  0.00     0.041 C 
ATOM     13  O   UNL     1      -7.895  -0.619  -7.460  1.00  0.00    -0.550 OA
ATOM     14  O   UNL     1      -5.767   0.232  -7.501  1.00  0.00    -0.550 OA
ENDBRANCH  11  12
ENDBRANCH  10  11
ENDBRANCH   9  10
ENDBRANCH   8   9
ENDBRANCH   7   8
ENDBRANCH   6   7
ENDBRANCH   5   6
ENDBRANCH   4   5
ENDBRANCH   3   4
ENDBRANCH   2   3
ENDBRANCH   1   2
BRANCH   1  15
ATOM     15  C   UNL     1      -5.882   6.128  -6.042  1.00  0.00     0.000 C 
BRANCH  15  16
ATOM     16  C   UNL     1      -7.132   6.999  -6.261  1.00  0.00     0.000 C 
BRANCH  16  17
ATOM     17  C   UNL     1      -7.169   8.235  -5.350  1.00  0.00     0.000 C 
BRANCH  17  18
ATOM     18  C   UNL     1      -8.408   8.212  -4.442  1.00  0.00    -0.000 C 
BRANCH  18  19
ATOM     19  C   UNL     1      -9.294   6.974  -4.668  1.00  0.00    -0.000 C 
BRANCH  19  20
ATOM     20  C   UNL     1      -9.536   6.105  -3.417  1.00  0.00    -0.000 C 
BRANCH  20  21
ATOM     21  C   UNL     1      -9.194   6.779  -2.077  1.00  0.00    -0.000 C 
BRANCH  21  22
ATOM     22  C   UNL     1      -8.011   6.111  -1.356  1.00  0.00    -0.000 C 
BRANCH  22  23
ATOM     23  C   UNL     1      -6.743   6.981  -1.375  1.00  0.00    -0.000 C 
BRANCH  23  24
ATOM     24  C   UNL     1      -6.982   8.385  -0.792  1.00  0.00    -0.000 C 
BRANCH  24  25
ATOM     25  C   UNL     1      -6.207   8.619   0.514  1.00  0.00    -0.003 C 
ATOM     26  C   UNL     1      -6.816   7.879   1.705  1.00  0.00     0.004 C 
ENDBRANCH  24  25
ENDBRANCH  23  24
ENDBRANCH  22  23
ENDBRANCH  21  22
ENDBRANCH  20  21
ENDBRANCH  19  20
ENDBRANCH  18  19
ENDBRANCH  17  18
ENDBRANCH  16  17
ENDBRANCH  15  16
ENDBRANCH   1  15
TORSDOF 22
ENDMDL
MODEL 3
REMARK VINA RESULT:    -3.404      1.194      2.540
REMARK INTER + INTRA:         -11.666
REMARK INTER:                  -8.033
REMARK INTRA:                  -3.633
REMARK UNBOUND:                -3.883
REMARK SMILES CCCCCCCCCCCCCCCCCCCCCCCC(=O)[O-]
REMARK SMILES IDX 13 1 14 2 15 3 16 4 17 5 18 6 19 7 20 8 21 9 22 10 23 11
REMARK SMILES IDX 24 12 25 13 26 14 12 15 11 16 10 17 9 18 8 19 7 20 6 21 5 22
REMARK SMILES IDX 4 23 3 24 2 25 1 26
REMARK H PARENT
REMARK Flexibility Score: inf
ROOT
ATOM      1  C   UNL     1      -5.960   3.782  -4.765  1.00  0.00     0.000 C 
ENDROOT
BRANCH   1   2
ATOM      2  C   UNL     1      -5.770   5.304  -4.619  1.00  0.00     0.000 C 
BRANCH   2   3
ATOM      3  C   UNL     1      -5.751   6.089  -5.946  1.00  0.00     0.000 C 
BRANCH   3   4
ATOM      4  C   UNL     1      -6.650   7.338  -5.973  1.00  0.00     0.000 C 
BRANCH   4   5
ATOM      5  C   UNL     1      -8.067   7.044  -6.497  1.00  0.00     0.000 C 
BRANCH   5   6
ATOM      6  C   UNL     1      -8.086   5.937  -7.563  1.00  0.00     0.000 C 
BRANCH   6   7
ATOM      7  C   UNL     1      -9.030   4.780  -7.200  1.00  0.00     0.000 C 
BRANCH   7   8
ATOM      8  C   UNL     1      -8.618   3.490  -7.919  1.00  0.00     0.000 C 
BRANCH   8   9
ATOM      9  C   UNL     1      -7.120   3.497  -8.246  1.00  0.00     0.000 C 
BRANCH   9  10
ATOM     10  C   UNL     1      -6.718   2.233  -9.017  1.00  0.00     0.006 C 
BRANCH  10  11
ATOM     11  C   UNL     1      -7.283   0.977  -8.345  1.00  0.00     0.053 C 
BRANCH  11  12
ATOM     12  C   UNL     1      -6.220   0.284  -7.549  1.00  0.00     0.041 C 
ATOM     13  O   UNL     1      -5.865   0.744  -6.431  1.00  0.00    -0.550 OA
ATOM     14  O   UNL     1      -5.589  -0.840  -8.063  1.00  0.00    -0.550 OA
ENDBRANCH  11  12
ENDBRANCH  10  11
ENDBRANCH   9  10
ENDBRANCH   8   9
ENDBRANCH   7   8
ENDBRANCH   6   7
ENDBRANCH   5   6
ENDBRANCH   4   5
ENDBRANCH   3   4
ENDBRANCH   2   3
ENDBRANCH   1   2
BRANCH   1  15
ATOM     15  C   UNL     1      -7.362   3.261  -4.390  1.00  0.00     0.000 C 
BRANCH  15  16
ATOM     16  C   UNL     1      -7.731   3.404  -2.902  1.00  0.00     0.000 C 
BRANCH  16  17
ATOM     17  C   UNL     1      -9.093   4.079  -2.685  1.00  0.00     0.000 C 
BRANCH  17  18
ATOM     18  C   UNL     1      -9.206   5.369  -3.512  1.00  0.00    -0.000 C 
BRANCH  18  19
ATOM     19  C   UNL     1      -9.292   6.634  -2.641  1.00  0.00    -0.000 C 
BRANCH  19  20
ATOM     20  C   UNL     1      -7.992   7.458  -2.553  1.00  0.00    -0.000 C 
BRANCH  20  21
ATOM     21  C   UNL     1      -6.955   6.936  -1.542  1.00  0.00    -0.000 C 
BRANCH  21  22
ATOM     22  C   UNL     1      -7.032   7.653  -0.184  1.00  0.00    -0.000 C 
BRANCH  22  23
ATOM     23  C   UNL     1      -6.204   8.949  -0.155  1.00  0.00    -0.000 C 
BRANCH  23  24
ATOM     24  C   UNL     1      -5.770   9.341   1.268  1.00  0.00    -0.000 C 
BRANCH  24  25
ATOM     25  C   UNL     1      -6.638   8.683   2.351  1.00  0.00    -0.003 C 
ATOM     26  C   UNL     1      -6.907   9.607   3.538  1.00  0.00     0.004 C 
ENDBRANCH  24  25
ENDBRANCH  23  24
ENDBRANCH  22  23
ENDBRANCH  21  22
ENDBRANCH  20  21
ENDBRANCH  19  20
ENDBRANCH  18  19
ENDBRANCH  17  18
ENDBRANCH  16  17
ENDBRANCH  15  16
ENDBRANCH   1  15
TORSDOF 22
ENDMDL
MODEL 4
REMARK VINA RESULT:    -3.295      3.679      8.200
REMARK INTER + INTRA:         -11.416
REMARK INTER:                  -7.211
REMARK INTRA:                  -4.205
REMARK UNBOUND:                -3.883
REMARK SMILES CCCCCCCCCCCCCCCCCCCCCCCC(=O)[O-]
REMARK SMILES IDX 13 1 14 2 15 3 16 4 17 5 18 6 19 7 20 8 21 9 22 10 23 11
REMARK SMILES IDX 24 12 25 13 26 14 12 15 11 16 10 17 9 18 8 19 7 20 6 21 5 22
REMARK SMILES IDX 4 23 3 24 2 25 1 26
REMARK H PARENT
REMARK Flexibility Score: inf
ROOT
ATOM      1  C   UNL     1      -5.992   3.605  -4.903  1.00  0.00     0.000 C 
ENDROOT
BRANCH   1   2
ATOM      2  C   UNL     1      -6.950   2.667  -4.143  1.00  0.00     0.000 C 
BRANCH   2   3
ATOM      3  C   UNL     1      -7.731   3.329  -2.990  1.00  0.00     0.000 C 
BRANCH   3   4
ATOM      4  C   UNL     1      -9.256   3.387  -3.189  1.00  0.00     0.000 C 
BRANCH   4   5
ATOM      5  C   UNL     1      -9.881   4.681  -2.638  1.00  0.00     0.000 C 
BRANCH   5   6
ATOM      6  C   UNL     1      -8.955   5.415  -1.656  1.00  0.00     0.000 C 
BRANCH   6   7
ATOM      7  C   UNL     1      -8.469   6.768  -2.197  1.00  0.00     0.000 C 
BRANCH   7   8
ATOM      8  C   UNL     1      -7.083   7.116  -1.642  1.00  0.00     0.000 C 
BRANCH   8   9
ATOM      9  C   UNL     1      -7.036   8.566  -1.148  1.00  0.00     0.000 C 
BRANCH   9  10
ATOM     10  C   UNL     1      -6.332   8.662   0.212  1.00  0.00     0.006 C 
BRANCH  10  11
ATOM     11  C   UNL     1      -6.648   7.440   1.081  1.00  0.00     0.053 C 
BRANCH  11  12
ATOM     12  C   UNL     1      -7.547   7.821   2.216  1.00  0.00     0.041 C 
ATOM     13  O   UNL     1      -8.688   7.296   2.323  1.00  0.00    -0.550 OA
ATOM     14  O   UNL     1      -7.145   8.789   3.127  1.00  0.00    -0.550 OA
ENDBRANCH  11  12
ENDBRANCH  10  11
ENDBRANCH   9  10
ENDBRANCH   8   9
ENDBRANCH   7   8
ENDBRANCH   6   7
ENDBRANCH   5   6
ENDBRANCH   4   5
ENDBRANCH   3   4
ENDBRANCH   2   3
ENDBRANCH   1   2
BRANCH   1  15
ATOM     15  C   UNL     1      -6.006   5.074  -4.432  1.00  0.00     0.000 C 
BRANCH  15  16
ATOM     16  C   UNL     1      -5.829   6.115  -5.552  1.00  0.00     0.000 C 
BRANCH  16  17
ATOM     17  C   UNL     1      -6.733   7.344  -5.376  1.00  0.00     0.000 C 
BRANCH  17  18
ATOM     18  C   UNL     1      -6.487   8.372  -6.490  1.00  0.00    -0.000 C 
BRANCH  18  19
ATOM     19  C   UNL     1      -7.496   8.256  -7.646  1.00  0.00    -0.000 C 
BRANCH  19  20
ATOM     20  C   UNL     1      -6.879   7.942  -9.024  1.00  0.00    -0.000 C 
BRANCH  20  21
ATOM     21  C   UNL     1      -7.216   6.551  -9.590  1.00  0.00    -0.000 C 
BRANCH  21  22
ATOM     22  C   UNL     1      -6.262   5.455  -9.086  1.00  0.00    -0.000 C 
BRANCH  22  23
ATOM     23  C   UNL     1      -7.009   4.272  -8.448  1.00  0.00    -0.000 C 
BRANCH  23  24
ATOM     24  C   UNL     1      -8.513   4.547  -8.276  1.00  0.00    -0.000 C 
BRANCH  24  25
ATOM     25  C   UNL     1      -8.991   4.329  -6.833  1.00  0.00    -0.003 C 
ATOM     26  C   UNL     1      -9.705   5.550  -6.254  1.00  0.00     0.004 C 
ENDBRANCH  24  25
ENDBRANCH  23  24
ENDBRANCH  22  23
ENDBRANCH  21  22
ENDBRANCH  20  21
ENDBRANCH  19  20
ENDBRANCH  18  19
ENDBRANCH  17  18
ENDBRANCH  16  17
ENDBRANCH  15  16
ENDBRANCH   1  15
TORSDOF 22
ENDMDL
MODEL 5
REMARK VINA RESULT:    -3.276      1.494      3.058
REMARK INTER + INTRA:         -11.373
REMARK INTER:                  -7.790
REMARK INTRA:                  -3.584
REMARK UNBOUND:                -3.883
REMARK SMILES CCCCCCCCCCCCCCCCCCCCCCCC(=O)[O-]
REMARK SMILES IDX 13 1 14 2 15 3 16 4 17 5 18 6 19 7 20 8 21 9 22 10 23 11
REMARK SMILES IDX 24 12 25 13 26 14 12 15 11 16 10 17 9 18 8 19 7 20 6 21 5 22
REMARK SMILES IDX 4 23 3 24 2 25 1 26
REMARK H PARENT
REMARK Flexibility Score: inf
ROOT
ATOM      1  C   UNL     1      -7.363   2.623  -4.077  1.00  0.00     0.000 C 
ENDROOT
BRANCH   1   2
ATOM      2  C   UNL     1      -8.048   3.365  -2.912  1.00  0.00     0.000 C 
BRANCH   2   3
ATOM      3  C   UNL     1      -9.327   4.137  -3.293  1.00  0.00     0.000 C 
BRANCH   3   4
ATOM      4  C   UNL     1      -9.765   3.982  -4.760  1.00  0.00     0.000 C 
BRANCH   4   5
ATOM      5  C   UNL     1      -9.857   5.328  -5.502  1.00  0.00     0.000 C 
BRANCH   5   6
ATOM      6  C   UNL     1      -9.728   5.175  -7.025  1.00  0.00     0.000 C 
BRANCH   6   7
ATOM      7  C   UNL     1      -9.070   3.848  -7.434  1.00  0.00     0.000 C 
BRANCH   7   8
ATOM      8  C   UNL     1      -7.950   4.083  -8.456  1.00  0.00     0.000 C 
BRANCH   8   9
ATOM      9  C   UNL     1      -6.944   2.926  -8.444  1.00  0.00     0.000 C 
BRANCH   9  10
ATOM     10  C   UNL     1      -7.623   1.608  -8.049  1.00  0.00     0.006 C 
BRANCH  10  11
ATOM     11  C   UNL     1      -6.641   0.679  -7.329  1.00  0.00     0.053 C 
BRANCH  11  12
ATOM     12  C   UNL     1      -6.093  -0.343  -8.276  1.00  0.00     0.041 C 
ATOM     13  O   UNL     1      -5.246  -1.186  -7.878  1.00  0.00    -0.550 OA
ATOM     14  O   UNL     1      -6.483  -0.334  -9.609  1.00  0.00    -0.550 OA
ENDBRANCH  11  12
ENDBRANCH  10  11
ENDBRANCH   9  10
ENDBRANCH   8   9
ENDBRANCH   7   8
ENDBRANCH   6   7
ENDBRANCH   5   6
ENDBRANCH   4   5
ENDBRANCH   3   4
ENDBRANCH   2   3
ENDBRANCH   1   2
BRANCH   1  15
ATOM     15  C   UNL     1      -5.963   3.149  -4.453  1.00  0.00     0.000 C 
BRANCH  15  16
ATOM     16  C   UNL     1      -5.960   4.396  -5.356  1.00  0.00     0.000 C 
BRANCH  16  17
ATOM     17  C   UNL     1      -5.921   5.711  -4.563  1.00  0.00     0.000 C 
BRANCH  17  18
ATOM     18  C   UNL     1      -6.538   6.860  -5.374  1.00  0.00    -0.000 C 
BRANCH  18  19
ATOM     19  C   UNL     1      -7.512   7.719  -4.549  1.00  0.00    -0.000 C 
BRANCH  19  20
ATOM     20  C   UNL     1      -7.534   7.416  -3.038  1.00  0.00    -0.000 C 
BRANCH  20  21
ATOM     21  C   UNL     1      -7.905   8.608  -2.137  1.00  0.00    -0.000 C 
BRANCH  21  22
ATOM     22  C   UNL     1      -7.073   8.662  -0.845  1.00  0.00    -0.000 C 
BRANCH  22  23
ATOM     23  C   UNL     1      -7.193   7.372  -0.015  1.00  0.00    -0.000 C 
BRANCH  23  24
ATOM     24  C   UNL     1      -6.706   7.555   1.433  1.00  0.00    -0.000 C 
BRANCH  24  25
ATOM     25  C   UNL     1      -6.244   8.990   1.722  1.00  0.00    -0.003 C 
ATOM     26  C   UNL     1      -6.834   9.553   3.016  1.00  0.00     0.004 C 
ENDBRANCH  24  25
ENDBRANCH  23  24
ENDBRANCH  22  23
ENDBRANCH  21  22
ENDBRANCH  20  21
ENDBRANCH  19  20
ENDBRANCH  18  19
ENDBRANCH  17  18
ENDBRANCH  16  17
ENDBRANCH  15  16
ENDBRANCH   1  15
TORSDOF 22
ENDMDL
MODEL 6
REMARK VINA RESULT:    -3.243      3.706      7.328
REMARK INTER + INTRA:         -11.297
REMARK INTER:                  -6.886
REMARK INTRA:                  -4.411
REMARK UNBOUND:                -3.883
REMARK SMILES CCCCCCCCCCCCCCCCCCCCCCCC(=O)[O-]
REMARK SMILES IDX 13 1 14 2 15 3 16 4 17 5 18 6 19 7 20 8 21 9 22 10 23 11
REMARK SMILES IDX 24 12 25 13 26 14 12 15 11 16 10 17 9 18 8 19 7 20 6 21 5 22
REMARK SMILES IDX 4 23 3 24 2 25 1 26
REMARK H PARENT
REMARK Flexibility Score: inf
ROOT
ATOM      1  C   UNL     1      -5.965   3.941  -4.869  1.00  0.00     0.000 C 
ENDROOT
BRANCH   1   2
ATOM      2  C   UNL     1      -6.658   2.818  -4.073  1.00  0.00     0.000 C 
BRANCH   2   3
ATOM      3  C   UNL     1      -8.088   3.143  -3.599  1.00  0.00     0.000 C 
BRANCH   3   4
ATOM      4  C   UNL     1      -8.244   3.313  -2.077  1.00  0.00     0.000 C 
BRANCH   4   5
ATOM      5  C   UNL     1      -9.188   4.468  -1.697  1.00  0.00     0.000 C 
BRANCH   5   6
ATOM      6  C   UNL     1      -9.787   5.171  -2.925  1.00  0.00     0.000 C 
BRANCH   6   7
ATOM      7  C   UNL     1      -9.726   6.703  -2.821  1.00  0.00     0.000 C 
BRANCH   7   8
ATOM      8  C   UNL     1      -8.972   7.136  -1.558  1.00  0.00     0.000 C 
BRANCH   8   9
ATOM      9  C   UNL     1      -7.628   7.784  -1.914  1.00  0.00     0.000 C 
BRANCH   9  10
ATOM     10  C   UNL     1      -6.523   7.323  -0.955  1.00  0.00     0.006 C 
BRANCH  10  11
ATOM     11  C   UNL     1      -6.066   8.473  -0.051  1.00  0.00     0.053 C 
BRANCH  11  12
ATOM     12  C   UNL     1      -6.701   8.363   1.300  1.00  0.00     0.041 C 
ATOM     13  O   UNL     1      -6.548   9.282   2.148  1.00  0.00    -0.550 OA
ATOM     14  O   UNL     1      -7.421   7.225   1.640  1.00  0.00    -0.550 OA
ENDBRANCH  11  12
ENDBRANCH  10  11
ENDBRANCH   9  10
ENDBRANCH   8   9
ENDBRANCH   7   8
ENDBRANCH   6   7
ENDBRANCH   5   6
ENDBRANCH   4   5
ENDBRANCH   3   4
ENDBRANCH   2   3
ENDBRANCH   1   2
BRANCH   1  15
ATOM     15  C   UNL     1      -6.197   5.366  -4.327  1.00  0.00     0.000 C 
BRANCH  15  16
ATOM     16  C   UNL     1      -6.790   6.358  -5.343  1.00  0.00     0.000 C 
BRANCH  16  17
ATOM     17  C   UNL     1      -8.064   5.833  -6.021  1.00  0.00     0.000 C 
BRANCH  17  18
ATOM     18  C   UNL     1      -8.354   6.602  -7.319  1.00  0.00    -0.000 C 
BRANCH  18  19
ATOM     19  C   UNL     1      -7.097   6.817  -8.181  1.00  0.00    -0.000 C 
BRANCH  19  20
ATOM     20  C   UNL     1      -6.781   8.287  -8.522  1.00  0.00    -0.000 C 
BRANCH  20  21
ATOM     21  C   UNL     1      -5.480   8.835  -7.911  1.00  0.00    -0.000 C 
BRANCH  21  22
ATOM     22  C   UNL     1      -5.730   9.793  -6.734  1.00  0.00    -0.000 C 
BRANCH  22  23
ATOM     23  C   UNL     1      -7.220  10.125  -6.552  1.00  0.00    -0.000 C 
BRANCH  23  24
ATOM     24  C   UNL     1      -7.695   9.934  -5.101  1.00  0.00    -0.000 C 
BRANCH  24  25
ATOM     25  C   UNL     1      -9.160   9.483  -5.015  1.00  0.00    -0.003 C 
ATOM     26  C   UNL     1      -9.963   9.834  -6.267  1.00  0.00     0.004 C 
ENDBRANCH  24  25
ENDBRANCH  23  24
ENDBRANCH  22  23
ENDBRANCH  21  22
ENDBRANCH  20  21
ENDBRANCH  19  20
ENDBRANCH  18  19
ENDBRANCH  17  18
ENDBRANCH  16  17
ENDBRANCH  15  16
ENDBRANCH   1  15
TORSDOF 22
ENDMDL
MODEL 7
REMARK VINA RESULT:    -3.235      1.665      3.193
REMARK INTER + INTRA:         -11.279
REMARK INTER:                  -7.501
REMARK INTRA:                  -3.778
REMARK UNBOUND:                -3.883
REMARK SMILES CCCCCCCCCCCCCCCCCCCCCCCC(=O)[O-]
REMARK SMILES IDX 13 1 14 2 15 3 16 4 17 5 18 6 19 7 20 8 21 9 22 10 23 11
REMARK SMILES IDX 24 12 25 13 26 14 12 15 11 16 10 17 9 18 8 19 7 20 6 21 5 22
REMARK SMILES IDX 4 23 3 24 2 25 1 26
REMARK H PARENT
REMARK Flexibility Score: inf
ROOT
ATOM      1  C   UNL     1      -5.983   3.846  -4.881  1.00  0.00     0.000 C 
ENDROOT
BRANCH   1   2
ATOM      2  C   UNL     1      -5.939   5.272  -4.299  1.00  0.00     0.000 C 
BRANCH   2   3
ATOM      3  C   UNL     1      -6.281   6.396  -5.297  1.00  0.00     0.000 C 
BRANCH   3   4
ATOM      4  C   UNL     1      -5.528   6.323  -6.638  1.00  0.00     0.000 C 
BRANCH   4   5
ATOM      5  C   UNL     1      -6.449   6.537  -7.853  1.00  0.00     0.000 C 
BRANCH   5   6
ATOM      6  C   UNL     1      -7.939   6.447  -7.490  1.00  0.00     0.000 C 
BRANCH   6   7
ATOM      7  C   UNL     1      -8.659   5.302  -8.218  1.00  0.00     0.000 C 
BRANCH   7   8
ATOM      8  C   UNL     1      -7.651   4.329  -8.843  1.00  0.00     0.000 C 
BRANCH   8   9
ATOM      9  C   UNL     1      -7.546   3.041  -8.017  1.00  0.00     0.000 C 
BRANCH   9  10
ATOM     10  C   UNL     1      -7.075   1.868  -8.886  1.00  0.00     0.006 C 
BRANCH  10  11
ATOM     11  C   UNL     1      -7.521   0.529  -8.288  1.00  0.00     0.053 C 
BRANCH  11  12
ATOM     12  C   UNL     1      -6.341  -0.366  -8.065  1.00  0.00     0.041 C 
ATOM     13  O   UNL     1      -5.436  -0.030  -7.255  1.00  0.00    -0.550 OA
ATOM     14  O   UNL     1      -6.217  -1.546  -8.786  1.00  0.00    -0.550 OA
ENDBRANCH  11  12
ENDBRANCH  10  11
ENDBRANCH   9  10
ENDBRANCH   8   9
ENDBRANCH   7   8
ENDBRANCH   6   7
ENDBRANCH   5   6
ENDBRANCH   4   5
ENDBRANCH   3   4
ENDBRANCH   2   3
ENDBRANCH   1   2
BRANCH   1  15
ATOM     15  C   UNL     1      -7.086   2.938  -4.301  1.00  0.00     0.000 C 
BRANCH  15  16
ATOM     16  C   UNL     1      -7.713   3.438  -2.987  1.00  0.00     0.000 C 
BRANCH  16  17
ATOM     17  C   UNL     1      -9.221   3.706  -3.106  1.00  0.00     0.000 C 
BRANCH  17  18
ATOM     18  C   UNL     1      -9.565   4.317  -4.473  1.00  0.00    -0.000 C 
BRANCH  18  19
ATOM     19  C   UNL     1      -9.857   5.826  -4.398  1.00  0.00    -0.000 C 
BRANCH  19  20
ATOM     20  C   UNL     1      -9.490   6.499  -3.060  1.00  0.00    -0.000 C 
BRANCH  20  21
ATOM     21  C   UNL     1      -8.978   7.945  -3.175  1.00  0.00    -0.000 C 
BRANCH  21  22
ATOM     22  C   UNL     1      -7.682   8.185  -2.382  1.00  0.00    -0.000 C 
BRANCH  22  23
ATOM     23  C   UNL     1      -7.338   7.012  -1.449  1.00  0.00    -0.000 C 
BRANCH  23  24
ATOM     24  C   UNL     1      -6.190   7.345  -0.480  1.00  0.00    -0.000 C 
BRANCH  24  25
ATOM     25  C   UNL     1      -6.383   8.698   0.219  1.00  0.00    -0.003 C 
ATOM     26  C   UNL     1      -5.091   9.509   0.309  1.00  0.00     0.004 C 
ENDBRANCH  24  25
ENDBRANCH  23  24
ENDBRANCH  22  23
ENDBRANCH  21  22
ENDBRANCH  20  21
ENDBRANCH  19  20
ENDBRANCH  18  19
ENDBRANCH  17  18
ENDBRANCH  16  17
ENDBRANCH  15  16
ENDBRANCH   1  15
TORSDOF 22
ENDMDL
MODEL 8
REMARK VINA RESULT:    -3.190      3.459      8.333
REMARK INTER + INTRA:         -11.177
REMARK INTER:                  -7.321
REMARK INTRA:                  -3.856
REMARK UNBOUND:                -3.883
REMARK SMILES CCCCCCCCCCCCCCCCCCCCCCCC(=O)[O-]
REMARK SMILES IDX 13 1 14 2 15 3 16 4 17 5 18 6 19 7 20 8 21 9 22 10 23 11
REMARK SMILES IDX 24 12 25 13 26 14 12 15 11 16 10 17 9 18 8 19 7 20 6 21 5 22
REMARK SMILES IDX 4 23 3 24 2 25 1 26
REMARK H PARENT
REMARK Flexibility Score: inf
ROOT
ATOM      1  C   UNL     1      -5.976   3.787  -4.871  1.00  0.00     0.000 C 
ENDROOT
BRANCH   1   2
ATOM      2  C   UNL     1      -6.661   2.760  -3.947  1.00  0.00     0.000 C 
BRANCH   2   3
ATOM      3  C   UNL     1      -8.137   3.059  -3.621  1.00  0.00     0.000 C 
BRANCH   3   4
ATOM      4  C   UNL     1      -8.404   3.497  -2.169  1.00  0.00     0.000 C 
BRANCH   4   5
ATOM      5  C   UNL     1      -9.570   4.495  -2.051  1.00  0.00     0.000 C 
BRANCH   5   6
ATOM      6  C   UNL     1      -9.925   5.153  -3.393  1.00  0.00     0.000 C 
BRANCH   6   7
ATOM      7  C   UNL     1      -9.913   6.688  -3.322  1.00  0.00     0.000 C 
BRANCH   7   8
ATOM      8  C   UNL     1      -9.905   7.170  -1.866  1.00  0.00     0.000 C 
BRANCH   8   9
ATOM      9  C   UNL     1      -8.880   8.293  -1.664  1.00  0.00     0.000 C 
BRANCH   9  10
ATOM     10  C   UNL     1      -7.517   7.907  -2.253  1.00  0.00     0.006 C 
BRANCH  10  11
ATOM     11  C   UNL     1      -6.769   6.946  -1.323  1.00  0.00     0.053 C 
BRANCH  11  12
ATOM     12  C   UNL     1      -6.520   7.589   0.006  1.00  0.00     0.041 C 
ATOM     13  O   UNL     1      -5.784   8.608   0.088  1.00  0.00    -0.550 OA
ATOM     14  O   UNL     1      -7.061   7.036   1.158  1.00  0.00    -0.550 OA
ENDBRANCH  11  12
ENDBRANCH  10  11
ENDBRANCH   9  10
ENDBRANCH   8   9
ENDBRANCH   7   8
ENDBRANCH   6   7
ENDBRANCH   5   6
ENDBRANCH   4   5
ENDBRANCH   3   4
ENDBRANCH   2   3
ENDBRANCH   1   2
BRANCH   1  15
ATOM     15  C   UNL     1      -6.158   5.261  -4.455  1.00  0.00     0.000 C 
BRANCH  15  16
ATOM     16  C   UNL     1      -6.941   6.126  -5.459  1.00  0.00     0.000 C 
BRANCH  16  17
ATOM     17  C   UNL     1      -6.032   7.011  -6.325  1.00  0.00     0.000 C 
BRANCH  17  18
ATOM     18  C   UNL     1      -5.418   6.205  -7.479  1.00  0.00    -0.000 C 
BRANCH  18  19
ATOM     19  C   UNL     1      -6.365   6.066  -8.684  1.00  0.00    -0.000 C 
BRANCH  19  20
ATOM     20  C   UNL     1      -6.806   4.625  -9.008  1.00  0.00    -0.000 C 
BRANCH  20  21
ATOM     21  C   UNL     1      -8.180   4.220  -8.446  1.00  0.00    -0.000 C 
BRANCH  21  22
ATOM     22  C   UNL     1      -8.132   2.914  -7.635  1.00  0.00    -0.000 C 
BRANCH  22  23
ATOM     23  C   UNL     1      -6.830   2.128  -7.861  1.00  0.00    -0.000 C 
BRANCH  23  24
ATOM     24  C   UNL     1      -6.829   0.767  -7.144  1.00  0.00    -0.000 C 
BRANCH  24  25
ATOM     25  C   UNL     1      -5.973  -0.281  -7.869  1.00  0.00    -0.003 C 
ATOM     26  C   UNL     1      -6.388  -0.480  -9.326  1.00  0.00     0.004 C 
ENDBRANCH  24  25
ENDBRANCH  23  24
ENDBRANCH  22  23
ENDBRANCH  21  22
ENDBRANCH  20  21
ENDBRANCH  19  20
ENDBRANCH  18  19
ENDBRANCH  17  18
ENDBRANCH  16  17
ENDBRANCH  15  16
ENDBRANCH   1  15
TORSDOF 22
ENDMDL
MODEL 9
REMARK VINA RESULT:    -3.174     13.022     15.381
REMARK INTER + INTRA:         -11.139
REMARK INTER:                  -6.827
REMARK INTRA:                  -4.312
REMARK UNBOUND:                -3.883
REMARK SMILES CCCCCCCCCCCCCCCCCCCCCCCC(=O)[O-]
REMARK SMILES IDX 13 1 14 2 15 3 16 4 17 5 18 6 19 7 20 8 21 9 22 10 23 11
REMARK SMILES IDX 24 12 25 13 26 14 12 15 11 16 10 17 9 18 8 19 7 20 6 21 5 22
REMARK SMILES IDX 4 23 3 24 2 25 1 26
REMARK H PARENT
REMARK Flexibility Score: inf
ROOT
ATOM      1  C   UNL     1       5.289   4.196  -4.170  1.00  0.00     0.000 C 
ENDROOT
BRANCH   1   2
ATOM      2  C   UNL     1       5.545   5.715  -4.221  1.00  0.00     0.000 C 
BRANCH   2   3
ATOM      3  C   UNL     1       6.987   6.121  -4.586  1.00  0.00     0.000 C 
BRANCH   3   4
ATOM      4  C   UNL     1       7.266   6.231  -6.096  1.00  0.00     0.000 C 
BRANCH   4   5
ATOM      5  C   UNL     1       8.729   5.920  -6.458  1.00  0.00     0.000 C 
BRANCH   5   6
ATOM      6  C   UNL     1       8.967   5.872  -7.975  1.00  0.00     0.000 C 
BRANCH   6   7
ATOM      7  C   UNL     1       7.692   6.156  -8.784  1.00  0.00     0.000 C 
BRANCH   7   8
ATOM      8  C   UNL     1       7.407   5.021  -9.775  1.00  0.00     0.000 C 
BRANCH   8   9
ATOM      9  C   UNL     1       8.358   3.840  -9.548  1.00  0.00     0.000 C 
BRANCH   9  10
ATOM     10  C   UNL     1       7.576   2.544  -9.300  1.00  0.00     0.006 C 
BRANCH  10  11
ATOM     11  C   UNL     1       7.376   2.302  -7.800  1.00  0.00     0.053 C 
BRANCH  11  12
ATOM     12  C   UNL     1       7.023   0.870  -7.542  1.00  0.00     0.041 C 
ATOM     13  O   UNL     1       5.993   0.367  -8.067  1.00  0.00    -0.550 OA
ATOM     14  O   UNL     1       7.803   0.105  -6.686  1.00  0.00    -0.550 OA
ENDBRANCH  11  12
ENDBRANCH  10  11
ENDBRANCH   9  10
ENDBRANCH   8   9
ENDBRANCH   7   8
ENDBRANCH   6   7
ENDBRANCH   5   6
ENDBRANCH   4   5
ENDBRANCH   3   4
ENDBRANCH   2   3
ENDBRANCH   1   2
BRANCH   1  15
ATOM     15  C   UNL     1       4.640   3.600  -5.436  1.00  0.00     0.000 C 
BRANCH  15  16
ATOM     16  C   UNL     1       3.956   4.626  -6.357  1.00  0.00     0.000 C 
BRANCH  16  17
ATOM     17  C   UNL     1       4.393   4.501  -7.824  1.00  0.00     0.000 C 
BRANCH  17  18
ATOM     18  C   UNL     1       3.843   5.663  -8.663  1.00  0.00    -0.000 C 
BRANCH  18  19
ATOM     19  C   UNL     1       4.071   7.037  -8.008  1.00  0.00    -0.000 C 
BRANCH  19  20
ATOM     20  C   UNL     1       3.934   8.245  -8.955  1.00  0.00    -0.000 C 
BRANCH  20  21
ATOM     21  C   UNL     1       5.264   8.853  -9.435  1.00  0.00    -0.000 C 
BRANCH  21  22
ATOM     22  C   UNL     1       5.656  10.121  -8.657  1.00  0.00    -0.000 C 
BRANCH  22  23
ATOM     23  C   UNL     1       7.122  10.097  -8.192  1.00  0.00    -0.000 C 
BRANCH  23  24
ATOM     24  C   UNL     1       7.259   9.792  -6.690  1.00  0.00    -0.000 C 
BRANCH  24  25
ATOM     25  C   UNL     1       8.708   9.912  -6.195  1.00  0.00    -0.003 C 
ATOM     26  C   UNL     1       9.729   9.435  -7.227  1.00  0.00     0.004 C 
ENDBRANCH  24  25
ENDBRANCH  23  24
ENDBRANCH  22  23
ENDBRANCH  21  22
ENDBRANCH  20  21
ENDBRANCH  19  20
ENDBRANCH  18  19
ENDBRANCH  17  18
ENDBRANCH  16  17
ENDBRANCH  15  16
ENDBRANCH   1  15
TORSDOF 22
ENDMDL
