MODEL 1
REMARK VINA RESULT:    -3.529      0.000      0.000
REMARK INTER + INTRA:          -3.529
REMARK INTER:                  -3.529
REMARK INTRA:                   0.000
REMARK UNBOUND:                 0.000
REMARK SMILES CC1(C)C(=O)[C@]2(C)CC[C@H]1C2
REMARK SMILES IDX 1 1 2 2 10 3 9 4 8 5 6 6 11 7 4 8 5 9 7 10 3 11
REMARK H PARENT
REMARK Flexibility Score: inf
ROOT
ATOM      1  C   UNL     1      -1.148   8.562   0.325  1.00  0.00     0.020 C 
ATOM      2  C   UNL     1      -1.953   7.573   1.195  1.00  0.00     0.027 C 
ATOM      3  C   UNL     1      -3.375   8.093   1.618  1.00  0.00     0.003 C 
ATOM      4  C   UNL     1      -4.146   8.661   0.399  1.00  0.00     0.005 C 
ATOM      5  C   UNL     1      -4.429   7.403  -0.453  1.00  0.00     0.015 C 
ATOM      6  C   UNL     1      -3.875   6.268   0.429  1.00  0.00     0.027 C 
ATOM      7  C   UNL     1      -4.158   6.798   1.821  1.00  0.00     0.019 C 
ATOM      8  C   UNL     1      -2.375   6.365   0.408  1.00  0.00     0.144 C 
ATOM      9  O   UNL     1      -1.623   5.627  -0.211  1.00  0.00    -0.298 OA
ATOM     10  C   UNL     1      -4.446   4.877   0.144  1.00  0.00     0.020 C 
ATOM     11  C   UNL     1      -1.107   7.172   2.422  1.00  0.00     0.020 C 
ENDROOT
TORSDOF 0
ENDMDL
MODEL 2
REMARK VINA RESULT:    -3.406     11.088     12.122
REMARK INTER + INTRA:          -3.406
REMARK INTER:                  -3.406
REMARK INTRA:                   0.000
REMARK UNBOUND:                 0.000
REMARK SMILES CC1(C)C(=O)[C@]2(C)CC[C@H]1C2
REMARK SMILES IDX 1 1 2 2 10 3 9 4 8 5 6 6 11 7 4 8 5 9 7 10 3 11
REMARK H PARENT
REMARK Flexibility Score: inf
ROOT
ATOM      1  C   UNL     1       7.736   6.126   7.537  1.00  0.00     0.020 C 
ATOM      2  C   UNL     1       6.637   5.041   7.505  1.00  0.00     0.027 C 
ATOM      3  C   UNL     1       5.962   4.846   6.099  1.00  0.00     0.003 C 
ATOM      4  C   UNL     1       7.027   4.725   4.980  1.00  0.00     0.005 C 
ATOM      5  C   UNL     1       7.696   3.364   5.281  1.00  0.00     0.015 C 
ATOM      6  C   UNL     1       6.867   2.837   6.468  1.00  0.00     0.027 C 
ATOM      7  C   UNL     1       5.493   3.394   6.151  1.00  0.00     0.019 C 
ATOM      8  C   UNL     1       7.218   3.666   7.673  1.00  0.00     0.144 C 
ATOM      9  O   UNL     1       7.924   3.305   8.603  1.00  0.00    -0.298 OA
ATOM     10  C   UNL     1       6.912   1.322   6.679  1.00  0.00     0.020 C 
ATOM     11  C   UNL     1       5.593   5.344   8.600  1.00  0.00     0.020 C 
ENDROOT
TORSDOF 0
ENDMDL
MODEL 3
REMARK VINA RESULT:    -3.379     10.929     12.585
REMARK INTER + INTRA:          -3.379
REMARK INTER:                  -3.379
REMARK INTRA:                   0.000
REMARK UNBOUND:                 0.000
REMARK SMILES CC1(C)C(=O)[C@]2(C)CC[C@H]1C2
REMARK SMILES IDX 1 1 2 2 10 3 9 4 8 5 6 6 11 7 4 8 5 9 7 10 3 11
REMARK H PARENT
REMARK Flexibility Score: inf
ROOT
ATOM      1  C   UNL     1       8.161   1.771   4.568  1.00  0.00     0.020 C 
ATOM      2  C   UNL     1       8.300   2.500   5.922  1.00  0.00     0.027 C 
ATOM      3  C   UNL     1       8.254   4.068   5.820  1.00  0.00     0.003 C 
ATOM      4  C   UNL     1       7.058   4.535   4.951  1.00  0.00     0.005 C 
ATOM      5  C   UNL     1       5.832   4.166   5.816  1.00  0.00     0.015 C 
ATOM      6  C   UNL     1       6.481   3.628   7.106  1.00  0.00     0.027 C 
ATOM      7  C   UNL     1       7.732   4.478   7.195  1.00  0.00     0.019 C 
ATOM      8  C   UNL     1       7.090   2.291   6.787  1.00  0.00     0.144 C 
ATOM      9  O   UNL     1       6.634   1.205   7.113  1.00  0.00    -0.298 OA
ATOM     10  C   UNL     1       5.592   3.663   8.351  1.00  0.00     0.020 C 
ATOM     11  C   UNL     1       9.583   2.015   6.630  1.00  0.00     0.020 C 
ENDROOT
TORSDOF 0
ENDMDL
MODEL 4
REMARK VINA RESULT:    -3.314     10.287     11.758
REMARK INTER + INTRA:          -3.314
REMARK INTER:                  -3.314
REMARK INTRA:                   0.000
REMARK UNBOUND:                 0.000
REMARK SMILES CC1(C)C(=O)[C@]2(C)CC[C@H]1C2
REMARK SMILES IDX 1 1 2 2 10 3 9 4 8 5 6 6 11 7 4 8 5 9 7 10 3 11
REMARK H PARENT
REMARK Flexibility Score: inf
ROOT
ATOM      1  C   UNL     1       7.528   3.336   5.166  1.00  0.00     0.020 C 
ATOM      2  C   UNL     1       6.643   3.559   6.412  1.00  0.00     0.027 C 
ATOM      3  C   UNL     1       7.409   4.147   7.652  1.00  0.00     0.003 C 
ATOM      4  C   UNL     1       8.277   5.366   7.246  1.00  0.00     0.005 C 
ATOM      5  C   UNL     1       7.225   6.441   6.893  1.00  0.00     0.015 C 
ATOM      6  C   UNL     1       5.897   5.738   7.236  1.00  0.00     0.027 C 
ATOM      7  C   UNL     1       6.305   4.876   8.414  1.00  0.00     0.019 C 
ATOM      8  C   UNL     1       5.662   4.676   6.197  1.00  0.00     0.144 C 
ATOM      9  O   UNL     1       4.857   4.743   5.281  1.00  0.00    -0.298 OA
ATOM     10  C   UNL     1       4.712   6.668   7.502  1.00  0.00     0.020 C 
ATOM     11  C   UNL     1       5.921   2.241   6.763  1.00  0.00     0.020 C 
ENDROOT
TORSDOF 0
ENDMDL
MODEL 5
REMARK VINA RESULT:    -3.313     14.369     15.332
REMARK INTER + INTRA:          -3.313
REMARK INTER:                  -3.313
REMARK INTRA:                   0.000
REMARK UNBOUND:                 0.000
REMARK SMILES CC1(C)C(=O)[C@]2(C)CC[C@H]1C2
REMARK SMILES IDX 1 1 2 2 10 3 9 4 8 5 6 6 11 7 4 8 5 9 7 10 3 11
REMARK H PARENT
REMARK Flexibility Score: inf
ROOT
ATOM      1  C   UNL     1       8.347  -1.414  -3.920  1.00  0.00     0.020 C 
ATOM      2  C   UNL     1       7.833  -2.843  -3.638  1.00  0.00     0.027 C 
ATOM      3  C   UNL     1       6.312  -2.917  -3.246  1.00  0.00     0.003 C 
ATOM      4  C   UNL     1       5.441  -2.097  -4.232  1.00  0.00     0.005 C 
ATOM      5  C   UNL     1       5.544  -2.907  -5.545  1.00  0.00     0.015 C 
ATOM      6  C   UNL     1       6.375  -4.133  -5.120  1.00  0.00     0.027 C 
ATOM      7  C   UNL     1       5.921  -4.326  -3.687  1.00  0.00     0.019 C 
ATOM      8  C   UNL     1       7.788  -3.669  -4.891  1.00  0.00     0.144 C 
ATOM      9  O   UNL     1       8.731  -3.868  -5.641  1.00  0.00    -0.298 OA
ATOM     10  C   UNL     1       6.227  -5.367  -6.012  1.00  0.00     0.020 C 
ATOM     11  C   UNL     1       8.728  -3.501  -2.566  1.00  0.00     0.020 C 
ENDROOT
TORSDOF 0
ENDMDL
MODEL 6
REMARK VINA RESULT:    -3.295      1.537      2.774
REMARK INTER + INTRA:          -3.295
REMARK INTER:                  -3.295
REMARK INTRA:                   0.000
REMARK UNBOUND:                 0.000
REMARK SMILES CC1(C)C(=O)[C@]2(C)CC[C@H]1C2
REMARK SMILES IDX 1 1 2 2 10 3 9 4 8 5 6 6 11 7 4 8 5 9 7 10 3 11
REMARK H PARENT
REMARK Flexibility Score: inf
ROOT
ATOM      1  C   UNL     1      -0.857   7.114   2.359  1.00  0.00     0.020 C 
ATOM      2  C   UNL     1      -2.002   7.536   1.413  1.00  0.00     0.027 C 
ATOM      3  C   UNL     1      -1.862   8.991   0.836  1.00  0.00     0.003 C 
ATOM      4  C   UNL     1      -0.436   9.235   0.278  1.00  0.00     0.005 C 
ATOM      5  C   UNL     1      -0.386   8.318  -0.965  1.00  0.00     0.015 C 
ATOM      6  C   UNL     1      -1.814   7.744  -1.017  1.00  0.00     0.027 C 
ATOM      7  C   UNL     1      -2.629   8.904  -0.482  1.00  0.00     0.019 C 
ATOM      8  C   UNL     1      -1.957   6.771   0.121  1.00  0.00     0.144 C 
ATOM      9  O   UNL     1      -1.960   5.553   0.020  1.00  0.00    -0.298 OA
ATOM     10  C   UNL     1      -2.262   7.223  -2.385  1.00  0.00     0.020 C 
ATOM     11  C   UNL     1      -3.353   7.338   2.133  1.00  0.00     0.020 C 
ENDROOT
TORSDOF 0
ENDMDL
MODEL 7
REMARK VINA RESULT:    -3.291      0.920      3.187
REMARK INTER + INTRA:          -3.291
REMARK INTER:                  -3.291
REMARK INTRA:                   0.000
REMARK UNBOUND:                 0.000
REMARK SMILES CC1(C)C(=O)[C@]2(C)CC[C@H]1C2
REMARK SMILES IDX 1 1 2 2 10 3 9 4 8 5 6 6 11 7 4 8 5 9 7 10 3 11
REMARK H PARENT
REMARK Flexibility Score: inf
ROOT
ATOM      1  C   UNL     1      -4.140   5.195   0.116  1.00  0.00     0.020 C 
ATOM      2  C   UNL     1      -3.600   6.614  -0.165  1.00  0.00     0.027 C 
ATOM      3  C   UNL     1      -4.151   7.719   0.808  1.00  0.00     0.003 C 
ATOM      4  C   UNL     1      -4.045   7.265   2.286  1.00  0.00     0.005 C 
ATOM      5  C   UNL     1      -2.520   7.251   2.538  1.00  0.00     0.015 C 
ATOM      6  C   UNL     1      -1.955   7.791   1.210  1.00  0.00     0.027 C 
ATOM      7  C   UNL     1      -3.038   8.765   0.792  1.00  0.00     0.019 C 
ATOM      8  C   UNL     1      -2.140   6.723   0.168  1.00  0.00     0.144 C 
ATOM      9  O   UNL     1      -1.257   6.007  -0.281  1.00  0.00    -0.298 OA
ATOM     10  C   UNL     1      -0.549   8.391   1.292  1.00  0.00     0.020 C 
ATOM     11  C   UNL     1      -3.865   6.974  -1.642  1.00  0.00     0.020 C 
ENDROOT
TORSDOF 0
ENDMDL
MODEL 8
REMARK VINA RESULT:    -3.286     11.744     13.686
REMARK INTER + INTRA:          -3.286
REMARK INTER:                  -3.286
REMARK INTRA:                   0.000
REMARK UNBOUND:                 0.000
REMARK SMILES CC1(C)C(=O)[C@]2(C)CC[C@H]1C2
REMARK SMILES IDX 1 1 2 2 10 3 9 4 8 5 6 6 11 7 4 8 5 9 7 10 3 11
REMARK H PARENT
REMARK Flexibility Score: inf
ROOT
ATOM      1  C   UNL     1       7.126   4.086   5.021  1.00  0.00     0.020 C 
ATOM      2  C   UNL     1       7.164   2.941   6.058  1.00  0.00     0.027 C 
ATOM      3  C   UNL     1       7.390   1.515   5.438  1.00  0.00     0.003 C 
ATOM      4  C   UNL     1       8.574   1.522   4.437  1.00  0.00     0.005 C 
ATOM      5  C   UNL     1       9.801   1.749   5.349  1.00  0.00     0.015 C 
ATOM      6  C   UNL     1       9.177   1.743   6.759  1.00  0.00     0.027 C 
ATOM      7  C   UNL     1       8.045   0.751   6.587  1.00  0.00     0.019 C 
ATOM      8  C   UNL     1       8.394   3.017   6.916  1.00  0.00     0.144 C 
ATOM      9  O   UNL     1       8.738   3.986   7.575  1.00  0.00    -0.298 OA
ATOM     10  C   UNL     1      10.143   1.422   7.902  1.00  0.00     0.020 C 
ATOM     11  C   UNL     1       5.881   2.992   6.914  1.00  0.00     0.020 C 
ENDROOT
TORSDOF 0
ENDMDL
MODEL 9
REMARK VINA RESULT:    -3.281     12.732     14.154
REMARK INTER + INTRA:          -3.281
REMARK INTER:                  -3.281
REMARK INTRA:                   0.000
REMARK UNBOUND:                 0.000
REMARK SMILES CC1(C)C(=O)[C@]2(C)CC[C@H]1C2
REMARK SMILES IDX 1 1 2 2 10 3 9 4 8 5 6 6 11 7 4 8 5 9 7 10 3 11
REMARK H PARENT
REMARK Flexibility Score: inf
ROOT
ATOM      1  C   UNL     1       0.801   0.222  -9.531  1.00  0.00     0.020 C 
ATOM      2  C   UNL     1       0.260  -1.177  -9.162  1.00  0.00     0.027 C 
ATOM      3  C   UNL     1       0.585  -2.295 -10.219  1.00  0.00     0.003 C 
ATOM      4  C   UNL     1       2.081  -2.263 -10.622  1.00  0.00     0.005 C 
ATOM      5  C   UNL     1       2.800  -2.725  -9.334  1.00  0.00     0.015 C 
ATOM      6  C   UNL     1       1.625  -3.055  -8.393  1.00  0.00     0.027 C 
ATOM      7  C   UNL     1       0.586  -3.566  -9.372  1.00  0.00     0.019 C 
ATOM      8  C   UNL     1       0.989  -1.755  -7.984  1.00  0.00     0.144 C 
ATOM      9  O   UNL     1       1.108  -1.218  -6.893  1.00  0.00    -0.298 OA
ATOM     10  C   UNL     1       1.952  -4.015  -7.247  1.00  0.00     0.020 C 
ATOM     11  C   UNL     1      -1.256  -1.078  -8.888  1.00  0.00     0.020 C 
ENDROOT
TORSDOF 0
ENDMDL
