MODEL 1
REMARK VINA RESULT:    13.244      0.000      0.000
REMARK INTER + INTRA:          20.655
REMARK INTER:                  20.987
REMARK INTRA:                  -0.331
REMARK UNBOUND:                -0.331
REMARK SMILES CCCCCCCCCCCC(=O)[O-]
REMARK SMILES IDX 7 1 8 2 9 3 10 4 11 5 12 6 13 7 14 8 6 9 5 10 4 11 3 12 2 13
REMARK SMILES IDX 1 14
REMARK H PARENT
REMARK Flexibility Score: inf
ROOT
ATOM      1  C   UNL     1      -6.549 -12.726  25.148  1.00  0.00     0.000 C 
ENDROOT
BRANCH   1   2
ATOM      2  C   UNL     1      -5.488 -13.830  25.024  1.00  0.00     0.000 C 
BRANCH   2   3
ATOM      3  C   UNL     1      -5.122 -14.455  26.381  1.00  0.00     0.000 C 
BRANCH   3   4
ATOM      4  C   UNL     1      -5.152 -15.991  26.351  1.00  0.00     0.006 C 
BRANCH   4   5
ATOM      5  C   UNL     1      -4.269 -16.576  25.243  1.00  0.00     0.053 C 
BRANCH   5   6
ATOM      6  C   UNL     1      -4.953 -17.735  24.588  1.00  0.00     0.041 C 
ATOM      7  O   UNL     1      -5.401 -18.683  25.283  1.00  0.00    -0.550 OA
ATOM      8  O   UNL     1      -5.052 -17.789  23.203  1.00  0.00    -0.550 OA
ENDBRANCH   5   6
ENDBRANCH   4   5
ENDBRANCH   3   4
ENDBRANCH   2   3
ENDBRANCH   1   2
BRANCH   1   9
ATOM      9  C   UNL     1      -6.261 -11.523  24.238  1.00  0.00     0.000 C 
BRANCH   9  10
ATOM     10  C   UNL     1      -6.166 -10.227  25.056  1.00  0.00    -0.000 C 
BRANCH  10  11
ATOM     11  C   UNL     1      -5.367  -9.127  24.337  1.00  0.00    -0.000 C 
BRANCH  11  12
ATOM     12  C   UNL     1      -4.081  -8.747  25.083  1.00  0.00    -0.000 C 
BRANCH  12  13
ATOM     13  C   UNL     1      -2.974  -8.348  24.099  1.00  0.00    -0.003 C 
ATOM     14  C   UNL     1      -1.611  -8.843  24.573  1.00  0.00     0.004 C 
ENDBRANCH  12  13
ENDBRANCH  11  12
ENDBRANCH  10  11
ENDBRANCH   9  10
ENDBRANCH   1   9
TORSDOF 10
ENDMDL
MODEL 2
REMARK VINA RESULT:    14.174      3.853      7.551
REMARK INTER + INTRA:          22.129
REMARK INTER:                  22.514
REMARK INTRA:                  -0.385
REMARK UNBOUND:                -0.331
REMARK SMILES CCCCCCCCCCCC(=O)[O-]
REMARK SMILES IDX 7 1 8 2 9 3 10 4 11 5 12 6 13 7 14 8 6 9 5 10 4 11 3 12 2 13
REMARK SMILES IDX 1 14
REMARK H PARENT
REMARK Flexibility Score: inf
ROOT
ATOM      1  C   UNL     1      -6.033 -13.024  24.153  1.00  0.00     0.000 C 
ENDROOT
BRANCH   1   2
ATOM      2  C   UNL     1      -6.610 -11.617  23.936  1.00  0.00     0.000 C 
BRANCH   2   3
ATOM      3  C   UNL     1      -6.099 -10.601  24.971  1.00  0.00     0.000 C 
BRANCH   3   4
ATOM      4  C   UNL     1      -5.464  -9.363  24.320  1.00  0.00     0.006 C 
BRANCH   4   5
ATOM      5  C   UNL     1      -4.353  -8.749  25.180  1.00  0.00     0.053 C 
BRANCH   5   6
ATOM      6  C   UNL     1      -3.192  -8.349  24.326  1.00  0.00     0.041 C 
ATOM      7  O   UNL     1      -2.081  -8.927  24.454  1.00  0.00    -0.550 OA
ATOM      8  O   UNL     1      -3.323  -7.303  23.420  1.00  0.00    -0.550 OA
ENDBRANCH   5   6
ENDBRANCH   4   5
ENDBRANCH   3   4
ENDBRANCH   2   3
ENDBRANCH   1   2
BRANCH   1   9
ATOM      9  C   UNL     1      -6.041 -13.445  25.631  1.00  0.00     0.000 C 
BRANCH   9  10
ATOM     10  C   UNL     1      -4.799 -14.283  25.968  1.00  0.00    -0.000 C 
BRANCH  10  11
ATOM     11  C   UNL     1      -5.147 -15.728  26.363  1.00  0.00    -0.000 C 
BRANCH  11  12
ATOM     12  C   UNL     1      -4.523 -16.766  25.420  1.00  0.00    -0.000 C 
BRANCH  12  13
ATOM     13  C   UNL     1      -5.273 -18.101  25.500  1.00  0.00    -0.003 C 
ATOM     14  C   UNL     1      -5.748 -18.550  24.121  1.00  0.00     0.004 C 
ENDBRANCH  12  13
ENDBRANCH  11  12
ENDBRANCH  10  11
ENDBRANCH   9  10
ENDBRANCH   1   9
TORSDOF 10
ENDMDL
MODEL 3
REMARK VINA RESULT:    14.516      3.230      4.957
REMARK INTER + INTRA:          22.670
REMARK INTER:                  23.049
REMARK INTRA:                  -0.379
REMARK UNBOUND:                -0.331
REMARK SMILES CCCCCCCCCCCC(=O)[O-]
REMARK SMILES IDX 7 1 8 2 9 3 10 4 11 5 12 6 13 7 14 8 6 9 5 10 4 11 3 12 2 13
REMARK SMILES IDX 1 14
REMARK H PARENT
REMARK Flexibility Score: inf
ROOT
ATOM      1  C   UNL     1      -6.458 -12.475  24.697  1.00  0.00     0.000 C 
ENDROOT
BRANCH   1   2
ATOM      2  C   UNL     1      -5.651 -13.781  24.740  1.00  0.00     0.000 C 
BRANCH   2   3
ATOM      3  C   UNL     1      -5.189 -14.146  26.161  1.00  0.00     0.000 C 
BRANCH   3   4
ATOM      4  C   UNL     1      -5.087 -15.664  26.378  1.00  0.00     0.006 C 
BRANCH   4   5
ATOM      5  C   UNL     1      -4.247 -16.358  25.299  1.00  0.00     0.053 C 
BRANCH   5   6
ATOM      6  C   UNL     1      -4.910 -17.624  24.856  1.00  0.00     0.041 C 
ATOM      7  O   UNL     1      -5.363 -18.434  25.706  1.00  0.00    -0.550 OA
ATOM      8  O   UNL     1      -4.984 -17.933  23.503  1.00  0.00    -0.550 OA
ENDBRANCH   5   6
ENDBRANCH   4   5
ENDBRANCH   3   4
ENDBRANCH   2   3
ENDBRANCH   1   2
BRANCH   1   9
ATOM      9  C   UNL     1      -6.847 -12.065  23.268  1.00  0.00     0.000 C 
BRANCH   9  10
ATOM     10  C   UNL     1      -7.333 -13.280  22.464  1.00  0.00    -0.000 C 
BRANCH  10  11
ATOM     11  C   UNL     1      -8.352 -12.902  21.376  1.00  0.00    -0.000 C 
BRANCH  11  12
ATOM     12  C   UNL     1      -8.705 -14.083  20.460  1.00  0.00    -0.000 C 
BRANCH  12  13
ATOM     13  C   UNL     1      -8.572 -13.689  18.984  1.00  0.00    -0.003 C 
ATOM     14  C   UNL     1      -9.210 -14.736  18.075  1.00  0.00     0.004 C 
ENDBRANCH  12  13
ENDBRANCH  11  12
ENDBRANCH  10  11
ENDBRANCH   9  10
ENDBRANCH   1   9
TORSDOF 10
ENDMDL
MODEL 4
REMARK VINA RESULT:    14.536      3.614      5.397
REMARK INTER + INTRA:          22.703
REMARK INTER:                  21.288
REMARK INTRA:                   1.415
REMARK UNBOUND:                -0.331
REMARK SMILES CCCCCCCCCCCC(=O)[O-]
REMARK SMILES IDX 7 1 8 2 9 3 10 4 11 5 12 6 13 7 14 8 6 9 5 10 4 11 3 12 2 13
REMARK SMILES IDX 1 14
REMARK H PARENT
REMARK Flexibility Score: inf
ROOT
ATOM      1  C   UNL     1      -3.722  -7.515  23.634  1.00  0.00     0.000 C 
ENDROOT
BRANCH   1   2
ATOM      2  C   UNL     1      -3.822  -8.771  24.514  1.00  0.00     0.000 C 
BRANCH   2   3
ATOM      3  C   UNL     1      -5.073  -8.768  25.410  1.00  0.00     0.000 C 
BRANCH   3   4
ATOM      4  C   UNL     1      -6.193  -9.666  24.863  1.00  0.00     0.006 C 
BRANCH   4   5
ATOM      5  C   UNL     1      -5.660 -10.808  23.989  1.00  0.00     0.053 C 
BRANCH   5   6
ATOM      6  C   UNL     1      -6.577 -11.988  24.056  1.00  0.00     0.041 C 
ATOM      7  O   UNL     1      -6.705 -12.632  25.129  1.00  0.00    -0.550 OA
ATOM      8  O   UNL     1      -7.254 -12.406  22.916  1.00  0.00    -0.550 OA
ENDBRANCH   5   6
ENDBRANCH   4   5
ENDBRANCH   3   4
ENDBRANCH   2   3
ENDBRANCH   1   2
BRANCH   1   9
ATOM      9  C   UNL     1      -2.508  -7.547  22.694  1.00  0.00     0.000 C 
BRANCH   9  10
ATOM     10  C   UNL     1      -1.257  -8.047  23.431  1.00  0.00    -0.000 C 
BRANCH  10  11
ATOM     11  C   UNL     1      -1.574  -8.602  24.830  1.00  0.00    -0.000 C 
BRANCH  11  12
ATOM     12  C   UNL     1      -0.338  -9.187  25.529  1.00  0.00    -0.000 C 
BRANCH  12  13
ATOM     13  C   UNL     1       0.194  -8.224  26.597  1.00  0.00    -0.003 C 
ATOM     14  C   UNL     1       0.627  -6.898  25.978  1.00  0.00     0.004 C 
ENDBRANCH  12  13
ENDBRANCH  11  12
ENDBRANCH  10  11
ENDBRANCH   9  10
ENDBRANCH   1   9
TORSDOF 10
ENDMDL
MODEL 5
REMARK VINA RESULT:    14.797      4.992      7.539
REMARK INTER + INTRA:          23.116
REMARK INTER:                  22.250
REMARK INTRA:                   0.866
REMARK UNBOUND:                -0.331
REMARK SMILES CCCCCCCCCCCC(=O)[O-]
REMARK SMILES IDX 7 1 8 2 9 3 10 4 11 5 12 6 13 7 14 8 6 9 5 10 4 11 3 12 2 13
REMARK SMILES IDX 1 14
REMARK H PARENT
REMARK Flexibility Score: inf
ROOT
ATOM      1  C   UNL     1      -4.041  -7.759  23.577  1.00  0.00     0.000 C 
ENDROOT
BRANCH   1   2
ATOM      2  C   UNL     1      -2.663  -7.409  22.995  1.00  0.00     0.000 C 
BRANCH   2   3
ATOM      3  C   UNL     1      -1.545  -7.459  24.050  1.00  0.00     0.000 C 
BRANCH   3   4
ATOM      4  C   UNL     1      -1.116  -8.896  24.388  1.00  0.00     0.006 C 
BRANCH   4   5
ATOM      5  C   UNL     1      -0.948  -9.122  25.895  1.00  0.00     0.053 C 
BRANCH   5   6
ATOM      6  C   UNL     1       0.298  -8.458  26.387  1.00  0.00     0.041 C 
ATOM      7  O   UNL     1       0.531  -7.255  26.101  1.00  0.00    -0.550 OA
ATOM      8  O   UNL     1       1.228  -9.183  27.123  1.00  0.00    -0.550 OA
ENDBRANCH   5   6
ENDBRANCH   4   5
ENDBRANCH   3   4
ENDBRANCH   2   3
ENDBRANCH   1   2
BRANCH   1   9
ATOM      9  C   UNL     1      -3.950  -8.696  24.791  1.00  0.00     0.000 C 
BRANCH   9  10
ATOM     10  C   UNL     1      -5.282  -8.733  25.555  1.00  0.00    -0.000 C 
BRANCH  10  11
ATOM     11  C   UNL     1      -6.089 -10.013  25.280  1.00  0.00    -0.000 C 
BRANCH  11  12
ATOM     12  C   UNL     1      -5.948 -10.500  23.830  1.00  0.00    -0.000 C 
BRANCH  12  13
ATOM     13  C   UNL     1      -6.407 -11.957  23.695  1.00  0.00    -0.003 C 
ATOM     14  C   UNL     1      -6.689 -12.575  25.062  1.00  0.00     0.004 C 
ENDBRANCH  12  13
ENDBRANCH  11  12
ENDBRANCH  10  11
ENDBRANCH   9  10
ENDBRANCH   1   9
TORSDOF 10
ENDMDL
MODEL 6
REMARK VINA RESULT:    14.797      3.565      5.694
REMARK INTER + INTRA:          23.117
REMARK INTER:                  23.727
REMARK INTRA:                  -0.611
REMARK UNBOUND:                -0.331
REMARK SMILES CCCCCCCCCCCC(=O)[O-]
REMARK SMILES IDX 7 1 8 2 9 3 10 4 11 5 12 6 13 7 14 8 6 9 5 10 4 11 3 12 2 13
REMARK SMILES IDX 1 14
REMARK H PARENT
REMARK Flexibility Score: inf
ROOT
ATOM      1  C   UNL     1      -2.620  -9.050  24.869  1.00  0.00     0.000 C 
ENDROOT
BRANCH   1   2
ATOM      2  C   UNL     1      -4.013  -8.619  24.386  1.00  0.00     0.000 C 
BRANCH   2   3
ATOM      3  C   UNL     1      -5.083  -8.734  25.485  1.00  0.00     0.000 C 
BRANCH   3   4
ATOM      4  C   UNL     1      -6.056  -9.898  25.242  1.00  0.00     0.006 C 
BRANCH   4   5
ATOM      5  C   UNL     1      -5.732 -10.681  23.964  1.00  0.00     0.053 C 
BRANCH   5   6
ATOM      6  C   UNL     1      -6.468 -11.984  23.949  1.00  0.00     0.041 C 
ATOM      7  O   UNL     1      -7.172 -12.303  22.956  1.00  0.00    -0.550 OA
ATOM      8  O   UNL     1      -6.414 -12.825  25.054  1.00  0.00    -0.550 OA
ENDBRANCH   5   6
ENDBRANCH   4   5
ENDBRANCH   3   4
ENDBRANCH   2   3
ENDBRANCH   1   2
BRANCH   1   9
ATOM      9  C   UNL     1      -1.490  -8.241  24.213  1.00  0.00     0.000 C 
BRANCH   9  10
ATOM     10  C   UNL     1      -1.995  -7.512  22.959  1.00  0.00    -0.000 C 
BRANCH  10  11
ATOM     11  C   UNL     1      -1.065  -7.700  21.749  1.00  0.00    -0.000 C 
BRANCH  11  12
ATOM     12  C   UNL     1      -1.837  -7.881  20.433  1.00  0.00    -0.000 C 
BRANCH  12  13
ATOM     13  C   UNL     1      -3.134  -7.064  20.443  1.00  0.00    -0.003 C 
ATOM     14  C   UNL     1      -3.986  -7.367  19.213  1.00  0.00     0.004 C 
ENDBRANCH  12  13
ENDBRANCH  11  12
ENDBRANCH  10  11
ENDBRANCH   9  10
ENDBRANCH   1   9
TORSDOF 10
ENDMDL
MODEL 7
REMARK VINA RESULT:    15.178     13.486     15.448
REMARK INTER + INTRA:          23.720
REMARK INTER:                  24.133
REMARK INTRA:                  -0.413
REMARK UNBOUND:                -0.331
REMARK SMILES CCCCCCCCCCCC(=O)[O-]
REMARK SMILES IDX 7 1 8 2 9 3 10 4 11 5 12 6 13 7 14 8 6 9 5 10 4 11 3 12 2 13
REMARK SMILES IDX 1 14
REMARK H PARENT
REMARK Flexibility Score: inf
ROOT
ATOM      1  C   UNL     1       4.937 -18.200  12.898  1.00  0.00     0.000 C 
ENDROOT
BRANCH   1   2
ATOM      2  C   UNL     1       4.370 -18.019  14.315  1.00  0.00     0.000 C 
BRANCH   2   3
ATOM      3  C   UNL     1       5.124 -16.949  15.122  1.00  0.00     0.000 C 
BRANCH   3   4
ATOM      4  C   UNL     1       4.877 -17.067  16.635  1.00  0.00     0.006 C 
BRANCH   4   5
ATOM      5  C   UNL     1       4.065 -15.892  17.193  1.00  0.00     0.053 C 
BRANCH   5   6
ATOM      6  C   UNL     1       4.104 -15.894  18.688  1.00  0.00     0.041 C 
ATOM      7  O   UNL     1       4.636 -14.939  19.311  1.00  0.00    -0.550 OA
ATOM      8  O   UNL     1       3.594 -16.977  19.395  1.00  0.00    -0.550 OA
ENDBRANCH   5   6
ENDBRANCH   4   5
ENDBRANCH   3   4
ENDBRANCH   2   3
ENDBRANCH   1   2
BRANCH   1   9
ATOM      9  C   UNL     1       4.287 -19.371  12.146  1.00  0.00     0.000 C 
BRANCH   9  10
ATOM     10  C   UNL     1       3.088 -19.927  12.927  1.00  0.00    -0.000 C 
BRANCH  10  11
ATOM     11  C   UNL     1       2.115 -20.718  12.038  1.00  0.00    -0.000 C 
BRANCH  11  12
ATOM     12  C   UNL     1       1.112 -19.812  11.307  1.00  0.00    -0.000 C 
BRANCH  12  13
ATOM     13  C   UNL     1       1.227 -18.363  11.795  1.00  0.00    -0.003 C 
ATOM     14  C   UNL     1       1.056 -17.378  10.642  1.00  0.00     0.004 C 
ENDBRANCH  12  13
ENDBRANCH  11  12
ENDBRANCH  10  11
ENDBRANCH   9  10
ENDBRANCH   1   9
TORSDOF 10
ENDMDL
