MODEL 1
REMARK VINA RESULT:    -2.434      0.000      0.000
REMARK INTER + INTRA:          -5.322
REMARK INTER:                  -4.426
REMARK INTRA:                  -0.896
REMARK UNBOUND:                -0.896
REMARK SMILES CCCCCCCCCCCCCCCC(=O)[O-]
REMARK SMILES IDX 9 1 10 2 11 3 12 4 13 5 14 6 15 7 16 8 17 9 18 10 8 11 7 12
REMARK SMILES IDX 6 13 5 14 4 15 3 16 2 17 1 18
REMARK H PARENT
REMARK Flexibility Score: inf
ROOT
ATOM      1  C   UNL     1     -12.540 -10.189 -10.283  1.00  0.00     0.000 C 
ENDROOT
BRANCH   1   2
ATOM      2  C   UNL     1     -11.462  -9.576 -11.194  1.00  0.00     0.000 C 
BRANCH   2   3
ATOM      3  C   UNL     1     -12.022  -8.470 -12.106  1.00  0.00     0.000 C 
BRANCH   3   4
ATOM      4  C   UNL     1     -13.540  -8.281 -11.938  1.00  0.00     0.000 C 
BRANCH   4   5
ATOM      5  C   UNL     1     -13.903  -6.967 -11.223  1.00  0.00     0.000 C 
BRANCH   5   6
ATOM      6  C   UNL     1     -14.526  -5.880 -12.125  1.00  0.00     0.006 C 
BRANCH   6   7
ATOM      7  C   UNL     1     -16.063  -5.855 -12.124  1.00  0.00     0.053 C 
BRANCH   7   8
ATOM      8  C   UNL     1     -16.602  -4.474 -11.915  1.00  0.00     0.041 C 
ATOM      9  O   UNL     1     -15.814  -3.494 -11.828  1.00  0.00    -0.550 OA
ATOM     10  O   UNL     1     -17.973  -4.263 -11.850  1.00  0.00    -0.550 OA
ENDBRANCH   7   8
ENDBRANCH   6   7
ENDBRANCH   5   6
ENDBRANCH   4   5
ENDBRANCH   3   4
ENDBRANCH   2   3
ENDBRANCH   1   2
BRANCH   1  11
ATOM     11  C   UNL     1     -12.623 -11.718 -10.412  1.00  0.00     0.000 C 
BRANCH  11  12
ATOM     12  C   UNL     1     -14.009 -12.203 -10.863  1.00  0.00    -0.000 C 
BRANCH  12  13
ATOM     13  C   UNL     1     -15.082 -11.149 -10.563  1.00  0.00    -0.000 C 
BRANCH  13  14
ATOM     14  C   UNL     1     -16.484 -11.684 -10.894  1.00  0.00    -0.000 C 
BRANCH  14  15
ATOM     15  C   UNL     1     -17.528 -11.316  -9.826  1.00  0.00    -0.000 C 
BRANCH  15  16
ATOM     16  C   UNL     1     -18.219 -12.552  -9.226  1.00  0.00    -0.000 C 
BRANCH  16  17
ATOM     17  C   UNL     1     -18.828 -12.271  -7.842  1.00  0.00    -0.003 C 
ATOM     18  C   UNL     1     -19.448 -10.878  -7.738  1.00  0.00     0.004 C 
ENDBRANCH  16  17
ENDBRANCH  15  16
ENDBRANCH  14  15
ENDBRANCH  13  14
ENDBRANCH  12  13
ENDBRANCH  11  12
ENDBRANCH   1  11
TORSDOF 14
ENDMDL
MODEL 2
REMARK VINA RESULT:    -2.392      3.435      6.978
REMARK INTER + INTRA:          -5.246
REMARK INTER:                  -4.108
REMARK INTRA:                  -1.138
REMARK UNBOUND:                -0.896
REMARK SMILES CCCCCCCCCCCCCCCC(=O)[O-]
REMARK SMILES IDX 9 1 10 2 11 3 12 4 13 5 14 6 15 7 16 8 17 9 18 10 8 11 7 12
REMARK SMILES IDX 6 13 5 14 4 15 3 16 2 17 1 18
REMARK H PARENT
REMARK Flexibility Score: inf
ROOT
ATOM      1  C   UNL     1     -15.545 -11.082 -10.170  1.00  0.00     0.000 C 
ENDROOT
BRANCH   1   2
ATOM      2  C   UNL     1     -16.128 -11.154 -11.592  1.00  0.00     0.000 C 
BRANCH   2   3
ATOM      3  C   UNL     1     -17.104 -12.331 -11.769  1.00  0.00     0.000 C 
BRANCH   3   4
ATOM      4  C   UNL     1     -18.536 -11.978 -11.332  1.00  0.00     0.000 C 
BRANCH   4   5
ATOM      5  C   UNL     1     -18.978 -12.731 -10.064  1.00  0.00     0.000 C 
BRANCH   5   6
ATOM      6  C   UNL     1     -19.029 -11.878  -8.779  1.00  0.00     0.006 C 
BRANCH   6   7
ATOM      7  C   UNL     1     -20.443 -11.459  -8.348  1.00  0.00     0.053 C 
BRANCH   7   8
ATOM      8  C   UNL     1     -20.653 -11.623  -6.874  1.00  0.00     0.041 C 
ATOM      9  O   UNL     1     -20.415 -12.729  -6.320  1.00  0.00    -0.550 OA
ATOM     10  O   UNL     1     -21.079 -10.546  -6.106  1.00  0.00    -0.550 OA
ENDBRANCH   7   8
ENDBRANCH   6   7
ENDBRANCH   5   6
ENDBRANCH   4   5
ENDBRANCH   3   4
ENDBRANCH   2   3
ENDBRANCH   1   2
BRANCH   1  11
ATOM     11  C   UNL     1     -14.014 -10.943 -10.165  1.00  0.00     0.000 C 
BRANCH  11  12
ATOM     12  C   UNL     1     -13.384 -11.272 -11.527  1.00  0.00    -0.000 C 
BRANCH  12  13
ATOM     13  C   UNL     1     -12.105 -10.456 -11.750  1.00  0.00    -0.000 C 
BRANCH  13  14
ATOM     14  C   UNL     1     -12.234  -9.053 -11.137  1.00  0.00    -0.000 C 
BRANCH  14  15
ATOM     15  C   UNL     1     -12.807  -8.023 -12.124  1.00  0.00    -0.000 C 
BRANCH  15  16
ATOM     16  C   UNL     1     -14.218  -7.552 -11.733  1.00  0.00    -0.000 C 
BRANCH  16  17
ATOM     17  C   UNL     1     -14.368  -6.023 -11.805  1.00  0.00    -0.003 C 
ATOM     18  C   UNL     1     -15.825  -5.565 -11.744  1.00  0.00     0.004 C 
ENDBRANCH  16  17
ENDBRANCH  15  16
ENDBRANCH  14  15
ENDBRANCH  13  14
ENDBRANCH  12  13
ENDBRANCH  11  12
ENDBRANCH   1  11
TORSDOF 14
ENDMDL
MODEL 3
REMARK VINA RESULT:    -2.297      3.238      7.097
REMARK INTER + INTRA:          -5.072
REMARK INTER:                  -4.321
REMARK INTRA:                  -0.751
REMARK UNBOUND:                -0.896
REMARK SMILES CCCCCCCCCCCCCCCC(=O)[O-]
REMARK SMILES IDX 9 1 10 2 11 3 12 4 13 5 14 6 15 7 16 8 17 9 18 10 8 11 7 12
REMARK SMILES IDX 6 13 5 14 4 15 3 16 2 17 1 18
REMARK H PARENT
REMARK Flexibility Score: inf
ROOT
ATOM      1  C   UNL     1     -14.700 -11.459 -10.756  1.00  0.00     0.000 C 
ENDROOT
BRANCH   1   2
ATOM      2  C   UNL     1     -15.139 -12.923 -10.939  1.00  0.00     0.000 C 
BRANCH   2   3
ATOM      3  C   UNL     1     -16.640 -13.125 -10.669  1.00  0.00     0.000 C 
BRANCH   3   4
ATOM      4  C   UNL     1     -17.224 -12.037  -9.751  1.00  0.00     0.000 C 
BRANCH   4   5
ATOM      5  C   UNL     1     -18.592 -11.520 -10.233  1.00  0.00     0.000 C 
BRANCH   5   6
ATOM      6  C   UNL     1     -19.751 -11.697  -9.229  1.00  0.00     0.006 C 
BRANCH   6   7
ATOM      7  C   UNL     1     -19.339 -11.582  -7.753  1.00  0.00     0.053 C 
BRANCH   7   8
ATOM      8  C   UNL     1     -20.479 -11.149  -6.884  1.00  0.00     0.041 C 
ATOM      9  O   UNL     1     -21.002 -11.961  -6.074  1.00  0.00    -0.550 OA
ATOM     10  O   UNL     1     -20.944  -9.842  -6.943  1.00  0.00    -0.550 OA
ENDBRANCH   7   8
ENDBRANCH   6   7
ENDBRANCH   5   6
ENDBRANCH   4   5
ENDBRANCH   3   4
ENDBRANCH   2   3
ENDBRANCH   1   2
BRANCH   1  11
ATOM     11  C   UNL     1     -14.425 -10.754 -12.094  1.00  0.00     0.000 C 
BRANCH  11  12
ATOM     12  C   UNL     1     -14.956  -9.313 -12.125  1.00  0.00    -0.000 C 
BRANCH  12  13
ATOM     13  C   UNL     1     -14.047  -8.376 -11.320  1.00  0.00    -0.000 C 
BRANCH  13  14
ATOM     14  C   UNL     1     -13.714  -7.109 -12.123  1.00  0.00    -0.000 C 
BRANCH  14  15
ATOM     15  C   UNL     1     -14.861  -6.084 -12.119  1.00  0.00    -0.000 C 
BRANCH  15  16
ATOM     16  C   UNL     1     -14.488  -4.783 -11.388  1.00  0.00    -0.000 C 
BRANCH  16  17
ATOM     17  C   UNL     1     -15.627  -3.751 -11.408  1.00  0.00    -0.003 C 
ATOM     18  C   UNL     1     -16.878  -4.259 -12.125  1.00  0.00     0.004 C 
ENDBRANCH  16  17
ENDBRANCH  15  16
ENDBRANCH  14  15
ENDBRANCH  13  14
ENDBRANCH  12  13
ENDBRANCH  11  12
ENDBRANCH   1  11
TORSDOF 14
ENDMDL
MODEL 4
REMARK VINA RESULT:    -2.113      3.133      5.226
REMARK INTER + INTRA:          -4.738
REMARK INTER:                  -4.063
REMARK INTRA:                  -0.675
REMARK UNBOUND:                -0.896
REMARK SMILES CCCCCCCCCCCCCCCC(=O)[O-]
REMARK SMILES IDX 9 1 10 2 11 3 12 4 13 5 14 6 15 7 16 8 17 9 18 10 8 11 7 12
REMARK SMILES IDX 6 13 5 14 4 15 3 16 2 17 1 18
REMARK H PARENT
REMARK Flexibility Score: inf
ROOT
ATOM      1  C   UNL     1     -17.215 -10.810 -10.555  1.00  0.00     0.000 C 
ENDROOT
BRANCH   1   2
ATOM      2  C   UNL     1     -16.653 -11.216 -11.929  1.00  0.00     0.000 C 
BRANCH   2   3
ATOM      3  C   UNL     1     -16.401 -12.730 -12.036  1.00  0.00     0.000 C 
BRANCH   3   4
ATOM      4  C   UNL     1     -14.911 -13.089 -11.903  1.00  0.00     0.000 C 
BRANCH   4   5
ATOM      5  C   UNL     1     -13.982 -11.880 -12.119  1.00  0.00     0.000 C 
BRANCH   5   6
ATOM      6  C   UNL     1     -12.782 -11.793 -11.153  1.00  0.00     0.006 C 
BRANCH   6   7
ATOM      7  C   UNL     1     -12.780 -10.552 -10.247  1.00  0.00     0.053 C 
BRANCH   7   8
ATOM      8  C   UNL     1     -12.511  -9.295 -11.017  1.00  0.00     0.041 C 
ATOM      9  O   UNL     1     -11.330  -8.983 -11.325  1.00  0.00    -0.550 OA
ATOM     10  O   UNL     1     -13.565  -8.488 -11.423  1.00  0.00    -0.550 OA
ENDBRANCH   7   8
ENDBRANCH   6   7
ENDBRANCH   5   6
ENDBRANCH   4   5
ENDBRANCH   3   4
ENDBRANCH   2   3
ENDBRANCH   1   2
BRANCH   1  11
ATOM     11  C   UNL     1     -17.703 -12.017  -9.736  1.00  0.00     0.000 C 
BRANCH  11  12
ATOM     12  C   UNL     1     -19.007 -12.616 -10.282  1.00  0.00    -0.000 C 
BRANCH  12  13
ATOM     13  C   UNL     1     -20.030 -12.819  -9.157  1.00  0.00    -0.000 C 
BRANCH  13  14
ATOM     14  C   UNL     1     -19.327 -13.108  -7.821  1.00  0.00    -0.000 C 
BRANCH  14  15
ATOM     15  C   UNL     1     -20.020 -12.432  -6.627  1.00  0.00    -0.000 C 
BRANCH  15  16
ATOM     16  C   UNL     1     -21.065 -11.390  -7.063  1.00  0.00    -0.000 C 
BRANCH  16  17
ATOM     17  C   UNL     1     -20.427 -10.051  -7.467  1.00  0.00    -0.003 C 
ATOM     18  C   UNL     1     -21.125  -8.846  -6.838  1.00  0.00     0.004 C 
ENDBRANCH  16  17
ENDBRANCH  15  16
ENDBRANCH  14  15
ENDBRANCH  13  14
ENDBRANCH  12  13
ENDBRANCH  11  12
ENDBRANCH   1  11
TORSDOF 14
ENDMDL
MODEL 5
REMARK VINA RESULT:    -2.035      2.771      6.115
REMARK INTER + INTRA:          -4.597
REMARK INTER:                  -3.830
REMARK INTRA:                  -0.766
REMARK UNBOUND:                -0.896
REMARK SMILES CCCCCCCCCCCCCCCC(=O)[O-]
REMARK SMILES IDX 9 1 10 2 11 3 12 4 13 5 14 6 15 7 16 8 17 9 18 10 8 11 7 12
REMARK SMILES IDX 6 13 5 14 4 15 3 16 2 17 1 18
REMARK H PARENT
REMARK Flexibility Score: inf
ROOT
ATOM      1  C   UNL     1     -11.910  -9.272 -10.880  1.00  0.00     0.000 C 
ENDROOT
BRANCH   1   2
ATOM      2  C   UNL     1     -11.888 -10.422 -11.902  1.00  0.00     0.000 C 
BRANCH   2   3
ATOM      3  C   UNL     1     -12.014 -11.803 -11.235  1.00  0.00     0.000 C 
BRANCH   3   4
ATOM      4  C   UNL     1     -12.920 -11.776  -9.992  1.00  0.00     0.000 C 
BRANCH   4   5
ATOM      5  C   UNL     1     -14.259 -12.504 -10.212  1.00  0.00     0.000 C 
BRANCH   5   6
ATOM      6  C   UNL     1     -15.462 -11.587 -10.515  1.00  0.00     0.006 C 
BRANCH   6   7
ATOM      7  C   UNL     1     -16.566 -12.240 -11.362  1.00  0.00     0.053 C 
BRANCH   7   8
ATOM      8  C   UNL     1     -17.817 -11.418 -11.386  1.00  0.00     0.041 C 
ATOM      9  O   UNL     1     -17.851 -10.337 -12.032  1.00  0.00    -0.550 OA
ATOM     10  O   UNL     1     -18.954 -11.860 -10.723  1.00  0.00    -0.550 OA
ENDBRANCH   7   8
ENDBRANCH   6   7
ENDBRANCH   5   6
ENDBRANCH   4   5
ENDBRANCH   3   4
ENDBRANCH   2   3
ENDBRANCH   1   2
BRANCH   1  11
ATOM     11  C   UNL     1     -13.295  -8.616 -10.759  1.00  0.00     0.000 C 
BRANCH  11  12
ATOM     12  C   UNL     1     -13.938  -8.328 -12.124  1.00  0.00    -0.000 C 
BRANCH  12  13
ATOM     13  C   UNL     1     -14.911  -7.147 -12.034  1.00  0.00    -0.000 C 
BRANCH  13  14
ATOM     14  C   UNL     1     -14.261  -5.952 -11.318  1.00  0.00    -0.000 C 
BRANCH  14  15
ATOM     15  C   UNL     1     -14.365  -4.648 -12.125  1.00  0.00    -0.000 C 
BRANCH  15  16
ATOM     16  C   UNL     1     -15.570  -3.788 -11.707  1.00  0.00    -0.000 C 
BRANCH  16  17
ATOM     17  C   UNL     1     -16.786  -4.638 -11.302  1.00  0.00    -0.003 C 
ATOM     18  C   UNL     1     -18.034  -4.320 -12.125  1.00  0.00     0.004 C 
ENDBRANCH  16  17
ENDBRANCH  15  16
ENDBRANCH  14  15
ENDBRANCH  13  14
ENDBRANCH  12  13
ENDBRANCH  11  12
ENDBRANCH   1  11
TORSDOF 14
ENDMDL
MODEL 6
REMARK VINA RESULT:    -2.006      3.435      7.194
REMARK INTER + INTRA:          -4.543
REMARK INTER:                  -3.315
REMARK INTRA:                  -1.227
REMARK UNBOUND:                -0.896
REMARK SMILES CCCCCCCCCCCCCCCC(=O)[O-]
REMARK SMILES IDX 9 1 10 2 11 3 12 4 13 5 14 6 15 7 16 8 17 9 18 10 8 11 7 12
REMARK SMILES IDX 6 13 5 14 4 15 3 16 2 17 1 18
REMARK H PARENT
REMARK Flexibility Score: inf
ROOT
ATOM      1  C   UNL     1     -16.015 -10.860 -10.691  1.00  0.00     0.000 C 
ENDROOT
BRANCH   1   2
ATOM      2  C   UNL     1     -17.528 -10.613 -10.826  1.00  0.00     0.000 C 
BRANCH   2   3
ATOM      3  C   UNL     1     -18.205 -11.617 -11.776  1.00  0.00     0.000 C 
BRANCH   3   4
ATOM      4  C   UNL     1     -19.725 -11.700 -11.557  1.00  0.00     0.000 C 
BRANCH   4   5
ATOM      5  C   UNL     1     -20.131 -12.843 -10.608  1.00  0.00     0.000 C 
BRANCH   5   6
ATOM      6  C   UNL     1     -20.826 -12.397  -9.304  1.00  0.00     0.006 C 
BRANCH   6   7
ATOM      7  C   UNL     1     -19.960 -12.532  -8.042  1.00  0.00     0.053 C 
BRANCH   7   8
ATOM      8  C   UNL     1     -20.468 -11.680  -6.920  1.00  0.00     0.041 C 
ATOM      9  O   UNL     1     -20.729 -12.196  -5.801  1.00  0.00    -0.550 OA
ATOM     10  O   UNL     1     -20.619 -10.311  -7.098  1.00  0.00    -0.550 OA
ENDBRANCH   7   8
ENDBRANCH   6   7
ENDBRANCH   5   6
ENDBRANCH   4   5
ENDBRANCH   3   4
ENDBRANCH   2   3
ENDBRANCH   1   2
BRANCH   1  11
ATOM     11  C   UNL     1     -15.515 -11.982 -11.615  1.00  0.00     0.000 C 
BRANCH  11  12
ATOM     12  C   UNL     1     -14.617 -12.994 -10.889  1.00  0.00    -0.000 C 
BRANCH  12  13
ATOM     13  C   UNL     1     -13.389 -12.303 -10.283  1.00  0.00    -0.000 C 
BRANCH  13  14
ATOM     14  C   UNL     1     -12.187 -12.385 -11.237  1.00  0.00    -0.000 C 
BRANCH  14  15
ATOM     15  C   UNL     1     -12.046 -11.136 -12.123  1.00  0.00    -0.000 C 
BRANCH  15  16
ATOM     16  C   UNL     1     -12.034  -9.831 -11.308  1.00  0.00    -0.000 C 
BRANCH  16  17
ATOM     17  C   UNL     1     -12.521  -8.624 -12.125  1.00  0.00    -0.003 C 
ATOM     18  C   UNL     1     -13.595  -7.811 -11.403  1.00  0.00     0.004 C 
ENDBRANCH  16  17
ENDBRANCH  15  16
ENDBRANCH  14  15
ENDBRANCH  13  14
ENDBRANCH  12  13
ENDBRANCH  11  12
ENDBRANCH   1  11
TORSDOF 14
ENDMDL
MODEL 7
REMARK VINA RESULT:    -1.799      1.675      3.109
REMARK INTER + INTRA:          -4.167
REMARK INTER:                  -3.457
REMARK INTRA:                  -0.710
REMARK UNBOUND:                -0.896
REMARK SMILES CCCCCCCCCCCCCCCC(=O)[O-]
REMARK SMILES IDX 9 1 10 2 11 3 12 4 13 5 14 6 15 7 16 8 17 9 18 10 8 11 7 12
REMARK SMILES IDX 6 13 5 14 4 15 3 16 2 17 1 18
REMARK H PARENT
REMARK Flexibility Score: inf
ROOT
ATOM      1  C   UNL     1     -16.434 -10.998 -10.110  1.00  0.00     0.000 C 
ENDROOT
BRANCH   1   2
ATOM      2  C   UNL     1     -15.139 -11.700 -10.555  1.00  0.00     0.000 C 
BRANCH   2   3
ATOM      3  C   UNL     1     -14.643 -11.206 -11.925  1.00  0.00     0.000 C 
BRANCH   3   4
ATOM      4  C   UNL     1     -13.515 -10.168 -11.803  1.00  0.00     0.000 C 
BRANCH   4   5
ATOM      5  C   UNL     1     -13.978  -8.856 -11.143  1.00  0.00     0.000 C 
BRANCH   5   6
ATOM      6  C   UNL     1     -14.505  -7.782 -12.118  1.00  0.00     0.006 C 
BRANCH   6   7
ATOM      7  C   UNL     1     -14.183  -6.336 -11.710  1.00  0.00     0.053 C 
BRANCH   7   8
ATOM      8  C   UNL     1     -15.328  -5.409 -11.977  1.00  0.00     0.041 C 
ATOM      9  O   UNL     1     -15.122  -4.175 -12.124  1.00  0.00    -0.550 OA
ATOM     10  O   UNL     1     -16.618  -5.910 -12.095  1.00  0.00    -0.550 OA
ENDBRANCH   7   8
ENDBRANCH   6   7
ENDBRANCH   5   6
ENDBRANCH   4   5
ENDBRANCH   3   4
ENDBRANCH   2   3
ENDBRANCH   1   2
BRANCH   1  11
ATOM     11  C   UNL     1     -17.488 -10.940 -11.227  1.00  0.00     0.000 C 
BRANCH  11  12
ATOM     12  C   UNL     1     -17.771 -12.316 -11.849  1.00  0.00    -0.000 C 
BRANCH  12  13
ATOM     13  C   UNL     1     -18.884 -13.045 -11.087  1.00  0.00    -0.000 C 
BRANCH  13  14
ATOM     14  C   UNL     1     -19.976 -12.061 -10.637  1.00  0.00    -0.000 C 
BRANCH  14  15
ATOM     15  C   UNL     1     -20.897 -12.650  -9.555  1.00  0.00    -0.000 C 
BRANCH  15  16
ATOM     16  C   UNL     1     -20.856 -11.847  -8.244  1.00  0.00    -0.000 C 
BRANCH  16  17
ATOM     17  C   UNL     1     -20.189 -12.625  -7.099  1.00  0.00    -0.003 C 
ATOM     18  C   UNL     1     -20.708 -12.217  -5.720  1.00  0.00     0.004 C 
ENDBRANCH  16  17
ENDBRANCH  15  16
ENDBRANCH  14  15
ENDBRANCH  13  14
ENDBRANCH  12  13
ENDBRANCH  11  12
ENDBRANCH   1  11
TORSDOF 14
ENDMDL
MODEL 8
REMARK VINA RESULT:    -1.488      3.213      4.878
REMARK INTER + INTRA:          -3.602
REMARK INTER:                  -2.811
REMARK INTRA:                  -0.791
REMARK UNBOUND:                -0.896
REMARK SMILES CCCCCCCCCCCCCCCC(=O)[O-]
REMARK SMILES IDX 9 1 10 2 11 3 12 4 13 5 14 6 15 7 16 8 17 9 18 10 8 11 7 12
REMARK SMILES IDX 6 13 5 14 4 15 3 16 2 17 1 18
REMARK H PARENT
REMARK Flexibility Score: inf
ROOT
ATOM      1  C   UNL     1     -17.232 -10.912  -9.766  1.00  0.00     0.000 C 
ENDROOT
BRANCH   1   2
ATOM      2  C   UNL     1     -17.743  -9.914 -10.821  1.00  0.00     0.000 C 
BRANCH   2   3
ATOM      3  C   UNL     1     -16.818  -9.829 -12.047  1.00  0.00     0.000 C 
BRANCH   3   4
ATOM      4  C   UNL     1     -15.991  -8.532 -12.072  1.00  0.00     0.000 C 
BRANCH   4   5
ATOM      5  C   UNL     1     -14.474  -8.791 -12.116  1.00  0.00     0.000 C 
BRANCH   5   6
ATOM      6  C   UNL     1     -14.046 -10.239 -11.798  1.00  0.00     0.006 C 
BRANCH   6   7
ATOM      7  C   UNL     1     -13.623 -10.473 -10.339  1.00  0.00     0.053 C 
BRANCH   7   8
ATOM      8  C   UNL     1     -12.376  -9.722  -9.988  1.00  0.00     0.041 C 
ATOM      9  O   UNL     1     -12.176  -9.346  -8.802  1.00  0.00    -0.550 OA
ATOM     10  O   UNL     1     -11.419  -9.466 -10.962  1.00  0.00    -0.550 OA
ENDBRANCH   7   8
ENDBRANCH   6   7
ENDBRANCH   5   6
ENDBRANCH   4   5
ENDBRANCH   3   4
ENDBRANCH   2   3
ENDBRANCH   1   2
BRANCH   1  11
ATOM     11  C   UNL     1     -16.937 -12.299 -10.361  1.00  0.00     0.000 C 
BRANCH  11  12
ATOM     12  C   UNL     1     -18.209 -13.125 -10.604  1.00  0.00    -0.000 C 
BRANCH  12  13
ATOM     13  C   UNL     1     -19.456 -12.233 -10.571  1.00  0.00    -0.000 C 
BRANCH  13  14
ATOM     14  C   UNL     1     -20.694 -13.036 -10.141  1.00  0.00    -0.000 C 
BRANCH  14  15
ATOM     15  C   UNL     1     -20.887 -13.059  -8.616  1.00  0.00    -0.000 C 
BRANCH  15  16
ATOM     16  C   UNL     1     -19.772 -12.307  -7.868  1.00  0.00    -0.000 C 
BRANCH  16  17
ATOM     17  C   UNL     1     -20.326 -11.268  -6.879  1.00  0.00    -0.003 C 
ATOM     18  C   UNL     1     -20.303  -9.846  -7.437  1.00  0.00     0.004 C 
ENDBRANCH  16  17
ENDBRANCH  15  16
ENDBRANCH  14  15
ENDBRANCH  13  14
ENDBRANCH  12  13
ENDBRANCH  11  12
ENDBRANCH   1  11
TORSDOF 14
ENDMDL
MODEL 9
REMARK VINA RESULT:    -0.861     17.616     20.185
REMARK INTER + INTRA:          -2.462
REMARK INTER:                  -3.804
REMARK INTRA:                   1.342
REMARK UNBOUND:                -0.896
REMARK SMILES CCCCCCCCCCCCCCCC(=O)[O-]
REMARK SMILES IDX 9 1 10 2 11 3 12 4 13 5 14 6 15 7 16 8 17 9 18 10 8 11 7 12
REMARK SMILES IDX 6 13 5 14 4 15 3 16 2 17 1 18
REMARK H PARENT
REMARK Flexibility Score: inf
ROOT
ATOM      1  C   UNL     1     -20.288   3.710   2.559  1.00  0.00     0.000 C 
ENDROOT
BRANCH   1   2
ATOM      2  C   UNL     1     -20.863   2.611   1.648  1.00  0.00     0.000 C 
BRANCH   2   3
ATOM      3  C   UNL     1     -21.123   3.111   0.216  1.00  0.00     0.000 C 
BRANCH   3   4
ATOM      4  C   UNL     1     -20.187   4.264  -0.184  1.00  0.00     0.000 C 
BRANCH   4   5
ATOM      5  C   UNL     1     -19.820   4.246  -1.679  1.00  0.00     0.000 C 
BRANCH   5   6
ATOM      6  C   UNL     1     -20.930   3.731  -2.620  1.00  0.00     0.006 C 
BRANCH   6   7
ATOM      7  C   UNL     1     -21.124   4.568  -3.895  1.00  0.00     0.053 C 
BRANCH   7   8
ATOM      8  C   UNL     1     -20.454   5.903  -3.798  1.00  0.00     0.041 C 
ATOM      9  O   UNL     1     -19.607   6.122  -2.891  1.00  0.00    -0.550 OA
ATOM     10  O   UNL     1     -20.738   6.895  -4.727  1.00  0.00    -0.550 OA
ENDBRANCH   7   8
ENDBRANCH   6   7
ENDBRANCH   5   6
ENDBRANCH   4   5
ENDBRANCH   3   4
ENDBRANCH   2   3
ENDBRANCH   1   2
BRANCH   1  11
ATOM     11  C   UNL     1     -21.085   5.022   2.476  1.00  0.00     0.000 C 
BRANCH  11  12
ATOM     12  C   UNL     1     -21.122   5.780   3.812  1.00  0.00    -0.000 C 
BRANCH  12  13
ATOM     13  C   UNL     1     -20.748   4.855   4.977  1.00  0.00    -0.000 C 
BRANCH  13  14
ATOM     14  C   UNL     1     -21.085   5.509   6.327  1.00  0.00    -0.000 C 
BRANCH  14  15
ATOM     15  C   UNL     1     -20.076   5.148   7.430  1.00  0.00    -0.000 C 
BRANCH  15  16
ATOM     16  C   UNL     1     -19.427   6.389   8.066  1.00  0.00    -0.000 C 
BRANCH  16  17
ATOM     17  C   UNL     1     -17.979   6.600   7.596  1.00  0.00    -0.003 C 
ATOM     18  C   UNL     1     -17.280   5.295   7.216  1.00  0.00     0.004 C 
ENDBRANCH  16  17
ENDBRANCH  15  16
ENDBRANCH  14  15
ENDBRANCH  13  14
ENDBRANCH  12  13
ENDBRANCH  11  12
ENDBRANCH   1  11
TORSDOF 14
ENDMDL
