MODEL 1
REMARK VINA RESULT:    -8.703      0.000      0.000
REMARK INTER + INTRA:         -12.838
REMARK INTER:                 -12.774
REMARK INTRA:                  -0.064
REMARK UNBOUND:                -0.064
REMARK SMILES O=c1c(O[C@@H]2O[C@@H](CO)[C@@H](O)[C@H](O)[C@@H]2O)c(-c2ccc(O)c(O)c2)oc2cc(O)cc(O)c12
REMARK SMILES IDX 4 1 3 2 16 3 25 4 2 5 26 6 1 7 33 8 27 9 31 10 28 11 30 12
REMARK SMILES IDX 17 13 18 14 19 15 20 16 24 17 22 18 21 19 23 21 32 23 29 25
REMARK SMILES IDX 5 27 14 28 6 29 12 30 7 31 10 32 15 33 13 35 8 37 9 38 11 40
REMARK H PARENT 21 20 23 22 32 24 29 26 15 34 13 36 9 39 11 41
REMARK Flexibility Score: inf
ROOT
ATOM      1  O   UNL     1       3.182  -3.427  37.967  1.00  0.00    -0.454 OA
ENDROOT
BRANCH   1   2
ATOM      2  C   UNL     1       3.937  -4.466  37.384  1.00  0.00     0.214 A 
ATOM      3  C   UNL     1       5.058  -4.110  36.610  1.00  0.00     0.180 A 
ATOM      4  O   UNL     1       5.753  -5.042  35.973  1.00  0.00    -0.452 OA
ATOM      5  C   UNL     1       3.618  -5.839  37.506  1.00  0.00     0.239 A 
ATOM      6  C   UNL     1       5.489  -6.339  36.059  1.00  0.00     0.146 A 
ATOM      7  O   UNL     1       2.592  -6.186  38.143  1.00  0.00    -0.285 OA
ATOM      8  C   UNL     1       4.432  -6.811  36.875  1.00  0.00     0.111 A 
ATOM      9  C   UNL     1       6.276  -7.228  35.323  1.00  0.00     0.094 A 
ATOM     10  C   UNL     1       4.231  -8.222  36.974  1.00  0.00     0.134 A 
ATOM     11  C   UNL     1       6.028  -8.601  35.378  1.00  0.00     0.123 A 
ATOM     12  C   UNL     1       5.011  -9.088  36.197  1.00  0.00     0.093 A 
BRANCH   3  13
ATOM     13  C   UNL     1       5.480  -2.699  36.451  1.00  0.00     0.025 A 
ATOM     14  C   UNL     1       6.779  -2.412  36.011  1.00  0.00     0.016 A 
ATOM     15  C   UNL     1       7.200  -1.088  35.866  1.00  0.00     0.051 A 
ATOM     16  C   UNL     1       6.339  -0.028  36.170  1.00  0.00     0.157 A 
ATOM     17  C   UNL     1       4.621  -1.636  36.781  1.00  0.00     0.062 A 
ATOM     18  C   UNL     1       5.033  -0.306  36.638  1.00  0.00     0.158 A 
BRANCH  16  19
ATOM     19  O   UNL     1       6.818   1.272  35.996  1.00  0.00    -0.504 OA
ATOM     20  H   UNL     1       6.241   2.098  36.051  1.00  0.00     0.293 HD
ENDBRANCH  16  19
BRANCH  18  21
ATOM     21  O   UNL     1       4.125   0.699  36.977  1.00  0.00    -0.504 OA
ATOM     22  H   UNL     1       3.486   1.127  36.324  1.00  0.00     0.293 HD
ENDBRANCH  18  21
ENDBRANCH   3  13
BRANCH  10  23
ATOM     23  O   UNL     1       3.306  -8.820  37.835  1.00  0.00    -0.507 OA
ATOM     24  H   UNL     1       2.414  -9.193  37.550  1.00  0.00     0.293 HD
ENDBRANCH  10  23
BRANCH  11  25
ATOM     25  O   UNL     1       6.798  -9.492  34.632  1.00  0.00    -0.508 OA
ATOM     26  H   UNL     1       7.747  -9.725  34.898  1.00  0.00     0.293 HD
ENDBRANCH  11  25
ENDBRANCH   1   2
BRANCH   1  27
ATOM     27  C   UNL     1       2.477  -3.442  39.207  1.00  0.00     0.339 C 
ATOM     28  C   UNL     1       2.909  -2.196  40.009  1.00  0.00     0.214 C 
ATOM     29  O   UNL     1       1.081  -3.439  38.946  1.00  0.00    -0.332 OA
ATOM     30  C   UNL     1       2.128  -2.104  41.331  1.00  0.00     0.180 C 
ATOM     31  C   UNL     1       0.288  -3.439  40.128  1.00  0.00     0.179 C 
ATOM     32  C   UNL     1       0.616  -2.250  41.073  1.00  0.00     0.177 C 
BRANCH  28  33
ATOM     33  O   UNL     1       2.782  -1.017  39.248  1.00  0.00    -0.384 OA
ATOM     34  H   UNL     1       1.868  -0.656  39.381  1.00  0.00     0.211 HD
ENDBRANCH  28  33
BRANCH  30  35
ATOM     35  O   UNL     1       2.375  -0.873  41.961  1.00  0.00    -0.387 OA
ATOM     36  H   UNL     1       2.945  -1.066  42.753  1.00  0.00     0.211 HD
ENDBRANCH  30  35
BRANCH  31  37
ATOM     37  C   UNL     1       0.204  -4.833  40.792  1.00  0.00     0.191 C 
BRANCH  37  38
ATOM     38  O   UNL     1       0.809  -4.853  42.053  1.00  0.00    -0.394 OA
ATOM     39  H   UNL     1       1.760  -5.091  41.899  1.00  0.00     0.210 HD
ENDBRANCH  37  38
ENDBRANCH  31  37
BRANCH  32  40
ATOM     40  O   UNL     1      -0.113  -2.322  42.274  1.00  0.00    -0.387 OA
ATOM     41  H   UNL     1      -0.832  -2.997  42.161  1.00  0.00     0.211 HD
ENDBRANCH  32  40
ENDBRANCH   1  27
TORSDOF 12
ENDMDL
MODEL 2
REMARK VINA RESULT:    -8.218      1.274      5.797
REMARK INTER + INTRA:         -12.126
REMARK INTER:                 -11.934
REMARK INTRA:                  -0.191
REMARK UNBOUND:                -0.064
REMARK SMILES O=c1c(O[C@@H]2O[C@@H](CO)[C@@H](O)[C@H](O)[C@@H]2O)c(-c2ccc(O)c(O)c2)oc2cc(O)cc(O)c12
REMARK SMILES IDX 4 1 3 2 16 3 25 4 2 5 26 6 1 7 33 8 27 9 31 10 28 11 30 12
REMARK SMILES IDX 17 13 18 14 19 15 20 16 24 17 22 18 21 19 23 21 32 23 29 25
REMARK SMILES IDX 5 27 14 28 6 29 12 30 7 31 10 32 15 33 13 35 8 37 9 38 11 40
REMARK H PARENT 21 20 23 22 32 24 29 26 15 34 13 36 9 39 11 41
REMARK Flexibility Score: inf
ROOT
ATOM      1  O   UNL     1       2.894  -3.882  37.860  1.00  0.00    -0.454 OA
ENDROOT
BRANCH   1   2
ATOM      2  C   UNL     1       4.006  -3.299  37.217  1.00  0.00     0.214 A 
ATOM      3  C   UNL     1       4.970  -4.162  36.661  1.00  0.00     0.180 A 
ATOM      4  O   UNL     1       6.074  -3.668  36.118  1.00  0.00    -0.452 OA
ATOM      5  C   UNL     1       4.224  -1.905  37.123  1.00  0.00     0.239 A 
ATOM      6  C   UNL     1       6.319  -2.369  36.010  1.00  0.00     0.146 A 
ATOM      7  O   UNL     1       3.411  -1.110  37.658  1.00  0.00    -0.285 OA
ATOM      8  C   UNL     1       5.378  -1.413  36.465  1.00  0.00     0.111 A 
ATOM      9  C   UNL     1       7.529  -1.965  35.441  1.00  0.00     0.094 A 
ATOM     10  C   UNL     1       5.670  -0.029  36.270  1.00  0.00     0.134 A 
ATOM     11  C   UNL     1       7.831  -0.608  35.314  1.00  0.00     0.123 A 
ATOM     12  C   UNL     1       6.906   0.348  35.730  1.00  0.00     0.093 A 
BRANCH   3  13
ATOM     13  C   UNL     1       4.809  -5.635  36.689  1.00  0.00     0.025 A 
ATOM     14  C   UNL     1       5.222  -6.396  35.587  1.00  0.00     0.016 A 
ATOM     15  C   UNL     1       5.068  -7.784  35.590  1.00  0.00     0.051 A 
ATOM     16  C   UNL     1       4.488  -8.435  36.684  1.00  0.00     0.157 A 
ATOM     17  C   UNL     1       4.204  -6.284  37.779  1.00  0.00     0.062 A 
ATOM     18  C   UNL     1       4.046  -7.674  37.792  1.00  0.00     0.158 A 
BRANCH  16  19
ATOM     19  O   UNL     1       4.370  -9.826  36.628  1.00  0.00    -0.504 OA
ATOM     20  H   UNL     1       4.754 -10.453  37.320  1.00  0.00     0.293 HD
ENDBRANCH  16  19
BRANCH  18  21
ATOM     21  O   UNL     1       3.443  -8.252  38.911  1.00  0.00    -0.504 OA
ATOM     22  H   UNL     1       2.480  -8.105  39.173  1.00  0.00     0.293 HD
ENDBRANCH  18  21
ENDBRANCH   3  13
BRANCH  10  23
ATOM     23  O   UNL     1       4.776   1.006  36.562  1.00  0.00    -0.507 OA
ATOM     24  H   UNL     1       4.976   1.988  36.446  1.00  0.00     0.293 HD
ENDBRANCH  10  23
BRANCH  11  25
ATOM     25  O   UNL     1       9.045  -0.198  34.764  1.00  0.00    -0.508 OA
ATOM     26  H   UNL     1       9.442   0.709  34.974  1.00  0.00     0.293 HD
ENDBRANCH  11  25
ENDBRANCH   1   2
BRANCH   1  27
ATOM     27  C   UNL     1       2.060  -3.309  38.866  1.00  0.00     0.339 C 
ATOM     28  C   UNL     1       0.813  -4.205  39.010  1.00  0.00     0.214 C 
ATOM     29  O   UNL     1       2.790  -3.228  40.081  1.00  0.00    -0.332 OA
ATOM     30  C   UNL     1      -0.099  -3.689  40.137  1.00  0.00     0.180 C 
ATOM     31  C   UNL     1       2.036  -2.679  41.156  1.00  0.00     0.179 C 
ATOM     32  C   UNL     1       0.716  -3.455  41.422  1.00  0.00     0.177 C 
BRANCH  28  33
ATOM     33  O   UNL     1       1.162  -5.557  39.202  1.00  0.00    -0.384 OA
ATOM     34  H   UNL     1       0.328  -6.095  39.221  1.00  0.00     0.211 HD
ENDBRANCH  28  33
BRANCH  30  35
ATOM     35  O   UNL     1      -1.125  -4.613  40.398  1.00  0.00    -0.387 OA
ATOM     36  H   UNL     1      -0.698  -5.508  40.454  1.00  0.00     0.211 HD
ENDBRANCH  30  35
BRANCH  31  37
ATOM     37  C   UNL     1       1.914  -1.139  41.076  1.00  0.00     0.191 C 
BRANCH  37  38
ATOM     38  O   UNL     1       2.673  -0.499  42.063  1.00  0.00    -0.394 OA
ATOM     39  H   UNL     1       2.423  -0.925  42.923  1.00  0.00     0.210 HD
ENDBRANCH  37  38
ENDBRANCH  31  37
BRANCH  32  40
ATOM     40  O   UNL     1      -0.056  -2.841  42.425  1.00  0.00    -0.387 OA
ATOM     41  H   UNL     1      -0.183  -3.493  43.162  1.00  0.00     0.211 HD
ENDBRANCH  32  40
ENDBRANCH   1  27
TORSDOF 12
ENDMDL
MODEL 3
REMARK VINA RESULT:    -7.824      1.581      6.420
REMARK INTER + INTRA:         -11.547
REMARK INTER:                 -11.107
REMARK INTRA:                  -0.440
REMARK UNBOUND:                -0.064
REMARK SMILES O=c1c(O[C@@H]2O[C@@H](CO)[C@@H](O)[C@H](O)[C@@H]2O)c(-c2ccc(O)c(O)c2)oc2cc(O)cc(O)c12
REMARK SMILES IDX 4 1 3 2 16 3 25 4 2 5 26 6 1 7 33 8 27 9 31 10 28 11 30 12
REMARK SMILES IDX 17 13 18 14 19 15 20 16 24 17 22 18 21 19 23 21 32 23 29 25
REMARK SMILES IDX 5 27 14 28 6 29 12 30 7 31 10 32 15 33 13 35 8 37 9 38 11 40
REMARK H PARENT 21 20 23 22 32 24 29 26 15 34 13 36 9 39 11 41
REMARK Flexibility Score: inf
ROOT
ATOM      1  O   UNL     1       3.616  -4.357  35.920  1.00  0.00    -0.454 OA
ENDROOT
BRANCH   1   2
ATOM      2  C   UNL     1       2.878  -3.991  37.065  1.00  0.00     0.214 A 
ATOM      3  C   UNL     1       3.189  -2.765  37.683  1.00  0.00     0.180 A 
ATOM      4  O   UNL     1       2.582  -2.411  38.808  1.00  0.00    -0.452 OA
ATOM      5  C   UNL     1       1.866  -4.793  37.642  1.00  0.00     0.239 A 
ATOM      6  C   UNL     1       1.630  -3.132  39.383  1.00  0.00     0.146 A 
ATOM      7  O   UNL     1       1.603  -5.917  37.146  1.00  0.00    -0.285 OA
ATOM      8  C   UNL     1       1.184  -4.344  38.800  1.00  0.00     0.111 A 
ATOM      9  C   UNL     1       1.078  -2.671  40.582  1.00  0.00     0.094 A 
ATOM     10  C   UNL     1       0.116  -5.048  39.434  1.00  0.00     0.134 A 
ATOM     11  C   UNL     1       0.078  -3.402  41.225  1.00  0.00     0.123 A 
ATOM     12  C   UNL     1      -0.393  -4.582  40.652  1.00  0.00     0.093 A 
BRANCH   3  13
ATOM     13  C   UNL     1       4.216  -1.850  37.131  1.00  0.00     0.025 A 
ATOM     14  C   UNL     1       4.001  -0.466  37.171  1.00  0.00     0.016 A 
ATOM     15  C   UNL     1       4.951   0.412  36.645  1.00  0.00     0.051 A 
ATOM     16  C   UNL     1       6.124  -0.074  36.058  1.00  0.00     0.157 A 
ATOM     17  C   UNL     1       5.382  -2.342  36.520  1.00  0.00     0.062 A 
ATOM     18  C   UNL     1       6.340  -1.470  35.991  1.00  0.00     0.158 A 
BRANCH  16  19
ATOM     19  O   UNL     1       7.037   0.857  35.558  1.00  0.00    -0.504 OA
ATOM     20  H   UNL     1       7.881   1.134  36.039  1.00  0.00     0.293 HD
ENDBRANCH  16  19
BRANCH  18  21
ATOM     21  O   UNL     1       7.478  -2.029  35.405  1.00  0.00    -0.504 OA
ATOM     22  H   UNL     1       8.286  -2.341  35.923  1.00  0.00     0.293 HD
ENDBRANCH  18  21
ENDBRANCH   3  13
BRANCH  10  23
ATOM     23  O   UNL     1      -0.496  -6.185  38.897  1.00  0.00    -0.507 OA
ATOM     24  H   UNL     1      -1.416  -6.201  38.483  1.00  0.00     0.293 HD
ENDBRANCH  10  23
BRANCH  11  25
ATOM     25  O   UNL     1      -0.463  -2.957  42.430  1.00  0.00    -0.508 OA
ATOM     26  H   UNL     1      -1.300  -3.372  42.820  1.00  0.00     0.293 HD
ENDBRANCH  11  25
ENDBRANCH   1   2
BRANCH   1  27
ATOM     27  C   UNL     1       4.240  -5.609  35.640  1.00  0.00     0.339 C 
ATOM     28  C   UNL     1       4.923  -5.496  34.261  1.00  0.00     0.214 C 
ATOM     29  O   UNL     1       5.177  -5.900  36.666  1.00  0.00    -0.332 OA
ATOM     30  C   UNL     1       5.686  -6.790  33.925  1.00  0.00     0.180 C 
ATOM     31  C   UNL     1       5.865  -7.130  36.469  1.00  0.00     0.179 C 
ATOM     32  C   UNL     1       6.597  -7.196  35.099  1.00  0.00     0.177 C 
BRANCH  28  33
ATOM     33  O   UNL     1       5.761  -4.366  34.186  1.00  0.00    -0.384 OA
ATOM     34  H   UNL     1       6.590  -4.623  33.703  1.00  0.00     0.211 HD
ENDBRANCH  28  33
BRANCH  30  35
ATOM     35  O   UNL     1       6.466  -6.613  32.771  1.00  0.00    -0.387 OA
ATOM     36  H   UNL     1       7.360  -6.301  33.073  1.00  0.00     0.211 HD
ENDBRANCH  30  35
BRANCH  31  37
ATOM     37  C   UNL     1       5.009  -8.362  36.843  1.00  0.00     0.191 C 
BRANCH  37  38
ATOM     38  O   UNL     1       4.370  -8.205  38.078  1.00  0.00    -0.394 OA
ATOM     39  H   UNL     1       3.476  -8.624  37.982  1.00  0.00     0.210 HD
ENDBRANCH  37  38
ENDBRANCH  31  37
BRANCH  32  40
ATOM     40  O   UNL     1       7.191  -8.453  34.886  1.00  0.00    -0.387 OA
ATOM     41  H   UNL     1       6.471  -9.110  34.701  1.00  0.00     0.211 HD
ENDBRANCH  32  40
ENDBRANCH   1  27
TORSDOF 12
ENDMDL
MODEL 4
REMARK VINA RESULT:    -7.784      1.287      1.827
REMARK INTER + INTRA:         -11.489
REMARK INTER:                 -11.368
REMARK INTRA:                  -0.122
REMARK UNBOUND:                -0.064
REMARK SMILES O=c1c(O[C@@H]2O[C@@H](CO)[C@@H](O)[C@H](O)[C@@H]2O)c(-c2ccc(O)c(O)c2)oc2cc(O)cc(O)c12
REMARK SMILES IDX 4 1 3 2 16 3 25 4 2 5 26 6 1 7 33 8 27 9 31 10 28 11 30 12
REMARK SMILES IDX 17 13 18 14 19 15 20 16 24 17 22 18 21 19 23 21 32 23 29 25
REMARK SMILES IDX 5 27 14 28 6 29 12 30 7 31 10 32 15 33 13 35 8 37 9 38 11 40
REMARK H PARENT 21 20 23 22 32 24 29 26 15 34 13 36 9 39 11 41
REMARK Flexibility Score: inf
ROOT
ATOM      1  O   UNL     1       3.671  -3.716  38.316  1.00  0.00    -0.454 OA
ENDROOT
BRANCH   1   2
ATOM      2  C   UNL     1       4.209  -4.625  37.382  1.00  0.00     0.214 A 
ATOM      3  C   UNL     1       5.066  -4.116  36.388  1.00  0.00     0.180 A 
ATOM      4  O   UNL     1       5.534  -4.913  35.437  1.00  0.00    -0.452 OA
ATOM      5  C   UNL     1       3.918  -6.010  37.369  1.00  0.00     0.239 A 
ATOM      6  C   UNL     1       5.286  -6.214  35.385  1.00  0.00     0.146 A 
ATOM      7  O   UNL     1       3.114  -6.485  38.208  1.00  0.00    -0.285 OA
ATOM      8  C   UNL     1       4.501  -6.844  36.383  1.00  0.00     0.111 A 
ATOM      9  C   UNL     1       5.813  -6.951  34.322  1.00  0.00     0.094 A 
ATOM     10  C   UNL     1       4.315  -8.258  36.307  1.00  0.00     0.134 A 
ATOM     11  C   UNL     1       5.571  -8.322  34.225  1.00  0.00     0.123 A 
ATOM     12  C   UNL     1       4.825  -8.964  35.211  1.00  0.00     0.093 A 
BRANCH   3  13
ATOM     13  C   UNL     1       5.446  -2.684  36.343  1.00  0.00     0.025 A 
ATOM     14  C   UNL     1       6.752  -2.328  35.979  1.00  0.00     0.016 A 
ATOM     15  C   UNL     1       7.133  -0.985  35.943  1.00  0.00     0.051 A 
ATOM     16  C   UNL     1       6.225   0.024  36.281  1.00  0.00     0.157 A 
ATOM     17  C   UNL     1       4.539  -1.675  36.707  1.00  0.00     0.062 A 
ATOM     18  C   UNL     1       4.911  -0.326  36.673  1.00  0.00     0.158 A 
BRANCH  16  19
ATOM     19  O   UNL     1       6.666   1.347  36.216  1.00  0.00    -0.504 OA
ATOM     20  H   UNL     1       6.071   2.130  35.987  1.00  0.00     0.293 HD
ENDBRANCH  16  19
BRANCH  18  21
ATOM     21  O   UNL     1       3.956   0.624  37.041  1.00  0.00    -0.504 OA
ATOM     22  H   UNL     1       3.583   0.719  37.973  1.00  0.00     0.293 HD
ENDBRANCH  18  21
ENDBRANCH   3  13
BRANCH  10  23
ATOM     23  O   UNL     1       3.668  -9.013  37.290  1.00  0.00    -0.507 OA
ATOM     24  H   UNL     1       3.364  -9.968  37.172  1.00  0.00     0.293 HD
ENDBRANCH  10  23
BRANCH  11  25
ATOM     25  O   UNL     1       6.079  -9.059  33.156  1.00  0.00    -0.508 OA
ATOM     26  H   UNL     1       6.748  -8.661  32.508  1.00  0.00     0.293 HD
ENDBRANCH  11  25
ENDBRANCH   1   2
BRANCH   1  27
ATOM     27  C   UNL     1       2.298  -3.498  38.641  1.00  0.00     0.339 C 
ATOM     28  C   UNL     1       2.117  -3.795  40.144  1.00  0.00     0.214 C 
ATOM     29  O   UNL     1       1.956  -2.156  38.327  1.00  0.00    -0.332 OA
ATOM     30  C   UNL     1       0.672  -3.506  40.584  1.00  0.00     0.180 C 
ATOM     31  C   UNL     1       0.603  -1.835  38.629  1.00  0.00     0.179 C 
ATOM     32  C   UNL     1       0.239  -2.104  40.116  1.00  0.00     0.177 C 
BRANCH  28  33
ATOM     33  O   UNL     1       3.051  -3.091  40.930  1.00  0.00    -0.384 OA
ATOM     34  H   UNL     1       3.382  -2.317  40.404  1.00  0.00     0.211 HD
ENDBRANCH  28  33
BRANCH  30  35
ATOM     35  O   UNL     1       0.561  -3.585  41.982  1.00  0.00    -0.387 OA
ATOM     36  H   UNL     1       1.262  -2.990  42.360  1.00  0.00     0.211 HD
ENDBRANCH  30  35
BRANCH  31  37
ATOM     37  C   UNL     1      -0.391  -2.380  37.577  1.00  0.00     0.191 C 
BRANCH  37  38
ATOM     38  O   UNL     1      -0.752  -1.406  36.640  1.00  0.00    -0.394 OA
ATOM     39  H   UNL     1      -1.572  -1.743  36.194  1.00  0.00     0.210 HD
ENDBRANCH  37  38
ENDBRANCH  31  37
BRANCH  32  40
ATOM     40  O   UNL     1      -1.125  -1.868  40.370  1.00  0.00    -0.387 OA
ATOM     41  H   UNL     1      -1.230  -1.665  41.336  1.00  0.00     0.211 HD
ENDBRANCH  32  40
ENDBRANCH   1  27
TORSDOF 12
ENDMDL
MODEL 5
REMARK VINA RESULT:    -7.708      1.272      5.921
REMARK INTER + INTRA:         -11.378
REMARK INTER:                 -10.978
REMARK INTRA:                  -0.400
REMARK UNBOUND:                -0.064
REMARK SMILES O=c1c(O[C@@H]2O[C@@H](CO)[C@@H](O)[C@H](O)[C@@H]2O)c(-c2ccc(O)c(O)c2)oc2cc(O)cc(O)c12
REMARK SMILES IDX 4 1 3 2 16 3 25 4 2 5 26 6 1 7 33 8 27 9 31 10 28 11 30 12
REMARK SMILES IDX 17 13 18 14 19 15 20 16 24 17 22 18 21 19 23 21 32 23 29 25
REMARK SMILES IDX 5 27 14 28 6 29 12 30 7 31 10 32 15 33 13 35 8 37 9 38 11 40
REMARK H PARENT 21 20 23 22 32 24 29 26 15 34 13 36 9 39 11 41
REMARK Flexibility Score: inf
ROOT
ATOM      1  O   UNL     1       2.790  -4.547  37.536  1.00  0.00    -0.454 OA
ENDROOT
BRANCH   1   2
ATOM      2  C   UNL     1       3.824  -3.721  37.046  1.00  0.00     0.214 A 
ATOM      3  C   UNL     1       4.924  -4.344  36.427  1.00  0.00     0.180 A 
ATOM      4  O   UNL     1       5.960  -3.622  36.023  1.00  0.00    -0.452 OA
ATOM      5  C   UNL     1       3.833  -2.312  37.166  1.00  0.00     0.239 A 
ATOM      6  C   UNL     1       6.011  -2.300  36.117  1.00  0.00     0.146 A 
ATOM      7  O   UNL     1       2.893  -1.731  37.763  1.00  0.00    -0.285 OA
ATOM      8  C   UNL     1       4.923  -1.568  36.651  1.00  0.00     0.111 A 
ATOM      9  C   UNL     1       7.166  -1.646  35.680  1.00  0.00     0.094 A 
ATOM     10  C   UNL     1       5.011  -0.142  36.673  1.00  0.00     0.134 A 
ATOM     11  C   UNL     1       7.266  -0.256  35.767  1.00  0.00     0.123 A 
ATOM     12  C   UNL     1       6.194   0.484  36.263  1.00  0.00     0.093 A 
BRANCH   3  13
ATOM     13  C   UNL     1       4.984  -5.812  36.235  1.00  0.00     0.025 A 
ATOM     14  C   UNL     1       4.779  -6.661  37.331  1.00  0.00     0.016 A 
ATOM     15  C   UNL     1       4.844  -8.047  37.172  1.00  0.00     0.051 A 
ATOM     16  C   UNL     1       5.128  -8.610  35.924  1.00  0.00     0.157 A 
ATOM     17  C   UNL     1       5.294  -6.374  34.984  1.00  0.00     0.062 A 
ATOM     18  C   UNL     1       5.361  -7.762  34.816  1.00  0.00     0.158 A 
BRANCH  16  19
ATOM     19  O   UNL     1       5.170 -10.003  35.831  1.00  0.00    -0.504 OA
ATOM     20  H   UNL     1       4.391 -10.607  36.047  1.00  0.00     0.293 HD
ENDBRANCH  16  19
BRANCH  18  21
ATOM     21  O   UNL     1       5.667  -8.250  33.543  1.00  0.00    -0.504 OA
ATOM     22  H   UNL     1       4.975  -8.506  32.855  1.00  0.00     0.293 HD
ENDBRANCH  18  21
ENDBRANCH   3  13
BRANCH  10  23
ATOM     23  O   UNL     1       3.962   0.699  37.059  1.00  0.00    -0.507 OA
ATOM     24  H   UNL     1       3.119   0.390  37.519  1.00  0.00     0.293 HD
ENDBRANCH  10  23
BRANCH  11  25
ATOM     25  O   UNL     1       8.423   0.400  35.350  1.00  0.00    -0.508 OA
ATOM     26  H   UNL     1       9.169  -0.092  34.874  1.00  0.00     0.293 HD
ENDBRANCH  11  25
ENDBRANCH   1   2
BRANCH   1  27
ATOM     27  C   UNL     1       1.864  -4.268  38.585  1.00  0.00     0.339 C 
ATOM     28  C   UNL     1       0.940  -5.494  38.735  1.00  0.00     0.214 C 
ATOM     29  O   UNL     1       2.585  -4.006  39.780  1.00  0.00    -0.332 OA
ATOM     30  C   UNL     1      -0.039  -5.295  39.906  1.00  0.00     0.180 C 
ATOM     31  C   UNL     1       1.745  -3.728  40.895  1.00  0.00     0.179 C 
ATOM     32  C   UNL     1       0.721  -4.863  41.174  1.00  0.00     0.177 C 
BRANCH  28  33
ATOM     33  O   UNL     1       1.675  -6.688  38.870  1.00  0.00    -0.384 OA
ATOM     34  H   UNL     1       1.174  -7.416  38.419  1.00  0.00     0.211 HD
ENDBRANCH  28  33
BRANCH  30  35
ATOM     35  O   UNL     1      -0.740  -6.485  40.165  1.00  0.00    -0.387 OA
ATOM     36  H   UNL     1      -0.064  -7.165  40.428  1.00  0.00     0.211 HD
ENDBRANCH  30  35
BRANCH  31  37
ATOM     37  C   UNL     1       1.175  -2.290  40.872  1.00  0.00     0.191 C 
BRANCH  37  38
ATOM     38  O   UNL     1       0.631  -1.919  42.106  1.00  0.00    -0.394 OA
ATOM     39  H   UNL     1      -0.333  -2.153  42.064  1.00  0.00     0.210 HD
ENDBRANCH  37  38
ENDBRANCH  31  37
BRANCH  32  40
ATOM     40  O   UNL     1      -0.158  -4.527  42.219  1.00  0.00    -0.387 OA
ATOM     41  H   UNL     1      -0.102  -3.548  42.369  1.00  0.00     0.211 HD
ENDBRANCH  32  40
ENDBRANCH   1  27
TORSDOF 12
ENDMDL
MODEL 6
REMARK VINA RESULT:    -7.679      1.480      6.390
REMARK INTER + INTRA:         -11.334
REMARK INTER:                 -10.887
REMARK INTRA:                  -0.447
REMARK UNBOUND:                -0.064
REMARK SMILES O=c1c(O[C@@H]2O[C@@H](CO)[C@@H](O)[C@H](O)[C@@H]2O)c(-c2ccc(O)c(O)c2)oc2cc(O)cc(O)c12
REMARK SMILES IDX 4 1 3 2 16 3 25 4 2 5 26 6 1 7 33 8 27 9 31 10 28 11 30 12
REMARK SMILES IDX 17 13 18 14 19 15 20 16 24 17 22 18 21 19 23 21 32 23 29 25
REMARK SMILES IDX 5 27 14 28 6 29 12 30 7 31 10 32 15 33 13 35 8 37 9 38 11 40
REMARK H PARENT 21 20 23 22 32 24 29 26 15 34 13 36 9 39 11 41
REMARK Flexibility Score: inf
ROOT
ATOM      1  O   UNL     1       3.484  -4.622  35.800  1.00  0.00    -0.454 OA
ENDROOT
BRANCH   1   2
ATOM      2  C   UNL     1       2.842  -4.148  36.964  1.00  0.00     0.214 A 
ATOM      3  C   UNL     1       3.372  -3.002  37.585  1.00  0.00     0.180 A 
ATOM      4  O   UNL     1       2.857  -2.563  38.726  1.00  0.00    -0.452 OA
ATOM      5  C   UNL     1       1.719  -4.772  37.556  1.00  0.00     0.239 A 
ATOM      6  C   UNL     1       1.807  -3.117  39.316  1.00  0.00     0.146 A 
ATOM      7  O   UNL     1       1.258  -5.829  37.057  1.00  0.00    -0.285 OA
ATOM      8  C   UNL     1       1.149  -4.227  38.732  1.00  0.00     0.111 A 
ATOM      9  C   UNL     1       1.366  -2.583  40.530  1.00  0.00     0.094 A 
ATOM     10  C   UNL     1      -0.012  -4.746  39.383  1.00  0.00     0.134 A 
ATOM     11  C   UNL     1       0.269  -3.140  41.189  1.00  0.00     0.123 A 
ATOM     12  C   UNL     1      -0.409  -4.215  40.616  1.00  0.00     0.093 A 
BRANCH   3  13
ATOM     13  C   UNL     1       4.528  -2.269  37.019  1.00  0.00     0.025 A 
ATOM     14  C   UNL     1       5.691  -2.973  36.678  1.00  0.00     0.016 A 
ATOM     15  C   UNL     1       6.796  -2.299  36.154  1.00  0.00     0.051 A 
ATOM     16  C   UNL     1       6.767  -0.912  35.973  1.00  0.00     0.157 A 
ATOM     17  C   UNL     1       4.504  -0.872  36.862  1.00  0.00     0.062 A 
ATOM     18  C   UNL     1       5.606  -0.188  36.337  1.00  0.00     0.158 A 
BRANCH  16  19
ATOM     19  O   UNL     1       7.902  -0.299  35.437  1.00  0.00    -0.504 OA
ATOM     20  H   UNL     1       8.847  -0.513  35.722  1.00  0.00     0.293 HD
ENDBRANCH  16  19
BRANCH  18  21
ATOM     21  O   UNL     1       5.510   1.198  36.202  1.00  0.00    -0.504 OA
ATOM     22  H   UNL     1       4.790   1.666  35.672  1.00  0.00     0.293 HD
ENDBRANCH  18  21
ENDBRANCH   3  13
BRANCH  10  23
ATOM     23  O   UNL     1      -0.820  -5.755  38.850  1.00  0.00    -0.507 OA
ATOM     24  H   UNL     1      -1.395  -5.656  38.027  1.00  0.00     0.293 HD
ENDBRANCH  10  23
BRANCH  11  25
ATOM     25  O   UNL     1      -0.164  -2.624  42.409  1.00  0.00    -0.508 OA
ATOM     26  H   UNL     1      -0.372  -3.227  43.196  1.00  0.00     0.293 HD
ENDBRANCH  11  25
ENDBRANCH   1   2
BRANCH   1  27
ATOM     27  C   UNL     1       4.109  -5.888  35.594  1.00  0.00     0.339 C 
ATOM     28  C   UNL     1       4.733  -5.880  34.183  1.00  0.00     0.214 C 
ATOM     29  O   UNL     1       5.091  -6.088  36.599  1.00  0.00    -0.332 OA
ATOM     30  C   UNL     1       5.494  -7.191  33.918  1.00  0.00     0.180 C 
ATOM     31  C   UNL     1       5.784  -7.325  36.471  1.00  0.00     0.179 C 
ATOM     32  C   UNL     1       6.458  -7.495  35.081  1.00  0.00     0.177 C 
BRANCH  28  33
ATOM     33  O   UNL     1       5.554  -4.753  33.982  1.00  0.00    -0.384 OA
ATOM     34  H   UNL     1       5.290  -4.054  34.635  1.00  0.00     0.211 HD
ENDBRANCH  28  33
BRANCH  30  35
ATOM     35  O   UNL     1       6.223  -7.101  32.721  1.00  0.00    -0.387 OA
ATOM     36  H   UNL     1       7.182  -7.203  32.960  1.00  0.00     0.211 HD
ENDBRANCH  30  35
BRANCH  31  37
ATOM     37  C   UNL     1       4.957  -8.530  36.978  1.00  0.00     0.191 C 
BRANCH  37  38
ATOM     38  O   UNL     1       4.279  -8.240  38.167  1.00  0.00    -0.394 OA
ATOM     39  H   UNL     1       4.832  -7.567  38.643  1.00  0.00     0.210 HD
ENDBRANCH  37  38
ENDBRANCH  31  37
BRANCH  32  40
ATOM     40  O   UNL     1       7.057  -8.761  34.943  1.00  0.00    -0.387 OA
ATOM     41  H   UNL     1       6.843  -9.295  35.752  1.00  0.00     0.211 HD
ENDBRANCH  32  40
ENDBRANCH   1  27
TORSDOF 12
ENDMDL
MODEL 7
REMARK VINA RESULT:    -7.307      2.337      6.999
REMARK INTER + INTRA:         -10.789
REMARK INTER:                  -9.629
REMARK INTRA:                  -1.160
REMARK UNBOUND:                -0.064
REMARK SMILES O=c1c(O[C@@H]2O[C@@H](CO)[C@@H](O)[C@H](O)[C@@H]2O)c(-c2ccc(O)c(O)c2)oc2cc(O)cc(O)c12
REMARK SMILES IDX 4 1 3 2 16 3 25 4 2 5 26 6 1 7 33 8 27 9 31 10 28 11 30 12
REMARK SMILES IDX 17 13 18 14 19 15 20 16 24 17 22 18 21 19 23 21 32 23 29 25
REMARK SMILES IDX 5 27 14 28 6 29 12 30 7 31 10 32 15 33 13 35 8 37 9 38 11 40
REMARK H PARENT 21 20 23 22 32 24 29 26 15 34 13 36 9 39 11 41
REMARK Flexibility Score: inf
ROOT
ATOM      1  O   UNL     1       2.009  -6.251  36.895  1.00  0.00    -0.454 OA
ENDROOT
BRANCH   1   2
ATOM      2  C   UNL     1       2.150  -5.104  37.704  1.00  0.00     0.214 A 
ATOM      3  C   UNL     1       3.099  -4.139  37.317  1.00  0.00     0.180 A 
ATOM      4  O   UNL     1       3.329  -3.082  38.085  1.00  0.00    -0.452 OA
ATOM      5  C   UNL     1       1.416  -4.881  38.893  1.00  0.00     0.239 A 
ATOM      6  C   UNL     1       2.666  -2.835  39.206  1.00  0.00     0.146 A 
ATOM      7  O   UNL     1       0.603  -5.749  39.295  1.00  0.00    -0.285 OA
ATOM      8  C   UNL     1       1.635  -3.701  39.646  1.00  0.00     0.111 A 
ATOM      9  C   UNL     1       3.012  -1.702  39.947  1.00  0.00     0.094 A 
ATOM     10  C   UNL     1       0.916  -3.352  40.830  1.00  0.00     0.134 A 
ATOM     11  C   UNL     1       2.344  -1.407  41.137  1.00  0.00     0.123 A 
ATOM     12  C   UNL     1       1.308  -2.231  41.572  1.00  0.00     0.093 A 
BRANCH   3  13
ATOM     13  C   UNL     1       3.892  -4.278  36.073  1.00  0.00     0.025 A 
ATOM     14  C   UNL     1       5.289  -4.196  36.132  1.00  0.00     0.016 A 
ATOM     15  C   UNL     1       6.053  -4.313  34.969  1.00  0.00     0.051 A 
ATOM     16  C   UNL     1       5.438  -4.500  33.726  1.00  0.00     0.157 A 
ATOM     17  C   UNL     1       3.269  -4.442  34.823  1.00  0.00     0.062 A 
ATOM     18  C   UNL     1       4.026  -4.561  33.652  1.00  0.00     0.158 A 
BRANCH  16  19
ATOM     19  O   UNL     1       6.259  -4.618  32.603  1.00  0.00    -0.504 OA
ATOM     20  H   UNL     1       6.988  -5.310  32.506  1.00  0.00     0.293 HD
ENDBRANCH  16  19
BRANCH  18  21
ATOM     21  O   UNL     1       3.342  -4.728  32.447  1.00  0.00    -0.504 OA
ATOM     22  H   UNL     1       2.452  -5.196  32.362  1.00  0.00     0.293 HD
ENDBRANCH  18  21
ENDBRANCH   3  13
BRANCH  10  23
ATOM     23  O   UNL     1      -0.199  -4.052  41.301  1.00  0.00    -0.507 OA
ATOM     24  H   UNL     1      -0.617  -4.845  40.837  1.00  0.00     0.293 HD
ENDBRANCH  10  23
BRANCH  11  25
ATOM     25  O   UNL     1       2.697  -0.288  41.891  1.00  0.00    -0.508 OA
ATOM     26  H   UNL     1       3.129   0.523  41.465  1.00  0.00     0.293 HD
ENDBRANCH  11  25
ENDBRANCH   1   2
BRANCH   1  27
ATOM     27  C   UNL     1       2.702  -7.494  37.004  1.00  0.00     0.339 C 
ATOM     28  C   UNL     1       1.650  -8.600  37.228  1.00  0.00     0.214 C 
ATOM     29  O   UNL     1       3.447  -7.714  35.815  1.00  0.00    -0.332 OA
ATOM     30  C   UNL     1       2.320  -9.984  37.278  1.00  0.00     0.180 C 
ATOM     31  C   UNL     1       4.166  -8.942  35.820  1.00  0.00     0.179 C 
ATOM     32  C   UNL     1       3.250 -10.173  36.065  1.00  0.00     0.177 C 
BRANCH  28  33
ATOM     33  O   UNL     1       0.628  -8.552  36.260  1.00  0.00    -0.384 OA
ATOM     34  H   UNL     1      -0.246  -8.629  36.725  1.00  0.00     0.211 HD
ENDBRANCH  28  33
BRANCH  30  35
ATOM     35  O   UNL     1       1.349 -10.999  37.282  1.00  0.00    -0.387 OA
ATOM     36  H   UNL     1       0.463 -10.548  37.305  1.00  0.00     0.211 HD
ENDBRANCH  30  35
BRANCH  31  37
ATOM     37  C   UNL     1       5.457  -8.876  36.669  1.00  0.00     0.191 C 
BRANCH  37  38
ATOM     38  O   UNL     1       6.446  -9.743  36.192  1.00  0.00    -0.394 OA
ATOM     39  H   UNL     1       6.645 -10.371  36.934  1.00  0.00     0.210 HD
ENDBRANCH  37  38
ENDBRANCH  31  37
BRANCH  32  40
ATOM     40  O   UNL     1       3.993 -11.365  36.158  1.00  0.00    -0.387 OA
ATOM     41  H   UNL     1       4.957 -11.130  36.161  1.00  0.00     0.211 HD
ENDBRANCH  32  40
ENDBRANCH   1  27
TORSDOF 12
ENDMDL
MODEL 8
REMARK VINA RESULT:    -7.186      1.639      6.653
REMARK INTER + INTRA:         -10.612
REMARK INTER:                  -9.391
REMARK INTRA:                  -1.221
REMARK UNBOUND:                -0.064
REMARK SMILES O=c1c(O[C@@H]2O[C@@H](CO)[C@@H](O)[C@H](O)[C@@H]2O)c(-c2ccc(O)c(O)c2)oc2cc(O)cc(O)c12
REMARK SMILES IDX 4 1 3 2 16 3 25 4 2 5 26 6 1 7 33 8 27 9 31 10 28 11 30 12
REMARK SMILES IDX 17 13 18 14 19 15 20 16 24 17 22 18 21 19 23 21 32 23 29 25
REMARK SMILES IDX 5 27 14 28 6 29 12 30 7 31 10 32 15 33 13 35 8 37 9 38 11 40
REMARK H PARENT 21 20 23 22 32 24 29 26 15 34 13 36 9 39 11 41
REMARK Flexibility Score: inf
ROOT
ATOM      1  O   UNL     1       2.592  -4.836  36.829  1.00  0.00    -0.454 OA
ENDROOT
BRANCH   1   2
ATOM      2  C   UNL     1       3.476  -3.740  36.759  1.00  0.00     0.214 A 
ATOM      3  C   UNL     1       3.230  -2.642  37.606  1.00  0.00     0.180 A 
ATOM      4  O   UNL     1       3.981  -1.553  37.523  1.00  0.00    -0.452 OA
ATOM      5  C   UNL     1       4.576  -3.666  35.873  1.00  0.00     0.239 A 
ATOM      6  C   UNL     1       5.020  -1.440  36.706  1.00  0.00     0.146 A 
ATOM      7  O   UNL     1       4.790  -4.605  35.066  1.00  0.00    -0.285 OA
ATOM      8  C   UNL     1       5.404  -2.517  35.869  1.00  0.00     0.111 A 
ATOM      9  C   UNL     1       5.724  -0.234  36.687  1.00  0.00     0.094 A 
ATOM     10  C   UNL     1       6.565  -2.359  35.053  1.00  0.00     0.134 A 
ATOM     11  C   UNL     1       6.820  -0.070  35.838  1.00  0.00     0.123 A 
ATOM     12  C   UNL     1       7.230  -1.127  35.027  1.00  0.00     0.093 A 
BRANCH   3  13
ATOM     13  C   UNL     1       2.117  -2.645  38.584  1.00  0.00     0.025 A 
ATOM     14  C   UNL     1       0.926  -1.972  38.278  1.00  0.00     0.016 A 
ATOM     15  C   UNL     1      -0.129  -1.953  39.192  1.00  0.00     0.051 A 
ATOM     16  C   UNL     1      -0.012  -2.592  40.432  1.00  0.00     0.157 A 
ATOM     17  C   UNL     1       2.247  -3.267  39.838  1.00  0.00     0.062 A 
ATOM     18  C   UNL     1       1.195  -3.254  40.761  1.00  0.00     0.158 A 
BRANCH  16  19
ATOM     19  O   UNL     1      -1.107  -2.543  41.297  1.00  0.00    -0.504 OA
ATOM     20  H   UNL     1      -1.367  -3.293  41.921  1.00  0.00     0.293 HD
ENDBRANCH  16  19
BRANCH  18  21
ATOM     21  O   UNL     1       1.391  -3.898  41.984  1.00  0.00    -0.504 OA
ATOM     22  H   UNL     1       2.298  -4.105  42.375  1.00  0.00     0.293 HD
ENDBRANCH  18  21
ENDBRANCH   3  13
BRANCH  10  23
ATOM     23  O   UNL     1       7.119  -3.383  34.277  1.00  0.00    -0.507 OA
ATOM     24  H   UNL     1       6.647  -3.845  33.515  1.00  0.00     0.293 HD
ENDBRANCH  10  23
BRANCH  11  25
ATOM     25  O   UNL     1       7.516   1.137  35.800  1.00  0.00    -0.508 OA
ATOM     26  H   UNL     1       7.043   2.016  35.626  1.00  0.00     0.293 HD
ENDBRANCH  11  25
ENDBRANCH   1   2
BRANCH   1  27
ATOM     27  C   UNL     1       2.891  -6.186  37.184  1.00  0.00     0.339 C 
ATOM     28  C   UNL     1       1.761  -6.691  38.104  1.00  0.00     0.214 C 
ATOM     29  O   UNL     1       2.990  -6.965  36.000  1.00  0.00    -0.332 OA
ATOM     30  C   UNL     1       1.977  -8.171  38.466  1.00  0.00     0.180 C 
ATOM     31  C   UNL     1       3.274  -8.336  36.251  1.00  0.00     0.179 C 
ATOM     32  C   UNL     1       2.235  -9.002  37.195  1.00  0.00     0.177 C 
BRANCH  28  33
ATOM     33  O   UNL     1       0.490  -6.476  37.536  1.00  0.00    -0.384 OA
ATOM     34  H   UNL     1      -0.067  -7.280  37.703  1.00  0.00     0.211 HD
ENDBRANCH  28  33
BRANCH  30  35
ATOM     35  O   UNL     1       0.852  -8.681  39.135  1.00  0.00    -0.387 OA
ATOM     36  H   UNL     1       0.583  -9.508  38.655  1.00  0.00     0.211 HD
ENDBRANCH  30  35
BRANCH  31  37
ATOM     37  C   UNL     1       4.762  -8.587  36.592  1.00  0.00     0.191 C 
BRANCH  37  38
ATOM     38  O   UNL     1       5.097  -9.944  36.521  1.00  0.00    -0.394 OA
ATOM     39  H   UNL     1       4.810 -10.344  37.383  1.00  0.00     0.210 HD
ENDBRANCH  37  38
ENDBRANCH  31  37
BRANCH  32  40
ATOM     40  O   UNL     1       2.586 -10.329  37.503  1.00  0.00    -0.387 OA
ATOM     41  H   UNL     1       3.192 -10.316  38.289  1.00  0.00     0.211 HD
ENDBRANCH  32  40
ENDBRANCH   1  27
TORSDOF 12
ENDMDL
MODEL 9
REMARK VINA RESULT:    -7.138      2.600      6.928
REMARK INTER + INTRA:         -10.541
REMARK INTER:                  -8.933
REMARK INTRA:                  -1.608
REMARK UNBOUND:                -0.064
REMARK SMILES O=c1c(O[C@@H]2O[C@@H](CO)[C@@H](O)[C@H](O)[C@@H]2O)c(-c2ccc(O)c(O)c2)oc2cc(O)cc(O)c12
REMARK SMILES IDX 4 1 3 2 16 3 25 4 2 5 26 6 1 7 33 8 27 9 31 10 28 11 30 12
REMARK SMILES IDX 17 13 18 14 19 15 20 16 24 17 22 18 21 19 23 21 32 23 29 25
REMARK SMILES IDX 5 27 14 28 6 29 12 30 7 31 10 32 15 33 13 35 8 37 9 38 11 40
REMARK H PARENT 21 20 23 22 32 24 29 26 15 34 13 36 9 39 11 41
REMARK Flexibility Score: inf
ROOT
ATOM      1  O   UNL     1       1.470  -5.873  36.308  1.00  0.00    -0.454 OA
ENDROOT
BRANCH   1   2
ATOM      2  C   UNL     1       1.752  -4.872  37.261  1.00  0.00     0.214 A 
ATOM      3  C   UNL     1       3.040  -4.303  37.255  1.00  0.00     0.180 A 
ATOM      4  O   UNL     1       3.383  -3.418  38.181  1.00  0.00    -0.452 OA
ATOM      5  C   UNL     1       0.830  -4.429  38.238  1.00  0.00     0.239 A 
ATOM      6  C   UNL     1       2.552  -2.976  39.115  1.00  0.00     0.146 A 
ATOM      7  O   UNL     1      -0.308  -4.957  38.305  1.00  0.00    -0.285 OA
ATOM      8  C   UNL     1       1.209  -3.424  39.162  1.00  0.00     0.111 A 
ATOM      9  C   UNL     1       3.032  -2.061  40.055  1.00  0.00     0.094 A 
ATOM     10  C   UNL     1       0.344  -2.870  40.154  1.00  0.00     0.134 A 
ATOM     11  C   UNL     1       2.193  -1.575  41.059  1.00  0.00     0.123 A 
ATOM     12  C   UNL     1       0.861  -1.982  41.104  1.00  0.00     0.093 A 
BRANCH   3  13
ATOM     13  C   UNL     1       4.059  -4.688  36.251  1.00  0.00     0.025 A 
ATOM     14  C   UNL     1       4.031  -4.101  34.979  1.00  0.00     0.016 A 
ATOM     15  C   UNL     1       4.976  -4.460  34.015  1.00  0.00     0.051 A 
ATOM     16  C   UNL     1       5.956  -5.418  34.297  1.00  0.00     0.157 A 
ATOM     17  C   UNL     1       5.027  -5.669  36.530  1.00  0.00     0.062 A 
ATOM     18  C   UNL     1       5.978  -6.034  35.570  1.00  0.00     0.158 A 
BRANCH  16  19
ATOM     19  O   UNL     1       6.876  -5.725  33.292  1.00  0.00    -0.504 OA
ATOM     20  H   UNL     1       6.622  -6.096  32.388  1.00  0.00     0.293 HD
ENDBRANCH  16  19
BRANCH  18  21
ATOM     21  O   UNL     1       6.914  -7.010  35.918  1.00  0.00    -0.504 OA
ATOM     22  H   UNL     1       7.912  -6.858  35.932  1.00  0.00     0.293 HD
ENDBRANCH  18  21
ENDBRANCH   3  13
BRANCH  10  23
ATOM     23  O   UNL     1      -1.028  -3.135  40.229  1.00  0.00    -0.507 OA
ATOM     24  H   UNL     1      -1.602  -3.412  39.448  1.00  0.00     0.293 HD
ENDBRANCH  10  23
BRANCH  11  25
ATOM     25  O   UNL     1       2.672  -0.675  42.011  1.00  0.00    -0.508 OA
ATOM     26  H   UNL     1       2.067   0.015  42.438  1.00  0.00     0.293 HD
ENDBRANCH  11  25
ENDBRANCH   1   2
BRANCH   1  27
ATOM     27  C   UNL     1       1.417  -7.285  36.504  1.00  0.00     0.339 C 
ATOM     28  C   UNL     1       1.693  -7.960  35.144  1.00  0.00     0.214 C 
ATOM     29  O   UNL     1       2.383  -7.654  37.477  1.00  0.00    -0.332 OA
ATOM     30  C   UNL     1       1.728  -9.491  35.295  1.00  0.00     0.180 C 
ATOM     31  C   UNL     1       2.417  -9.053  37.734  1.00  0.00     0.179 C 
ATOM     32  C   UNL     1       2.662  -9.895  36.451  1.00  0.00     0.177 C 
BRANCH  28  33
ATOM     33  O   UNL     1       2.872  -7.469  34.549  1.00  0.00    -0.384 OA
ATOM     34  H   UNL     1       3.427  -7.049  35.256  1.00  0.00     0.211 HD
ENDBRANCH  28  33
BRANCH  30  35
ATOM     35  O   UNL     1       2.173 -10.090  34.105  1.00  0.00    -0.387 OA
ATOM     36  H   UNL     1       2.310 -11.054  34.303  1.00  0.00     0.211 HD
ENDBRANCH  30  35
BRANCH  31  37
ATOM     37  C   UNL     1       1.258  -9.523  38.644  1.00  0.00     0.191 C 
BRANCH  37  38
ATOM     38  O   UNL     1       1.553 -10.726  39.294  1.00  0.00    -0.394 OA
ATOM     39  H   UNL     1       1.505 -11.434  38.600  1.00  0.00     0.210 HD
ENDBRANCH  37  38
ENDBRANCH  31  37
BRANCH  32  40
ATOM     40  O   UNL     1       2.599 -11.275  36.713  1.00  0.00    -0.387 OA
ATOM     41  H   UNL     1       1.732 -11.468  37.154  1.00  0.00     0.211 HD
ENDBRANCH  32  40
ENDBRANCH   1  27
TORSDOF 12
ENDMDL
