MODEL 1
REMARK VINA RESULT:    -5.061      0.000      0.000
REMARK INTER + INTRA:          -5.357
REMARK INTER:                  -5.357
REMARK INTRA:                   0.000
REMARK UNBOUND:                 0.000
REMARK SMILES O=c1ccc2cc(O)c(O)cc2o1
REMARK SMILES IDX 4 1 3 2 2 3 1 4 13 5 12 6 11 7 9 8 7 9 6 10 5 11 8 12 10 14
REMARK H PARENT 8 13 10 15
REMARK Flexibility Score: inf
ROOT
ATOM      1  C   UNL     1      34.923 -32.942   9.767  1.00  0.00     0.019 A 
ATOM      2  C   UNL     1      35.690 -33.125   8.617  1.00  0.00     0.094 A 
ATOM      3  C   UNL     1      36.421 -32.045   8.111  1.00  0.00     0.336 A 
ATOM      4  O   UNL     1      37.120 -32.188   7.074  1.00  0.00    -0.246 OA
ATOM      5  O   UNL     1      36.383 -30.861   8.720  1.00  0.00    -0.423 OA
ATOM      6  C   UNL     1      35.664 -30.646   9.819  1.00  0.00     0.142 A 
ATOM      7  C   UNL     1      35.663 -29.381  10.416  1.00  0.00     0.098 A 
ATOM      8  C   UNL     1      34.907 -29.147  11.574  1.00  0.00     0.161 A 
ATOM      9  C   UNL     1      34.149 -30.184  12.139  1.00  0.00     0.158 A 
ATOM     10  C   UNL     1      34.146 -31.455  11.544  1.00  0.00     0.062 A 
ATOM     11  C   UNL     1      34.902 -31.689  10.386  1.00  0.00     0.022 A 
ENDROOT
BRANCH   9  12
ATOM     12  O   UNL     1      33.401 -29.944  13.289  1.00  0.00    -0.504 OA
ATOM     13  H   UNL     1      33.628 -29.184  13.920  1.00  0.00     0.293 HD
ENDBRANCH   9  12
BRANCH   8  14
ATOM     14  O   UNL     1      34.904 -27.888  12.172  1.00  0.00    -0.504 OA
ATOM     15  H   UNL     1      35.002 -27.776  13.174  1.00  0.00     0.293 HD
ENDBRANCH   8  14
TORSDOF 2
ENDMDL
MODEL 2
REMARK VINA RESULT:    -4.398      2.019      2.065
REMARK INTER + INTRA:          -4.655
REMARK INTER:                  -4.655
REMARK INTRA:                   0.000
REMARK UNBOUND:                 0.000
REMARK SMILES O=c1ccc2cc(O)c(O)cc2o1
REMARK SMILES IDX 4 1 3 2 2 3 1 4 13 5 12 6 11 7 9 8 7 9 6 10 5 11 8 12 10 14
REMARK H PARENT 8 13 10 15
REMARK Flexibility Score: inf
ROOT
ATOM      1  C   UNL     1      36.419 -32.909   9.899  1.00  0.00     0.019 A 
ATOM      2  C   UNL     1      37.801 -33.085   9.843  1.00  0.00     0.094 A 
ATOM      3  C   UNL     1      38.635 -32.014  10.181  1.00  0.00     0.336 A 
ATOM      4  O   UNL     1      39.886 -32.152  10.136  1.00  0.00    -0.246 OA
ATOM      5  O   UNL     1      38.115 -30.846  10.552  1.00  0.00    -0.423 OA
ATOM      6  C   UNL     1      36.803 -30.636  10.618  1.00  0.00     0.142 A 
ATOM      7  C   UNL     1      36.314 -29.387  11.014  1.00  0.00     0.098 A 
ATOM      8  C   UNL     1      34.931 -29.161  11.086  1.00  0.00     0.161 A 
ATOM      9  C   UNL     1      34.033 -30.189  10.761  1.00  0.00     0.158 A 
ATOM     10  C   UNL     1      34.519 -31.444  10.363  1.00  0.00     0.062 A 
ATOM     11  C   UNL     1      35.900 -31.671  10.291  1.00  0.00     0.022 A 
ENDROOT
BRANCH   9  12
ATOM     12  O   UNL     1      32.662 -29.955  10.836  1.00  0.00    -0.504 OA
ATOM     13  H   UNL     1      32.010 -30.425  10.218  1.00  0.00     0.293 HD
ENDBRANCH   9  12
BRANCH   8  14
ATOM     14  O   UNL     1      34.441 -27.917  11.481  1.00  0.00    -0.504 OA
ATOM     15  H   UNL     1      35.000 -27.279  12.035  1.00  0.00     0.293 HD
ENDBRANCH   8  14
TORSDOF 2
ENDMDL
MODEL 3
REMARK VINA RESULT:    -4.217      1.552      2.297
REMARK INTER + INTRA:          -4.464
REMARK INTER:                  -4.464
REMARK INTRA:                   0.000
REMARK UNBOUND:                 0.000
REMARK SMILES O=c1ccc2cc(O)c(O)cc2o1
REMARK SMILES IDX 4 1 3 2 2 3 1 4 13 5 12 6 11 7 9 8 7 9 6 10 5 11 8 12 10 14
REMARK H PARENT 8 13 10 15
REMARK Flexibility Score: inf
ROOT
ATOM      1  C   UNL     1      36.819 -30.914   9.298  1.00  0.00     0.019 A 
ATOM      2  C   UNL     1      36.292 -31.926   8.496  1.00  0.00     0.094 A 
ATOM      3  C   UNL     1      34.924 -32.207   8.571  1.00  0.00     0.336 A 
ATOM      4  O   UNL     1      34.429 -33.117   7.855  1.00  0.00    -0.246 OA
ATOM      5  O   UNL     1      34.138 -31.517   9.395  1.00  0.00    -0.423 OA
ATOM      6  C   UNL     1      34.601 -30.545  10.177  1.00  0.00     0.142 A 
ATOM      7  C   UNL     1      33.728 -29.855  11.024  1.00  0.00     0.098 A 
ATOM      8  C   UNL     1      34.211 -28.828  11.850  1.00  0.00     0.161 A 
ATOM      9  C   UNL     1      35.572 -28.491  11.829  1.00  0.00     0.158 A 
ATOM     10  C   UNL     1      36.453 -29.180  10.981  1.00  0.00     0.062 A 
ATOM     11  C   UNL     1      35.971 -30.206  10.155  1.00  0.00     0.022 A 
ENDROOT
BRANCH   9  12
ATOM     12  O   UNL     1      36.042 -27.470  12.652  1.00  0.00    -0.504 OA
ATOM     13  H   UNL     1      36.077 -26.508  12.337  1.00  0.00     0.293 HD
ENDBRANCH   9  12
BRANCH   8  14
ATOM     14  O   UNL     1      33.343 -28.138  12.695  1.00  0.00    -0.504 OA
ATOM     15  H   UNL     1      32.401 -28.467  12.871  1.00  0.00     0.293 HD
ENDBRANCH   8  14
TORSDOF 2
ENDMDL
MODEL 4
REMARK VINA RESULT:    -4.183      1.663      4.551
REMARK INTER + INTRA:          -4.427
REMARK INTER:                  -4.427
REMARK INTRA:                   0.000
REMARK UNBOUND:                 0.000
REMARK SMILES O=c1ccc2cc(O)c(O)cc2o1
REMARK SMILES IDX 4 1 3 2 2 3 1 4 13 5 12 6 11 7 9 8 7 9 6 10 5 11 8 12 10 14
REMARK H PARENT 8 13 10 15
REMARK Flexibility Score: inf
ROOT
ATOM      1  C   UNL     1      33.891 -29.347  11.401  1.00  0.00     0.019 A 
ATOM      2  C   UNL     1      34.480 -28.304  12.116  1.00  0.00     0.094 A 
ATOM      3  C   UNL     1      35.861 -28.105  12.010  1.00  0.00     0.336 A 
ATOM      4  O   UNL     1      36.412 -27.169  12.647  1.00  0.00    -0.246 OA
ATOM      5  O   UNL     1      36.599 -28.899  11.238  1.00  0.00    -0.423 OA
ATOM      6  C   UNL     1      36.076 -29.905  10.540  1.00  0.00     0.142 A 
ATOM      7  C   UNL     1      36.902 -30.707   9.745  1.00  0.00     0.098 A 
ATOM      8  C   UNL     1      36.356 -31.768   9.007  1.00  0.00     0.161 A 
ATOM      9  C   UNL     1      34.979 -32.028   9.065  1.00  0.00     0.158 A 
ATOM     10  C   UNL     1      34.146 -31.227   9.861  1.00  0.00     0.062 A 
ATOM     11  C   UNL     1      34.691 -30.166  10.598  1.00  0.00     0.022 A 
ENDROOT
BRANCH   9  12
ATOM     12  O   UNL     1      34.446 -33.084   8.329  1.00  0.00    -0.504 OA
ATOM     13  H   UNL     1      33.534 -33.472   8.542  1.00  0.00     0.293 HD
ENDBRANCH   9  12
BRANCH   8  14
ATOM     14  O   UNL     1      37.177 -32.569   8.214  1.00  0.00    -0.504 OA
ATOM     15  H   UNL     1      37.947 -32.178   7.686  1.00  0.00     0.293 HD
ENDBRANCH   8  14
TORSDOF 2
ENDMDL
MODEL 5
REMARK VINA RESULT:    -4.143      1.756      2.531
REMARK INTER + INTRA:          -4.386
REMARK INTER:                  -4.386
REMARK INTRA:                   0.000
REMARK UNBOUND:                 0.000
REMARK SMILES O=c1ccc2cc(O)c(O)cc2o1
REMARK SMILES IDX 4 1 3 2 2 3 1 4 13 5 12 6 11 7 9 8 7 9 6 10 5 11 8 12 10 14
REMARK H PARENT 8 13 10 15
REMARK Flexibility Score: inf
ROOT
ATOM      1  C   UNL     1      37.847 -30.201  10.784  1.00  0.00     0.019 A 
ATOM      2  C   UNL     1      38.483 -31.239  10.103  1.00  0.00     0.094 A 
ATOM      3  C   UNL     1      37.704 -32.180   9.422  1.00  0.00     0.336 A 
ATOM      4  O   UNL     1      38.259 -33.124   8.802  1.00  0.00    -0.246 OA
ATOM      5  O   UNL     1      36.376 -32.084   9.424  1.00  0.00    -0.423 OA
ATOM      6  C   UNL     1      35.731 -31.110  10.061  1.00  0.00     0.142 A 
ATOM      7  C   UNL     1      34.334 -31.060  10.027  1.00  0.00     0.098 A 
ATOM      8  C   UNL     1      33.647 -30.035  10.697  1.00  0.00     0.161 A 
ATOM      9  C   UNL     1      34.362 -29.056  11.402  1.00  0.00     0.158 A 
ATOM     10  C   UNL     1      35.765 -29.101  11.438  1.00  0.00     0.062 A 
ATOM     11  C   UNL     1      36.451 -30.125  10.769  1.00  0.00     0.022 A 
ENDROOT
BRANCH   9  12
ATOM     12  O   UNL     1      33.674 -28.042  12.063  1.00  0.00    -0.504 OA
ATOM     13  H   UNL     1      33.456 -28.106  13.051  1.00  0.00     0.293 HD
ENDBRANCH   9  12
BRANCH   8  14
ATOM     14  O   UNL     1      32.255 -29.983  10.665  1.00  0.00    -0.504 OA
ATOM     15  H   UNL     1      31.761 -29.389  10.011  1.00  0.00     0.293 HD
ENDBRANCH   8  14
TORSDOF 2
ENDMDL
MODEL 6
REMARK VINA RESULT:    -4.066      1.468      4.929
REMARK INTER + INTRA:          -4.304
REMARK INTER:                  -4.304
REMARK INTRA:                   0.000
REMARK UNBOUND:                 0.000
REMARK SMILES O=c1ccc2cc(O)c(O)cc2o1
REMARK SMILES IDX 4 1 3 2 2 3 1 4 13 5 12 6 11 7 9 8 7 9 6 10 5 11 8 12 10 14
REMARK H PARENT 8 13 10 15
REMARK Flexibility Score: inf
ROOT
ATOM      1  C   UNL     1      36.488 -29.011  11.175  1.00  0.00     0.019 A 
ATOM      2  C   UNL     1      35.574 -28.253  11.906  1.00  0.00     0.094 A 
ATOM      3  C   UNL     1      34.211 -28.547  11.800  1.00  0.00     0.336 A 
ATOM      4  O   UNL     1      33.369 -27.874  12.451  1.00  0.00    -0.246 OA
ATOM      5  O   UNL     1      33.794 -29.536  11.013  1.00  0.00    -0.423 OA
ATOM      6  C   UNL     1      34.633 -30.283  10.299  1.00  0.00     0.142 A 
ATOM      7  C   UNL     1      34.138 -31.310   9.489  1.00  0.00     0.098 A 
ATOM      8  C   UNL     1      35.018 -32.101   8.734  1.00  0.00     0.161 A 
ATOM      9  C   UNL     1      36.399 -31.864   8.791  1.00  0.00     0.158 A 
ATOM     10  C   UNL     1      36.902 -30.834   9.602  1.00  0.00     0.062 A 
ATOM     11  C   UNL     1      36.023 -30.044  10.356  1.00  0.00     0.022 A 
ENDROOT
BRANCH   9  12
ATOM     12  O   UNL     1      37.265 -32.653   8.038  1.00  0.00    -0.504 OA
ATOM     13  H   UNL     1      38.257 -32.451   7.986  1.00  0.00     0.293 HD
ENDBRANCH   9  12
BRANCH   8  14
ATOM     14  O   UNL     1      34.527 -33.125   7.925  1.00  0.00    -0.504 OA
ATOM     15  H   UNL     1      33.803 -33.755   8.250  1.00  0.00     0.293 HD
ENDBRANCH   8  14
TORSDOF 2
ENDMDL
MODEL 7
REMARK VINA RESULT:    -3.775      2.413      3.244
REMARK INTER + INTRA:          -3.996
REMARK INTER:                  -3.996
REMARK INTRA:                   0.000
REMARK UNBOUND:                 0.000
REMARK SMILES O=c1ccc2cc(O)c(O)cc2o1
REMARK SMILES IDX 4 1 3 2 2 3 1 4 13 5 12 6 11 7 9 8 7 9 6 10 5 11 8 12 10 14
REMARK H PARENT 8 13 10 15
REMARK Flexibility Score: inf
ROOT
ATOM      1  C   UNL     1      34.516 -33.125   6.683  1.00  0.00     0.019 A 
ATOM      2  C   UNL     1      35.033 -33.079   5.388  1.00  0.00     0.094 A 
ATOM      3  C   UNL     1      36.306 -32.535   5.186  1.00  0.00     0.336 A 
ATOM      4  O   UNL     1      36.791 -32.485   4.026  1.00  0.00    -0.246 OA
ATOM      5  O   UNL     1      37.011 -32.069   6.215  1.00  0.00    -0.423 OA
ATOM      6  C   UNL     1      36.553 -32.094   7.464  1.00  0.00     0.142 A 
ATOM      7  C   UNL     1      37.339 -31.589   8.505  1.00  0.00     0.098 A 
ATOM      8  C   UNL     1      36.862 -31.613   9.825  1.00  0.00     0.161 A 
ATOM      9  C   UNL     1      35.594 -32.143  10.104  1.00  0.00     0.158 A 
ATOM     10  C   UNL     1      34.801 -32.651   9.063  1.00  0.00     0.062 A 
ATOM     11  C   UNL     1      35.278 -32.628   7.744  1.00  0.00     0.022 A 
ENDROOT
BRANCH   9  12
ATOM     12  O   UNL     1      35.129 -32.163  11.417  1.00  0.00    -0.504 OA
ATOM     13  H   UNL     1      35.612 -32.678  12.143  1.00  0.00     0.293 HD
ENDBRANCH   9  12
BRANCH   8  14
ATOM     14  O   UNL     1      37.644 -31.111  10.865  1.00  0.00    -0.504 OA
ATOM     15  H   UNL     1      38.588 -30.780  10.706  1.00  0.00     0.293 HD
ENDBRANCH   8  14
TORSDOF 2
ENDMDL
MODEL 8
REMARK VINA RESULT:    -3.478     19.993     21.421
REMARK INTER + INTRA:          -3.681
REMARK INTER:                  -3.681
REMARK INTRA:                   0.000
REMARK UNBOUND:                 0.000
REMARK SMILES O=c1ccc2cc(O)c(O)cc2o1
REMARK SMILES IDX 4 1 3 2 2 3 1 4 13 5 12 6 11 7 9 8 7 9 6 10 5 11 8 12 10 14
REMARK H PARENT 8 13 10 15
REMARK Flexibility Score: inf
ROOT
ATOM      1  C   UNL     1      20.708 -13.840   4.587  1.00  0.00     0.019 A 
ATOM      2  C   UNL     1      20.123 -14.796   3.757  1.00  0.00     0.094 A 
ATOM      3  C   UNL     1      20.393 -16.149   3.985  1.00  0.00     0.336 A 
ATOM      4  O   UNL     1      19.875 -17.027   3.247  1.00  0.00    -0.246 OA
ATOM      5  O   UNL     1      21.198 -16.517   4.980  1.00  0.00    -0.423 OA
ATOM      6  C   UNL     1      21.776 -15.637   5.794  1.00  0.00     0.142 A 
ATOM      7  C   UNL     1      22.612 -16.082   6.823  1.00  0.00     0.098 A 
ATOM      8  C   UNL     1      23.225 -15.159   7.685  1.00  0.00     0.161 A 
ATOM      9  C   UNL     1      22.999 -13.785   7.516  1.00  0.00     0.158 A 
ATOM     10  C   UNL     1      22.161 -13.332   6.485  1.00  0.00     0.062 A 
ATOM     11  C   UNL     1      21.549 -14.255   5.624  1.00  0.00     0.022 A 
ENDROOT
BRANCH   9  12
ATOM     12  O   UNL     1      23.611 -12.875   8.375  1.00  0.00    -0.504 OA
ATOM     13  H   UNL     1      23.162 -12.569   9.230  1.00  0.00     0.293 HD
ENDBRANCH   9  12
BRANCH   8  14
ATOM     14  O   UNL     1      24.058 -15.600   8.711  1.00  0.00    -0.504 OA
ATOM     15  H   UNL     1      23.823 -15.452   9.685  1.00  0.00     0.293 HD
ENDBRANCH   8  14
TORSDOF 2
ENDMDL
MODEL 9
REMARK VINA RESULT:    -3.406     19.840     21.454
REMARK INTER + INTRA:          -3.605
REMARK INTER:                  -3.605
REMARK INTRA:                   0.000
REMARK UNBOUND:                 0.000
REMARK SMILES O=c1ccc2cc(O)c(O)cc2o1
REMARK SMILES IDX 4 1 3 2 2 3 1 4 13 5 12 6 11 7 9 8 7 9 6 10 5 11 8 12 10 14
REMARK H PARENT 8 13 10 15
REMARK Flexibility Score: inf
ROOT
ATOM      1  C   UNL     1      23.145 -13.824   7.558  1.00  0.00     0.019 A 
ATOM      2  C   UNL     1      23.803 -14.776   8.335  1.00  0.00     0.094 A 
ATOM      3  C   UNL     1      23.623 -16.132   8.042  1.00  0.00     0.336 A 
ATOM      4  O   UNL     1      24.208 -17.008   8.731  1.00  0.00    -0.246 OA
ATOM      5  O   UNL     1      22.834 -16.505   7.036  1.00  0.00    -0.423 OA
ATOM      6  C   UNL     1      22.188 -15.628   6.271  1.00  0.00     0.142 A 
ATOM      7  C   UNL     1      21.373 -16.079   5.228  1.00  0.00     0.098 A 
ATOM      8  C   UNL     1      20.689 -15.159   4.419  1.00  0.00     0.161 A 
ATOM      9  C   UNL     1      20.822 -13.782   4.654  1.00  0.00     0.158 A 
ATOM     10  C   UNL     1      21.639 -13.324   5.700  1.00  0.00     0.062 A 
ATOM     11  C   UNL     1      22.322 -14.243   6.508  1.00  0.00     0.022 A 
ENDROOT
BRANCH   9  12
ATOM     12  O   UNL     1      20.139 -12.876   3.846  1.00  0.00    -0.504 OA
ATOM     13  H   UNL     1      19.165 -12.650   4.007  1.00  0.00     0.293 HD
ENDBRANCH   9  12
BRANCH   8  14
ATOM     14  O   UNL     1      19.875 -15.605   3.378  1.00  0.00    -0.504 OA
ATOM     15  H   UNL     1      19.080 -15.065   3.058  1.00  0.00     0.293 HD
ENDBRANCH   8  14
TORSDOF 2
ENDMDL
