MODEL 1
REMARK VINA RESULT:    -2.698      0.000      0.000
REMARK INTER + INTRA:          -5.060
REMARK INTER:                  -4.274
REMARK INTRA:                  -0.786
REMARK UNBOUND:                -0.786
REMARK SMILES CCCCCCCCCCCC(=O)[O-]
REMARK SMILES IDX 7 1 8 2 9 3 10 4 11 5 12 6 13 7 14 8 6 9 5 10 4 11 3 12 2 13
REMARK SMILES IDX 1 14
REMARK H PARENT
REMARK Flexibility Score: inf
ROOT
ATOM      1  C   UNL     1      -3.952  34.933  21.152  1.00  0.00     0.000 C 
ENDROOT
BRANCH   1   2
ATOM      2  C   UNL     1      -5.221  35.394  20.402  1.00  0.00     0.000 C 
BRANCH   2   3
ATOM      3  C   UNL     1      -5.013  36.667  19.558  1.00  0.00     0.000 C 
BRANCH   3   4
ATOM      4  C   UNL     1      -5.449  37.976  20.244  1.00  0.00     0.006 C 
BRANCH   4   5
ATOM      5  C   UNL     1      -4.695  38.287  21.547  1.00  0.00     0.053 C 
BRANCH   5   6
ATOM      6  C   UNL     1      -5.292  39.454  22.273  1.00  0.00     0.041 C 
ATOM      7  O   UNL     1      -6.054  40.253  21.669  1.00  0.00    -0.550 OA
ATOM      8  O   UNL     1      -5.031  39.639  23.625  1.00  0.00    -0.550 OA
ENDBRANCH   5   6
ENDBRANCH   4   5
ENDBRANCH   3   4
ENDBRANCH   2   3
ENDBRANCH   1   2
BRANCH   1   9
ATOM      9  C   UNL     1      -4.278  34.307  22.519  1.00  0.00     0.000 C 
BRANCH   9  10
ATOM     10  C   UNL     1      -5.785  34.293  22.821  1.00  0.00    -0.000 C 
BRANCH  10  11
ATOM     11  C   UNL     1      -6.122  34.908  24.187  1.00  0.00    -0.000 C 
BRANCH  11  12
ATOM     12  C   UNL     1      -5.325  36.198  24.419  1.00  0.00    -0.000 C 
BRANCH  12  13
ATOM     13  C   UNL     1      -5.667  36.819  25.778  1.00  0.00    -0.003 C 
ATOM     14  C   UNL     1      -4.589  37.803  26.222  1.00  0.00     0.004 C 
ENDBRANCH  12  13
ENDBRANCH  11  12
ENDBRANCH  10  11
ENDBRANCH   9  10
ENDBRANCH   1   9
TORSDOF 10
ENDMDL
MODEL 2
REMARK VINA RESULT:    -2.514      1.939      3.830
REMARK INTER + INTRA:          -4.769
REMARK INTER:                  -4.476
REMARK INTRA:                  -0.293
REMARK UNBOUND:                -0.786
REMARK SMILES CCCCCCCCCCCC(=O)[O-]
REMARK SMILES IDX 7 1 8 2 9 3 10 4 11 5 12 6 13 7 14 8 6 9 5 10 4 11 3 12 2 13
REMARK SMILES IDX 1 14
REMARK H PARENT
REMARK Flexibility Score: inf
ROOT
ATOM      1  C   UNL     1      -4.657  37.725  20.307  1.00  0.00     0.000 C 
ENDROOT
BRANCH   1   2
ATOM      2  C   UNL     1      -5.438  38.636  21.278  1.00  0.00     0.000 C 
BRANCH   2   3
ATOM      3  C   UNL     1      -4.570  39.226  22.407  1.00  0.00     0.000 C 
BRANCH   3   4
ATOM      4  C   UNL     1      -5.083  38.943  23.832  1.00  0.00     0.006 C 
BRANCH   4   5
ATOM      5  C   UNL     1      -5.434  37.471  24.096  1.00  0.00     0.053 C 
BRANCH   5   6
ATOM      6  C   UNL     1      -5.287  37.112  25.543  1.00  0.00     0.041 C 
ATOM      7  O   UNL     1      -6.120  36.346  26.094  1.00  0.00    -0.550 OA
ATOM      8  O   UNL     1      -4.209  37.597  26.273  1.00  0.00    -0.550 OA
ENDBRANCH   5   6
ENDBRANCH   4   5
ENDBRANCH   3   4
ENDBRANCH   2   3
ENDBRANCH   1   2
BRANCH   1   9
ATOM      9  C   UNL     1      -5.575  36.729  19.577  1.00  0.00     0.000 C 
BRANCH   9  10
ATOM     10  C   UNL     1      -5.364  35.279  20.040  1.00  0.00    -0.000 C 
BRANCH  10  11
ATOM     11  C   UNL     1      -4.212  35.139  21.046  1.00  0.00    -0.000 C 
BRANCH  11  12
ATOM     12  C   UNL     1      -4.736  35.180  22.487  1.00  0.00    -0.000 C 
BRANCH  12  13
ATOM     13  C   UNL     1      -6.083  34.458  22.604  1.00  0.00    -0.003 C 
ATOM     14  C   UNL     1      -6.124  33.565  23.840  1.00  0.00     0.004 C 
ENDBRANCH  12  13
ENDBRANCH  11  12
ENDBRANCH  10  11
ENDBRANCH   9  10
ENDBRANCH   1   9
TORSDOF 10
ENDMDL
MODEL 3
REMARK VINA RESULT:    -2.453      2.670      4.227
REMARK INTER + INTRA:          -4.672
REMARK INTER:                  -3.945
REMARK INTRA:                  -0.727
REMARK UNBOUND:                -0.786
REMARK SMILES CCCCCCCCCCCC(=O)[O-]
REMARK SMILES IDX 7 1 8 2 9 3 10 4 11 5 12 6 13 7 14 8 6 9 5 10 4 11 3 12 2 13
REMARK SMILES IDX 1 14
REMARK H PARENT
REMARK Flexibility Score: inf
ROOT
ATOM      1  C   UNL     1      -4.551  39.144  22.479  1.00  0.00     0.000 C 
ENDROOT
BRANCH   1   2
ATOM      2  C   UNL     1      -5.757  39.409  21.553  1.00  0.00     0.000 C 
BRANCH   2   3
ATOM      3  C   UNL     1      -5.812  38.479  20.326  1.00  0.00     0.000 C 
BRANCH   3   4
ATOM      4  C   UNL     1      -5.377  37.026  20.595  1.00  0.00     0.006 C 
BRANCH   4   5
ATOM      5  C   UNL     1      -4.765  36.314  19.378  1.00  0.00     0.053 C 
BRANCH   5   6
ATOM      6  C   UNL     1      -5.324  34.936  19.197  1.00  0.00     0.041 C 
ATOM      7  O   UNL     1      -6.020  34.410  20.104  1.00  0.00    -0.550 OA
ATOM      8  O   UNL     1      -5.103  34.246  18.011  1.00  0.00    -0.550 OA
ENDBRANCH   5   6
ENDBRANCH   4   5
ENDBRANCH   3   4
ENDBRANCH   2   3
ENDBRANCH   1   2
BRANCH   1   9
ATOM      9  C   UNL     1      -4.983  38.747  23.901  1.00  0.00     0.000 C 
BRANCH   9  10
ATOM     10  C   UNL     1      -5.713  37.396  23.944  1.00  0.00    -0.000 C 
BRANCH  10  11
ATOM     11  C   UNL     1      -5.534  36.668  25.285  1.00  0.00    -0.000 C 
BRANCH  11  12
ATOM     12  C   UNL     1      -6.110  35.248  25.218  1.00  0.00    -0.000 C 
BRANCH  12  13
ATOM     13  C   UNL     1      -6.125  34.728  23.776  1.00  0.00    -0.003 C 
ATOM     14  C   UNL     1      -4.884  33.892  23.478  1.00  0.00     0.004 C 
ENDBRANCH  12  13
ENDBRANCH  11  12
ENDBRANCH  10  11
ENDBRANCH   9  10
ENDBRANCH   1   9
TORSDOF 10
ENDMDL
MODEL 4
REMARK VINA RESULT:    -2.303      2.547      5.508
REMARK INTER + INTRA:          -4.434
REMARK INTER:                  -4.253
REMARK INTRA:                  -0.182
REMARK UNBOUND:                -0.786
REMARK SMILES CCCCCCCCCCCC(=O)[O-]
REMARK SMILES IDX 7 1 8 2 9 3 10 4 11 5 12 6 13 7 14 8 6 9 5 10 4 11 3 12 2 13
REMARK SMILES IDX 1 14
REMARK H PARENT
REMARK Flexibility Score: inf
ROOT
ATOM      1  C   UNL     1      -4.327  38.873  22.843  1.00  0.00     0.000 C 
ENDROOT
BRANCH   1   2
ATOM      2  C   UNL     1      -4.634  39.055  24.345  1.00  0.00     0.000 C 
BRANCH   2   3
ATOM      3  C   UNL     1      -5.449  37.898  24.955  1.00  0.00     0.000 C 
BRANCH   3   4
ATOM      4  C   UNL     1      -5.832  36.783  23.963  1.00  0.00     0.006 C 
BRANCH   4   5
ATOM      5  C   UNL     1      -6.058  35.409  24.614  1.00  0.00     0.053 C 
BRANCH   5   6
ATOM      6  C   UNL     1      -5.770  34.287  23.664  1.00  0.00     0.041 C 
ATOM      7  O   UNL     1      -5.182  34.513  22.575  1.00  0.00    -0.550 OA
ATOM      8  O   UNL     1      -6.125  32.986  23.998  1.00  0.00    -0.550 OA
ENDBRANCH   5   6
ENDBRANCH   4   5
ENDBRANCH   3   4
ENDBRANCH   2   3
ENDBRANCH   1   2
BRANCH   1   9
ATOM      9  C   UNL     1      -5.521  39.260  21.953  1.00  0.00     0.000 C 
BRANCH   9  10
ATOM     10  C   UNL     1      -5.681  38.332  20.738  1.00  0.00    -0.000 C 
BRANCH  10  11
ATOM     11  C   UNL     1      -4.544  37.306  20.623  1.00  0.00    -0.000 C 
BRANCH  11  12
ATOM     12  C   UNL     1      -4.776  36.363  19.436  1.00  0.00    -0.000 C 
BRANCH  12  13
ATOM     13  C   UNL     1      -5.796  35.275  19.789  1.00  0.00    -0.003 C 
ATOM     14  C   UNL     1      -5.803  34.164  18.743  1.00  0.00     0.004 C 
ENDBRANCH  12  13
ENDBRANCH  11  12
ENDBRANCH  10  11
ENDBRANCH   9  10
ENDBRANCH   1   9
TORSDOF 10
ENDMDL
MODEL 5
REMARK VINA RESULT:    -2.270      1.294      4.226
REMARK INTER + INTRA:          -4.383
REMARK INTER:                  -4.155
REMARK INTRA:                  -0.228
REMARK UNBOUND:                -0.786
REMARK SMILES CCCCCCCCCCCC(=O)[O-]
REMARK SMILES IDX 7 1 8 2 9 3 10 4 11 5 12 6 13 7 14 8 6 9 5 10 4 11 3 12 2 13
REMARK SMILES IDX 1 14
REMARK H PARENT
REMARK Flexibility Score: inf
ROOT
ATOM      1  C   UNL     1      -5.591  34.554  24.438  1.00  0.00     0.000 C 
ENDROOT
BRANCH   1   2
ATOM      2  C   UNL     1      -6.123  35.740  25.270  1.00  0.00     0.000 C 
BRANCH   2   3
ATOM      3  C   UNL     1      -5.439  37.082  24.945  1.00  0.00     0.000 C 
BRANCH   3   4
ATOM      4  C   UNL     1      -5.776  37.661  23.557  1.00  0.00     0.006 C 
BRANCH   4   5
ATOM      5  C   UNL     1      -5.169  39.046  23.287  1.00  0.00     0.053 C 
BRANCH   5   6
ATOM      6  C   UNL     1      -5.545  39.566  21.933  1.00  0.00     0.041 C 
ATOM      7  O   UNL     1      -5.630  38.781  20.953  1.00  0.00    -0.550 OA
ATOM      8  O   UNL     1      -5.833  40.914  21.762  1.00  0.00    -0.550 OA
ENDBRANCH   5   6
ENDBRANCH   4   5
ENDBRANCH   3   4
ENDBRANCH   2   3
ENDBRANCH   1   2
BRANCH   1   9
ATOM      9  C   UNL     1      -6.122  34.570  22.994  1.00  0.00     0.000 C 
BRANCH   9  10
ATOM     10  C   UNL     1      -5.014  34.356  21.952  1.00  0.00    -0.000 C 
BRANCH  10  11
ATOM     11  C   UNL     1      -4.463  35.676  21.392  1.00  0.00    -0.000 C 
BRANCH  11  12
ATOM     12  C   UNL     1      -4.601  35.724  19.865  1.00  0.00    -0.000 C 
BRANCH  12  13
ATOM     13  C   UNL     1      -5.910  35.068  19.411  1.00  0.00    -0.003 C 
ATOM     14  C   UNL     1      -5.649  33.969  18.386  1.00  0.00     0.004 C 
ENDBRANCH  12  13
ENDBRANCH  11  12
ENDBRANCH  10  11
ENDBRANCH   9  10
ENDBRANCH   1   9
TORSDOF 10
ENDMDL
MODEL 6
REMARK VINA RESULT:    -1.841      1.277      4.010
REMARK INTER + INTRA:          -3.703
REMARK INTER:                  -2.809
REMARK INTRA:                  -0.894
REMARK UNBOUND:                -0.786
REMARK SMILES CCCCCCCCCCCC(=O)[O-]
REMARK SMILES IDX 7 1 8 2 9 3 10 4 11 5 12 6 13 7 14 8 6 9 5 10 4 11 3 12 2 13
REMARK SMILES IDX 1 14
REMARK H PARENT
REMARK Flexibility Score: inf
ROOT
ATOM      1  C   UNL     1      -4.310  35.097  21.468  1.00  0.00     0.000 C 
ENDROOT
BRANCH   1   2
ATOM      2  C   UNL     1      -4.708  34.446  22.809  1.00  0.00     0.000 C 
BRANCH   2   3
ATOM      3  C   UNL     1      -6.082  34.902  23.336  1.00  0.00     0.000 C 
BRANCH   3   4
ATOM      4  C   UNL     1      -6.124  36.349  23.864  1.00  0.00     0.006 C 
BRANCH   4   5
ATOM      5  C   UNL     1      -5.658  36.504  25.321  1.00  0.00     0.053 C 
BRANCH   5   6
ATOM      6  C   UNL     1      -4.757  37.688  25.496  1.00  0.00     0.041 C 
ATOM      7  O   UNL     1      -4.825  38.660  24.699  1.00  0.00    -0.550 OA
ATOM      8  O   UNL     1      -3.864  37.730  26.559  1.00  0.00    -0.550 OA
ENDBRANCH   5   6
ENDBRANCH   4   5
ENDBRANCH   3   4
ENDBRANCH   2   3
ENDBRANCH   1   2
BRANCH   1   9
ATOM      9  C   UNL     1      -5.266  34.710  20.326  1.00  0.00     0.000 C 
BRANCH   9  10
ATOM     10  C   UNL     1      -5.749  35.925  19.518  1.00  0.00    -0.000 C 
BRANCH  10  11
ATOM     11  C   UNL     1      -4.700  37.045  19.448  1.00  0.00    -0.000 C 
BRANCH  11  12
ATOM     12  C   UNL     1      -5.320  38.400  19.809  1.00  0.00    -0.000 C 
BRANCH  12  13
ATOM     13  C   UNL     1      -5.521  38.527  21.323  1.00  0.00    -0.003 C 
ATOM     14  C   UNL     1      -5.916  39.949  21.710  1.00  0.00     0.004 C 
ENDBRANCH  12  13
ENDBRANCH  11  12
ENDBRANCH  10  11
ENDBRANCH   9  10
ENDBRANCH   1   9
TORSDOF 10
ENDMDL
MODEL 7
REMARK VINA RESULT:    -1.838      2.344      4.683
REMARK INTER + INTRA:          -3.697
REMARK INTER:                  -3.311
REMARK INTRA:                  -0.386
REMARK UNBOUND:                -0.786
REMARK SMILES CCCCCCCCCCCC(=O)[O-]
REMARK SMILES IDX 7 1 8 2 9 3 10 4 11 5 12 6 13 7 14 8 6 9 5 10 4 11 3 12 2 13
REMARK SMILES IDX 1 14
REMARK H PARENT
REMARK Flexibility Score: inf
ROOT
ATOM      1  C   UNL     1      -4.748  36.285  25.350  1.00  0.00     0.000 C 
ENDROOT
BRANCH   1   2
ATOM      2  C   UNL     1      -6.075  35.571  25.016  1.00  0.00     0.000 C 
BRANCH   2   3
ATOM      3  C   UNL     1      -6.010  34.705  23.743  1.00  0.00     0.000 C 
BRANCH   3   4
ATOM      4  C   UNL     1      -5.903  35.498  22.426  1.00  0.00     0.006 C 
BRANCH   4   5
ATOM      5  C   UNL     1      -4.864  34.944  21.439  1.00  0.00     0.053 C 
BRANCH   5   6
ATOM      6  C   UNL     1      -5.239  35.228  20.016  1.00  0.00     0.041 C 
ATOM      7  O   UNL     1      -6.096  34.513  19.432  1.00  0.00    -0.550 OA
ATOM      8  O   UNL     1      -4.665  36.300  19.346  1.00  0.00    -0.550 OA
ENDBRANCH   5   6
ENDBRANCH   4   5
ENDBRANCH   3   4
ENDBRANCH   2   3
ENDBRANCH   1   2
BRANCH   1   9
ATOM      9  C   UNL     1      -4.960  37.757  25.743  1.00  0.00     0.000 C 
BRANCH   9  10
ATOM     10  C   UNL     1      -5.753  38.544  24.688  1.00  0.00    -0.000 C 
BRANCH  10  11
ATOM     11  C   UNL     1      -4.865  39.079  23.555  1.00  0.00    -0.000 C 
BRANCH  11  12
ATOM     12  C   UNL     1      -5.056  38.258  22.274  1.00  0.00    -0.000 C 
BRANCH  12  13
ATOM     13  C   UNL     1      -5.603  39.130  21.138  1.00  0.00    -0.003 C 
ATOM     14  C   UNL     1      -6.043  40.497  21.655  1.00  0.00     0.004 C 
ENDBRANCH  12  13
ENDBRANCH  11  12
ENDBRANCH  10  11
ENDBRANCH   9  10
ENDBRANCH   1   9
TORSDOF 10
ENDMDL
MODEL 8
REMARK VINA RESULT:    -1.810      2.904      3.796
REMARK INTER + INTRA:          -3.653
REMARK INTER:                  -3.233
REMARK INTRA:                  -0.420
REMARK UNBOUND:                -0.786
REMARK SMILES CCCCCCCCCCCC(=O)[O-]
REMARK SMILES IDX 7 1 8 2 9 3 10 4 11 5 12 6 13 7 14 8 6 9 5 10 4 11 3 12 2 13
REMARK SMILES IDX 1 14
REMARK H PARENT
REMARK Flexibility Score: inf
ROOT
ATOM      1  C   UNL     1      -4.766  34.115  22.853  1.00  0.00     0.000 C 
ENDROOT
BRANCH   1   2
ATOM      2  C   UNL     1      -4.404  35.174  21.790  1.00  0.00     0.000 C 
BRANCH   2   3
ATOM      3  C   UNL     1      -5.540  36.175  21.501  1.00  0.00     0.000 C 
BRANCH   3   4
ATOM      4  C   UNL     1      -5.687  36.576  20.021  1.00  0.00     0.006 C 
BRANCH   4   5
ATOM      5  C   UNL     1      -4.610  35.986  19.097  1.00  0.00     0.053 C 
BRANCH   5   6
ATOM      6  C   UNL     1      -5.103  34.774  18.366  1.00  0.00     0.041 C 
ATOM      7  O   UNL     1      -4.583  34.440  17.270  1.00  0.00    -0.550 OA
ATOM      8  O   UNL     1      -6.115  33.996  18.914  1.00  0.00    -0.550 OA
ENDBRANCH   5   6
ENDBRANCH   4   5
ENDBRANCH   3   4
ENDBRANCH   2   3
ENDBRANCH   1   2
BRANCH   1   9
ATOM      9  C   UNL     1      -6.125  34.395  23.517  1.00  0.00     0.000 C 
BRANCH   9  10
ATOM     10  C   UNL     1      -5.993  35.190  24.826  1.00  0.00    -0.000 C 
BRANCH  10  11
ATOM     11  C   UNL     1      -5.967  36.708  24.597  1.00  0.00    -0.000 C 
BRANCH  11  12
ATOM     12  C   UNL     1      -5.007  37.394  25.578  1.00  0.00    -0.000 C 
BRANCH  12  13
ATOM     13  C   UNL     1      -4.582  38.772  25.058  1.00  0.00    -0.003 C 
ATOM     14  C   UNL     1      -5.043  38.986  23.620  1.00  0.00     0.004 C 
ENDBRANCH  12  13
ENDBRANCH  11  12
ENDBRANCH  10  11
ENDBRANCH   9  10
ENDBRANCH   1   9
TORSDOF 10
ENDMDL
MODEL 9
REMARK VINA RESULT:    -1.052      3.225      4.563
REMARK INTER + INTRA:          -2.452
REMARK INTER:                  -2.815
REMARK INTRA:                   0.363
REMARK UNBOUND:                -0.786
REMARK SMILES CCCCCCCCCCCC(=O)[O-]
REMARK SMILES IDX 7 1 8 2 9 3 10 4 11 5 12 6 13 7 14 8 6 9 5 10 4 11 3 12 2 13
REMARK SMILES IDX 1 14
REMARK H PARENT
REMARK Flexibility Score: inf
ROOT
ATOM      1  C   UNL     1      -4.987  37.974  20.740  1.00  0.00     0.000 C 
ENDROOT
BRANCH   1   2
ATOM      2  C   UNL     1      -4.629  36.818  21.698  1.00  0.00     0.000 C 
BRANCH   2   3
ATOM      3  C   UNL     1      -5.727  35.743  21.809  1.00  0.00     0.000 C 
BRANCH   3   4
ATOM      4  C   UNL     1      -6.116  35.076  20.475  1.00  0.00     0.006 C 
BRANCH   4   5
ATOM      5  C   UNL     1      -5.209  35.453  19.293  1.00  0.00     0.053 C 
BRANCH   5   6
ATOM      6  C   UNL     1      -5.156  34.368  18.261  1.00  0.00     0.041 C 
ATOM      7  O   UNL     1      -5.892  33.352  18.371  1.00  0.00    -0.550 OA
ATOM      8  O   UNL     1      -4.317  34.495  17.161  1.00  0.00    -0.550 OA
ENDBRANCH   5   6
ENDBRANCH   4   5
ENDBRANCH   3   4
ENDBRANCH   2   3
ENDBRANCH   1   2
BRANCH   1   9
ATOM      9  C   UNL     1      -5.541  39.200  21.486  1.00  0.00     0.000 C 
BRANCH   9  10
ATOM     10  C   UNL     1      -4.887  39.402  22.863  1.00  0.00    -0.000 C 
BRANCH  10  11
ATOM     11  C   UNL     1      -5.587  38.606  23.974  1.00  0.00    -0.000 C 
BRANCH  11  12
ATOM     12  C   UNL     1      -4.589  38.190  25.062  1.00  0.00    -0.000 C 
BRANCH  12  13
ATOM     13  C   UNL     1      -5.156  37.057  25.924  1.00  0.00    -0.003 C 
ATOM     14  C   UNL     1      -6.113  36.180  25.122  1.00  0.00     0.004 C 
ENDBRANCH  12  13
ENDBRANCH  11  12
ENDBRANCH  10  11
ENDBRANCH   9  10
ENDBRANCH   1   9
TORSDOF 10
ENDMDL
