MODEL 1
REMARK VINA RESULT:    -5.653      0.000      0.000
REMARK INTER + INTRA:          -8.521
REMARK INTER:                  -7.470
REMARK INTRA:                  -1.051
REMARK UNBOUND:                -1.051
REMARK SMILES CC[C@@H](C=C[C@H](C)[C@H]1CC[C@@H]2C3=CC[C@H]4C[C@@H](O)CC[C@]4(C)[C@H]3CC[C@]21C)C(C)C
REMARK SMILES IDX 6 1 7 2 5 3 4 4 3 5 2 6 1 7 28 8 29 9 30 10 8 11 9 12 26 13
REMARK SMILES IDX 10 14 11 15 25 16 27 17 12 18 24 19 23 20 13 21 21 22 14 23
REMARK SMILES IDX 15 24 20 25 22 26 16 27 19 28 17 29 18 30
REMARK H PARENT 18 31
REMARK Flexibility Score: inf
ROOT
ATOM      1  C   UNL     1      -9.183  23.802  14.180  1.00  0.00     0.012 C 
ATOM      2  C   UNL     1     -10.604  24.358  13.927  1.00  0.00     0.012 C 
ENDROOT
BRANCH   1   3
ATOM      3  C   UNL     1      -8.971  23.728  15.684  1.00  0.00    -0.028 C 
ATOM      4  C   UNL     1      -7.966  24.364  16.313  1.00  0.00    -0.027 C 
BRANCH   4   5
ATOM      5  C   UNL     1      -7.824  24.300  17.820  1.00  0.00     0.014 C 
BRANCH   5   6
ATOM      6  C   UNL     1      -8.287  25.612  18.511  1.00  0.00     0.004 C 
ATOM      7  C   UNL     1      -8.603  26.788  17.579  1.00  0.00     0.004 C 
ENDBRANCH   5   6
BRANCH   5   8
ATOM      8  C   UNL     1      -6.436  23.773  18.298  1.00  0.00    -0.011 C 
ATOM      9  C   UNL     1      -5.462  24.944  18.526  1.00  0.00     0.008 C 
ATOM     10  C   UNL     1      -6.473  22.872  19.546  1.00  0.00     0.008 C 
ENDBRANCH   5   8
ENDBRANCH   4   5
ENDBRANCH   1   3
BRANCH   1  11
ATOM     11  C   UNL     1      -8.883  22.410  13.496  1.00  0.00     0.002 C 
ATOM     12  C   UNL     1     -10.064  21.859  12.640  1.00  0.00     0.005 C 
ATOM     13  C   UNL     1      -7.673  22.373  12.489  1.00  0.00    -0.023 C 
ATOM     14  C   UNL     1      -9.660  21.930  11.165  1.00  0.00     0.009 C 
ATOM     15  C   UNL     1      -8.354  22.710  11.154  1.00  0.00     0.021 C 
ATOM     16  C   UNL     1      -6.469  23.351  12.716  1.00  0.00     0.008 C 
ATOM     17  C   UNL     1      -7.111  20.912  12.502  1.00  0.00     0.012 C 
ATOM     18  C   UNL     1      -7.410  22.539   9.974  1.00  0.00    -0.067 C 
ATOM     19  C   UNL     1      -5.855  23.936  11.412  1.00  0.00     0.009 C 
ATOM     20  C   UNL     1      -5.965  23.010  10.168  1.00  0.00     0.021 C 
ATOM     21  C   UNL     1      -7.863  22.139   8.762  1.00  0.00    -0.027 C 
ATOM     22  C   UNL     1      -5.371  23.625   8.850  1.00  0.00    -0.023 C 
ATOM     23  C   UNL     1      -7.045  22.217   7.497  1.00  0.00     0.031 C 
ATOM     24  C   UNL     1      -5.558  22.530   7.748  1.00  0.00     0.002 C 
ATOM     25  C   UNL     1      -3.847  23.900   9.023  1.00  0.00     0.010 C 
ATOM     26  C   UNL     1      -6.099  24.953   8.480  1.00  0.00     0.012 C 
ATOM     27  C   UNL     1      -4.834  22.863   6.426  1.00  0.00     0.036 C 
ATOM     28  C   UNL     1      -3.138  24.228   7.698  1.00  0.00     0.032 C 
ATOM     29  C   UNL     1      -3.338  23.116   6.665  1.00  0.00     0.114 C 
BRANCH  29  30
ATOM     30  O   UNL     1      -2.717  23.492   5.464  1.00  0.00    -0.393 OA
ATOM     31  H   UNL     1      -2.444  24.443   5.570  1.00  0.00     0.210 HD
ENDBRANCH  29  30
ENDBRANCH   1  11
TORSDOF 6
ENDMDL
MODEL 2
REMARK VINA RESULT:    -5.629      0.519      1.561
REMARK INTER + INTRA:          -8.489
REMARK INTER:                  -7.365
REMARK INTRA:                  -1.124
REMARK UNBOUND:                -1.051
REMARK SMILES CC[C@@H](C=C[C@H](C)[C@H]1CC[C@@H]2C3=CC[C@H]4C[C@@H](O)CC[C@]4(C)[C@H]3CC[C@]21C)C(C)C
REMARK SMILES IDX 6 1 7 2 5 3 4 4 3 5 2 6 1 7 28 8 29 9 30 10 8 11 9 12 26 13
REMARK SMILES IDX 10 14 11 15 25 16 27 17 12 18 24 19 23 20 13 21 21 22 14 23
REMARK SMILES IDX 15 24 20 25 22 26 16 27 19 28 17 29 18 30
REMARK H PARENT 18 31
REMARK Flexibility Score: inf
ROOT
ATOM      1  C   UNL     1      -9.458  23.907  14.020  1.00  0.00     0.012 C 
ATOM      2  C   UNL     1     -10.960  24.274  14.029  1.00  0.00     0.012 C 
ENDROOT
BRANCH   1   3
ATOM      3  C   UNL     1      -8.950  23.977  15.452  1.00  0.00    -0.028 C 
ATOM      4  C   UNL     1      -8.071  24.905  15.871  1.00  0.00    -0.027 C 
BRANCH   4   5
ATOM      5  C   UNL     1      -7.632  24.965  17.320  1.00  0.00     0.014 C 
BRANCH   5   6
ATOM      6  C   UNL     1      -7.589  23.559  17.981  1.00  0.00     0.004 C 
ATOM      7  C   UNL     1      -6.268  23.174  18.657  1.00  0.00     0.004 C 
ENDBRANCH   5   6
BRANCH   5   8
ATOM      8  C   UNL     1      -8.375  26.051  18.157  1.00  0.00    -0.011 C 
ATOM      9  C   UNL     1      -7.410  26.717  19.155  1.00  0.00     0.008 C 
ATOM     10  C   UNL     1      -9.103  27.128  17.333  1.00  0.00     0.008 C 
ENDBRANCH   5   8
ENDBRANCH   4   5
ENDBRANCH   1   3
BRANCH   1  11
ATOM     11  C   UNL     1      -9.120  22.509  13.366  1.00  0.00     0.002 C 
ATOM     12  C   UNL     1     -10.256  21.943  12.461  1.00  0.00     0.005 C 
ATOM     13  C   UNL     1      -7.863  22.468  12.418  1.00  0.00    -0.023 C 
ATOM     14  C   UNL     1      -9.783  22.001  11.006  1.00  0.00     0.009 C 
ATOM     15  C   UNL     1      -8.481  22.787  11.049  1.00  0.00     0.021 C 
ATOM     16  C   UNL     1      -6.675  23.454  12.691  1.00  0.00     0.008 C 
ATOM     17  C   UNL     1      -7.296  21.010  12.473  1.00  0.00     0.012 C 
ATOM     18  C   UNL     1      -7.482  22.608   9.916  1.00  0.00    -0.067 C 
ATOM     19  C   UNL     1      -6.003  24.028  11.411  1.00  0.00     0.009 C 
ATOM     20  C   UNL     1      -6.050  23.089  10.173  1.00  0.00     0.021 C 
ATOM     21  C   UNL     1      -7.876  22.193   8.689  1.00  0.00    -0.027 C 
ATOM     22  C   UNL     1      -5.397  23.693   8.878  1.00  0.00    -0.023 C 
ATOM     23  C   UNL     1      -6.998  22.262   7.462  1.00  0.00     0.031 C 
ATOM     24  C   UNL     1      -5.526  22.585   7.780  1.00  0.00     0.002 C 
ATOM     25  C   UNL     1      -3.884  23.977   9.120  1.00  0.00     0.010 C 
ATOM     26  C   UNL     1      -6.113  25.012   8.459  1.00  0.00     0.012 C 
ATOM     27  C   UNL     1      -4.742  22.907   6.491  1.00  0.00     0.036 C 
ATOM     28  C   UNL     1      -3.115  24.294   7.827  1.00  0.00     0.032 C 
ATOM     29  C   UNL     1      -3.261  23.170   6.797  1.00  0.00     0.114 C 
BRANCH  29  30
ATOM     30  O   UNL     1      -2.585  23.537   5.623  1.00  0.00    -0.393 OA
ATOM     31  H   UNL     1      -1.641  23.714   5.881  1.00  0.00     0.210 HD
ENDBRANCH  29  30
ENDBRANCH   1  11
TORSDOF 6
ENDMDL
MODEL 3
REMARK VINA RESULT:    -5.350      3.547      8.584
REMARK INTER + INTRA:          -8.121
REMARK INTER:                  -6.753
REMARK INTRA:                  -1.369
REMARK UNBOUND:                -1.051
REMARK SMILES CC[C@@H](C=C[C@H](C)[C@H]1CC[C@@H]2C3=CC[C@H]4C[C@@H](O)CC[C@]4(C)[C@H]3CC[C@]21C)C(C)C
REMARK SMILES IDX 6 1 7 2 5 3 4 4 3 5 2 6 1 7 28 8 29 9 30 10 8 11 9 12 26 13
REMARK SMILES IDX 10 14 11 15 25 16 27 17 12 18 24 19 23 20 13 21 21 22 14 23
REMARK SMILES IDX 15 24 20 25 22 26 16 27 19 28 17 29 18 30
REMARK H PARENT 18 31
REMARK Flexibility Score: inf
ROOT
ATOM      1  C   UNL     1      -6.212  21.808   6.976  1.00  0.00     0.012 C 
ATOM      2  C   UNL     1      -6.326  20.687   5.918  1.00  0.00     0.012 C 
ENDROOT
BRANCH   1   3
ATOM      3  C   UNL     1      -5.060  22.716   6.574  1.00  0.00    -0.028 C 
ATOM      4  C   UNL     1      -5.019  24.025   6.881  1.00  0.00    -0.027 C 
BRANCH   4   5
ATOM      5  C   UNL     1      -3.827  24.879   6.502  1.00  0.00     0.014 C 
BRANCH   5   6
ATOM      6  C   UNL     1      -2.957  24.218   5.397  1.00  0.00     0.004 C 
ATOM      7  C   UNL     1      -1.477  24.618   5.377  1.00  0.00     0.004 C 
ENDBRANCH   5   6
BRANCH   5   8
ATOM      8  C   UNL     1      -3.020  25.412   7.726  1.00  0.00    -0.011 C 
ATOM      9  C   UNL     1      -3.242  26.926   7.901  1.00  0.00     0.008 C 
ATOM     10  C   UNL     1      -3.292  24.685   9.055  1.00  0.00     0.008 C 
ENDBRANCH   5   8
ENDBRANCH   4   5
ENDBRANCH   1   3
BRANCH   1  11
ATOM     11  C   UNL     1      -7.535  22.640   7.208  1.00  0.00     0.002 C 
ATOM     12  C   UNL     1      -8.813  21.971   6.618  1.00  0.00     0.005 C 
ATOM     13  C   UNL     1      -7.938  22.906   8.707  1.00  0.00    -0.023 C 
ATOM     14  C   UNL     1      -9.686  21.496   7.783  1.00  0.00     0.009 C 
ATOM     15  C   UNL     1      -8.826  21.693   9.023  1.00  0.00     0.021 C 
ATOM     16  C   UNL     1      -6.808  23.013   9.788  1.00  0.00     0.008 C 
ATOM     17  C   UNL     1      -8.751  24.243   8.732  1.00  0.00     0.012 C 
ATOM     18  C   UNL     1      -9.511  21.824  10.374  1.00  0.00    -0.067 C 
ATOM     19  C   UNL     1      -7.164  22.377  11.163  1.00  0.00     0.009 C 
ATOM     20  C   UNL     1      -8.676  22.404  11.520  1.00  0.00     0.021 C 
ATOM     21  C   UNL     1     -10.743  21.306  10.592  1.00  0.00    -0.027 C 
ATOM     22  C   UNL     1      -9.028  21.730  12.896  1.00  0.00    -0.023 C 
ATOM     23  C   UNL     1     -11.355  21.155  11.964  1.00  0.00     0.031 C 
ATOM     24  C   UNL     1     -10.574  21.894  13.067  1.00  0.00     0.002 C 
ATOM     25  C   UNL     1      -8.317  22.483  14.061  1.00  0.00     0.010 C 
ATOM     26  C   UNL     1      -8.597  20.232  12.906  1.00  0.00     0.012 C 
ATOM     27  C   UNL     1     -11.081  21.488  14.467  1.00  0.00     0.036 C 
ATOM     28  C   UNL     1      -8.833  22.070  15.450  1.00  0.00     0.032 C 
ATOM     29  C   UNL     1     -10.347  22.268  15.567  1.00  0.00     0.114 C 
BRANCH  29  30
ATOM     30  O   UNL     1     -10.768  21.827  16.831  1.00  0.00    -0.393 OA
ATOM     31  H   UNL     1     -11.762  21.810  16.810  1.00  0.00     0.210 HD
ENDBRANCH  29  30
ENDBRANCH   1  11
TORSDOF 6
ENDMDL
MODEL 4
REMARK VINA RESULT:    -5.068      3.165      7.895
REMARK INTER + INTRA:          -7.748
REMARK INTER:                  -6.462
REMARK INTRA:                  -1.286
REMARK UNBOUND:                -1.051
REMARK SMILES CC[C@@H](C=C[C@H](C)[C@H]1CC[C@@H]2C3=CC[C@H]4C[C@@H](O)CC[C@]4(C)[C@H]3CC[C@]21C)C(C)C
REMARK SMILES IDX 6 1 7 2 5 3 4 4 3 5 2 6 1 7 28 8 29 9 30 10 8 11 9 12 26 13
REMARK SMILES IDX 10 14 11 15 25 16 27 17 12 18 24 19 23 20 13 21 21 22 14 23
REMARK SMILES IDX 15 24 20 25 22 26 16 27 19 28 17 29 18 30
REMARK H PARENT 18 31
REMARK Flexibility Score: inf
ROOT
ATOM      1  C   UNL     1      -9.328  21.627  10.533  1.00  0.00     0.012 C 
ATOM      2  C   UNL     1     -10.274  22.305   9.516  1.00  0.00     0.012 C 
ENDROOT
BRANCH   1   3
ATOM      3  C   UNL     1      -8.124  22.536  10.730  1.00  0.00    -0.028 C 
ATOM      4  C   UNL     1      -6.860  22.135  10.499  1.00  0.00    -0.027 C 
BRANCH   4   5
ATOM      5  C   UNL     1      -5.697  23.092  10.662  1.00  0.00     0.014 C 
BRANCH   5   6
ATOM      6  C   UNL     1      -5.947  24.139  11.782  1.00  0.00     0.004 C 
ATOM      7  C   UNL     1      -6.195  25.578  11.315  1.00  0.00     0.004 C 
ENDBRANCH   5   6
BRANCH   5   8
ATOM      8  C   UNL     1      -5.186  23.694   9.317  1.00  0.00    -0.011 C 
ATOM      9  C   UNL     1      -3.648  23.765   9.306  1.00  0.00     0.008 C 
ATOM     10  C   UNL     1      -5.686  22.980   8.048  1.00  0.00     0.008 C 
ENDBRANCH   5   8
ENDBRANCH   4   5
ENDBRANCH   1   3
BRANCH   1  11
ATOM     11  C   UNL     1      -9.993  21.261  11.918  1.00  0.00     0.002 C 
ATOM     12  C   UNL     1      -9.205  20.193  12.736  1.00  0.00     0.005 C 
ATOM     13  C   UNL     1     -10.156  22.441  12.948  1.00  0.00    -0.023 C 
ATOM     14  C   UNL     1      -8.591  20.882  13.957  1.00  0.00     0.009 C 
ATOM     15  C   UNL     1      -8.839  22.367  13.735  1.00  0.00     0.021 C 
ATOM     16  C   UNL     1     -10.353  23.898  12.406  1.00  0.00     0.008 C 
ATOM     17  C   UNL     1     -11.390  22.095  13.848  1.00  0.00     0.012 C 
ATOM     18  C   UNL     1      -8.841  23.296  14.939  1.00  0.00    -0.067 C 
ATOM     19  C   UNL     1      -9.630  25.000  13.233  1.00  0.00     0.009 C 
ATOM     20  C   UNL     1      -9.471  24.679  14.746  1.00  0.00     0.021 C 
ATOM     21  C   UNL     1      -8.178  22.977  16.076  1.00  0.00    -0.027 C 
ATOM     22  C   UNL     1      -8.711  25.784  15.565  1.00  0.00    -0.023 C 
ATOM     23  C   UNL     1      -7.908  23.959  17.189  1.00  0.00     0.031 C 
ATOM     24  C   UNL     1      -8.691  25.278  17.045  1.00  0.00     0.002 C 
ATOM     25  C   UNL     1      -9.497  27.129  15.512  1.00  0.00     0.010 C 
ATOM     26  C   UNL     1      -7.273  26.000  15.004  1.00  0.00     0.012 C 
ATOM     27  C   UNL     1      -8.178  26.334  18.046  1.00  0.00     0.036 C 
ATOM     28  C   UNL     1      -8.977  28.172  16.515  1.00  0.00     0.032 C 
ATOM     29  C   UNL     1      -8.997  27.630  17.947  1.00  0.00     0.114 C 
BRANCH  29  30
ATOM     30  O   UNL     1      -8.464  28.601  18.809  1.00  0.00    -0.393 OA
ATOM     31  H   UNL     1      -8.341  28.162  19.693  1.00  0.00     0.210 HD
ENDBRANCH  29  30
ENDBRANCH   1  11
TORSDOF 6
ENDMDL
MODEL 5
REMARK VINA RESULT:    -5.050      1.780      2.726
REMARK INTER + INTRA:          -7.724
REMARK INTER:                  -6.693
REMARK INTRA:                  -1.031
REMARK UNBOUND:                -1.051
REMARK SMILES CC[C@@H](C=C[C@H](C)[C@H]1CC[C@@H]2C3=CC[C@H]4C[C@@H](O)CC[C@]4(C)[C@H]3CC[C@]21C)C(C)C
REMARK SMILES IDX 6 1 7 2 5 3 4 4 3 5 2 6 1 7 28 8 29 9 30 10 8 11 9 12 26 13
REMARK SMILES IDX 10 14 11 15 25 16 27 17 12 18 24 19 23 20 13 21 21 22 14 23
REMARK SMILES IDX 15 24 20 25 22 26 16 27 19 28 17 29 18 30
REMARK H PARENT 18 31
REMARK Flexibility Score: inf
ROOT
ATOM      1  C   UNL     1      -8.741  24.106  14.926  1.00  0.00     0.012 C 
ATOM      2  C   UNL     1      -9.929  25.091  15.021  1.00  0.00     0.012 C 
ENDROOT
BRANCH   1   3
ATOM      3  C   UNL     1      -8.047  24.078  16.279  1.00  0.00    -0.028 C 
ATOM      4  C   UNL     1      -7.314  25.104  16.747  1.00  0.00    -0.027 C 
BRANCH   4   5
ATOM      5  C   UNL     1      -6.682  25.049  18.122  1.00  0.00     0.014 C 
BRANCH   5   6
ATOM      6  C   UNL     1      -7.158  23.817  18.940  1.00  0.00     0.004 C 
ATOM      7  C   UNL     1      -6.068  22.815  19.342  1.00  0.00     0.004 C 
ENDBRANCH   5   6
BRANCH   5   8
ATOM      8  C   UNL     1      -6.744  26.402  18.897  1.00  0.00    -0.011 C 
ATOM      9  C   UNL     1      -8.194  26.914  18.974  1.00  0.00     0.008 C 
ATOM     10  C   UNL     1      -6.120  26.379  20.304  1.00  0.00     0.008 C 
ENDBRANCH   5   8
ENDBRANCH   4   5
ENDBRANCH   1   3
BRANCH   1  11
ATOM     11  C   UNL     1      -9.124  22.647  14.455  1.00  0.00     0.002 C 
ATOM     12  C   UNL     1     -10.655  22.427  14.262  1.00  0.00     0.005 C 
ATOM     13  C   UNL     1      -8.525  22.180  13.076  1.00  0.00    -0.023 C 
ATOM     14  C   UNL     1     -10.931  22.277  12.764  1.00  0.00     0.009 C 
ATOM     15  C   UNL     1      -9.613  22.621  12.086  1.00  0.00     0.021 C 
ATOM     16  C   UNL     1      -7.143  22.758  12.614  1.00  0.00     0.008 C 
ATOM     17  C   UNL     1      -8.394  20.621  13.138  1.00  0.00     0.012 C 
ATOM     18  C   UNL     1      -9.355  22.095  10.682  1.00  0.00    -0.067 C 
ATOM     19  C   UNL     1      -7.037  23.044  11.089  1.00  0.00     0.009 C 
ATOM     20  C   UNL     1      -7.903  22.117  10.191  1.00  0.00     0.021 C 
ATOM     21  C   UNL     1     -10.375  21.775   9.851  1.00  0.00    -0.027 C 
ATOM     22  C   UNL     1      -7.814  22.436   8.655  1.00  0.00    -0.023 C 
ATOM     23  C   UNL     1     -10.200  21.519   8.374  1.00  0.00     0.031 C 
ATOM     24  C   UNL     1      -8.726  21.381   7.947  1.00  0.00     0.002 C 
ATOM     25  C   UNL     1      -6.351  22.245   8.150  1.00  0.00     0.010 C 
ATOM     26  C   UNL     1      -8.278  23.895   8.363  1.00  0.00     0.012 C 
ATOM     27  C   UNL     1      -8.595  21.392   6.409  1.00  0.00     0.036 C 
ATOM     28  C   UNL     1      -6.236  22.257   6.617  1.00  0.00     0.032 C 
ATOM     29  C   UNL     1      -7.134  21.193   5.979  1.00  0.00     0.114 C 
BRANCH  29  30
ATOM     30  O   UNL     1      -7.029  21.285   4.583  1.00  0.00    -0.393 OA
ATOM     31  H   UNL     1      -7.780  21.861   4.277  1.00  0.00     0.210 HD
ENDBRANCH  29  30
ENDBRANCH   1  11
TORSDOF 6
ENDMDL
MODEL 6
REMARK VINA RESULT:    -4.917      1.634      2.573
REMARK INTER + INTRA:          -7.549
REMARK INTER:                  -6.045
REMARK INTRA:                  -1.504
REMARK UNBOUND:                -1.051
REMARK SMILES CC[C@@H](C=C[C@H](C)[C@H]1CC[C@@H]2C3=CC[C@H]4C[C@@H](O)CC[C@]4(C)[C@H]3CC[C@]21C)C(C)C
REMARK SMILES IDX 6 1 7 2 5 3 4 4 3 5 2 6 1 7 28 8 29 9 30 10 8 11 9 12 26 13
REMARK SMILES IDX 10 14 11 15 25 16 27 17 12 18 24 19 23 20 13 21 21 22 14 23
REMARK SMILES IDX 15 24 20 25 22 26 16 27 19 28 17 29 18 30
REMARK H PARENT 18 31
REMARK Flexibility Score: inf
ROOT
ATOM      1  C   UNL     1     -10.622  22.007  14.530  1.00  0.00     0.012 C 
ATOM      2  C   UNL     1      -9.730  20.910  15.155  1.00  0.00     0.012 C 
ENDROOT
BRANCH   1   3
ATOM      3  C   UNL     1     -10.044  23.359  14.920  1.00  0.00    -0.028 C 
ATOM      4  C   UNL     1      -8.857  23.496  15.539  1.00  0.00    -0.027 C 
BRANCH   4   5
ATOM      5  C   UNL     1      -8.300  24.866  15.864  1.00  0.00     0.014 C 
BRANCH   5   6
ATOM      6  C   UNL     1      -7.602  25.524  14.641  1.00  0.00     0.004 C 
ATOM      7  C   UNL     1      -8.461  26.489  13.816  1.00  0.00     0.004 C 
ENDBRANCH   5   6
BRANCH   5   8
ATOM      8  C   UNL     1      -7.468  24.910  17.183  1.00  0.00    -0.011 C 
ATOM      9  C   UNL     1      -8.253  25.633  18.293  1.00  0.00     0.008 C 
ATOM     10  C   UNL     1      -6.979  23.542  17.693  1.00  0.00     0.008 C 
ENDBRANCH   5   8
ENDBRANCH   4   5
ENDBRANCH   1   3
BRANCH   1  11
ATOM     11  C   UNL     1     -10.807  21.901  12.964  1.00  0.00     0.002 C 
ATOM     12  C   UNL     1     -11.740  22.995  12.363  1.00  0.00     0.005 C 
ATOM     13  C   UNL     1      -9.501  22.037  12.096  1.00  0.00    -0.023 C 
ATOM     14  C   UNL     1     -10.880  23.956  11.537  1.00  0.00     0.009 C 
ATOM     15  C   UNL     1      -9.444  23.549  11.833  1.00  0.00     0.021 C 
ATOM     16  C   UNL     1      -8.134  21.567  12.704  1.00  0.00     0.008 C 
ATOM     17  C   UNL     1      -9.741  21.227  10.778  1.00  0.00     0.012 C 
ATOM     18  C   UNL     1      -8.359  23.914  10.831  1.00  0.00    -0.067 C 
ATOM     19  C   UNL     1      -6.918  22.463  12.332  1.00  0.00     0.009 C 
ATOM     20  C   UNL     1      -7.027  23.168  10.951  1.00  0.00     0.021 C 
ATOM     21  C   UNL     1      -8.509  24.956   9.980  1.00  0.00    -0.027 C 
ATOM     22  C   UNL     1      -5.807  24.095  10.601  1.00  0.00    -0.023 C 
ATOM     23  C   UNL     1      -7.380  25.539   9.166  1.00  0.00     0.031 C 
ATOM     24  C   UNL     1      -6.107  24.672   9.177  1.00  0.00     0.002 C 
ATOM     25  C   UNL     1      -4.495  23.256  10.530  1.00  0.00     0.010 C 
ATOM     26  C   UNL     1      -5.645  25.224  11.663  1.00  0.00     0.012 C 
ATOM     27  C   UNL     1      -4.914  25.436   8.563  1.00  0.00     0.036 C 
ATOM     28  C   UNL     1      -3.317  24.029   9.915  1.00  0.00     0.032 C 
ATOM     29  C   UNL     1      -3.658  24.553   8.518  1.00  0.00     0.114 C 
BRANCH  29  30
ATOM     30  O   UNL     1      -2.570  25.292   8.030  1.00  0.00    -0.393 OA
ATOM     31  H   UNL     1      -2.347  24.916   7.137  1.00  0.00     0.210 HD
ENDBRANCH  29  30
ENDBRANCH   1  11
TORSDOF 6
ENDMDL
MODEL 7
REMARK VINA RESULT:    -4.854      3.311      8.366
REMARK INTER + INTRA:          -7.466
REMARK INTER:                  -6.056
REMARK INTRA:                  -1.410
REMARK UNBOUND:                -1.051
REMARK SMILES CC[C@@H](C=C[C@H](C)[C@H]1CC[C@@H]2C3=CC[C@H]4C[C@@H](O)CC[C@]4(C)[C@H]3CC[C@]21C)C(C)C
REMARK SMILES IDX 6 1 7 2 5 3 4 4 3 5 2 6 1 7 28 8 29 9 30 10 8 11 9 12 26 13
REMARK SMILES IDX 10 14 11 15 25 16 27 17 12 18 24 19 23 20 13 21 21 22 14 23
REMARK SMILES IDX 15 24 20 25 22 26 16 27 19 28 17 29 18 30
REMARK H PARENT 18 31
REMARK Flexibility Score: inf
ROOT
ATOM      1  C   UNL     1      -4.444  23.420   7.477  1.00  0.00     0.012 C 
ATOM      2  C   UNL     1      -3.985  22.618   6.237  1.00  0.00     0.012 C 
ENDROOT
BRANCH   1   3
ATOM      3  C   UNL     1      -3.526  24.625   7.621  1.00  0.00    -0.028 C 
ATOM      4  C   UNL     1      -3.908  25.876   7.308  1.00  0.00    -0.027 C 
BRANCH   4   5
ATOM      5  C   UNL     1      -2.975  27.051   7.515  1.00  0.00     0.014 C 
BRANCH   5   6
ATOM      6  C   UNL     1      -2.964  27.542   8.989  1.00  0.00     0.004 C 
ATOM      7  C   UNL     1      -4.334  27.661   9.669  1.00  0.00     0.004 C 
ENDBRANCH   5   6
BRANCH   5   8
ATOM      8  C   UNL     1      -3.148  28.185   6.458  1.00  0.00    -0.011 C 
ATOM      9  C   UNL     1      -4.510  28.059   5.750  1.00  0.00     0.008 C 
ATOM     10  C   UNL     1      -2.968  29.615   6.997  1.00  0.00     0.008 C 
ENDBRANCH   5   8
ENDBRANCH   4   5
ENDBRANCH   1   3
BRANCH   1  11
ATOM     11  C   UNL     1      -5.961  23.861   7.459  1.00  0.00     0.002 C 
ATOM     12  C   UNL     1      -6.886  22.909   6.642  1.00  0.00     0.005 C 
ATOM     13  C   UNL     1      -6.681  23.938   8.857  1.00  0.00    -0.023 C 
ATOM     14  C   UNL     1      -7.794  22.165   7.625  1.00  0.00     0.009 C 
ATOM     15  C   UNL     1      -7.254  22.520   9.003  1.00  0.00     0.021 C 
ATOM     16  C   UNL     1      -5.834  24.286  10.128  1.00  0.00     0.008 C 
ATOM     17  C   UNL     1      -7.814  25.011   8.729  1.00  0.00     0.012 C 
ATOM     18  C   UNL     1      -8.180  22.399  10.204  1.00  0.00    -0.067 C 
ATOM     19  C   UNL     1      -6.247  23.512  11.413  1.00  0.00     0.009 C 
ATOM     20  C   UNL     1      -7.750  23.122  11.484  1.00  0.00     0.021 C 
ATOM     21  C   UNL     1      -9.246  21.565  10.190  1.00  0.00    -0.027 C 
ATOM     22  C   UNL     1      -8.148  22.313  12.771  1.00  0.00    -0.023 C 
ATOM     23  C   UNL     1     -10.030  21.191  11.424  1.00  0.00     0.031 C 
ATOM     24  C   UNL     1      -9.687  22.055  12.652  1.00  0.00     0.002 C 
ATOM     25  C   UNL     1      -7.885  23.168  14.048  1.00  0.00     0.010 C 
ATOM     26  C   UNL     1      -7.340  20.983  12.862  1.00  0.00     0.012 C 
ATOM     27  C   UNL     1     -10.308  21.462  13.934  1.00  0.00     0.036 C 
ATOM     28  C   UNL     1      -8.512  22.566  15.316  1.00  0.00     0.032 C 
ATOM     29  C   UNL     1     -10.019  22.353  15.151  1.00  0.00     0.114 C 
BRANCH  29  30
ATOM     30  O   UNL     1     -10.525  21.755  16.315  1.00  0.00    -0.393 OA
ATOM     31  H   UNL     1     -10.064  22.188  17.082  1.00  0.00     0.210 HD
ENDBRANCH  29  30
ENDBRANCH   1  11
TORSDOF 6
ENDMDL
MODEL 8
REMARK VINA RESULT:    -4.842      2.955      3.612
REMARK INTER + INTRA:          -7.450
REMARK INTER:                  -6.193
REMARK INTRA:                  -1.257
REMARK UNBOUND:                -1.051
REMARK SMILES CC[C@@H](C=C[C@H](C)[C@H]1CC[C@@H]2C3=CC[C@H]4C[C@@H](O)CC[C@]4(C)[C@H]3CC[C@]21C)C(C)C
REMARK SMILES IDX 6 1 7 2 5 3 4 4 3 5 2 6 1 7 28 8 29 9 30 10 8 11 9 12 26 13
REMARK SMILES IDX 10 14 11 15 25 16 27 17 12 18 24 19 23 20 13 21 21 22 14 23
REMARK SMILES IDX 15 24 20 25 22 26 16 27 19 28 17 29 18 30
REMARK H PARENT 18 31
REMARK Flexibility Score: inf
ROOT
ATOM      1  C   UNL     1      -9.738  22.389  15.172  1.00  0.00     0.012 C 
ATOM      2  C   UNL     1     -10.997  21.756  15.809  1.00  0.00     0.012 C 
ENDROOT
BRANCH   1   3
ATOM      3  C   UNL     1      -8.879  22.954  16.293  1.00  0.00    -0.028 C 
ATOM      4  C   UNL     1      -7.850  23.793  16.075  1.00  0.00    -0.027 C 
BRANCH   4   5
ATOM      5  C   UNL     1      -7.054  24.368  17.228  1.00  0.00     0.014 C 
BRANCH   5   6
ATOM      6  C   UNL     1      -7.307  23.605  18.557  1.00  0.00     0.004 C 
ATOM      7  C   UNL     1      -6.099  22.867  19.148  1.00  0.00     0.004 C 
ENDBRANCH   5   6
BRANCH   5   8
ATOM      8  C   UNL     1      -7.153  25.921  17.346  1.00  0.00    -0.011 C 
ATOM      9  C   UNL     1      -7.338  26.558  15.956  1.00  0.00     0.008 C 
ATOM     10  C   UNL     1      -8.239  26.436  18.307  1.00  0.00     0.008 C 
ENDBRANCH   5   8
ENDBRANCH   4   5
ENDBRANCH   1   3
BRANCH   1  11
ATOM     11  C   UNL     1      -8.900  21.417  14.251  1.00  0.00     0.002 C 
ATOM     12  C   UNL     1      -9.574  20.032  14.015  1.00  0.00     0.005 C 
ATOM     13  C   UNL     1      -8.610  21.920  12.787  1.00  0.00    -0.023 C 
ATOM     14  C   UNL     1     -10.029  19.963  12.555  1.00  0.00     0.009 C 
ATOM     15  C   UNL     1      -9.815  21.368  12.012  1.00  0.00     0.021 C 
ATOM     16  C   UNL     1      -8.488  23.461  12.525  1.00  0.00     0.008 C 
ATOM     17  C   UNL     1      -7.270  21.251  12.330  1.00  0.00     0.012 C 
ATOM     18  C   UNL     1      -9.662  21.556  10.510  1.00  0.00    -0.067 C 
ATOM     19  C   UNL     1      -9.103  23.939  11.178  1.00  0.00     0.009 C 
ATOM     20  C   UNL     1      -9.066  22.885  10.036  1.00  0.00     0.021 C 
ATOM     21  C   UNL     1     -10.174  20.661   9.633  1.00  0.00    -0.027 C 
ATOM     22  C   UNL     1      -9.719  23.368   8.690  1.00  0.00    -0.023 C 
ATOM     23  C   UNL     1     -10.302  20.922   8.152  1.00  0.00     0.031 C 
ATOM     24  C   UNL     1      -9.548  22.181   7.685  1.00  0.00     0.002 C 
ATOM     25  C   UNL     1      -8.950  24.604   8.132  1.00  0.00     0.010 C 
ATOM     26  C   UNL     1     -11.217  23.741   8.902  1.00  0.00     0.012 C 
ATOM     27  C   UNL     1      -9.932  22.547   6.236  1.00  0.00     0.036 C 
ATOM     28  C   UNL     1      -9.340  24.956   6.687  1.00  0.00     0.032 C 
ATOM     29  C   UNL     1      -9.136  23.766   5.746  1.00  0.00     0.114 C 
BRANCH  29  30
ATOM     30  O   UNL     1      -9.557  24.128   4.457  1.00  0.00    -0.393 OA
ATOM     31  H   UNL     1      -9.219  23.425   3.839  1.00  0.00     0.210 HD
ENDBRANCH  29  30
ENDBRANCH   1  11
TORSDOF 6
ENDMDL
MODEL 9
REMARK VINA RESULT:    -4.752      2.088      4.588
REMARK INTER + INTRA:          -7.331
REMARK INTER:                  -5.873
REMARK INTRA:                  -1.458
REMARK UNBOUND:                -1.051
REMARK SMILES CC[C@@H](C=C[C@H](C)[C@H]1CC[C@@H]2C3=CC[C@H]4C[C@@H](O)CC[C@]4(C)[C@H]3CC[C@]21C)C(C)C
REMARK SMILES IDX 6 1 7 2 5 3 4 4 3 5 2 6 1 7 28 8 29 9 30 10 8 11 9 12 26 13
REMARK SMILES IDX 10 14 11 15 25 16 27 17 12 18 24 19 23 20 13 21 21 22 14 23
REMARK SMILES IDX 15 24 20 25 22 26 16 27 19 28 17 29 18 30
REMARK H PARENT 18 31
REMARK Flexibility Score: inf
ROOT
ATOM      1  C   UNL     1      -8.000  23.148  15.071  1.00  0.00     0.012 C 
ATOM      2  C   UNL     1      -7.773  23.657  16.514  1.00  0.00     0.012 C 
ENDROOT
BRANCH   1   3
ATOM      3  C   UNL     1      -8.945  21.958  15.138  1.00  0.00    -0.028 C 
ATOM      4  C   UNL     1     -10.098  21.900  14.447  1.00  0.00    -0.027 C 
BRANCH   4   5
ATOM      5  C   UNL     1     -10.983  20.672  14.507  1.00  0.00     0.014 C 
BRANCH   5   6
ATOM      6  C   UNL     1     -10.977  19.876  13.172  1.00  0.00     0.004 C 
ATOM      7  C   UNL     1     -10.097  20.446  12.053  1.00  0.00     0.004 C 
ENDBRANCH   5   6
BRANCH   5   8
ATOM      8  C   UNL     1     -12.403  20.950  15.088  1.00  0.00    -0.011 C 
ATOM      9  C   UNL     1     -12.353  21.029  16.625  1.00  0.00     0.008 C 
ATOM     10  C   UNL     1     -13.110  22.195  14.522  1.00  0.00     0.008 C 
ENDBRANCH   5   8
ENDBRANCH   4   5
ENDBRANCH   1   3
BRANCH   1  11
ATOM     11  C   UNL     1      -8.531  24.238  14.058  1.00  0.00     0.002 C 
ATOM     12  C   UNL     1      -8.308  25.705  14.534  1.00  0.00     0.005 C 
ATOM     13  C   UNL     1      -7.882  24.231  12.624  1.00  0.00    -0.023 C 
ATOM     14  C   UNL     1      -7.239  26.341  13.641  1.00  0.00     0.009 C 
ATOM     15  C   UNL     1      -6.698  25.193  12.801  1.00  0.00     0.021 C 
ATOM     16  C   UNL     1      -7.362  22.876  12.033  1.00  0.00     0.008 C 
ATOM     17  C   UNL     1      -8.952  24.804  11.635  1.00  0.00     0.012 C 
ATOM     18  C   UNL     1      -6.019  25.513  11.477  1.00  0.00    -0.067 C 
ATOM     19  C   UNL     1      -6.047  22.990  11.209  1.00  0.00     0.009 C 
ATOM     20  C   UNL     1      -5.846  24.354  10.491  1.00  0.00     0.021 C 
ATOM     21  C   UNL     1      -5.455  26.722  11.250  1.00  0.00    -0.027 C 
ATOM     22  C   UNL     1      -4.499  24.469   9.689  1.00  0.00    -0.023 C 
ATOM     23  C   UNL     1      -4.536  27.010  10.087  1.00  0.00     0.031 C 
ATOM     24  C   UNL     1      -4.516  25.889   9.031  1.00  0.00     0.002 C 
ATOM     25  C   UNL     1      -4.453  23.399   8.557  1.00  0.00     0.010 C 
ATOM     26  C   UNL     1      -3.273  24.280  10.632  1.00  0.00     0.012 C 
ATOM     27  C   UNL     1      -3.373  26.108   8.018  1.00  0.00     0.036 C 
ATOM     28  C   UNL     1      -3.311  23.630   7.553  1.00  0.00     0.032 C 
ATOM     29  C   UNL     1      -3.388  25.025   6.928  1.00  0.00     0.114 C 
BRANCH  29  30
ATOM     30  O   UNL     1      -2.295  25.199   6.065  1.00  0.00    -0.393 OA
ATOM     31  H   UNL     1      -2.668  25.282   5.146  1.00  0.00     0.210 HD
ENDBRANCH  29  30
ENDBRANCH   1  11
TORSDOF 6
ENDMDL
