MODEL 1
REMARK VINA RESULT:    -4.082      0.000      0.000
REMARK INTER + INTRA:          -8.082
REMARK INTER:                  -6.468
REMARK INTRA:                  -1.614
REMARK UNBOUND:                -1.614
REMARK SMILES CCCCCCCCCCCC(=O)[O-]
REMARK SMILES IDX 7 1 8 2 9 3 10 4 11 5 12 6 13 7 14 8 6 9 5 10 4 11 3 12 2 13
REMARK SMILES IDX 1 14
REMARK H PARENT
REMARK Flexibility Score: inf
ROOT
ATOM      1  C   UNL     1     -39.396  20.381 -29.256  1.00  0.00     0.000 C 
ENDROOT
BRANCH   1   2
ATOM      2  C   UNL     1     -38.844  18.952 -29.377  1.00  0.00     0.000 C 
BRANCH   2   3
ATOM      3  C   UNL     1     -37.890  18.586 -28.229  1.00  0.00     0.000 C 
BRANCH   3   4
ATOM      4  C   UNL     1     -36.907  17.488 -28.663  1.00  0.00     0.006 C 
BRANCH   4   5
ATOM      5  C   UNL     1     -37.051  17.136 -30.151  1.00  0.00     0.053 C 
BRANCH   5   6
ATOM      6  C   UNL     1     -36.264  15.913 -30.511  1.00  0.00     0.041 C 
ATOM      7  O   UNL     1     -36.642  14.778 -30.120  1.00  0.00    -0.550 OA
ATOM      8  O   UNL     1     -35.094  16.032 -31.250  1.00  0.00    -0.550 OA
ENDBRANCH   5   6
ENDBRANCH   4   5
ENDBRANCH   3   4
ENDBRANCH   2   3
ENDBRANCH   1   2
BRANCH   1   9
ATOM      9  C   UNL     1     -39.127  21.227 -30.512  1.00  0.00     0.000 C 
BRANCH   9  10
ATOM     10  C   UNL     1     -38.085  20.591 -31.452  1.00  0.00    -0.000 C 
BRANCH  10  11
ATOM     11  C   UNL     1     -36.706  21.276 -31.464  1.00  0.00    -0.000 C 
BRANCH  11  12
ATOM     12  C   UNL     1     -35.557  20.316 -31.110  1.00  0.00    -0.000 C 
BRANCH  12  13
ATOM     13  C   UNL     1     -35.056  20.505 -29.669  1.00  0.00    -0.003 C 
ATOM     14  C   UNL     1     -35.716  21.687 -28.962  1.00  0.00     0.004 C 
ENDBRANCH  12  13
ENDBRANCH  11  12
ENDBRANCH  10  11
ENDBRANCH   9  10
ENDBRANCH   1   9
TORSDOF 10
ENDMDL
MODEL 2
REMARK VINA RESULT:    -3.899      1.928      3.634
REMARK INTER + INTRA:          -7.793
REMARK INTER:                  -6.645
REMARK INTRA:                  -1.148
REMARK UNBOUND:                -1.614
REMARK SMILES CCCCCCCCCCCC(=O)[O-]
REMARK SMILES IDX 7 1 8 2 9 3 10 4 11 5 12 6 13 7 14 8 6 9 5 10 4 11 3 12 2 13
REMARK SMILES IDX 1 14
REMARK H PARENT
REMARK Flexibility Score: inf
ROOT
ATOM      1  C   UNL     1     -35.060  20.393 -30.826  1.00  0.00     0.000 C 
ENDROOT
BRANCH   1   2
ATOM      2  C   UNL     1     -35.321  19.203 -29.889  1.00  0.00     0.000 C 
BRANCH   2   3
ATOM      3  C   UNL     1     -34.676  17.901 -30.389  1.00  0.00     0.000 C 
BRANCH   3   4
ATOM      4  C   UNL     1     -35.750  16.880 -30.795  1.00  0.00     0.006 C 
BRANCH   4   5
ATOM      5  C   UNL     1     -37.145  17.271 -30.288  1.00  0.00     0.053 C 
BRANCH   5   6
ATOM      6  C   UNL     1     -38.073  17.606 -31.415  1.00  0.00     0.041 C 
ATOM      7  O   UNL     1     -38.150  18.787 -31.843  1.00  0.00    -0.550 OA
ATOM      8  O   UNL     1     -38.877  16.619 -31.971  1.00  0.00    -0.550 OA
ENDBRANCH   5   6
ENDBRANCH   4   5
ENDBRANCH   3   4
ENDBRANCH   2   3
ENDBRANCH   1   2
BRANCH   1   9
ATOM      9  C   UNL     1     -36.121  21.498 -30.688  1.00  0.00     0.000 C 
BRANCH   9  10
ATOM     10  C   UNL     1     -36.562  21.729 -29.231  1.00  0.00    -0.000 C 
BRANCH  10  11
ATOM     11  C   UNL     1     -38.004  22.238 -29.051  1.00  0.00    -0.000 C 
BRANCH  11  12
ATOM     12  C   UNL     1     -39.062  21.181 -29.413  1.00  0.00    -0.000 C 
BRANCH  12  13
ATOM     13  C   UNL     1     -38.924  19.900 -28.575  1.00  0.00    -0.003 C 
ATOM     14  C   UNL     1     -40.190  19.044 -28.590  1.00  0.00     0.004 C 
ENDBRANCH  12  13
ENDBRANCH  11  12
ENDBRANCH  10  11
ENDBRANCH   9  10
ENDBRANCH   1   9
TORSDOF 10
ENDMDL
MODEL 3
REMARK VINA RESULT:    -3.857      3.000      4.603
REMARK INTER + INTRA:          -7.727
REMARK INTER:                  -6.241
REMARK INTRA:                  -1.486
REMARK UNBOUND:                -1.614
REMARK SMILES CCCCCCCCCCCC(=O)[O-]
REMARK SMILES IDX 7 1 8 2 9 3 10 4 11 5 12 6 13 7 14 8 6 9 5 10 4 11 3 12 2 13
REMARK SMILES IDX 1 14
REMARK H PARENT
REMARK Flexibility Score: inf
ROOT
ATOM      1  C   UNL     1     -38.523  22.097 -28.882  1.00  0.00     0.000 C 
ENDROOT
BRANCH   1   2
ATOM      2  C   UNL     1     -37.124  22.278 -29.494  1.00  0.00     0.000 C 
BRANCH   2   3
ATOM      3  C   UNL     1     -36.210  21.067 -29.253  1.00  0.00     0.000 C 
BRANCH   3   4
ATOM      4  C   UNL     1     -35.290  20.827 -30.461  1.00  0.00     0.006 C 
BRANCH   4   5
ATOM      5  C   UNL     1     -36.041  20.947 -31.795  1.00  0.00     0.053 C 
BRANCH   5   6
ATOM      6  C   UNL     1     -35.362  21.899 -32.731  1.00  0.00     0.041 C 
ATOM      7  O   UNL     1     -34.482  22.690 -32.302  1.00  0.00    -0.550 OA
ATOM      8  O   UNL     1     -35.726  21.935 -34.071  1.00  0.00    -0.550 OA
ENDBRANCH   5   6
ENDBRANCH   4   5
ENDBRANCH   3   4
ENDBRANCH   2   3
ENDBRANCH   1   2
BRANCH   1   9
ATOM      9  C   UNL     1     -39.395  21.115 -29.683  1.00  0.00     0.000 C 
BRANCH   9  10
ATOM     10  C   UNL     1     -39.764  19.851 -28.885  1.00  0.00    -0.000 C 
BRANCH  10  11
ATOM     11  C   UNL     1     -38.847  18.636 -29.113  1.00  0.00    -0.000 C 
BRANCH  11  12
ATOM     12  C   UNL     1     -38.499  18.418 -30.596  1.00  0.00    -0.000 C 
BRANCH  12  13
ATOM     13  C   UNL     1     -37.374  17.389 -30.791  1.00  0.00    -0.003 C 
ATOM     14  C   UNL     1     -36.420  17.320 -29.599  1.00  0.00     0.004 C 
ENDBRANCH  12  13
ENDBRANCH  11  12
ENDBRANCH  10  11
ENDBRANCH   9  10
ENDBRANCH   1   9
TORSDOF 10
ENDMDL
MODEL 4
REMARK VINA RESULT:    -3.834      1.140      2.983
REMARK INTER + INTRA:          -7.690
REMARK INTER:                  -6.080
REMARK INTRA:                  -1.610
REMARK UNBOUND:                -1.614
REMARK SMILES CCCCCCCCCCCC(=O)[O-]
REMARK SMILES IDX 7 1 8 2 9 3 10 4 11 5 12 6 13 7 14 8 6 9 5 10 4 11 3 12 2 13
REMARK SMILES IDX 1 14
REMARK H PARENT
REMARK Flexibility Score: inf
ROOT
ATOM      1  C   UNL     1     -35.009  20.950 -30.691  1.00  0.00     0.000 C 
ENDROOT
BRANCH   1   2
ATOM      2  C   UNL     1     -35.164  21.073 -29.166  1.00  0.00     0.000 C 
BRANCH   2   3
ATOM      3  C   UNL     1     -35.395  19.716 -28.482  1.00  0.00     0.000 C 
BRANCH   3   4
ATOM      4  C   UNL     1     -35.341  18.571 -29.505  1.00  0.00     0.006 C 
BRANCH   4   5
ATOM      5  C   UNL     1     -36.472  17.553 -29.297  1.00  0.00     0.053 C 
BRANCH   5   6
ATOM      6  C   UNL     1     -36.654  16.673 -30.495  1.00  0.00     0.041 C 
ATOM      7  O   UNL     1     -37.702  16.753 -31.187  1.00  0.00    -0.550 OA
ATOM      8  O   UNL     1     -35.680  15.740 -30.827  1.00  0.00    -0.550 OA
ENDBRANCH   5   6
ENDBRANCH   4   5
ENDBRANCH   3   4
ENDBRANCH   2   3
ENDBRANCH   1   2
BRANCH   1   9
ATOM      9  C   UNL     1     -36.098  21.718 -31.459  1.00  0.00     0.000 C 
BRANCH   9  10
ATOM     10  C   UNL     1     -37.035  20.794 -32.258  1.00  0.00    -0.000 C 
BRANCH  10  11
ATOM     11  C   UNL     1     -38.179  20.156 -31.448  1.00  0.00    -0.000 C 
BRANCH  11  12
ATOM     12  C   UNL     1     -38.843  21.141 -30.470  1.00  0.00    -0.000 C 
BRANCH  12  13
ATOM     13  C   UNL     1     -38.944  20.576 -29.044  1.00  0.00    -0.003 C 
ATOM     14  C   UNL     1     -39.597  19.195 -28.999  1.00  0.00     0.004 C 
ENDBRANCH  12  13
ENDBRANCH  11  12
ENDBRANCH  10  11
ENDBRANCH   9  10
ENDBRANCH   1   9
TORSDOF 10
ENDMDL
MODEL 5
REMARK VINA RESULT:    -3.805      2.913      5.179
REMARK INTER + INTRA:          -7.644
REMARK INTER:                  -6.095
REMARK INTRA:                  -1.549
REMARK UNBOUND:                -1.614
REMARK SMILES CCCCCCCCCCCC(=O)[O-]
REMARK SMILES IDX 7 1 8 2 9 3 10 4 11 5 12 6 13 7 14 8 6 9 5 10 4 11 3 12 2 13
REMARK SMILES IDX 1 14
REMARK H PARENT
REMARK Flexibility Score: inf
ROOT
ATOM      1  C   UNL     1     -34.516  20.840 -31.315  1.00  0.00     0.000 C 
ENDROOT
BRANCH   1   2
ATOM      2  C   UNL     1     -35.840  21.604 -31.478  1.00  0.00     0.000 C 
BRANCH   2   3
ATOM      3  C   UNL     1     -36.818  20.901 -32.433  1.00  0.00     0.000 C 
BRANCH   3   4
ATOM      4  C   UNL     1     -38.216  20.795 -31.804  1.00  0.00     0.006 C 
BRANCH   4   5
ATOM      5  C   UNL     1     -38.216  21.190 -30.320  1.00  0.00     0.053 C 
BRANCH   5   6
ATOM      6  C   UNL     1     -39.573  21.037 -29.705  1.00  0.00     0.041 C 
ATOM      7  O   UNL     1     -40.453  21.919 -29.883  1.00  0.00    -0.550 OA
ATOM      8  O   UNL     1     -39.854  19.935 -28.907  1.00  0.00    -0.550 OA
ENDBRANCH   5   6
ENDBRANCH   4   5
ENDBRANCH   3   4
ENDBRANCH   2   3
ENDBRANCH   1   2
BRANCH   1   9
ATOM      9  C   UNL     1     -34.358  20.225 -29.915  1.00  0.00     0.000 C 
BRANCH   9  10
ATOM     10  C   UNL     1     -34.929  18.798 -29.818  1.00  0.00    -0.000 C 
BRANCH  10  11
ATOM     11  C   UNL     1     -36.027  18.598 -28.757  1.00  0.00    -0.000 C 
BRANCH  11  12
ATOM     12  C   UNL     1     -37.214  17.765 -29.271  1.00  0.00    -0.000 C 
BRANCH  12  13
ATOM     13  C   UNL     1     -37.050  17.352 -30.742  1.00  0.00    -0.003 C 
ATOM     14  C   UNL     1     -38.381  17.281 -31.489  1.00  0.00     0.004 C 
ENDBRANCH  12  13
ENDBRANCH  11  12
ENDBRANCH  10  11
ENDBRANCH   9  10
ENDBRANCH   1   9
TORSDOF 10
ENDMDL
MODEL 6
REMARK VINA RESULT:    -3.789      1.111      1.896
REMARK INTER + INTRA:          -7.618
REMARK INTER:                  -6.326
REMARK INTRA:                  -1.292
REMARK UNBOUND:                -1.614
REMARK SMILES CCCCCCCCCCCC(=O)[O-]
REMARK SMILES IDX 7 1 8 2 9 3 10 4 11 5 12 6 13 7 14 8 6 9 5 10 4 11 3 12 2 13
REMARK SMILES IDX 1 14
REMARK H PARENT
REMARK Flexibility Score: inf
ROOT
ATOM      1  C   UNL     1     -38.829  20.808 -29.901  1.00  0.00     0.000 C 
ENDROOT
BRANCH   1   2
ATOM      2  C   UNL     1     -39.348  19.641 -29.047  1.00  0.00     0.000 C 
BRANCH   2   3
ATOM      3  C   UNL     1     -38.365  18.462 -28.993  1.00  0.00     0.000 C 
BRANCH   3   4
ATOM      4  C   UNL     1     -37.704  18.237 -30.362  1.00  0.00     0.006 C 
BRANCH   4   5
ATOM      5  C   UNL     1     -36.224  17.847 -30.235  1.00  0.00     0.053 C 
BRANCH   5   6
ATOM      6  C   UNL     1     -35.993  16.415 -30.609  1.00  0.00     0.041 C 
ATOM      7  O   UNL     1     -36.695  15.505 -30.096  1.00  0.00    -0.550 OA
ATOM      8  O   UNL     1     -34.980  16.083 -31.500  1.00  0.00    -0.550 OA
ENDBRANCH   5   6
ENDBRANCH   4   5
ENDBRANCH   3   4
ENDBRANCH   2   3
ENDBRANCH   1   2
BRANCH   1   9
ATOM      9  C   UNL     1     -38.666  22.106 -29.090  1.00  0.00     0.000 C 
BRANCH   9  10
ATOM     10  C   UNL     1     -37.193  22.504 -28.885  1.00  0.00    -0.000 C 
BRANCH  10  11
ATOM     11  C   UNL     1     -36.163  21.407 -29.210  1.00  0.00    -0.000 C 
BRANCH  11  12
ATOM     12  C   UNL     1     -35.007  21.912 -30.091  1.00  0.00    -0.000 C 
BRANCH  12  13
ATOM     13  C   UNL     1     -35.478  22.354 -31.486  1.00  0.00    -0.003 C 
ATOM     14  C   UNL     1     -36.175  21.233 -32.257  1.00  0.00     0.004 C 
ENDBRANCH  12  13
ENDBRANCH  11  12
ENDBRANCH  10  11
ENDBRANCH   9  10
ENDBRANCH   1   9
TORSDOF 10
ENDMDL
MODEL 7
REMARK VINA RESULT:    -3.707      2.448      5.211
REMARK INTER + INTRA:          -7.488
REMARK INTER:                  -6.764
REMARK INTRA:                  -0.725
REMARK UNBOUND:                -1.614
REMARK SMILES CCCCCCCCCCCC(=O)[O-]
REMARK SMILES IDX 7 1 8 2 9 3 10 4 11 5 12 6 13 7 14 8 6 9 5 10 4 11 3 12 2 13
REMARK SMILES IDX 1 14
REMARK H PARENT
REMARK Flexibility Score: inf
ROOT
ATOM      1  C   UNL     1     -35.231  20.005 -29.464  1.00  0.00     0.000 C 
ENDROOT
BRANCH   1   2
ATOM      2  C   UNL     1     -35.620  20.856 -30.684  1.00  0.00     0.000 C 
BRANCH   2   3
ATOM      3  C   UNL     1     -37.006  21.503 -30.539  1.00  0.00     0.000 C 
BRANCH   3   4
ATOM      4  C   UNL     1     -37.710  21.010 -29.265  1.00  0.00     0.006 C 
BRANCH   4   5
ATOM      5  C   UNL     1     -39.110  20.450 -29.555  1.00  0.00     0.053 C 
BRANCH   5   6
ATOM      6  C   UNL     1     -39.422  19.263 -28.697  1.00  0.00     0.041 C 
ATOM      7  O   UNL     1     -40.612  19.015 -28.367  1.00  0.00    -0.550 OA
ATOM      8  O   UNL     1     -38.396  18.449 -28.235  1.00  0.00    -0.550 OA
ENDBRANCH   5   6
ENDBRANCH   4   5
ENDBRANCH   3   4
ENDBRANCH   2   3
ENDBRANCH   1   2
BRANCH   1   9
ATOM      9  C   UNL     1     -34.792  18.583 -29.851  1.00  0.00     0.000 C 
BRANCH   9  10
ATOM     10  C   UNL     1     -35.881  17.804 -30.610  1.00  0.00    -0.000 C 
BRANCH  10  11
ATOM     11  C   UNL     1     -35.645  16.286 -30.726  1.00  0.00    -0.000 C 
BRANCH  11  12
ATOM     12  C   UNL     1     -36.853  15.454 -30.262  1.00  0.00    -0.000 C 
BRANCH  12  13
ATOM     13  C   UNL     1     -36.443  14.081 -29.707  1.00  0.00    -0.003 C 
ATOM     14  C   UNL     1     -37.237  12.931 -30.325  1.00  0.00     0.004 C 
ENDBRANCH  12  13
ENDBRANCH  11  12
ENDBRANCH  10  11
ENDBRANCH   9  10
ENDBRANCH   1   9
TORSDOF 10
ENDMDL
MODEL 8
REMARK VINA RESULT:    -3.687      2.670      5.046
REMARK INTER + INTRA:          -7.457
REMARK INTER:                  -6.212
REMARK INTRA:                  -1.244
REMARK UNBOUND:                -1.614
REMARK SMILES CCCCCCCCCCCC(=O)[O-]
REMARK SMILES IDX 7 1 8 2 9 3 10 4 11 5 12 6 13 7 14 8 6 9 5 10 4 11 3 12 2 13
REMARK SMILES IDX 1 14
REMARK H PARENT
REMARK Flexibility Score: inf
ROOT
ATOM      1  C   UNL     1     -34.377  18.647 -29.177  1.00  0.00     0.000 C 
ENDROOT
BRANCH   1   2
ATOM      2  C   UNL     1     -34.741  20.113 -29.465  1.00  0.00     0.000 C 
BRANCH   2   3
ATOM      3  C   UNL     1     -34.445  20.524 -30.915  1.00  0.00     0.000 C 
BRANCH   3   4
ATOM      4  C   UNL     1     -35.741  20.878 -31.659  1.00  0.00     0.006 C 
BRANCH   4   5
ATOM      5  C   UNL     1     -36.856  21.324 -30.703  1.00  0.00     0.053 C 
BRANCH   5   6
ATOM      6  C   UNL     1     -38.216  21.052 -31.269  1.00  0.00     0.041 C 
ATOM      7  O   UNL     1     -38.337  20.428 -32.355  1.00  0.00    -0.550 OA
ATOM      8  O   UNL     1     -39.349  21.517 -30.613  1.00  0.00    -0.550 OA
ENDBRANCH   5   6
ENDBRANCH   4   5
ENDBRANCH   3   4
ENDBRANCH   2   3
ENDBRANCH   1   2
BRANCH   1   9
ATOM      9  C   UNL     1     -34.363  17.782 -30.449  1.00  0.00     0.000 C 
BRANCH   9  10
ATOM     10  C   UNL     1     -35.673  17.001 -30.659  1.00  0.00    -0.000 C 
BRANCH  10  11
ATOM     11  C   UNL     1     -36.650  17.023 -29.469  1.00  0.00    -0.000 C 
BRANCH  11  12
ATOM     12  C   UNL     1     -37.857  17.949 -29.701  1.00  0.00    -0.000 C 
BRANCH  12  13
ATOM     13  C   UNL     1     -38.301  18.669 -28.418  1.00  0.00    -0.003 C 
ATOM     14  C   UNL     1     -39.787  19.026 -28.423  1.00  0.00     0.004 C 
ENDBRANCH  12  13
ENDBRANCH  11  12
ENDBRANCH  10  11
ENDBRANCH   9  10
ENDBRANCH   1   9
TORSDOF 10
ENDMDL
MODEL 9
REMARK VINA RESULT:    -3.669     13.653     15.069
REMARK INTER + INTRA:          -7.428
REMARK INTER:                  -6.128
REMARK INTRA:                  -1.300
REMARK UNBOUND:                -1.614
REMARK SMILES CCCCCCCCCCCC(=O)[O-]
REMARK SMILES IDX 7 1 8 2 9 3 10 4 11 5 12 6 13 7 14 8 6 9 5 10 4 11 3 12 2 13
REMARK SMILES IDX 1 14
REMARK H PARENT
REMARK Flexibility Score: inf
ROOT
ATOM      1  C   UNL     1     -50.896  17.046 -30.788  1.00  0.00     0.000 C 
ENDROOT
BRANCH   1   2
ATOM      2  C   UNL     1     -50.934  15.828 -31.725  1.00  0.00     0.000 C 
BRANCH   2   3
ATOM      3  C   UNL     1     -49.686  14.941 -31.595  1.00  0.00     0.000 C 
BRANCH   3   4
ATOM      4  C   UNL     1     -50.079  13.484 -31.302  1.00  0.00     0.006 C 
BRANCH   4   5
ATOM      5  C   UNL     1     -49.434  12.957 -30.013  1.00  0.00     0.053 C 
BRANCH   5   6
ATOM      6  C   UNL     1     -49.230  11.474 -30.060  1.00  0.00     0.041 C 
ATOM      7  O   UNL     1     -49.464  10.835 -31.119  1.00  0.00    -0.550 OA
ATOM      8  O   UNL     1     -48.813  10.792 -28.923  1.00  0.00    -0.550 OA
ENDBRANCH   5   6
ENDBRANCH   4   5
ENDBRANCH   3   4
ENDBRANCH   2   3
ENDBRANCH   1   2
BRANCH   1   9
ATOM      9  C   UNL     1     -52.247  17.779 -30.717  1.00  0.00     0.000 C 
BRANCH   9  10
ATOM     10  C   UNL     1     -52.862  17.768 -29.305  1.00  0.00    -0.000 C 
BRANCH  10  11
ATOM     11  C   UNL     1     -52.177  16.829 -28.296  1.00  0.00    -0.000 C 
BRANCH  11  12
ATOM     12  C   UNL     1     -53.054  15.626 -27.905  1.00  0.00    -0.000 C 
BRANCH  12  13
ATOM     13  C   UNL     1     -52.675  14.348 -28.670  1.00  0.00    -0.003 C 
ATOM     14  C   UNL     1     -53.606  14.064 -29.848  1.00  0.00     0.004 C 
ENDBRANCH  12  13
ENDBRANCH  11  12
ENDBRANCH  10  11
ENDBRANCH   9  10
ENDBRANCH   1   9
TORSDOF 10
ENDMDL
