MODEL 1
REMARK VINA RESULT:    -0.480      0.000      0.000
REMARK INTER + INTRA:          -1.657
REMARK INTER:                  -1.209
REMARK INTRA:                  -0.448
REMARK UNBOUND:                -0.448
REMARK SMILES CCCCCCCCCCCCCCCCCCCCCCCCCCCC(=O)[O-]
REMARK SMILES IDX 15 1 16 2 17 3 18 4 19 5 20 6 21 7 22 8 23 9 24 10 25 11
REMARK SMILES IDX 26 12 27 13 28 14 29 15 30 16 14 17 13 18 12 19 11 20 10 21
REMARK SMILES IDX 9 22 8 23 7 24 6 25 5 26 4 27 3 28 2 29 1 30
REMARK H PARENT
REMARK Flexibility Score: inf
ROOT
ATOM      1  C   UNL     1       7.355  -5.678   7.170  1.00  0.00     0.000 C 
ENDROOT
BRANCH   1   2
ATOM      2  C   UNL     1       6.274  -6.515   6.459  1.00  0.00     0.000 C 
BRANCH   2   3
ATOM      3  C   UNL     1       6.040  -7.903   7.089  1.00  0.00     0.000 C 
BRANCH   3   4
ATOM      4  C   UNL     1       5.170  -8.821   6.212  1.00  0.00     0.000 C 
BRANCH   4   5
ATOM      5  C   UNL     1       4.309  -9.778   7.056  1.00  0.00     0.000 C 
BRANCH   5   6
ATOM      6  C   UNL     1       4.796  -9.861   8.514  1.00  0.00     0.000 C 
BRANCH   6   7
ATOM      7  C   UNL     1       3.915  -9.046   9.474  1.00  0.00     0.000 C 
BRANCH   7   8
ATOM      8  C   UNL     1       4.661  -7.836  10.062  1.00  0.00     0.000 C 
BRANCH   8   9
ATOM      9  C   UNL     1       3.916  -6.511   9.834  1.00  0.00     0.000 C 
BRANCH   9  10
ATOM     10  C   UNL     1       4.013  -6.020   8.379  1.00  0.00     0.000 C 
BRANCH  10  11
ATOM     11  C   UNL     1       2.634  -5.841   7.723  1.00  0.00     0.000 C 
BRANCH  11  12
ATOM     12  C   UNL     1       1.848  -7.163   7.625  1.00  0.00     0.006 C 
BRANCH  12  13
ATOM     13  C   UNL     1       0.410  -6.950   7.132  1.00  0.00     0.053 C 
BRANCH  13  14
ATOM     14  C   UNL     1      -0.032  -5.529   7.303  1.00  0.00     0.041 C 
ATOM     15  O   UNL     1       0.235  -4.904   8.364  1.00  0.00    -0.550 OA
ATOM     16  O   UNL     1      -0.727  -4.889   6.285  1.00  0.00    -0.550 OA
ENDBRANCH  13  14
ENDBRANCH  12  13
ENDBRANCH  11  12
ENDBRANCH  10  11
ENDBRANCH   9  10
ENDBRANCH   8   9
ENDBRANCH   7   8
ENDBRANCH   6   7
ENDBRANCH   5   6
ENDBRANCH   4   5
ENDBRANCH   3   4
ENDBRANCH   2   3
ENDBRANCH   1   2
BRANCH   1  17
ATOM     17  C   UNL     1       7.350  -5.770   8.704  1.00  0.00     0.000 C 
BRANCH  17  18
ATOM     18  C   UNL     1       8.628  -5.189   9.334  1.00  0.00     0.000 C 
BRANCH  18  19
ATOM     19  C   UNL     1       8.435  -3.780   9.926  1.00  0.00     0.000 C 
BRANCH  19  20
ATOM     20  C   UNL     1       9.560  -2.771   9.617  1.00  0.00     0.000 C 
BRANCH  20  21
ATOM     21  C   UNL     1       9.257  -1.349  10.120  1.00  0.00     0.000 C 
BRANCH  21  22
ATOM     22  C   UNL     1       8.246  -0.612   9.225  1.00  0.00    -0.000 C 
BRANCH  22  23
ATOM     23  C   UNL     1       7.754   0.697   9.864  1.00  0.00    -0.000 C 
BRANCH  23  24
ATOM     24  C   UNL     1       8.889   1.708  10.116  1.00  0.00    -0.000 C 
BRANCH  24  25
ATOM     25  C   UNL     1       8.459   3.191  10.124  1.00  0.00    -0.000 C 
BRANCH  25  26
ATOM     26  C   UNL     1       9.417   4.152   9.391  1.00  0.00    -0.000 C 
BRANCH  26  27
ATOM     27  C   UNL     1       9.607   5.515  10.081  1.00  0.00    -0.000 C 
BRANCH  27  28
ATOM     28  C   UNL     1       8.969   6.690   9.309  1.00  0.00    -0.000 C 
BRANCH  28  29
ATOM     29  C   UNL     1       7.801   7.325  10.074  1.00  0.00    -0.003 C 
ATOM     30  C   UNL     1       6.817   7.998   9.120  1.00  0.00     0.004 C 
ENDBRANCH  28  29
ENDBRANCH  27  28
ENDBRANCH  26  27
ENDBRANCH  25  26
ENDBRANCH  24  25
ENDBRANCH  23  24
ENDBRANCH  22  23
ENDBRANCH  21  22
ENDBRANCH  20  21
ENDBRANCH  19  20
ENDBRANCH  18  19
ENDBRANCH  17  18
ENDBRANCH   1  17
TORSDOF 26
ENDMDL
MODEL 2
REMARK VINA RESULT:    -0.343     11.867     16.772
REMARK INTER + INTRA:          -1.312
REMARK INTER:                  -2.578
REMARK INTRA:                   1.266
REMARK UNBOUND:                -0.448
REMARK SMILES CCCCCCCCCCCCCCCCCCCCCCCCCCCC(=O)[O-]
REMARK SMILES IDX 15 1 16 2 17 3 18 4 19 5 20 6 21 7 22 8 23 9 24 10 25 11
REMARK SMILES IDX 26 12 27 13 28 14 29 15 30 16 14 17 13 18 12 19 11 20 10 21
REMARK SMILES IDX 9 22 8 23 7 24 6 25 5 26 4 27 3 28 2 29 1 30
REMARK H PARENT
REMARK Flexibility Score: inf
ROOT
ATOM      1  C   UNL     1      -4.017   9.577   8.620  1.00  0.00     0.000 C 
ENDROOT
BRANCH   1   2
ATOM      2  C   UNL     1      -4.168  10.123   7.188  1.00  0.00     0.000 C 
BRANCH   2   3
ATOM      3  C   UNL     1      -2.862  10.101   6.367  1.00  0.00     0.000 C 
BRANCH   3   4
ATOM      4  C   UNL     1      -2.143   8.741   6.421  1.00  0.00     0.000 C 
BRANCH   4   5
ATOM      5  C   UNL     1      -0.760   8.845   7.088  1.00  0.00     0.000 C 
BRANCH   5   6
ATOM      6  C   UNL     1      -0.713   9.957   8.152  1.00  0.00     0.000 C 
BRANCH   6   7
ATOM      7  C   UNL     1      -0.550   9.400   9.576  1.00  0.00     0.000 C 
BRANCH   7   8
ATOM      8  C   UNL     1       0.919   9.391  10.031  1.00  0.00     0.000 C 
BRANCH   8   9
ATOM      9  C   UNL     1       1.850  10.120   9.048  1.00  0.00     0.000 C 
BRANCH   9  10
ATOM     10  C   UNL     1       2.863   9.174   8.381  1.00  0.00     0.000 C 
BRANCH  10  11
ATOM     11  C   UNL     1       4.159   9.026   9.195  1.00  0.00     0.000 C 
BRANCH  11  12
ATOM     12  C   UNL     1       5.229   8.195   8.461  1.00  0.00     0.006 C 
BRANCH  12  13
ATOM     13  C   UNL     1       5.081   8.274   6.935  1.00  0.00     0.053 C 
BRANCH  13  14
ATOM     14  C   UNL     1       6.195   9.055   6.309  1.00  0.00     0.041 C 
ATOM     15  O   UNL     1       6.976   9.735   7.026  1.00  0.00    -0.550 OA
ATOM     16  O   UNL     1       6.381   9.020   4.933  1.00  0.00    -0.550 OA
ENDBRANCH  13  14
ENDBRANCH  12  13
ENDBRANCH  11  12
ENDBRANCH  10  11
ENDBRANCH   9  10
ENDBRANCH   8   9
ENDBRANCH   7   8
ENDBRANCH   6   7
ENDBRANCH   5   6
ENDBRANCH   4   5
ENDBRANCH   3   4
ENDBRANCH   2   3
ENDBRANCH   1   2
BRANCH   1  17
ATOM     17  C   UNL     1      -5.076  10.064   9.622  1.00  0.00     0.000 C 
BRANCH  17  18
ATOM     18  C   UNL     1      -6.489  10.104   9.013  1.00  0.00     0.000 C 
BRANCH  18  19
ATOM     19  C   UNL     1      -7.175   8.726   8.963  1.00  0.00     0.000 C 
BRANCH  19  20
ATOM     20  C   UNL     1      -6.830   7.771  10.123  1.00  0.00     0.000 C 
BRANCH  20  21
ATOM     21  C   UNL     1      -5.998   6.553   9.683  1.00  0.00     0.000 C 
BRANCH  21  22
ATOM     22  C   UNL     1      -5.437   6.708   8.260  1.00  0.00    -0.000 C 
BRANCH  22  23
ATOM     23  C   UNL     1      -3.899   6.746   8.246  1.00  0.00    -0.000 C 
BRANCH  23  24
ATOM     24  C   UNL     1      -3.291   6.062   7.007  1.00  0.00    -0.000 C 
BRANCH  24  25
ATOM     25  C   UNL     1      -3.806   4.634   6.725  1.00  0.00    -0.000 C 
BRANCH  25  26
ATOM     26  C   UNL     1      -2.954   3.817   5.735  1.00  0.00    -0.000 C 
BRANCH  26  27
ATOM     27  C   UNL     1      -2.285   4.650   4.626  1.00  0.00    -0.000 C 
BRANCH  27  28
ATOM     28  C   UNL     1      -2.348   6.172   4.877  1.00  0.00    -0.000 C 
BRANCH  28  29
ATOM     29  C   UNL     1      -2.070   6.985   3.606  1.00  0.00    -0.003 C 
ATOM     30  C   UNL     1      -2.972   8.214   3.530  1.00  0.00     0.004 C 
ENDBRANCH  28  29
ENDBRANCH  27  28
ENDBRANCH  26  27
ENDBRANCH  25  26
ENDBRANCH  24  25
ENDBRANCH  23  24
ENDBRANCH  22  23
ENDBRANCH  21  22
ENDBRANCH  20  21
ENDBRANCH  19  20
ENDBRANCH  18  19
ENDBRANCH  17  18
ENDBRANCH   1  17
TORSDOF 26
ENDMDL
MODEL 3
REMARK VINA RESULT:     0.468      1.232      2.072
REMARK INTER + INTRA:           0.732
REMARK INTER:                   2.283
REMARK INTRA:                  -1.551
REMARK UNBOUND:                -0.448
REMARK SMILES CCCCCCCCCCCCCCCCCCCCCCCCCCCC(=O)[O-]
REMARK SMILES IDX 15 1 16 2 17 3 18 4 19 5 20 6 21 7 22 8 23 9 24 10 25 11
REMARK SMILES IDX 26 12 27 13 28 14 29 15 30 16 14 17 13 18 12 19 11 20 10 21
REMARK SMILES IDX 9 22 8 23 7 24 6 25 5 26 4 27 3 28 2 29 1 30
REMARK H PARENT
REMARK Flexibility Score: inf
ROOT
ATOM      1  C   UNL     1       7.443  -5.886   6.744  1.00  0.00     0.000 C 
ENDROOT
BRANCH   1   2
ATOM      2  C   UNL     1       7.148  -6.555   5.389  1.00  0.00     0.000 C 
BRANCH   2   3
ATOM      3  C   UNL     1       5.988  -7.571   5.431  1.00  0.00     0.000 C 
BRANCH   3   4
ATOM      4  C   UNL     1       6.471  -9.029   5.522  1.00  0.00     0.000 C 
BRANCH   4   5
ATOM      5  C   UNL     1       5.352  -9.980   5.986  1.00  0.00     0.000 C 
BRANCH   5   6
ATOM      6  C   UNL     1       5.301 -10.109   7.519  1.00  0.00     0.000 C 
BRANCH   6   7
ATOM      7  C   UNL     1       4.098  -9.374   8.130  1.00  0.00     0.000 C 
BRANCH   7   8
ATOM      8  C   UNL     1       4.360  -8.936   9.581  1.00  0.00     0.000 C 
BRANCH   8   9
ATOM      9  C   UNL     1       4.297  -7.411   9.762  1.00  0.00     0.000 C 
BRANCH   9  10
ATOM     10  C   UNL     1       3.274  -6.746   8.825  1.00  0.00     0.000 C 
BRANCH  10  11
ATOM     11  C   UNL     1       2.621  -5.502   9.451  1.00  0.00     0.000 C 
BRANCH  11  12
ATOM     12  C   UNL     1       2.618  -4.292   8.497  1.00  0.00     0.006 C 
BRANCH  12  13
ATOM     13  C   UNL     1       2.051  -4.642   7.114  1.00  0.00     0.053 C 
BRANCH  13  14
ATOM     14  C   UNL     1       0.670  -5.213   7.208  1.00  0.00     0.041 C 
ATOM     15  O   UNL     1      -0.337  -4.466   7.082  1.00  0.00    -0.550 OA
ATOM     16  O   UNL     1       0.493  -6.574   7.421  1.00  0.00    -0.550 OA
ENDBRANCH  13  14
ENDBRANCH  12  13
ENDBRANCH  11  12
ENDBRANCH  10  11
ENDBRANCH   9  10
ENDBRANCH   8   9
ENDBRANCH   7   8
ENDBRANCH   6   7
ENDBRANCH   5   6
ENDBRANCH   4   5
ENDBRANCH   3   4
ENDBRANCH   2   3
ENDBRANCH   1   2
BRANCH   1  17
ATOM     17  C   UNL     1       6.575  -6.369   7.917  1.00  0.00     0.000 C 
BRANCH  17  18
ATOM     18  C   UNL     1       7.353  -6.427   9.243  1.00  0.00     0.000 C 
BRANCH  18  19
ATOM     19  C   UNL     1       7.602  -5.042   9.869  1.00  0.00     0.000 C 
BRANCH  19  20
ATOM     20  C   UNL     1       9.079  -4.604   9.943  1.00  0.00     0.000 C 
BRANCH  20  21
ATOM     21  C   UNL     1       9.514  -3.723   8.759  1.00  0.00     0.000 C 
BRANCH  21  22
ATOM     22  C   UNL     1       8.363  -2.857   8.218  1.00  0.00    -0.000 C 
BRANCH  22  23
ATOM     23  C   UNL     1       8.742  -1.367   8.154  1.00  0.00    -0.000 C 
BRANCH  23  24
ATOM     24  C   UNL     1       8.025  -0.517   9.220  1.00  0.00    -0.000 C 
BRANCH  24  25
ATOM     25  C   UNL     1       8.950   0.342  10.109  1.00  0.00    -0.000 C 
BRANCH  25  26
ATOM     26  C   UNL     1       9.500   1.616   9.438  1.00  0.00    -0.000 C 
BRANCH  26  27
ATOM     27  C   UNL     1       9.083   2.931  10.124  1.00  0.00    -0.000 C 
BRANCH  27  28
ATOM     28  C   UNL     1       9.274   4.177   9.233  1.00  0.00    -0.000 C 
BRANCH  28  29
ATOM     29  C   UNL     1       9.845   5.369  10.013  1.00  0.00    -0.003 C 
ATOM     30  C   UNL     1       9.293   6.690   9.481  1.00  0.00     0.004 C 
ENDBRANCH  28  29
ENDBRANCH  27  28
ENDBRANCH  26  27
ENDBRANCH  25  26
ENDBRANCH  24  25
ENDBRANCH  23  24
ENDBRANCH  22  23
ENDBRANCH  21  22
ENDBRANCH  20  21
ENDBRANCH  19  20
ENDBRANCH  18  19
ENDBRANCH  17  18
ENDBRANCH   1  17
TORSDOF 26
ENDMDL
MODEL 4
REMARK VINA RESULT:     1.710      1.719      3.533
REMARK INTER + INTRA:           3.860
REMARK INTER:                   1.317
REMARK INTRA:                   2.543
REMARK UNBOUND:                -0.448
REMARK SMILES CCCCCCCCCCCCCCCCCCCCCCCCCCCC(=O)[O-]
REMARK SMILES IDX 15 1 16 2 17 3 18 4 19 5 20 6 21 7 22 8 23 9 24 10 25 11
REMARK SMILES IDX 26 12 27 13 28 14 29 15 30 16 14 17 13 18 12 19 11 20 10 21
REMARK SMILES IDX 9 22 8 23 7 24 6 25 5 26 4 27 3 28 2 29 1 30
REMARK H PARENT
REMARK Flexibility Score: inf
ROOT
ATOM      1  C   UNL     1       6.457  -9.305   6.594  1.00  0.00     0.000 C 
ENDROOT
BRANCH   1   2
ATOM      2  C   UNL     1       5.395  -9.955   5.687  1.00  0.00     0.000 C 
BRANCH   2   3
ATOM      3  C   UNL     1       3.952  -9.502   5.987  1.00  0.00     0.000 C 
BRANCH   3   4
ATOM      4  C   UNL     1       3.419 -10.042   7.326  1.00  0.00     0.000 C 
BRANCH   4   5
ATOM      5  C   UNL     1       4.476  -9.963   8.442  1.00  0.00     0.000 C 
BRANCH   5   6
ATOM      6  C   UNL     1       3.845  -9.675   9.817  1.00  0.00     0.000 C 
BRANCH   6   7
ATOM      7  C   UNL     1       3.455  -8.199   9.986  1.00  0.00     0.000 C 
BRANCH   7   8
ATOM      8  C   UNL     1       4.679  -7.268   9.961  1.00  0.00     0.000 C 
BRANCH   8   9
ATOM      9  C   UNL     1       4.743  -6.404   8.692  1.00  0.00     0.000 C 
BRANCH   9  10
ATOM     10  C   UNL     1       3.413  -6.389   7.919  1.00  0.00     0.000 C 
BRANCH  10  11
ATOM     11  C   UNL     1       2.720  -5.016   7.963  1.00  0.00     0.000 C 
BRANCH  11  12
ATOM     12  C   UNL     1       1.360  -5.062   8.687  1.00  0.00     0.006 C 
BRANCH  12  13
ATOM     13  C   UNL     1       0.394  -6.070   8.048  1.00  0.00     0.053 C 
BRANCH  13  14
ATOM     14  C   UNL     1      -0.594  -5.398   7.146  1.00  0.00     0.041 C 
ATOM     15  O   UNL     1      -1.619  -6.016   6.754  1.00  0.00    -0.550 OA
ATOM     16  O   UNL     1      -0.391  -4.083   6.749  1.00  0.00    -0.550 OA
ENDBRANCH  13  14
ENDBRANCH  12  13
ENDBRANCH  11  12
ENDBRANCH  10  11
ENDBRANCH   9  10
ENDBRANCH   8   9
ENDBRANCH   7   8
ENDBRANCH   6   7
ENDBRANCH   5   6
ENDBRANCH   4   5
ENDBRANCH   3   4
ENDBRANCH   2   3
ENDBRANCH   1   2
BRANCH   1  17
ATOM     17  C   UNL     1       7.097  -8.023   6.039  1.00  0.00     0.000 C 
BRANCH  17  18
ATOM     18  C   UNL     1       6.093  -6.862   5.929  1.00  0.00     0.000 C 
BRANCH  18  19
ATOM     19  C   UNL     1       6.104  -5.923   7.151  1.00  0.00     0.000 C 
BRANCH  19  20
ATOM     20  C   UNL     1       7.463  -5.267   7.470  1.00  0.00     0.000 C 
BRANCH  20  21
ATOM     21  C   UNL     1       8.141  -5.848   8.723  1.00  0.00     0.000 C 
BRANCH  21  22
ATOM     22  C   UNL     1       7.671  -5.162  10.016  1.00  0.00    -0.000 C 
BRANCH  22  23
ATOM     23  C   UNL     1       7.918  -3.644   9.990  1.00  0.00    -0.000 C 
BRANCH  23  24
ATOM     24  C   UNL     1       8.498  -3.151   8.650  1.00  0.00    -0.000 C 
BRANCH  24  25
ATOM     25  C   UNL     1       8.709  -1.626   8.546  1.00  0.00    -0.000 C 
BRANCH  25  26
ATOM     26  C   UNL     1       8.559  -0.854   9.872  1.00  0.00    -0.000 C 
BRANCH  26  27
ATOM     27  C   UNL     1       8.834   0.657   9.768  1.00  0.00    -0.000 C 
BRANCH  27  28
ATOM     28  C   UNL     1       7.558   1.522   9.851  1.00  0.00    -0.000 C 
BRANCH  28  29
ATOM     29  C   UNL     1       7.871   2.999  10.125  1.00  0.00    -0.003 C 
ATOM     30  C   UNL     1       9.268   3.367   9.629  1.00  0.00     0.004 C 
ENDBRANCH  28  29
ENDBRANCH  27  28
ENDBRANCH  26  27
ENDBRANCH  25  26
ENDBRANCH  24  25
ENDBRANCH  23  24
ENDBRANCH  22  23
ENDBRANCH  21  22
ENDBRANCH  20  21
ENDBRANCH  19  20
ENDBRANCH  18  19
ENDBRANCH  17  18
ENDBRANCH   1  17
TORSDOF 26
ENDMDL
MODEL 5
REMARK VINA RESULT:     2.108      4.119     11.402
REMARK INTER + INTRA:           4.864
REMARK INTER:                   5.180
REMARK INTRA:                  -0.316
REMARK UNBOUND:                -0.448
REMARK SMILES CCCCCCCCCCCCCCCCCCCCCCCCCCCC(=O)[O-]
REMARK SMILES IDX 15 1 16 2 17 3 18 4 19 5 20 6 21 7 22 8 23 9 24 10 25 11
REMARK SMILES IDX 26 12 27 13 28 14 29 15 30 16 14 17 13 18 12 19 11 20 10 21
REMARK SMILES IDX 9 22 8 23 7 24 6 25 5 26 4 27 3 28 2 29 1 30
REMARK H PARENT
REMARK Flexibility Score: inf
ROOT
ATOM      1  C   UNL     1       7.319  -5.193   9.257  1.00  0.00     0.000 C 
ENDROOT
BRANCH   1   2
ATOM      2  C   UNL     1       7.738  -3.948  10.061  1.00  0.00     0.000 C 
BRANCH   2   3
ATOM      3  C   UNL     1       9.062  -3.312   9.589  1.00  0.00     0.000 C 
BRANCH   3   4
ATOM      4  C   UNL     1       8.927  -1.813   9.270  1.00  0.00     0.000 C 
BRANCH   4   5
ATOM      5  C   UNL     1       7.460  -1.395   9.066  1.00  0.00     0.000 C 
BRANCH   5   6
ATOM      6  C   UNL     1       7.245   0.108   9.321  1.00  0.00     0.000 C 
BRANCH   6   7
ATOM      7  C   UNL     1       8.458   0.768   9.995  1.00  0.00     0.000 C 
BRANCH   7   8
ATOM      8  C   UNL     1       8.953   2.002   9.220  1.00  0.00     0.000 C 
BRANCH   8   9
ATOM      9  C   UNL     1       9.160   3.227  10.123  1.00  0.00     0.000 C 
BRANCH   9  10
ATOM     10  C   UNL     1       9.902   4.370   9.410  1.00  0.00     0.000 C 
BRANCH  10  11
ATOM     11  C   UNL     1       9.733   5.721  10.124  1.00  0.00     0.000 C 
BRANCH  11  12
ATOM     12  C   UNL     1       8.633   6.594   9.489  1.00  0.00     0.006 C 
BRANCH  12  13
ATOM     13  C   UNL     1       8.655   8.035  10.017  1.00  0.00     0.053 C 
BRANCH  13  14
ATOM     14  C   UNL     1       7.285   8.640  10.040  1.00  0.00     0.041 C 
ATOM     15  O   UNL     1       6.265   7.902  10.030  1.00  0.00    -0.550 OA
ATOM     16  O   UNL     1       7.135  10.020  10.087  1.00  0.00    -0.550 OA
ENDBRANCH  13  14
ENDBRANCH  12  13
ENDBRANCH  11  12
ENDBRANCH  10  11
ENDBRANCH   9  10
ENDBRANCH   8   9
ENDBRANCH   7   8
ENDBRANCH   6   7
ENDBRANCH   5   6
ENDBRANCH   4   5
ENDBRANCH   3   4
ENDBRANCH   2   3
ENDBRANCH   1   2
BRANCH   1  17
ATOM     17  C   UNL     1       7.338  -6.515  10.040  1.00  0.00     0.000 C 
BRANCH  17  18
ATOM     18  C   UNL     1       7.090  -7.738   9.139  1.00  0.00     0.000 C 
BRANCH  18  19
ATOM     19  C   UNL     1       6.344  -8.883   9.850  1.00  0.00     0.000 C 
BRANCH  19  20
ATOM     20  C   UNL     1       5.355  -9.676   8.972  1.00  0.00     0.000 C 
BRANCH  20  21
ATOM     21  C   UNL     1       3.923  -9.701   9.536  1.00  0.00     0.000 C 
BRANCH  21  22
ATOM     22  C   UNL     1       3.473  -8.326  10.056  1.00  0.00    -0.000 C 
BRANCH  22  23
ATOM     23  C   UNL     1       4.142  -7.171   9.293  1.00  0.00    -0.000 C 
BRANCH  23  24
ATOM     24  C   UNL     1       3.864  -5.792   9.920  1.00  0.00    -0.000 C 
BRANCH  24  25
ATOM     25  C   UNL     1       3.681  -4.636   8.914  1.00  0.00    -0.000 C 
BRANCH  25  26
ATOM     26  C   UNL     1       2.483  -4.788   7.956  1.00  0.00    -0.000 C 
BRANCH  26  27
ATOM     27  C   UNL     1       1.120  -4.943   8.655  1.00  0.00    -0.000 C 
BRANCH  27  28
ATOM     28  C   UNL     1      -0.081  -4.632   7.736  1.00  0.00    -0.000 C 
BRANCH  28  29
ATOM     29  C   UNL     1      -0.669  -5.896   7.096  1.00  0.00    -0.003 C 
ATOM     30  C   UNL     1       0.415  -6.944   6.851  1.00  0.00     0.004 C 
ENDBRANCH  28  29
ENDBRANCH  27  28
ENDBRANCH  26  27
ENDBRANCH  25  26
ENDBRANCH  24  25
ENDBRANCH  23  24
ENDBRANCH  22  23
ENDBRANCH  21  22
ENDBRANCH  20  21
ENDBRANCH  19  20
ENDBRANCH  18  19
ENDBRANCH  17  18
ENDBRANCH   1  17
TORSDOF 26
ENDMDL
MODEL 6
REMARK VINA RESULT:     2.269     20.378     24.356
REMARK INTER + INTRA:           5.270
REMARK INTER:                   4.402
REMARK INTRA:                   0.868
REMARK UNBOUND:                -0.448
REMARK SMILES CCCCCCCCCCCCCCCCCCCCCCCCCCCC(=O)[O-]
REMARK SMILES IDX 15 1 16 2 17 3 18 4 19 5 20 6 21 7 22 8 23 9 24 10 25 11
REMARK SMILES IDX 26 12 27 13 28 14 29 15 30 16 14 17 13 18 12 19 11 20 10 21
REMARK SMILES IDX 9 22 8 23 7 24 6 25 5 26 4 27 3 28 2 29 1 30
REMARK H PARENT
REMARK Flexibility Score: inf
ROOT
ATOM      1  C   UNL     1      -4.688   9.315  -7.220  1.00  0.00     0.000 C 
ENDROOT
BRANCH   1   2
ATOM      2  C   UNL     1      -3.848   9.627  -8.473  1.00  0.00     0.000 C 
BRANCH   2   3
ATOM      3  C   UNL     1      -2.370   9.201  -8.358  1.00  0.00     0.000 C 
BRANCH   3   4
ATOM      4  C   UNL     1      -1.589   9.385  -9.672  1.00  0.00     0.000 C 
BRANCH   4   5
ATOM      5  C   UNL     1      -0.872   8.093 -10.103  1.00  0.00     0.000 C 
BRANCH   5   6
ATOM      6  C   UNL     1      -1.461   6.848  -9.416  1.00  0.00     0.000 C 
BRANCH   6   7
ATOM      7  C   UNL     1      -1.063   5.543 -10.124  1.00  0.00     0.000 C 
BRANCH   7   8
ATOM      8  C   UNL     1       0.434   5.229  -9.964  1.00  0.00     0.000 C 
BRANCH   8   9
ATOM      9  C   UNL     1       0.705   4.155  -8.899  1.00  0.00     0.000 C 
BRANCH   9  10
ATOM     10  C   UNL     1      -0.447   3.143  -8.773  1.00  0.00     0.000 C 
BRANCH  10  11
ATOM     11  C   UNL     1      -1.420   3.205  -9.962  1.00  0.00     0.000 C 
BRANCH  11  12
ATOM     12  C   UNL     1      -2.641   2.283  -9.776  1.00  0.00     0.006 C 
BRANCH  12  13
ATOM     13  C   UNL     1      -3.439   2.621  -8.509  1.00  0.00     0.053 C 
BRANCH  13  14
ATOM     14  C   UNL     1      -3.819   4.069  -8.460  1.00  0.00     0.041 C 
ATOM     15  O   UNL     1      -3.623   4.742  -7.415  1.00  0.00    -0.550 OA
ATOM     16  O   UNL     1      -4.377   4.679  -9.576  1.00  0.00    -0.550 OA
ENDBRANCH  13  14
ENDBRANCH  12  13
ENDBRANCH  11  12
ENDBRANCH  10  11
ENDBRANCH   9  10
ENDBRANCH   8   9
ENDBRANCH   7   8
ENDBRANCH   6   7
ENDBRANCH   5   6
ENDBRANCH   4   5
ENDBRANCH   3   4
ENDBRANCH   2   3
ENDBRANCH   1   2
BRANCH   1  17
ATOM     17  C   UNL     1      -6.113   9.892  -7.227  1.00  0.00     0.000 C 
BRANCH  17  18
ATOM     18  C   UNL     1      -7.043   9.155  -8.207  1.00  0.00     0.000 C 
BRANCH  18  19
ATOM     19  C   UNL     1      -8.107  10.067  -8.847  1.00  0.00     0.000 C 
BRANCH  19  20
ATOM     20  C   UNL     1      -9.563   9.576  -8.721  1.00  0.00     0.000 C 
BRANCH  20  21
ATOM     21  C   UNL     1      -9.679   8.052  -8.540  1.00  0.00     0.000 C 
BRANCH  21  22
ATOM     22  C   UNL     1      -9.241   7.276  -9.793  1.00  0.00    -0.000 C 
BRANCH  22  23
ATOM     23  C   UNL     1     -10.125   6.044 -10.049  1.00  0.00    -0.000 C 
BRANCH  23  24
ATOM     24  C   UNL     1      -9.815   4.872  -9.099  1.00  0.00    -0.000 C 
BRANCH  24  25
ATOM     25  C   UNL     1      -9.957   3.466  -9.721  1.00  0.00    -0.000 C 
BRANCH  25  26
ATOM     26  C   UNL     1      -9.103   2.368  -9.056  1.00  0.00    -0.000 C 
BRANCH  26  27
ATOM     27  C   UNL     1      -7.673   2.243  -9.614  1.00  0.00    -0.000 C 
BRANCH  27  28
ATOM     28  C   UNL     1      -6.685   1.582  -8.631  1.00  0.00    -0.000 C 
BRANCH  28  29
ATOM     29  C   UNL     1      -6.169   2.565  -7.572  1.00  0.00    -0.003 C 
ATOM     30  C   UNL     1      -6.494   2.077  -6.162  1.00  0.00     0.004 C 
ENDBRANCH  28  29
ENDBRANCH  27  28
ENDBRANCH  26  27
ENDBRANCH  25  26
ENDBRANCH  24  25
ENDBRANCH  23  24
ENDBRANCH  22  23
ENDBRANCH  21  22
ENDBRANCH  20  21
ENDBRANCH  19  20
ENDBRANCH  18  19
ENDBRANCH  17  18
ENDBRANCH   1  17
TORSDOF 26
ENDMDL
