MODEL 1
REMARK VINA RESULT:    -4.217      0.000      0.000
REMARK INTER + INTRA:          -8.812
REMARK INTER:                  -7.668
REMARK INTRA:                  -1.144
REMARK UNBOUND:                -1.144
REMARK SMILES CCCCCCCCCCCCCCCC(=O)[O-]
REMARK SMILES IDX 9 1 10 2 11 3 12 4 13 5 14 6 15 7 16 8 17 9 18 10 8 11 7 12
REMARK SMILES IDX 6 13 5 14 4 15 3 16 2 17 1 18
REMARK H PARENT
REMARK Flexibility Score: inf
ROOT
ATOM      1  C   UNL     1      -3.359   7.881  -7.092  1.00  0.00     0.000 C 
ENDROOT
BRANCH   1   2
ATOM      2  C   UNL     1      -3.717   8.036  -8.575  1.00  0.00     0.000 C 
BRANCH   2   3
ATOM      3  C   UNL     1      -4.326   9.416  -8.853  1.00  0.00     0.000 C 
BRANCH   3   4
ATOM      4  C   UNL     1      -5.824   9.351  -9.197  1.00  0.00     0.000 C 
BRANCH   4   5
ATOM      5  C   UNL     1      -6.739   9.252  -7.958  1.00  0.00     0.000 C 
BRANCH   5   6
ATOM      6  C   UNL     1      -7.773   8.119  -8.089  1.00  0.00     0.006 C 
BRANCH   6   7
ATOM      7  C   UNL     1      -7.206   6.895  -8.819  1.00  0.00     0.053 C 
BRANCH   7   8
ATOM      8  C   UNL     1      -7.335   5.648  -7.998  1.00  0.00     0.041 C 
ATOM      9  O   UNL     1      -8.285   5.525  -7.181  1.00  0.00    -0.550 OA
ATOM     10  O   UNL     1      -6.387   4.639  -8.109  1.00  0.00    -0.550 OA
ENDBRANCH   7   8
ENDBRANCH   6   7
ENDBRANCH   5   6
ENDBRANCH   4   5
ENDBRANCH   3   4
ENDBRANCH   2   3
ENDBRANCH   1   2
BRANCH   1  11
ATOM     11  C   UNL     1      -4.378   6.991  -6.370  1.00  0.00     0.000 C 
BRANCH  11  12
ATOM     12  C   UNL     1      -3.769   5.624  -6.026  1.00  0.00    -0.000 C 
BRANCH  12  13
ATOM     13  C   UNL     1      -3.416   5.485  -4.535  1.00  0.00    -0.000 C 
BRANCH  13  14
ATOM     14  C   UNL     1      -2.471   4.313  -4.196  1.00  0.00    -0.000 C 
BRANCH  14  15
ATOM     15  C   UNL     1      -2.958   3.383  -3.067  1.00  0.00    -0.000 C 
BRANCH  15  16
ATOM     16  C   UNL     1      -1.839   2.695  -2.266  1.00  0.00    -0.000 C 
BRANCH  16  17
ATOM     17  C   UNL     1      -0.742   2.102  -3.162  1.00  0.00    -0.003 C 
ATOM     18  C   UNL     1      -0.972   0.612  -3.400  1.00  0.00     0.004 C 
ENDBRANCH  16  17
ENDBRANCH  15  16
ENDBRANCH  14  15
ENDBRANCH  13  14
ENDBRANCH  12  13
ENDBRANCH  11  12
ENDBRANCH   1  11
TORSDOF 14
ENDMDL
MODEL 2
REMARK VINA RESULT:    -4.054      2.973      7.069
REMARK INTER + INTRA:          -8.516
REMARK INTER:                  -7.182
REMARK INTRA:                  -1.334
REMARK UNBOUND:                -1.144
REMARK SMILES CCCCCCCCCCCCCCCC(=O)[O-]
REMARK SMILES IDX 9 1 10 2 11 3 12 4 13 5 14 6 15 7 16 8 17 9 18 10 8 11 7 12
REMARK SMILES IDX 6 13 5 14 4 15 3 16 2 17 1 18
REMARK H PARENT
REMARK Flexibility Score: inf
ROOT
ATOM      1  C   UNL     1      -3.722   8.021  -8.478  1.00  0.00     0.000 C 
ENDROOT
BRANCH   1   2
ATOM      2  C   UNL     1      -3.380   7.794  -7.000  1.00  0.00     0.000 C 
BRANCH   2   3
ATOM      3  C   UNL     1      -4.388   6.842  -6.343  1.00  0.00     0.000 C 
BRANCH   3   4
ATOM      4  C   UNL     1      -3.783   5.468  -6.008  1.00  0.00     0.000 C 
BRANCH   4   5
ATOM      5  C   UNL     1      -3.390   5.311  -4.524  1.00  0.00     0.000 C 
BRANCH   5   6
ATOM      6  C   UNL     1      -2.407   4.148  -4.303  1.00  0.00     0.006 C 
BRANCH   6   7
ATOM      7  C   UNL     1      -2.743   3.330  -3.049  1.00  0.00     0.053 C 
BRANCH   7   8
ATOM      8  C   UNL     1      -1.529   2.666  -2.476  1.00  0.00     0.041 C 
ATOM      9  O   UNL     1      -0.942   3.171  -1.482  1.00  0.00    -0.550 OA
ATOM     10  O   UNL     1      -1.026   1.510  -3.059  1.00  0.00    -0.550 OA
ENDBRANCH   7   8
ENDBRANCH   6   7
ENDBRANCH   5   6
ENDBRANCH   4   5
ENDBRANCH   3   4
ENDBRANCH   2   3
ENDBRANCH   1   2
BRANCH   1  11
ATOM     11  C   UNL     1      -4.177   9.465  -8.721  1.00  0.00     0.000 C 
BRANCH  11  12
ATOM     12  C   UNL     1      -5.493   9.501  -9.514  1.00  0.00    -0.000 C 
BRANCH  12  13
ATOM     13  C   UNL     1      -6.714   9.815  -8.632  1.00  0.00    -0.000 C 
BRANCH  13  14
ATOM     14  C   UNL     1      -7.169   8.660  -7.717  1.00  0.00    -0.000 C 
BRANCH  14  15
ATOM     15  C   UNL     1      -7.896   7.504  -8.432  1.00  0.00    -0.000 C 
BRANCH  15  16
ATOM     16  C   UNL     1      -6.985   6.359  -8.907  1.00  0.00    -0.000 C 
BRANCH  16  17
ATOM     17  C   UNL     1      -7.134   5.087  -8.060  1.00  0.00    -0.003 C 
ATOM     18  C   UNL     1      -8.418   5.124  -7.235  1.00  0.00     0.004 C 
ENDBRANCH  16  17
ENDBRANCH  15  16
ENDBRANCH  14  15
ENDBRANCH  13  14
ENDBRANCH  12  13
ENDBRANCH  11  12
ENDBRANCH   1  11
TORSDOF 14
ENDMDL
MODEL 3
REMARK VINA RESULT:    -3.989      0.597      1.419
REMARK INTER + INTRA:          -8.397
REMARK INTER:                  -7.428
REMARK INTRA:                  -0.969
REMARK UNBOUND:                -1.144
REMARK SMILES CCCCCCCCCCCCCCCC(=O)[O-]
REMARK SMILES IDX 9 1 10 2 11 3 12 4 13 5 14 6 15 7 16 8 17 9 18 10 8 11 7 12
REMARK SMILES IDX 6 13 5 14 4 15 3 16 2 17 1 18
REMARK H PARENT
REMARK Flexibility Score: inf
ROOT
ATOM      1  C   UNL     1      -4.117   7.891  -8.541  1.00  0.00     0.000 C 
ENDROOT
BRANCH   1   2
ATOM      2  C   UNL     1      -4.319   9.323  -9.051  1.00  0.00     0.000 C 
BRANCH   2   3
ATOM      3  C   UNL     1      -5.808   9.624  -9.270  1.00  0.00     0.000 C 
BRANCH   3   4
ATOM      4  C   UNL     1      -6.721   8.871  -8.288  1.00  0.00     0.000 C 
BRANCH   4   5
ATOM      5  C   UNL     1      -7.935   8.199  -8.964  1.00  0.00     0.000 C 
BRANCH   5   6
ATOM      6  C   UNL     1      -7.518   7.040  -9.887  1.00  0.00     0.006 C 
BRANCH   6   7
ATOM      7  C   UNL     1      -8.166   5.710  -9.480  1.00  0.00     0.053 C 
BRANCH   7   8
ATOM      8  C   UNL     1      -7.585   5.175  -8.207  1.00  0.00     0.041 C 
ATOM      9  O   UNL     1      -8.302   5.079  -7.175  1.00  0.00    -0.550 OA
ATOM     10  O   UNL     1      -6.245   4.815  -8.149  1.00  0.00    -0.550 OA
ENDBRANCH   7   8
ENDBRANCH   6   7
ENDBRANCH   5   6
ENDBRANCH   4   5
ENDBRANCH   3   4
ENDBRANCH   2   3
ENDBRANCH   1   2
BRANCH   1  11
ATOM     11  C   UNL     1      -3.533   7.889  -7.123  1.00  0.00     0.000 C 
BRANCH  11  12
ATOM     12  C   UNL     1      -4.376   7.016  -6.182  1.00  0.00    -0.000 C 
BRANCH  12  13
ATOM     13  C   UNL     1      -3.761   5.625  -5.946  1.00  0.00    -0.000 C 
BRANCH  13  14
ATOM     14  C   UNL     1      -3.386   5.320  -4.481  1.00  0.00    -0.000 C 
BRANCH  14  15
ATOM     15  C   UNL     1      -2.568   4.031  -4.268  1.00  0.00    -0.000 C 
BRANCH  15  16
ATOM     16  C   UNL     1      -2.856   3.290  -2.949  1.00  0.00    -0.000 C 
BRANCH  16  17
ATOM     17  C   UNL     1      -1.581   2.782  -2.261  1.00  0.00    -0.003 C 
ATOM     18  C   UNL     1      -0.861   1.753  -3.127  1.00  0.00     0.004 C 
ENDBRANCH  16  17
ENDBRANCH  15  16
ENDBRANCH  14  15
ENDBRANCH  13  14
ENDBRANCH  12  13
ENDBRANCH  11  12
ENDBRANCH   1  11
TORSDOF 14
ENDMDL
MODEL 4
REMARK VINA RESULT:    -3.987      1.083      2.059
REMARK INTER + INTRA:          -8.395
REMARK INTER:                  -7.206
REMARK INTRA:                  -1.189
REMARK UNBOUND:                -1.144
REMARK SMILES CCCCCCCCCCCCCCCC(=O)[O-]
REMARK SMILES IDX 9 1 10 2 11 3 12 4 13 5 14 6 15 7 16 8 17 9 18 10 8 11 7 12
REMARK SMILES IDX 6 13 5 14 4 15 3 16 2 17 1 18
REMARK H PARENT
REMARK Flexibility Score: inf
ROOT
ATOM      1  C   UNL     1      -6.006   7.982  -6.719  1.00  0.00     0.000 C 
ENDROOT
BRANCH   1   2
ATOM      2  C   UNL     1      -6.768   9.070  -7.486  1.00  0.00     0.000 C 
BRANCH   2   3
ATOM      3  C   UNL     1      -6.318   9.126  -8.953  1.00  0.00     0.000 C 
BRANCH   3   4
ATOM      4  C   UNL     1      -7.303   8.429  -9.907  1.00  0.00     0.000 C 
BRANCH   4   5
ATOM      5  C   UNL     1      -8.688   8.164  -9.280  1.00  0.00     0.000 C 
BRANCH   5   6
ATOM      6  C   UNL     1      -9.067   6.673  -9.319  1.00  0.00     0.006 C 
BRANCH   6   7
ATOM      7  C   UNL     1      -7.837   5.762  -9.427  1.00  0.00     0.053 C 
BRANCH   7   8
ATOM      8  C   UNL     1      -7.511   5.111  -8.118  1.00  0.00     0.041 C 
ATOM      9  O   UNL     1      -6.390   4.562  -7.947  1.00  0.00    -0.550 OA
ATOM     10  O   UNL     1      -8.456   5.080  -7.100  1.00  0.00    -0.550 OA
ENDBRANCH   7   8
ENDBRANCH   6   7
ENDBRANCH   5   6
ENDBRANCH   4   5
ENDBRANCH   3   4
ENDBRANCH   2   3
ENDBRANCH   1   2
BRANCH   1  11
ATOM     11  C   UNL     1      -4.682   7.643  -7.415  1.00  0.00     0.000 C 
BRANCH  11  12
ATOM     12  C   UNL     1      -3.632   7.170  -6.399  1.00  0.00    -0.000 C 
BRANCH  12  13
ATOM     13  C   UNL     1      -3.824   5.701  -5.980  1.00  0.00    -0.000 C 
BRANCH  13  14
ATOM     14  C   UNL     1      -3.398   5.377  -4.533  1.00  0.00    -0.000 C 
BRANCH  14  15
ATOM     15  C   UNL     1      -2.588   4.076  -4.364  1.00  0.00    -0.000 C 
BRANCH  15  16
ATOM     16  C   UNL     1      -2.807   3.344  -3.028  1.00  0.00    -0.000 C 
BRANCH  16  17
ATOM     17  C   UNL     1      -1.571   2.556  -2.571  1.00  0.00    -0.003 C 
ATOM     18  C   UNL     1      -0.798   3.320  -1.499  1.00  0.00     0.004 C 
ENDBRANCH  16  17
ENDBRANCH  15  16
ENDBRANCH  14  15
ENDBRANCH  13  14
ENDBRANCH  12  13
ENDBRANCH  11  12
ENDBRANCH   1  11
TORSDOF 14
ENDMDL
MODEL 5
REMARK VINA RESULT:    -3.832      2.877      7.476
REMARK INTER + INTRA:          -8.112
REMARK INTER:                  -6.673
REMARK INTRA:                  -1.439
REMARK UNBOUND:                -1.144
REMARK SMILES CCCCCCCCCCCCCCCC(=O)[O-]
REMARK SMILES IDX 9 1 10 2 11 3 12 4 13 5 14 6 15 7 16 8 17 9 18 10 8 11 7 12
REMARK SMILES IDX 6 13 5 14 4 15 3 16 2 17 1 18
REMARK H PARENT
REMARK Flexibility Score: inf
ROOT
ATOM      1  C   UNL     1      -3.338   7.893  -7.154  1.00  0.00     0.000 C 
ENDROOT
BRANCH   1   2
ATOM      2  C   UNL     1      -4.320   7.121  -6.266  1.00  0.00     0.000 C 
BRANCH   2   3
ATOM      3  C   UNL     1      -3.814   5.698  -5.993  1.00  0.00     0.000 C 
BRANCH   3   4
ATOM      4  C   UNL     1      -3.437   5.470  -4.520  1.00  0.00     0.000 C 
BRANCH   4   5
ATOM      5  C   UNL     1      -2.552   4.226  -4.294  1.00  0.00     0.000 C 
BRANCH   5   6
ATOM      6  C   UNL     1      -2.956   3.448  -3.028  1.00  0.00     0.006 C 
BRANCH   6   7
ATOM      7  C   UNL     1      -1.751   2.802  -2.332  1.00  0.00     0.053 C 
BRANCH   7   8
ATOM      8  C   UNL     1      -1.189   1.668  -3.133  1.00  0.00     0.041 C 
ATOM      9  O   UNL     1      -1.803   0.570  -3.192  1.00  0.00    -0.550 OA
ATOM     10  O   UNL     1       0.029   1.811  -3.785  1.00  0.00    -0.550 OA
ENDBRANCH   7   8
ENDBRANCH   6   7
ENDBRANCH   5   6
ENDBRANCH   4   5
ENDBRANCH   3   4
ENDBRANCH   2   3
ENDBRANCH   1   2
BRANCH   1  11
ATOM     11  C   UNL     1      -3.817   7.920  -8.610  1.00  0.00     0.000 C 
BRANCH  11  12
ATOM     12  C   UNL     1      -4.133   9.355  -9.060  1.00  0.00    -0.000 C 
BRANCH  12  13
ATOM     13  C   UNL     1      -5.607   9.546  -9.458  1.00  0.00    -0.000 C 
BRANCH  13  14
ATOM     14  C   UNL     1      -6.545   9.952  -8.302  1.00  0.00    -0.000 C 
BRANCH  14  15
ATOM     15  C   UNL     1      -7.763   9.031  -8.092  1.00  0.00    -0.000 C 
BRANCH  15  16
ATOM     16  C   UNL     1      -7.685   7.675  -8.817  1.00  0.00    -0.000 C 
BRANCH  16  17
ATOM     17  C   UNL     1      -7.626   6.485  -7.849  1.00  0.00    -0.003 C 
ATOM     18  C   UNL     1      -6.724   5.380  -8.392  1.00  0.00     0.004 C 
ENDBRANCH  16  17
ENDBRANCH  15  16
ENDBRANCH  14  15
ENDBRANCH  13  14
ENDBRANCH  12  13
ENDBRANCH  11  12
ENDBRANCH   1  11
TORSDOF 14
ENDMDL
MODEL 6
REMARK VINA RESULT:    -3.628      0.779      2.006
REMARK INTER + INTRA:          -7.742
REMARK INTER:                  -6.766
REMARK INTRA:                  -0.975
REMARK UNBOUND:                -1.144
REMARK SMILES CCCCCCCCCCCCCCCC(=O)[O-]
REMARK SMILES IDX 9 1 10 2 11 3 12 4 13 5 14 6 15 7 16 8 17 9 18 10 8 11 7 12
REMARK SMILES IDX 6 13 5 14 4 15 3 16 2 17 1 18
REMARK H PARENT
REMARK Flexibility Score: inf
ROOT
ATOM      1  C   UNL     1      -3.622   5.711  -6.031  1.00  0.00     0.000 C 
ENDROOT
BRANCH   1   2
ATOM      2  C   UNL     1      -3.885   7.199  -6.295  1.00  0.00     0.000 C 
BRANCH   2   3
ATOM      3  C   UNL     1      -3.692   7.537  -7.779  1.00  0.00     0.000 C 
BRANCH   3   4
ATOM      4  C   UNL     1      -4.880   8.310  -8.376  1.00  0.00     0.000 C 
BRANCH   4   5
ATOM      5  C   UNL     1      -5.968   8.665  -7.342  1.00  0.00     0.000 C 
BRANCH   5   6
ATOM      6  C   UNL     1      -7.323   8.015  -7.678  1.00  0.00     0.006 C 
BRANCH   6   7
ATOM      7  C   UNL     1      -7.176   6.828  -8.640  1.00  0.00     0.053 C 
BRANCH   7   8
ATOM      8  C   UNL     1      -7.284   5.516  -7.925  1.00  0.00     0.041 C 
ATOM      9  O   UNL     1      -8.345   5.211  -7.319  1.00  0.00    -0.550 OA
ATOM     10  O   UNL     1      -6.202   4.645  -7.899  1.00  0.00    -0.550 OA
ENDBRANCH   7   8
ENDBRANCH   6   7
ENDBRANCH   5   6
ENDBRANCH   4   5
ENDBRANCH   3   4
ENDBRANCH   2   3
ENDBRANCH   1   2
BRANCH   1  11
ATOM     11  C   UNL     1      -3.402   5.449  -4.536  1.00  0.00     0.000 C 
BRANCH  11  12
ATOM     12  C   UNL     1      -2.575   4.173  -4.317  1.00  0.00    -0.000 C 
BRANCH  12  13
ATOM     13  C   UNL     1      -2.941   3.440  -3.014  1.00  0.00    -0.000 C 
BRANCH  13  14
ATOM     14  C   UNL     1      -1.770   2.702  -2.333  1.00  0.00    -0.000 C 
BRANCH  14  15
ATOM     15  C   UNL     1      -0.645   2.242  -3.280  1.00  0.00    -0.000 C 
BRANCH  15  16
ATOM     16  C   UNL     1      -0.494   0.716  -3.415  1.00  0.00    -0.000 C 
BRANCH  16  17
ATOM     17  C   UNL     1      -1.840  -0.021  -3.388  1.00  0.00    -0.003 C 
ATOM     18  C   UNL     1      -1.807  -1.261  -4.277  1.00  0.00     0.004 C 
ENDBRANCH  16  17
ENDBRANCH  15  16
ENDBRANCH  14  15
ENDBRANCH  13  14
ENDBRANCH  12  13
ENDBRANCH  11  12
ENDBRANCH   1  11
TORSDOF 14
ENDMDL
MODEL 7
REMARK VINA RESULT:    -3.550      3.028      7.783
REMARK INTER + INTRA:          -7.599
REMARK INTER:                  -6.243
REMARK INTRA:                  -1.357
REMARK UNBOUND:                -1.144
REMARK SMILES CCCCCCCCCCCCCCCC(=O)[O-]
REMARK SMILES IDX 9 1 10 2 11 3 12 4 13 5 14 6 15 7 16 8 17 9 18 10 8 11 7 12
REMARK SMILES IDX 6 13 5 14 4 15 3 16 2 17 1 18
REMARK H PARENT
REMARK Flexibility Score: inf
ROOT
ATOM      1  C   UNL     1      -5.998   5.745  -7.492  1.00  0.00     0.000 C 
ENDROOT
BRANCH   1   2
ATOM      2  C   UNL     1      -5.470   7.059  -6.903  1.00  0.00     0.000 C 
BRANCH   2   3
ATOM      3  C   UNL     1      -4.051   6.882  -6.346  1.00  0.00     0.000 C 
BRANCH   3   4
ATOM      4  C   UNL     1      -3.744   5.430  -5.942  1.00  0.00     0.000 C 
BRANCH   4   5
ATOM      5  C   UNL     1      -3.396   5.265  -4.448  1.00  0.00     0.000 C 
BRANCH   5   6
ATOM      6  C   UNL     1      -2.353   4.158  -4.215  1.00  0.00     0.006 C 
BRANCH   6   7
ATOM      7  C   UNL     1      -2.741   3.227  -3.058  1.00  0.00     0.053 C 
BRANCH   7   8
ATOM      8  C   UNL     1      -1.566   2.442  -2.558  1.00  0.00     0.041 C 
ATOM      9  O   UNL     1      -0.774   2.953  -1.722  1.00  0.00    -0.550 OA
ATOM     10  O   UNL     1      -1.327   1.162  -3.039  1.00  0.00    -0.550 OA
ENDBRANCH   7   8
ENDBRANCH   6   7
ENDBRANCH   5   6
ENDBRANCH   4   5
ENDBRANCH   3   4
ENDBRANCH   2   3
ENDBRANCH   1   2
BRANCH   1  11
ATOM     11  C   UNL     1      -6.832   6.004  -8.753  1.00  0.00     0.000 C 
BRANCH  11  12
ATOM     12  C   UNL     1      -8.173   6.663  -8.400  1.00  0.00    -0.000 C 
BRANCH  12  13
ATOM     13  C   UNL     1      -8.779   7.452  -9.575  1.00  0.00    -0.000 C 
BRANCH  13  14
ATOM     14  C   UNL     1      -8.521   8.972  -9.540  1.00  0.00    -0.000 C 
BRANCH  14  15
ATOM     15  C   UNL     1      -7.980   9.515  -8.202  1.00  0.00    -0.000 C 
BRANCH  15  16
ATOM     16  C   UNL     1      -6.569  10.125  -8.272  1.00  0.00    -0.000 C 
BRANCH  16  17
ATOM     17  C   UNL     1      -5.711   9.515  -9.390  1.00  0.00    -0.003 C 
ATOM     18  C   UNL     1      -4.229   9.803  -9.165  1.00  0.00     0.004 C 
ENDBRANCH  16  17
ENDBRANCH  15  16
ENDBRANCH  14  15
ENDBRANCH  13  14
ENDBRANCH  12  13
ENDBRANCH  11  12
ENDBRANCH   1  11
TORSDOF 14
ENDMDL
MODEL 8
REMARK VINA RESULT:    -3.119      3.374      7.725
REMARK INTER + INTRA:          -6.816
REMARK INTER:                  -5.753
REMARK INTRA:                  -1.063
REMARK UNBOUND:                -1.144
REMARK SMILES CCCCCCCCCCCCCCCC(=O)[O-]
REMARK SMILES IDX 9 1 10 2 11 3 12 4 13 5 14 6 15 7 16 8 17 9 18 10 8 11 7 12
REMARK SMILES IDX 6 13 5 14 4 15 3 16 2 17 1 18
REMARK H PARENT
REMARK Flexibility Score: inf
ROOT
ATOM      1  C   UNL     1      -3.939   7.524  -6.519  1.00  0.00     0.000 C 
ENDROOT
BRANCH   1   2
ATOM      2  C   UNL     1      -3.976   6.012  -6.267  1.00  0.00     0.000 C 
BRANCH   2   3
ATOM      3  C   UNL     1      -3.424   5.672  -4.877  1.00  0.00     0.000 C 
BRANCH   3   4
ATOM      4  C   UNL     1      -3.049   4.187  -4.729  1.00  0.00     0.000 C 
BRANCH   4   5
ATOM      5  C   UNL     1      -2.705   3.777  -3.282  1.00  0.00     0.000 C 
BRANCH   5   6
ATOM      6  C   UNL     1      -1.903   2.465  -3.226  1.00  0.00     0.006 C 
BRANCH   6   7
ATOM      7  C   UNL     1      -0.586   2.620  -2.453  1.00  0.00     0.053 C 
BRANCH   7   8
ATOM      8  C   UNL     1      -0.774   3.394  -1.184  1.00  0.00     0.041 C 
ATOM      9  O   UNL     1      -1.580   2.985  -0.307  1.00  0.00    -0.550 OA
ATOM     10  O   UNL     1      -0.085   4.583  -0.985  1.00  0.00    -0.550 OA
ENDBRANCH   7   8
ENDBRANCH   6   7
ENDBRANCH   5   6
ENDBRANCH   4   5
ENDBRANCH   3   4
ENDBRANCH   2   3
ENDBRANCH   1   2
BRANCH   1  11
ATOM     11  C   UNL     1      -3.401   7.836  -7.920  1.00  0.00     0.000 C 
BRANCH  11  12
ATOM     12  C   UNL     1      -3.954   9.173  -8.437  1.00  0.00    -0.000 C 
BRANCH  12  13
ATOM     13  C   UNL     1      -5.285   9.017  -9.194  1.00  0.00    -0.000 C 
BRANCH  13  14
ATOM     14  C   UNL     1      -5.430   7.704  -9.990  1.00  0.00    -0.000 C 
BRANCH  14  15
ATOM     15  C   UNL     1      -6.738   6.928  -9.741  1.00  0.00    -0.000 C 
BRANCH  15  16
ATOM     16  C   UNL     1      -6.659   5.861  -8.634  1.00  0.00    -0.000 C 
BRANCH  16  17
ATOM     17  C   UNL     1      -7.447   6.249  -7.375  1.00  0.00    -0.003 C 
ATOM     18  C   UNL     1      -8.644   5.325  -7.168  1.00  0.00     0.004 C 
ENDBRANCH  16  17
ENDBRANCH  15  16
ENDBRANCH  14  15
ENDBRANCH  13  14
ENDBRANCH  12  13
ENDBRANCH  11  12
ENDBRANCH   1  11
TORSDOF 14
ENDMDL
MODEL 9
REMARK VINA RESULT:    -2.933      1.794      2.743
REMARK INTER + INTRA:          -6.477
REMARK INTER:                  -5.738
REMARK INTRA:                  -0.739
REMARK UNBOUND:                -1.144
REMARK SMILES CCCCCCCCCCCCCCCC(=O)[O-]
REMARK SMILES IDX 9 1 10 2 11 3 12 4 13 5 14 6 15 7 16 8 17 9 18 10 8 11 7 12
REMARK SMILES IDX 6 13 5 14 4 15 3 16 2 17 1 18
REMARK H PARENT
REMARK Flexibility Score: inf
ROOT
ATOM      1  C   UNL     1      -5.013   7.190  -5.921  1.00  0.00     0.000 C 
ENDROOT
BRANCH   1   2
ATOM      2  C   UNL     1      -5.329   7.843  -7.272  1.00  0.00     0.000 C 
BRANCH   2   3
ATOM      3  C   UNL     1      -6.842   8.016  -7.460  1.00  0.00     0.000 C 
BRANCH   3   4
ATOM      4  C   UNL     1      -7.316   7.635  -8.873  1.00  0.00     0.000 C 
BRANCH   4   5
ATOM      5  C   UNL     1      -7.961   6.235  -8.951  1.00  0.00     0.000 C 
BRANCH   5   6
ATOM      6  C   UNL     1      -8.508   5.771  -7.589  1.00  0.00     0.006 C 
BRANCH   6   7
ATOM      7  C   UNL     1      -9.092   4.353  -7.648  1.00  0.00     0.053 C 
BRANCH   7   8
ATOM      8  C   UNL     1      -9.705   3.949  -6.342  1.00  0.00     0.041 C 
ATOM      9  O   UNL     1     -10.124   2.773  -6.177  1.00  0.00    -0.550 OA
ATOM     10  O   UNL     1      -9.844   4.880  -5.321  1.00  0.00    -0.550 OA
ENDBRANCH   7   8
ENDBRANCH   6   7
ENDBRANCH   5   6
ENDBRANCH   4   5
ENDBRANCH   3   4
ENDBRANCH   2   3
ENDBRANCH   1   2
BRANCH   1  11
ATOM     11  C   UNL     1      -4.061   6.001  -6.094  1.00  0.00     0.000 C 
BRANCH  11  12
ATOM     12  C   UNL     1      -3.399   5.627  -4.759  1.00  0.00    -0.000 C 
BRANCH  12  13
ATOM     13  C   UNL     1      -2.847   4.191  -4.747  1.00  0.00    -0.000 C 
BRANCH  13  14
ATOM     14  C   UNL     1      -2.722   3.553  -3.348  1.00  0.00    -0.000 C 
BRANCH  14  15
ATOM     15  C   UNL     1      -1.782   2.334  -3.264  1.00  0.00    -0.000 C 
BRANCH  15  16
ATOM     16  C   UNL     1      -0.669   2.445  -2.208  1.00  0.00    -0.000 C 
BRANCH  16  17
ATOM     17  C   UNL     1      -1.037   3.383  -1.050  1.00  0.00    -0.003 C 
ATOM     18  C   UNL     1      -0.122   4.604  -1.018  1.00  0.00     0.004 C 
ENDBRANCH  16  17
ENDBRANCH  15  16
ENDBRANCH  14  15
ENDBRANCH  13  14
ENDBRANCH  12  13
ENDBRANCH  11  12
ENDBRANCH   1  11
TORSDOF 14
ENDMDL
