MODEL 1
REMARK VINA RESULT:    -5.519      0.000      0.000
REMARK INTER + INTRA:         -17.332
REMARK INTER:                 -13.907
REMARK INTRA:                  -3.425
REMARK UNBOUND:                -3.425
REMARK SMILES CCCCCCCCCCCCCCCCCCCCCCCCCCCC(=O)[O-]
REMARK SMILES IDX 15 1 16 2 17 3 18 4 19 5 20 6 21 7 22 8 23 9 24 10 25 11
REMARK SMILES IDX 26 12 27 13 28 14 29 15 30 16 14 17 13 18 12 19 11 20 10 21
REMARK SMILES IDX 9 22 8 23 7 24 6 25 5 26 4 27 3 28 2 29 1 30
REMARK H PARENT
REMARK Flexibility Score: inf
ROOT
ATOM      1  C   UNL     1      16.120  -4.969  34.027  1.00  0.00     0.000 C 
ENDROOT
BRANCH   1   2
ATOM      2  C   UNL     1      16.118  -5.122  35.558  1.00  0.00     0.000 C 
BRANCH   2   3
ATOM      3  C   UNL     1      17.530  -5.058  36.165  1.00  0.00     0.000 C 
BRANCH   3   4
ATOM      4  C   UNL     1      18.034  -6.372  36.800  1.00  0.00     0.000 C 
BRANCH   4   5
ATOM      5  C   UNL     1      18.468  -7.458  35.799  1.00  0.00     0.000 C 
BRANCH   5   6
ATOM      6  C   UNL     1      19.664  -7.075  34.906  1.00  0.00     0.000 C 
BRANCH   6   7
ATOM      7  C   UNL     1      19.303  -6.918  33.413  1.00  0.00     0.000 C 
BRANCH   7   8
ATOM      8  C   UNL     1      19.312  -5.449  32.956  1.00  0.00     0.000 C 
BRANCH   8   9
ATOM      9  C   UNL     1      20.722  -4.944  32.615  1.00  0.00     0.000 C 
BRANCH   9  10
ATOM     10  C   UNL     1      21.086  -3.652  33.360  1.00  0.00     0.000 C 
BRANCH  10  11
ATOM     11  C   UNL     1      20.199  -3.469  34.600  1.00  0.00     0.000 C 
BRANCH  11  12
ATOM     12  C   UNL     1      19.279  -2.237  34.502  1.00  0.00     0.006 C 
BRANCH  12  13
ATOM     13  C   UNL     1      18.925  -1.599  35.855  1.00  0.00     0.053 C 
BRANCH  13  14
ATOM     14  C   UNL     1      19.580  -0.264  36.036  1.00  0.00     0.041 C 
ATOM     15  O   UNL     1      20.411  -0.088  36.966  1.00  0.00    -0.550 OA
ATOM     16  O   UNL     1      19.307   0.770  35.152  1.00  0.00    -0.550 OA
ENDBRANCH  13  14
ENDBRANCH  12  13
ENDBRANCH  11  12
ENDBRANCH  10  11
ENDBRANCH   9  10
ENDBRANCH   8   9
ENDBRANCH   7   8
ENDBRANCH   6   7
ENDBRANCH   5   6
ENDBRANCH   4   5
ENDBRANCH   3   4
ENDBRANCH   2   3
ENDBRANCH   1   2
BRANCH   1  17
ATOM     17  C   UNL     1      15.565  -6.208  33.304  1.00  0.00     0.000 C 
BRANCH  17  18
ATOM     18  C   UNL     1      16.137  -6.373  31.886  1.00  0.00     0.000 C 
BRANCH  18  19
ATOM     19  C   UNL     1      16.223  -5.040  31.118  1.00  0.00     0.000 C 
BRANCH  19  20
ATOM     20  C   UNL     1      15.523  -5.035  29.745  1.00  0.00     0.000 C 
BRANCH  20  21
ATOM     21  C   UNL     1      15.455  -3.632  29.117  1.00  0.00     0.000 C 
BRANCH  21  22
ATOM     22  C   UNL     1      15.797  -3.637  27.617  1.00  0.00    -0.000 C 
BRANCH  22  23
ATOM     23  C   UNL     1      16.338  -2.286  27.101  1.00  0.00    -0.000 C 
BRANCH  23  24
ATOM     24  C   UNL     1      15.459  -1.698  25.984  1.00  0.00    -0.000 C 
BRANCH  24  25
ATOM     25  C   UNL     1      13.962  -1.685  26.363  1.00  0.00    -0.000 C 
BRANCH  25  26
ATOM     26  C   UNL     1      13.321  -0.283  26.323  1.00  0.00    -0.000 C 
BRANCH  26  27
ATOM     27  C   UNL     1      13.075   0.362  27.698  1.00  0.00    -0.000 C 
BRANCH  27  28
ATOM     28  C   UNL     1      14.368   0.533  28.515  1.00  0.00    -0.000 C 
BRANCH  28  29
ATOM     29  C   UNL     1      14.256  -0.069  29.923  1.00  0.00    -0.003 C 
ATOM     30  C   UNL     1      15.617  -0.326  30.568  1.00  0.00     0.004 C 
ENDBRANCH  28  29
ENDBRANCH  27  28
ENDBRANCH  26  27
ENDBRANCH  25  26
ENDBRANCH  24  25
ENDBRANCH  23  24
ENDBRANCH  22  23
ENDBRANCH  21  22
ENDBRANCH  20  21
ENDBRANCH  19  20
ENDBRANCH  18  19
ENDBRANCH  17  18
ENDBRANCH   1  17
TORSDOF 26
ENDMDL
MODEL 2
REMARK VINA RESULT:    -5.281      1.120      2.182
REMARK INTER + INTRA:         -16.731
REMARK INTER:                 -13.211
REMARK INTRA:                  -3.520
REMARK UNBOUND:                -3.425
REMARK SMILES CCCCCCCCCCCCCCCCCCCCCCCCCCCC(=O)[O-]
REMARK SMILES IDX 15 1 16 2 17 3 18 4 19 5 20 6 21 7 22 8 23 9 24 10 25 11
REMARK SMILES IDX 26 12 27 13 28 14 29 15 30 16 14 17 13 18 12 19 11 20 10 21
REMARK SMILES IDX 9 22 8 23 7 24 6 25 5 26 4 27 3 28 2 29 1 30
REMARK H PARENT
REMARK Flexibility Score: inf
ROOT
ATOM      1  C   UNL     1      15.820  -5.390  34.128  1.00  0.00     0.000 C 
ENDROOT
BRANCH   1   2
ATOM      2  C   UNL     1      16.141  -5.594  35.618  1.00  0.00     0.000 C 
BRANCH   2   3
ATOM      3  C   UNL     1      17.351  -4.766  36.086  1.00  0.00     0.000 C 
BRANCH   3   4
ATOM      4  C   UNL     1      18.417  -5.548  36.882  1.00  0.00     0.000 C 
BRANCH   4   5
ATOM      5  C   UNL     1      18.371  -7.078  36.707  1.00  0.00     0.000 C 
BRANCH   5   6
ATOM      6  C   UNL     1      19.324  -7.636  35.632  1.00  0.00     0.000 C 
BRANCH   6   7
ATOM      7  C   UNL     1      18.668  -7.799  34.243  1.00  0.00     0.000 C 
BRANCH   7   8
ATOM      8  C   UNL     1      19.329  -6.914  33.172  1.00  0.00     0.000 C 
BRANCH   8   9
ATOM      9  C   UNL     1      19.665  -5.507  33.692  1.00  0.00     0.000 C 
BRANCH   9  10
ATOM     10  C   UNL     1      20.528  -4.702  32.710  1.00  0.00     0.000 C 
BRANCH  10  11
ATOM     11  C   UNL     1      21.127  -3.466  33.397  1.00  0.00     0.000 C 
BRANCH  11  12
ATOM     12  C   UNL     1      20.411  -3.105  34.712  1.00  0.00     0.006 C 
BRANCH  12  13
ATOM     13  C   UNL     1      19.312  -2.039  34.565  1.00  0.00     0.053 C 
BRANCH  13  14
ATOM     14  C   UNL     1      19.260  -1.119  35.746  1.00  0.00     0.041 C 
ATOM     15  O   UNL     1      18.259  -1.126  36.510  1.00  0.00    -0.550 OA
ATOM     16  O   UNL     1      20.336  -0.288  36.028  1.00  0.00    -0.550 OA
ENDBRANCH  13  14
ENDBRANCH  12  13
ENDBRANCH  11  12
ENDBRANCH  10  11
ENDBRANCH   9  10
ENDBRANCH   8   9
ENDBRANCH   7   8
ENDBRANCH   6   7
ENDBRANCH   5   6
ENDBRANCH   4   5
ENDBRANCH   3   4
ENDBRANCH   2   3
ENDBRANCH   1   2
BRANCH   1  17
ATOM     17  C   UNL     1      16.437  -4.103  33.556  1.00  0.00     0.000 C 
BRANCH  17  18
ATOM     18  C   UNL     1      16.815  -4.235  32.071  1.00  0.00     0.000 C 
BRANCH  18  19
ATOM     19  C   UNL     1      16.207  -5.486  31.410  1.00  0.00     0.000 C 
BRANCH  19  20
ATOM     20  C   UNL     1      15.689  -5.276  29.974  1.00  0.00     0.000 C 
BRANCH  20  21
ATOM     21  C   UNL     1      15.548  -3.790  29.602  1.00  0.00     0.000 C 
BRANCH  21  22
ATOM     22  C   UNL     1      15.793  -3.527  28.106  1.00  0.00    -0.000 C 
BRANCH  22  23
ATOM     23  C   UNL     1      15.324  -2.133  27.638  1.00  0.00    -0.000 C 
BRANCH  23  24
ATOM     24  C   UNL     1      15.044  -1.187  28.819  1.00  0.00    -0.000 C 
BRANCH  24  25
ATOM     25  C   UNL     1      14.224   0.051  28.397  1.00  0.00    -0.000 C 
BRANCH  25  26
ATOM     26  C   UNL     1      15.012   1.056  27.533  1.00  0.00    -0.000 C 
BRANCH  26  27
ATOM     27  C   UNL     1      14.784   0.934  26.017  1.00  0.00    -0.000 C 
BRANCH  27  28
ATOM     28  C   UNL     1      13.416   1.483  25.574  1.00  0.00    -0.000 C 
BRANCH  28  29
ATOM     29  C   UNL     1      12.425   0.366  25.212  1.00  0.00    -0.003 C 
ATOM     30  C   UNL     1      11.282   0.240  26.218  1.00  0.00     0.004 C 
ENDBRANCH  28  29
ENDBRANCH  27  28
ENDBRANCH  26  27
ENDBRANCH  25  26
ENDBRANCH  24  25
ENDBRANCH  23  24
ENDBRANCH  22  23
ENDBRANCH  21  22
ENDBRANCH  20  21
ENDBRANCH  19  20
ENDBRANCH  18  19
ENDBRANCH  17  18
ENDBRANCH   1  17
TORSDOF 26
ENDMDL
MODEL 3
REMARK VINA RESULT:    -5.108      2.554      8.170
REMARK INTER + INTRA:         -16.296
REMARK INTER:                 -12.548
REMARK INTRA:                  -3.748
REMARK UNBOUND:                -3.425
REMARK SMILES CCCCCCCCCCCCCCCCCCCCCCCCCCCC(=O)[O-]
REMARK SMILES IDX 15 1 16 2 17 3 18 4 19 5 20 6 21 7 22 8 23 9 24 10 25 11
REMARK SMILES IDX 26 12 27 13 28 14 29 15 30 16 14 17 13 18 12 19 11 20 10 21
REMARK SMILES IDX 9 22 8 23 7 24 6 25 5 26 4 27 3 28 2 29 1 30
REMARK H PARENT
REMARK Flexibility Score: inf
ROOT
ATOM      1  C   UNL     1      15.961  -5.056  35.534  1.00  0.00     0.000 C 
ENDROOT
BRANCH   1   2
ATOM      2  C   UNL     1      15.971  -5.396  34.034  1.00  0.00     0.000 C 
BRANCH   2   3
ATOM      3  C   UNL     1      16.565  -4.268  33.171  1.00  0.00     0.000 C 
BRANCH   3   4
ATOM      4  C   UNL     1      16.907  -4.662  31.718  1.00  0.00     0.000 C 
BRANCH   4   5
ATOM      5  C   UNL     1      15.851  -5.530  31.010  1.00  0.00     0.000 C 
BRANCH   5   6
ATOM      6  C   UNL     1      15.471  -5.061  29.592  1.00  0.00     0.000 C 
BRANCH   6   7
ATOM      7  C   UNL     1      15.792  -3.575  29.320  1.00  0.00     0.000 C 
BRANCH   7   8
ATOM      8  C   UNL     1      15.101  -3.045  28.052  1.00  0.00     0.000 C 
BRANCH   8   9
ATOM      9  C   UNL     1      16.095  -2.471  27.032  1.00  0.00     0.000 C 
BRANCH   9  10
ATOM     10  C   UNL     1      15.400  -1.735  25.877  1.00  0.00     0.000 C 
BRANCH  10  11
ATOM     11  C   UNL     1      13.905  -1.547  26.170  1.00  0.00     0.000 C 
BRANCH  11  12
ATOM     12  C   UNL     1      13.482  -0.066  26.206  1.00  0.00     0.006 C 
BRANCH  12  13
ATOM     13  C   UNL     1      12.793   0.367  27.510  1.00  0.00     0.053 C 
BRANCH  13  14
ATOM     14  C   UNL     1      13.776   0.583  28.620  1.00  0.00     0.041 C 
ATOM     15  O   UNL     1      14.946   0.971  28.363  1.00  0.00    -0.550 OA
ATOM     16  O   UNL     1      13.386   0.398  29.939  1.00  0.00    -0.550 OA
ENDBRANCH  13  14
ENDBRANCH  12  13
ENDBRANCH  11  12
ENDBRANCH  10  11
ENDBRANCH   9  10
ENDBRANCH   8   9
ENDBRANCH   7   8
ENDBRANCH   6   7
ENDBRANCH   5   6
ENDBRANCH   4   5
ENDBRANCH   3   4
ENDBRANCH   2   3
ENDBRANCH   1   2
BRANCH   1  17
ATOM     17  C   UNL     1      17.176  -5.629  36.283  1.00  0.00     0.000 C 
BRANCH  17  18
ATOM     18  C   UNL     1      18.211  -4.551  36.648  1.00  0.00     0.000 C 
BRANCH  18  19
ATOM     19  C   UNL     1      17.748  -3.131  36.276  1.00  0.00     0.000 C 
BRANCH  19  20
ATOM     20  C   UNL     1      18.802  -2.275  35.545  1.00  0.00     0.000 C 
BRANCH  20  21
ATOM     21  C   UNL     1      19.973  -3.109  34.999  1.00  0.00     0.000 C 
BRANCH  21  22
ATOM     22  C   UNL     1      19.825  -3.429  33.501  1.00  0.00    -0.000 C 
BRANCH  22  23
ATOM     23  C   UNL     1      20.834  -4.481  32.991  1.00  0.00    -0.000 C 
BRANCH  23  24
ATOM     24  C   UNL     1      20.151  -5.813  32.631  1.00  0.00    -0.000 C 
BRANCH  24  25
ATOM     25  C   UNL     1      19.491  -6.481  33.857  1.00  0.00    -0.000 C 
BRANCH  25  26
ATOM     26  C   UNL     1      18.860  -7.855  33.553  1.00  0.00    -0.000 C 
BRANCH  26  27
ATOM     27  C   UNL     1      18.465  -8.082  32.084  1.00  0.00    -0.000 C 
BRANCH  27  28
ATOM     28  C   UNL     1      17.676  -9.387  31.874  1.00  0.00    -0.000 C 
BRANCH  28  29
ATOM     29  C   UNL     1      16.335  -9.154  31.162  1.00  0.00    -0.003 C 
ATOM     30  C   UNL     1      15.154  -9.780  31.903  1.00  0.00     0.004 C 
ENDBRANCH  28  29
ENDBRANCH  27  28
ENDBRANCH  26  27
ENDBRANCH  25  26
ENDBRANCH  24  25
ENDBRANCH  23  24
ENDBRANCH  22  23
ENDBRANCH  21  22
ENDBRANCH  20  21
ENDBRANCH  19  20
ENDBRANCH  18  19
ENDBRANCH  17  18
ENDBRANCH   1  17
TORSDOF 26
ENDMDL
MODEL 4
REMARK VINA RESULT:    -5.065      3.655      8.621
REMARK INTER + INTRA:         -16.187
REMARK INTER:                 -12.956
REMARK INTRA:                  -3.231
REMARK UNBOUND:                -3.425
REMARK SMILES CCCCCCCCCCCCCCCCCCCCCCCCCCCC(=O)[O-]
REMARK SMILES IDX 15 1 16 2 17 3 18 4 19 5 20 6 21 7 22 8 23 9 24 10 25 11
REMARK SMILES IDX 26 12 27 13 28 14 29 15 30 16 14 17 13 18 12 19 11 20 10 21
REMARK SMILES IDX 9 22 8 23 7 24 6 25 5 26 4 27 3 28 2 29 1 30
REMARK H PARENT
REMARK Flexibility Score: inf
ROOT
ATOM      1  C   UNL     1      15.933  -4.388  34.408  1.00  0.00     0.000 C 
ENDROOT
BRANCH   1   2
ATOM      2  C   UNL     1      16.549  -4.281  33.002  1.00  0.00     0.000 C 
BRANCH   2   3
ATOM      3  C   UNL     1      16.475  -5.602  32.217  1.00  0.00     0.000 C 
BRANCH   3   4
ATOM      4  C   UNL     1      15.882  -5.492  30.796  1.00  0.00     0.000 C 
BRANCH   4   5
ATOM      5  C   UNL     1      15.908  -4.079  30.185  1.00  0.00     0.000 C 
BRANCH   5   6
ATOM      6  C   UNL     1      15.366  -3.985  28.746  1.00  0.00     0.000 C 
BRANCH   6   7
ATOM      7  C   UNL     1      15.056  -2.542  28.289  1.00  0.00     0.000 C 
BRANCH   7   8
ATOM      8  C   UNL     1      15.739  -1.485  29.175  1.00  0.00     0.000 C 
BRANCH   8   9
ATOM      9  C   UNL     1      14.732  -0.566  29.882  1.00  0.00     0.000 C 
BRANCH   9  10
ATOM     10  C   UNL     1      13.857   0.223  28.898  1.00  0.00     0.000 C 
BRANCH  10  11
ATOM     11  C   UNL     1      14.725   1.027  27.918  1.00  0.00     0.000 C 
BRANCH  11  12
ATOM     12  C   UNL     1      14.251   0.904  26.458  1.00  0.00     0.006 C 
BRANCH  12  13
ATOM     13  C   UNL     1      13.114  -0.108  26.242  1.00  0.00     0.053 C 
BRANCH  13  14
ATOM     14  C   UNL     1      11.980   0.481  25.459  1.00  0.00     0.041 C 
ATOM     15  O   UNL     1      10.813   0.478  25.935  1.00  0.00    -0.550 OA
ATOM     16  O   UNL     1      12.218   1.072  24.226  1.00  0.00    -0.550 OA
ENDBRANCH  13  14
ENDBRANCH  12  13
ENDBRANCH  11  12
ENDBRANCH  10  11
ENDBRANCH   9  10
ENDBRANCH   8   9
ENDBRANCH   7   8
ENDBRANCH   6   7
ENDBRANCH   5   6
ENDBRANCH   4   5
ENDBRANCH   3   4
ENDBRANCH   2   3
ENDBRANCH   1   2
BRANCH   1  17
ATOM     17  C   UNL     1      16.605  -5.467  35.273  1.00  0.00     0.000 C 
BRANCH  17  18
ATOM     18  C   UNL     1      17.468  -4.872  36.399  1.00  0.00     0.000 C 
BRANCH  18  19
ATOM     19  C   UNL     1      18.440  -5.898  37.011  1.00  0.00     0.000 C 
BRANCH  19  20
ATOM     20  C   UNL     1      18.407  -7.294  36.359  1.00  0.00     0.000 C 
BRANCH  20  21
ATOM     21  C   UNL     1      19.464  -7.461  35.254  1.00  0.00     0.000 C 
BRANCH  21  22
ATOM     22  C   UNL     1      18.860  -7.952  33.927  1.00  0.00    -0.000 C 
BRANCH  22  23
ATOM     23  C   UNL     1      19.181  -7.037  32.725  1.00  0.00    -0.000 C 
BRANCH  23  24
ATOM     24  C   UNL     1      20.336  -6.066  33.027  1.00  0.00    -0.000 C 
BRANCH  24  25
ATOM     25  C   UNL     1      19.925  -4.590  32.838  1.00  0.00    -0.000 C 
BRANCH  25  26
ATOM     26  C   UNL     1      20.747  -3.600  33.687  1.00  0.00    -0.000 C 
BRANCH  26  27
ATOM     27  C   UNL     1      20.070  -3.137  34.989  1.00  0.00    -0.000 C 
BRANCH  27  28
ATOM     28  C   UNL     1      19.006  -2.051  34.754  1.00  0.00    -0.000 C 
BRANCH  28  29
ATOM     29  C   UNL     1      18.891  -1.077  35.937  1.00  0.00    -0.003 C 
ATOM     30  C   UNL     1      20.078  -0.119  36.033  1.00  0.00     0.004 C 
ENDBRANCH  28  29
ENDBRANCH  27  28
ENDBRANCH  26  27
ENDBRANCH  25  26
ENDBRANCH  24  25
ENDBRANCH  23  24
ENDBRANCH  22  23
ENDBRANCH  21  22
ENDBRANCH  20  21
ENDBRANCH  19  20
ENDBRANCH  18  19
ENDBRANCH  17  18
ENDBRANCH   1  17
TORSDOF 26
ENDMDL
MODEL 5
REMARK VINA RESULT:    -5.009      7.976     13.939
REMARK INTER + INTRA:         -16.047
REMARK INTER:                 -13.070
REMARK INTRA:                  -2.978
REMARK UNBOUND:                -3.425
REMARK SMILES CCCCCCCCCCCCCCCCCCCCCCCCCCCC(=O)[O-]
REMARK SMILES IDX 15 1 16 2 17 3 18 4 19 5 20 6 21 7 22 8 23 9 24 10 25 11
REMARK SMILES IDX 26 12 27 13 28 14 29 15 30 16 14 17 13 18 12 19 11 20 10 21
REMARK SMILES IDX 9 22 8 23 7 24 6 25 5 26 4 27 3 28 2 29 1 30
REMARK H PARENT
REMARK Flexibility Score: inf
ROOT
ATOM      1  C   UNL     1      10.586   3.310  20.955  1.00  0.00     0.000 C 
ENDROOT
BRANCH   1   2
ATOM      2  C   UNL     1      11.384   4.570  20.581  1.00  0.00     0.000 C 
BRANCH   2   3
ATOM      3  C   UNL     1      12.244   5.098  21.744  1.00  0.00     0.000 C 
BRANCH   3   4
ATOM      4  C   UNL     1      12.503   4.089  22.883  1.00  0.00     0.000 C 
BRANCH   4   5
ATOM      5  C   UNL     1      13.628   4.480  23.859  1.00  0.00     0.000 C 
BRANCH   5   6
ATOM      6  C   UNL     1      14.522   3.312  24.318  1.00  0.00     0.000 C 
BRANCH   6   7
ATOM      7  C   UNL     1      13.847   2.377  25.345  1.00  0.00     0.000 C 
BRANCH   7   8
ATOM      8  C   UNL     1      13.089   1.217  24.677  1.00  0.00     0.000 C 
BRANCH   8   9
ATOM      9  C   UNL     1      11.860   0.770  25.484  1.00  0.00     0.000 C 
BRANCH   9  10
ATOM     10  C   UNL     1      12.224  -0.154  26.655  1.00  0.00     0.000 C 
BRANCH  10  11
ATOM     11  C   UNL     1      13.286  -1.180  26.232  1.00  0.00     0.000 C 
BRANCH  11  12
ATOM     12  C   UNL     1      14.458  -1.275  27.227  1.00  0.00     0.006 C 
BRANCH  12  13
ATOM     13  C   UNL     1      14.775   0.037  27.963  1.00  0.00     0.053 C 
BRANCH  13  14
ATOM     14  C   UNL     1      14.573  -0.085  29.442  1.00  0.00     0.041 C 
ATOM     15  O   UNL     1      13.443   0.151  29.948  1.00  0.00    -0.550 OA
ATOM     16  O   UNL     1      15.618  -0.502  30.255  1.00  0.00    -0.550 OA
ENDBRANCH  13  14
ENDBRANCH  12  13
ENDBRANCH  11  12
ENDBRANCH  10  11
ENDBRANCH   9  10
ENDBRANCH   8   9
ENDBRANCH   7   8
ENDBRANCH   6   7
ENDBRANCH   5   6
ENDBRANCH   4   5
ENDBRANCH   3   4
ENDBRANCH   2   3
ENDBRANCH   1   2
BRANCH   1  17
ATOM     17  C   UNL     1      10.240   2.440  19.735  1.00  0.00     0.000 C 
BRANCH  17  18
ATOM     18  C   UNL     1       9.608   3.249  18.589  1.00  0.00     0.000 C 
BRANCH  18  19
ATOM     19  C   UNL     1       8.168   3.698  18.900  1.00  0.00     0.000 C 
BRANCH  19  20
ATOM     20  C   UNL     1       8.002   5.205  19.176  1.00  0.00     0.000 C 
BRANCH  20  21
ATOM     21  C   UNL     1       8.365   6.077  17.962  1.00  0.00     0.000 C 
BRANCH  21  22
ATOM     22  C   UNL     1       9.460   7.110  18.281  1.00  0.00    -0.000 C 
BRANCH  22  23
ATOM     23  C   UNL     1      10.828   6.777  17.648  1.00  0.00    -0.000 C 
BRANCH  23  24
ATOM     24  C   UNL     1      11.876   7.869  17.925  1.00  0.00    -0.000 C 
BRANCH  24  25
ATOM     25  C   UNL     1      12.944   7.411  18.942  1.00  0.00    -0.000 C 
BRANCH  25  26
ATOM     26  C   UNL     1      13.800   8.561  19.510  1.00  0.00    -0.000 C 
BRANCH  26  27
ATOM     27  C   UNL     1      13.416   9.023  20.926  1.00  0.00    -0.000 C 
BRANCH  27  28
ATOM     28  C   UNL     1      12.358   8.118  21.582  1.00  0.00    -0.000 C 
BRANCH  28  29
ATOM     29  C   UNL     1      10.942   8.704  21.483  1.00  0.00    -0.003 C 
ATOM     30  C   UNL     1       9.860   7.717  21.918  1.00  0.00     0.004 C 
ENDBRANCH  28  29
ENDBRANCH  27  28
ENDBRANCH  26  27
ENDBRANCH  25  26
ENDBRANCH  24  25
ENDBRANCH  23  24
ENDBRANCH  22  23
ENDBRANCH  21  22
ENDBRANCH  20  21
ENDBRANCH  19  20
ENDBRANCH  18  19
ENDBRANCH  17  18
ENDBRANCH   1  17
TORSDOF 26
ENDMDL
MODEL 6
REMARK VINA RESULT:    -4.993      3.699      9.415
REMARK INTER + INTRA:         -16.007
REMARK INTER:                 -13.005
REMARK INTRA:                  -3.001
REMARK UNBOUND:                -3.425
REMARK SMILES CCCCCCCCCCCCCCCCCCCCCCCCCCCC(=O)[O-]
REMARK SMILES IDX 15 1 16 2 17 3 18 4 19 5 20 6 21 7 22 8 23 9 24 10 25 11
REMARK SMILES IDX 26 12 27 13 28 14 29 15 30 16 14 17 13 18 12 19 11 20 10 21
REMARK SMILES IDX 9 22 8 23 7 24 6 25 5 26 4 27 3 28 2 29 1 30
REMARK H PARENT
REMARK Flexibility Score: inf
ROOT
ATOM      1  C   UNL     1      16.157  -5.664  32.149  1.00  0.00     0.000 C 
ENDROOT
BRANCH   1   2
ATOM      2  C   UNL     1      16.398  -4.691  30.982  1.00  0.00     0.000 C 
BRANCH   2   3
ATOM      3  C   UNL     1      15.594  -5.061  29.723  1.00  0.00     0.000 C 
BRANCH   3   4
ATOM      4  C   UNL     1      15.269  -3.882  28.780  1.00  0.00     0.000 C 
BRANCH   4   5
ATOM      5  C   UNL     1      16.245  -3.698  27.603  1.00  0.00     0.000 C 
BRANCH   5   6
ATOM      6  C   UNL     1      16.286  -2.276  27.012  1.00  0.00     0.000 C 
BRANCH   6   7
ATOM      7  C   UNL     1      15.019  -1.895  26.215  1.00  0.00     0.000 C 
BRANCH   7   8
ATOM      8  C   UNL     1      14.024  -1.071  27.051  1.00  0.00     0.000 C 
BRANCH   8   9
ATOM      9  C   UNL     1      14.720  -0.029  27.940  1.00  0.00     0.000 C 
BRANCH   9  10
ATOM     10  C   UNL     1      14.697   1.381  27.332  1.00  0.00     0.000 C 
BRANCH  10  11
ATOM     11  C   UNL     1      15.522   1.430  26.037  1.00  0.00     0.000 C 
BRANCH  11  12
ATOM     12  C   UNL     1      14.647   1.518  24.772  1.00  0.00     0.006 C 
BRANCH  12  13
ATOM     13  C   UNL     1      13.271   2.166  24.995  1.00  0.00     0.053 C 
BRANCH  13  14
ATOM     14  C   UNL     1      12.152   1.188  24.807  1.00  0.00     0.041 C 
ATOM     15  O   UNL     1      11.834   0.806  23.649  1.00  0.00    -0.550 OA
ATOM     16  O   UNL     1      11.492   0.665  25.910  1.00  0.00    -0.550 OA
ENDBRANCH  13  14
ENDBRANCH  12  13
ENDBRANCH  11  12
ENDBRANCH  10  11
ENDBRANCH   9  10
ENDBRANCH   8   9
ENDBRANCH   7   8
ENDBRANCH   6   7
ENDBRANCH   5   6
ENDBRANCH   4   5
ENDBRANCH   3   4
ENDBRANCH   2   3
ENDBRANCH   1   2
BRANCH   1  17
ATOM     17  C   UNL     1      16.062  -4.951  33.509  1.00  0.00     0.000 C 
BRANCH  17  18
ATOM     18  C   UNL     1      16.423  -5.871  34.687  1.00  0.00     0.000 C 
BRANCH  18  19
ATOM     19  C   UNL     1      16.716  -5.093  35.984  1.00  0.00     0.000 C 
BRANCH  19  20
ATOM     20  C   UNL     1      18.162  -4.577  36.120  1.00  0.00     0.000 C 
BRANCH  20  21
ATOM     21  C   UNL     1      18.329  -3.132  35.618  1.00  0.00     0.000 C 
BRANCH  21  22
ATOM     22  C   UNL     1      18.843  -3.063  34.170  1.00  0.00    -0.000 C 
BRANCH  22  23
ATOM     23  C   UNL     1      20.150  -3.853  33.939  1.00  0.00    -0.000 C 
BRANCH  23  24
ATOM     24  C   UNL     1      19.999  -4.913  32.834  1.00  0.00    -0.000 C 
BRANCH  24  25
ATOM     25  C   UNL     1      19.665  -6.309  33.404  1.00  0.00    -0.000 C 
BRANCH  25  26
ATOM     26  C   UNL     1      19.295  -7.349  32.328  1.00  0.00    -0.000 C 
BRANCH  26  27
ATOM     27  C   UNL     1      18.269  -8.408  32.769  1.00  0.00    -0.000 C 
BRANCH  27  28
ATOM     28  C   UNL     1      17.826  -9.325  31.615  1.00  0.00    -0.000 C 
BRANCH  28  29
ATOM     29  C   UNL     1      16.384  -9.046  31.165  1.00  0.00    -0.003 C 
ATOM     30  C   UNL     1      15.357  -9.316  32.263  1.00  0.00     0.004 C 
ENDBRANCH  28  29
ENDBRANCH  27  28
ENDBRANCH  26  27
ENDBRANCH  25  26
ENDBRANCH  24  25
ENDBRANCH  23  24
ENDBRANCH  22  23
ENDBRANCH  21  22
ENDBRANCH  20  21
ENDBRANCH  19  20
ENDBRANCH  18  19
ENDBRANCH  17  18
ENDBRANCH   1  17
TORSDOF 26
ENDMDL
MODEL 7
REMARK VINA RESULT:    -4.927      8.813     15.864
REMARK INTER + INTRA:         -15.841
REMARK INTER:                 -12.322
REMARK INTRA:                  -3.520
REMARK UNBOUND:                -3.425
REMARK SMILES CCCCCCCCCCCCCCCCCCCCCCCCCCCC(=O)[O-]
REMARK SMILES IDX 15 1 16 2 17 3 18 4 19 5 20 6 21 7 22 8 23 9 24 10 25 11
REMARK SMILES IDX 26 12 27 13 28 14 29 15 30 16 14 17 13 18 12 19 11 20 10 21
REMARK SMILES IDX 9 22 8 23 7 24 6 25 5 26 4 27 3 28 2 29 1 30
REMARK H PARENT
REMARK Flexibility Score: inf
ROOT
ATOM      1  C   UNL     1      10.573   2.755  21.022  1.00  0.00     0.000 C 
ENDROOT
BRANCH   1   2
ATOM      2  C   UNL     1      10.652   3.379  19.618  1.00  0.00     0.000 C 
BRANCH   2   3
ATOM      3  C   UNL     1       9.644   2.760  18.634  1.00  0.00     0.000 C 
BRANCH   3   4
ATOM      4  C   UNL     1       8.197   3.281  18.757  1.00  0.00     0.000 C 
BRANCH   4   5
ATOM      5  C   UNL     1       8.060   4.812  18.847  1.00  0.00     0.000 C 
BRANCH   5   6
ATOM      6  C   UNL     1       8.506   5.579  17.587  1.00  0.00     0.000 C 
BRANCH   6   7
ATOM      7  C   UNL     1       8.587   7.108  17.783  1.00  0.00     0.000 C 
BRANCH   7   8
ATOM      8  C   UNL     1      10.026   7.596  18.026  1.00  0.00     0.000 C 
BRANCH   8   9
ATOM      9  C   UNL     1      11.080   6.553  17.623  1.00  0.00     0.000 C 
BRANCH   9  10
ATOM     10  C   UNL     1      12.251   6.480  18.613  1.00  0.00     0.000 C 
BRANCH  10  11
ATOM     11  C   UNL     1      12.370   7.786  19.413  1.00  0.00     0.000 C 
BRANCH  11  12
ATOM     12  C   UNL     1      12.518   7.548  20.928  1.00  0.00     0.006 C 
BRANCH  12  13
ATOM     13  C   UNL     1      11.574   6.477  21.498  1.00  0.00     0.053 C 
BRANCH  13  14
ATOM     14  C   UNL     1      10.180   6.995  21.678  1.00  0.00     0.041 C 
ATOM     15  O   UNL     1       9.989   8.186  22.040  1.00  0.00    -0.550 OA
ATOM     16  O   UNL     1       9.093   6.177  21.403  1.00  0.00    -0.550 OA
ENDBRANCH  13  14
ENDBRANCH  12  13
ENDBRANCH  11  12
ENDBRANCH  10  11
ENDBRANCH   9  10
ENDBRANCH   8   9
ENDBRANCH   7   8
ENDBRANCH   6   7
ENDBRANCH   5   6
ENDBRANCH   4   5
ENDBRANCH   3   4
ENDBRANCH   2   3
ENDBRANCH   1   2
BRANCH   1  17
ATOM     17  C   UNL     1      10.275   1.247  20.989  1.00  0.00     0.000 C 
BRANCH  17  18
ATOM     18  C   UNL     1      10.971   0.479  22.126  1.00  0.00     0.000 C 
BRANCH  18  19
ATOM     19  C   UNL     1      11.040   1.287  23.436  1.00  0.00     0.000 C 
BRANCH  19  20
ATOM     20  C   UNL     1      11.987   0.711  24.506  1.00  0.00     0.000 C 
BRANCH  20  21
ATOM     21  C   UNL     1      11.268   0.391  25.828  1.00  0.00     0.000 C 
BRANCH  21  22
ATOM     22  C   UNL     1      12.170  -0.354  26.827  1.00  0.00    -0.000 C 
BRANCH  22  23
ATOM     23  C   UNL     1      13.251  -1.226  26.155  1.00  0.00    -0.000 C 
BRANCH  23  24
ATOM     24  C   UNL     1      14.641  -1.014  26.782  1.00  0.00    -0.000 C 
BRANCH  24  25
ATOM     25  C   UNL     1      14.695   0.246  27.672  1.00  0.00    -0.000 C 
BRANCH  25  26
ATOM     26  C   UNL     1      15.053   1.536  26.907  1.00  0.00    -0.000 C 
BRANCH  26  27
ATOM     27  C   UNL     1      15.706   1.319  25.532  1.00  0.00    -0.000 C 
BRANCH  27  28
ATOM     28  C   UNL     1      15.192   2.303  24.466  1.00  0.00    -0.000 C 
BRANCH  28  29
ATOM     29  C   UNL     1      14.120   3.256  25.015  1.00  0.00    -0.003 C 
ATOM     30  C   UNL     1      13.638   4.268  23.977  1.00  0.00     0.004 C 
ENDBRANCH  28  29
ENDBRANCH  27  28
ENDBRANCH  26  27
ENDBRANCH  25  26
ENDBRANCH  24  25
ENDBRANCH  23  24
ENDBRANCH  22  23
ENDBRANCH  21  22
ENDBRANCH  20  21
ENDBRANCH  19  20
ENDBRANCH  18  19
ENDBRANCH  17  18
ENDBRANCH   1  17
TORSDOF 26
ENDMDL
MODEL 8
REMARK VINA RESULT:    -4.916      9.400     16.698
REMARK INTER + INTRA:         -15.813
REMARK INTER:                 -12.508
REMARK INTRA:                  -3.305
REMARK UNBOUND:                -3.425
REMARK SMILES CCCCCCCCCCCCCCCCCCCCCCCCCCCC(=O)[O-]
REMARK SMILES IDX 15 1 16 2 17 3 18 4 19 5 20 6 21 7 22 8 23 9 24 10 25 11
REMARK SMILES IDX 26 12 27 13 28 14 29 15 30 16 14 17 13 18 12 19 11 20 10 21
REMARK SMILES IDX 9 22 8 23 7 24 6 25 5 26 4 27 3 28 2 29 1 30
REMARK H PARENT
REMARK Flexibility Score: inf
ROOT
ATOM      1  C   UNL     1      10.044   6.591  21.147  1.00  0.00     0.000 C 
ENDROOT
BRANCH   1   2
ATOM      2  C   UNL     1      10.401   7.781  22.054  1.00  0.00     0.000 C 
BRANCH   2   3
ATOM      3  C   UNL     1      11.065   8.938  21.285  1.00  0.00     0.000 C 
BRANCH   3   4
ATOM      4  C   UNL     1      12.494   9.298  21.742  1.00  0.00     0.000 C 
BRANCH   4   5
ATOM      5  C   UNL     1      13.624   8.592  20.970  1.00  0.00     0.000 C 
BRANCH   5   6
ATOM      6  C   UNL     1      13.535   8.713  19.437  1.00  0.00     0.000 C 
BRANCH   6   7
ATOM      7  C   UNL     1      12.901   7.482  18.751  1.00  0.00     0.000 C 
BRANCH   7   8
ATOM      8  C   UNL     1      11.614   7.834  17.985  1.00  0.00     0.000 C 
BRANCH   8   9
ATOM      9  C   UNL     1      10.817   6.589  17.565  1.00  0.00     0.000 C 
BRANCH   9  10
ATOM     10  C   UNL     1       9.302   6.837  17.536  1.00  0.00     0.000 C 
BRANCH  10  11
ATOM     11  C   UNL     1       8.536   5.596  18.016  1.00  0.00     0.000 C 
BRANCH  11  12
ATOM     12  C   UNL     1       9.372   4.306  17.931  1.00  0.00     0.006 C 
BRANCH  12  13
ATOM     13  C   UNL     1       9.099   3.296  19.058  1.00  0.00     0.053 C 
BRANCH  13  14
ATOM     14  C   UNL     1       8.306   2.119  18.578  1.00  0.00     0.041 C 
ATOM     15  O   UNL     1       7.047   2.145  18.620  1.00  0.00    -0.550 OA
ATOM     16  O   UNL     1       8.954   1.014  18.044  1.00  0.00    -0.550 OA
ENDBRANCH  13  14
ENDBRANCH  12  13
ENDBRANCH  11  12
ENDBRANCH  10  11
ENDBRANCH   9  10
ENDBRANCH   8   9
ENDBRANCH   7   8
ENDBRANCH   6   7
ENDBRANCH   5   6
ENDBRANCH   4   5
ENDBRANCH   3   4
ENDBRANCH   2   3
ENDBRANCH   1   2
BRANCH   1  17
ATOM     17  C   UNL     1      11.158   5.531  21.090  1.00  0.00     0.000 C 
BRANCH  17  18
ATOM     18  C   UNL     1      12.198   5.702  22.210  1.00  0.00     0.000 C 
BRANCH  18  19
ATOM     19  C   UNL     1      12.703   4.358  22.766  1.00  0.00     0.000 C 
BRANCH  19  20
ATOM     20  C   UNL     1      13.630   4.468  23.992  1.00  0.00     0.000 C 
BRANCH  20  21
ATOM     21  C   UNL     1      14.710   3.373  24.022  1.00  0.00     0.000 C 
BRANCH  21  22
ATOM     22  C   UNL     1      14.467   2.331  25.128  1.00  0.00    -0.000 C 
BRANCH  22  23
ATOM     23  C   UNL     1      15.720   1.503  25.486  1.00  0.00    -0.000 C 
BRANCH  23  24
ATOM     24  C   UNL     1      15.518   0.666  26.761  1.00  0.00    -0.000 C 
BRANCH  24  25
ATOM     25  C   UNL     1      15.475  -0.849  26.465  1.00  0.00    -0.000 C 
BRANCH  25  26
ATOM     26  C   UNL     1      14.105  -1.500  26.741  1.00  0.00    -0.000 C 
BRANCH  26  27
ATOM     27  C   UNL     1      12.966  -1.046  25.812  1.00  0.00    -0.000 C 
BRANCH  27  28
ATOM     28  C   UNL     1      11.827  -0.339  26.567  1.00  0.00    -0.000 C 
BRANCH  28  29
ATOM     29  C   UNL     1      11.110   0.708  25.701  1.00  0.00    -0.003 C 
ATOM     30  C   UNL     1      11.600   0.715  24.253  1.00  0.00     0.004 C 
ENDBRANCH  28  29
ENDBRANCH  27  28
ENDBRANCH  26  27
ENDBRANCH  25  26
ENDBRANCH  24  25
ENDBRANCH  23  24
ENDBRANCH  22  23
ENDBRANCH  21  22
ENDBRANCH  20  21
ENDBRANCH  19  20
ENDBRANCH  18  19
ENDBRANCH  17  18
ENDBRANCH   1  17
TORSDOF 26
ENDMDL
MODEL 9
REMARK VINA RESULT:    -4.895      1.140      2.425
REMARK INTER + INTRA:         -15.759
REMARK INTER:                 -13.023
REMARK INTRA:                  -2.736
REMARK UNBOUND:                -3.425
REMARK SMILES CCCCCCCCCCCCCCCCCCCCCCCCCCCC(=O)[O-]
REMARK SMILES IDX 15 1 16 2 17 3 18 4 19 5 20 6 21 7 22 8 23 9 24 10 25 11
REMARK SMILES IDX 26 12 27 13 28 14 29 15 30 16 14 17 13 18 12 19 11 20 10 21
REMARK SMILES IDX 9 22 8 23 7 24 6 25 5 26 4 27 3 28 2 29 1 30
REMARK H PARENT
REMARK Flexibility Score: inf
ROOT
ATOM      1  C   UNL     1      15.469  -6.241  33.538  1.00  0.00     0.000 C 
ENDROOT
BRANCH   1   2
ATOM      2  C   UNL     1      15.938  -7.682  33.806  1.00  0.00     0.000 C 
BRANCH   2   3
ATOM      3  C   UNL     1      15.932  -8.556  32.540  1.00  0.00     0.000 C 
BRANCH   3   4
ATOM      4  C   UNL     1      17.322  -8.843  31.932  1.00  0.00     0.000 C 
BRANCH   4   5
ATOM      5  C   UNL     1      18.516  -8.528  32.852  1.00  0.00     0.000 C 
BRANCH   5   6
ATOM      6  C   UNL     1      19.309  -7.263  32.473  1.00  0.00     0.000 C 
BRANCH   6   7
ATOM      7  C   UNL     1      19.674  -6.371  33.679  1.00  0.00     0.000 C 
BRANCH   7   8
ATOM      8  C   UNL     1      19.086  -6.897  35.000  1.00  0.00     0.000 C 
BRANCH   8   9
ATOM      9  C   UNL     1      19.374  -5.968  36.189  1.00  0.00     0.000 C 
BRANCH   9  10
ATOM     10  C   UNL     1      18.134  -5.186  36.644  1.00  0.00     0.000 C 
BRANCH  10  11
ATOM     11  C   UNL     1      17.752  -4.116  35.610  1.00  0.00     0.000 C 
BRANCH  11  12
ATOM     12  C   UNL     1      18.071  -2.685  36.082  1.00  0.00     0.006 C 
BRANCH  12  13
ATOM     13  C   UNL     1      19.206  -1.998  35.306  1.00  0.00     0.053 C 
BRANCH  13  14
ATOM     14  C   UNL     1      19.397  -0.575  35.733  1.00  0.00     0.041 C 
ATOM     15  O   UNL     1      18.672   0.335  35.249  1.00  0.00    -0.550 OA
ATOM     16  O   UNL     1      20.343  -0.259  36.698  1.00  0.00    -0.550 OA
ENDBRANCH  13  14
ENDBRANCH  12  13
ENDBRANCH  11  12
ENDBRANCH  10  11
ENDBRANCH   9  10
ENDBRANCH   8   9
ENDBRANCH   7   8
ENDBRANCH   6   7
ENDBRANCH   5   6
ENDBRANCH   4   5
ENDBRANCH   3   4
ENDBRANCH   2   3
ENDBRANCH   1   2
BRANCH   1  17
ATOM     17  C   UNL     1      16.388  -5.488  32.560  1.00  0.00     0.000 C 
BRANCH  17  18
ATOM     18  C   UNL     1      15.921  -5.604  31.099  1.00  0.00     0.000 C 
BRANCH  18  19
ATOM     19  C   UNL     1      15.959  -4.258  30.353  1.00  0.00     0.000 C 
BRANCH  19  20
ATOM     20  C   UNL     1      15.510  -4.318  28.880  1.00  0.00     0.000 C 
BRANCH  20  21
ATOM     21  C   UNL     1      15.225  -2.928  28.286  1.00  0.00     0.000 C 
BRANCH  21  22
ATOM     22  C   UNL     1      16.123  -2.602  27.080  1.00  0.00    -0.000 C 
BRANCH  22  23
ATOM     23  C   UNL     1      15.490  -1.602  26.089  1.00  0.00    -0.000 C 
BRANCH  23  24
ATOM     24  C   UNL     1      13.957  -1.554  26.212  1.00  0.00    -0.000 C 
BRANCH  24  25
ATOM     25  C   UNL     1      13.404  -0.118  26.090  1.00  0.00    -0.000 C 
BRANCH  25  26
ATOM     26  C   UNL     1      14.416   0.976  26.485  1.00  0.00    -0.000 C 
BRANCH  26  27
ATOM     27  C   UNL     1      14.622   1.159  27.998  1.00  0.00    -0.000 C 
BRANCH  27  28
ATOM     28  C   UNL     1      13.466   0.579  28.832  1.00  0.00    -0.000 C 
BRANCH  28  29
ATOM     29  C   UNL     1      13.898   0.215  30.261  1.00  0.00    -0.003 C 
ATOM     30  C   UNL     1      15.366  -0.201  30.348  1.00  0.00     0.004 C 
ENDBRANCH  28  29
ENDBRANCH  27  28
ENDBRANCH  26  27
ENDBRANCH  25  26
ENDBRANCH  24  25
ENDBRANCH  23  24
ENDBRANCH  22  23
ENDBRANCH  21  22
ENDBRANCH  20  21
ENDBRANCH  19  20
ENDBRANCH  18  19
ENDBRANCH  17  18
ENDBRANCH   1  17
TORSDOF 26
ENDMDL
