MODEL 1
REMARK VINA RESULT:    -0.225      0.000      0.000
REMARK INTER + INTRA:          -0.695
REMARK INTER:                  -0.272
REMARK INTRA:                  -0.423
REMARK UNBOUND:                -0.423
REMARK SMILES O=c1c(O)c(-c2ccc(O)cc2O)oc2cc(O)cc(O)c12
REMARK SMILES IDX 5 1 3 2 2 3 1 4 22 5 20 6 19 7 17 8 16 9 15 10 14 11 6 12
REMARK SMILES IDX 8 13 7 14 9 15 11 16 12 17 10 18 13 20 4 22 21 24 18 26
REMARK H PARENT 10 19 13 21 4 23 21 25 18 27
REMARK Flexibility Score: inf
ROOT
ATOM      1  C   UNL     1      66.507  32.492  41.104  1.00  0.00     0.184 A 
ATOM      2  C   UNL     1      67.784  32.317  40.549  1.00  0.00     0.208 A 
ATOM      3  C   UNL     1      67.911  31.615  39.340  1.00  0.00     0.238 A 
ATOM      4  O   UNL     1      69.052  31.508  38.820  1.00  0.00    -0.285 OA
ATOM      5  C   UNL     1      66.759  31.083  38.711  1.00  0.00     0.111 A 
ATOM      6  C   UNL     1      66.772  30.320  37.505  1.00  0.00     0.134 A 
ATOM      7  C   UNL     1      65.562  29.955  36.904  1.00  0.00     0.093 A 
ATOM      8  C   UNL     1      64.340  30.268  37.498  1.00  0.00     0.123 A 
ATOM      9  C   UNL     1      64.315  30.963  38.708  1.00  0.00     0.094 A 
ATOM     10  C   UNL     1      65.505  31.372  39.314  1.00  0.00     0.146 A 
ATOM     11  O   UNL     1      65.438  32.040  40.459  1.00  0.00    -0.451 OA
ENDROOT
BRANCH   1  12
ATOM     12  C   UNL     1      66.306  33.206  42.382  1.00  0.00     0.063 A 
ATOM     13  C   UNL     1      66.488  33.217  44.806  1.00  0.00     0.047 A 
ATOM     14  C   UNL     1      66.660  32.569  43.580  1.00  0.00     0.020 A 
ATOM     15  C   UNL     1      65.971  34.518  44.847  1.00  0.00     0.119 A 
ATOM     16  C   UNL     1      65.637  35.170  43.656  1.00  0.00     0.093 A 
ATOM     17  C   UNL     1      65.813  34.528  42.421  1.00  0.00     0.130 A 
BRANCH  15  18
ATOM     18  O   UNL     1      65.791  35.173  46.063  1.00  0.00    -0.508 OA
ATOM     19  H   UNL     1      64.922  35.642  46.288  1.00  0.00     0.293 HD
ENDBRANCH  15  18
BRANCH  17  20
ATOM     20  O   UNL     1      65.521  35.208  41.238  1.00  0.00    -0.507 OA
ATOM     21  H   UNL     1      64.687  35.006  40.700  1.00  0.00     0.293 HD
ENDBRANCH  17  20
ENDBRANCH   1  12
BRANCH   2  22
ATOM     22  O   UNL     1      68.902  32.867  41.181  1.00  0.00    -0.502 OA
ATOM     23  H   UNL     1      69.794  32.390  41.220  1.00  0.00     0.293 HD
ENDBRANCH   2  22
BRANCH   6  24
ATOM     24  O   UNL     1      67.940  29.875  36.877  1.00  0.00    -0.507 OA
ATOM     25  H   UNL     1      67.963  29.343  36.019  1.00  0.00     0.293 HD
ENDBRANCH   6  24
BRANCH   8  26
ATOM     26  O   UNL     1      63.155  29.875  36.880  1.00  0.00    -0.508 OA
ATOM     27  H   UNL     1      62.517  29.222  37.321  1.00  0.00     0.293 HD
ENDBRANCH   8  26
TORSDOF 6
ENDMDL
MODEL 2
REMARK VINA RESULT:    -0.224      3.137      4.903
REMARK INTER + INTRA:          -0.692
REMARK INTER:                  -0.281
REMARK INTRA:                  -0.411
REMARK UNBOUND:                -0.423
REMARK SMILES O=c1c(O)c(-c2ccc(O)cc2O)oc2cc(O)cc(O)c12
REMARK SMILES IDX 5 1 3 2 2 3 1 4 22 5 20 6 19 7 17 8 16 9 15 10 14 11 6 12
REMARK SMILES IDX 8 13 7 14 9 15 11 16 12 17 10 18 13 20 4 22 21 24 18 26
REMARK H PARENT 10 19 13 21 4 23 21 25 18 27
REMARK Flexibility Score: inf
ROOT
ATOM      1  C   UNL     1      64.692  34.746  38.601  1.00  0.00     0.184 A 
ATOM      2  C   UNL     1      63.384  34.242  38.524  1.00  0.00     0.208 A 
ATOM      3  C   UNL     1      63.187  32.926  38.080  1.00  0.00     0.238 A 
ATOM      4  O   UNL     1      62.017  32.462  38.064  1.00  0.00    -0.285 OA
ATOM      5  C   UNL     1      64.300  32.135  37.702  1.00  0.00     0.111 A 
ATOM      6  C   UNL     1      64.215  30.802  37.200  1.00  0.00     0.134 A 
ATOM      7  C   UNL     1      65.389  30.071  36.981  1.00  0.00     0.093 A 
ATOM      8  C   UNL     1      66.643  30.643  37.184  1.00  0.00     0.123 A 
ATOM      9  C   UNL     1      66.739  31.966  37.620  1.00  0.00     0.094 A 
ATOM     10  C   UNL     1      65.587  32.710  37.881  1.00  0.00     0.146 A 
ATOM     11  O   UNL     1      65.721  33.961  38.304  1.00  0.00    -0.451 OA
ENDROOT
BRANCH   1  12
ATOM     12  C   UNL     1      64.968  36.128  39.044  1.00  0.00     0.063 A 
ATOM     13  C   UNL     1      65.221  38.479  38.479  1.00  0.00     0.047 A 
ATOM     14  C   UNL     1      64.969  37.160  38.094  1.00  0.00     0.020 A 
ATOM     15  C   UNL     1      65.462  38.785  39.824  1.00  0.00     0.119 A 
ATOM     16  C   UNL     1      65.440  37.767  40.782  1.00  0.00     0.093 A 
ATOM     17  C   UNL     1      65.182  36.440  40.404  1.00  0.00     0.130 A 
BRANCH  15  18
ATOM     18  O   UNL     1      65.719  40.095  40.220  1.00  0.00    -0.508 OA
ATOM     19  H   UNL     1      65.266  40.502  41.029  1.00  0.00     0.293 HD
ENDBRANCH  15  18
BRANCH  17  20
ATOM     20  O   UNL     1      65.115  35.442  41.376  1.00  0.00    -0.507 OA
ATOM     21  H   UNL     1      65.643  35.503  42.238  1.00  0.00     0.293 HD
ENDBRANCH  17  20
ENDBRANCH   1  12
BRANCH   2  22
ATOM     22  O   UNL     1      62.305  35.037  38.919  1.00  0.00    -0.502 OA
ATOM     23  H   UNL     1      62.205  35.386  39.864  1.00  0.00     0.293 HD
ENDBRANCH   2  22
BRANCH   6  24
ATOM     24  O   UNL     1      63.014  30.166  36.875  1.00  0.00    -0.507 OA
ATOM     25  H   UNL     1      62.937  29.349  36.287  1.00  0.00     0.293 HD
ENDBRANCH   6  24
BRANCH   8  26
ATOM     26  O   UNL     1      67.790  29.891  36.942  1.00  0.00    -0.508 OA
ATOM     27  H   UNL     1      68.692  30.329  36.794  1.00  0.00     0.293 HD
ENDBRANCH   8  26
TORSDOF 6
ENDMDL
MODEL 3
REMARK VINA RESULT:    -0.154      3.290      6.789
REMARK INTER + INTRA:          -0.609
REMARK INTER:                  -0.188
REMARK INTRA:                  -0.421
REMARK UNBOUND:                -0.423
REMARK SMILES O=c1c(O)c(-c2ccc(O)cc2O)oc2cc(O)cc(O)c12
REMARK SMILES IDX 5 1 3 2 2 3 1 4 22 5 20 6 19 7 17 8 16 9 15 10 14 11 6 12
REMARK SMILES IDX 8 13 7 14 9 15 11 16 12 17 10 18 13 20 4 22 21 24 18 26
REMARK H PARENT 10 19 13 21 4 23 21 25 18 27
REMARK Flexibility Score: inf
ROOT
ATOM      1  C   UNL     1      68.427  32.372  39.469  1.00  0.00     0.184 A 
ATOM      2  C   UNL     1      69.026  33.528  38.945  1.00  0.00     0.208 A 
ATOM      3  C   UNL     1      70.113  34.100  39.626  1.00  0.00     0.238 A 
ATOM      4  O   UNL     1      70.680  35.104  39.123  1.00  0.00    -0.285 OA
ATOM      5  C   UNL     1      70.574  33.516  40.831  1.00  0.00     0.111 A 
ATOM      6  C   UNL     1      71.641  34.033  41.626  1.00  0.00     0.134 A 
ATOM      7  C   UNL     1      72.098  33.302  42.729  1.00  0.00     0.093 A 
ATOM      8  C   UNL     1      71.486  32.108  43.105  1.00  0.00     0.123 A 
ATOM      9  C   UNL     1      70.403  31.622  42.370  1.00  0.00     0.094 A 
ATOM     10  C   UNL     1      69.947  32.310  41.243  1.00  0.00     0.146 A 
ATOM     11  O   UNL     1      68.922  31.809  40.565  1.00  0.00    -0.451 OA
ENDROOT
BRANCH   1  12
ATOM     12  C   UNL     1      67.270  31.730  38.812  1.00  0.00     0.063 A 
ATOM     13  C   UNL     1      64.880  31.713  38.366  1.00  0.00     0.047 A 
ATOM     14  C   UNL     1      65.995  32.291  38.978  1.00  0.00     0.020 A 
ATOM     15  C   UNL     1      65.028  30.572  37.568  1.00  0.00     0.119 A 
ATOM     16  C   UNL     1      66.298  30.019  37.377  1.00  0.00     0.093 A 
ATOM     17  C   UNL     1      67.424  30.598  37.983  1.00  0.00     0.130 A 
BRANCH  15  18
ATOM     18  O   UNL     1      63.924  29.984  36.957  1.00  0.00    -0.508 OA
ATOM     19  H   UNL     1      64.026  29.212  36.309  1.00  0.00     0.293 HD
ENDBRANCH  15  18
BRANCH  17  20
ATOM     20  O   UNL     1      68.691  30.065  37.745  1.00  0.00    -0.507 OA
ATOM     21  H   UNL     1      69.399  30.582  37.237  1.00  0.00     0.293 HD
ENDBRANCH  17  20
ENDBRANCH   1  12
BRANCH   2  22
ATOM     22  O   UNL     1      68.562  34.073  37.745  1.00  0.00    -0.502 OA
ATOM     23  H   UNL     1      69.149  34.157  36.924  1.00  0.00     0.293 HD
ENDBRANCH   2  22
BRANCH   6  24
ATOM     24  O   UNL     1      72.262  35.264  41.392  1.00  0.00    -0.507 OA
ATOM     25  H   UNL     1      71.780  36.148  41.328  1.00  0.00     0.293 HD
ENDBRANCH   6  24
BRANCH   8  26
ATOM     26  O   UNL     1      71.956  31.414  44.217  1.00  0.00    -0.508 OA
ATOM     27  H   UNL     1      71.339  30.855  44.795  1.00  0.00     0.293 HD
ENDBRANCH   8  26
TORSDOF 6
ENDMDL
MODEL 4
REMARK VINA RESULT:    -0.135      3.234      4.044
REMARK INTER + INTRA:          -0.585
REMARK INTER:                  -0.166
REMARK INTRA:                  -0.419
REMARK UNBOUND:                -0.423
REMARK SMILES O=c1c(O)c(-c2ccc(O)cc2O)oc2cc(O)cc(O)c12
REMARK SMILES IDX 5 1 3 2 2 3 1 4 22 5 20 6 19 7 17 8 16 9 15 10 14 11 6 12
REMARK SMILES IDX 8 13 7 14 9 15 11 16 12 17 10 18 13 20 4 22 21 24 18 26
REMARK H PARENT 10 19 13 21 4 23 21 25 18 27
REMARK Flexibility Score: inf
ROOT
ATOM      1  C   UNL     1      67.826  34.312  38.913  1.00  0.00     0.184 A 
ATOM      2  C   UNL     1      68.473  33.340  38.134  1.00  0.00     0.208 A 
ATOM      3  C   UNL     1      67.730  32.254  37.646  1.00  0.00     0.238 A 
ATOM      4  O   UNL     1      68.304  31.415  36.904  1.00  0.00    -0.285 OA
ATOM      5  C   UNL     1      66.353  32.145  37.958  1.00  0.00     0.111 A 
ATOM      6  C   UNL     1      65.511  31.067  37.551  1.00  0.00     0.134 A 
ATOM      7  C   UNL     1      64.136  31.129  37.807  1.00  0.00     0.093 A 
ATOM      8  C   UNL     1      63.582  32.197  38.510  1.00  0.00     0.123 A 
ATOM      9  C   UNL     1      64.404  33.230  38.964  1.00  0.00     0.094 A 
ATOM     10  C   UNL     1      65.775  33.214  38.694  1.00  0.00     0.146 A 
ATOM     11  O   UNL     1      66.520  34.220  39.134  1.00  0.00    -0.451 OA
ENDROOT
BRANCH   1  12
ATOM     12  C   UNL     1      68.552  35.471  39.471  1.00  0.00     0.063 A 
ATOM     13  C   UNL     1      69.550  37.661  39.124  1.00  0.00     0.047 A 
ATOM     14  C   UNL     1      68.868  36.547  38.627  1.00  0.00     0.020 A 
ATOM     15  C   UNL     1      69.913  37.719  40.475  1.00  0.00     0.119 A 
ATOM     16  C   UNL     1      69.582  36.662  41.328  1.00  0.00     0.093 A 
ATOM     17  C   UNL     1      68.892  35.542  40.839  1.00  0.00     0.130 A 
BRANCH  15  18
ATOM     18  O   UNL     1      70.597  38.822  40.980  1.00  0.00    -0.508 OA
ATOM     19  H   UNL     1      71.305  38.723  41.697  1.00  0.00     0.293 HD
ENDBRANCH  15  18
BRANCH  17  20
ATOM     20  O   UNL     1      68.526  34.518  41.711  1.00  0.00    -0.507 OA
ATOM     21  H   UNL     1      68.705  33.544  41.494  1.00  0.00     0.293 HD
ENDBRANCH  17  20
ENDBRANCH   1  12
BRANCH   2  22
ATOM     22  O   UNL     1      69.829  33.480  37.827  1.00  0.00    -0.502 OA
ATOM     23  H   UNL     1      70.157  33.653  36.884  1.00  0.00     0.293 HD
ENDBRANCH   2  22
BRANCH   6  24
ATOM     24  O   UNL     1      65.977  29.908  36.923  1.00  0.00    -0.507 OA
ATOM     25  H   UNL     1      66.095  29.803  35.926  1.00  0.00     0.293 HD
ENDBRANCH   6  24
BRANCH   8  26
ATOM     26  O   UNL     1      62.212  32.219  38.760  1.00  0.00    -0.508 OA
ATOM     27  H   UNL     1      61.772  31.537  39.367  1.00  0.00     0.293 HD
ENDBRANCH   8  26
TORSDOF 6
ENDMDL
MODEL 5
REMARK VINA RESULT:    -0.130      2.658      3.914
REMARK INTER + INTRA:          -0.579
REMARK INTER:                  -0.156
REMARK INTRA:                  -0.423
REMARK UNBOUND:                -0.423
REMARK SMILES O=c1c(O)c(-c2ccc(O)cc2O)oc2cc(O)cc(O)c12
REMARK SMILES IDX 5 1 3 2 2 3 1 4 22 5 20 6 19 7 17 8 16 9 15 10 14 11 6 12
REMARK SMILES IDX 8 13 7 14 9 15 11 16 12 17 10 18 13 20 4 22 21 24 18 26
REMARK H PARENT 10 19 13 21 4 23 21 25 18 27
REMARK Flexibility Score: inf
ROOT
ATOM      1  C   UNL     1      66.180  34.796  40.310  1.00  0.00     0.184 A 
ATOM      2  C   UNL     1      64.881  35.245  40.024  1.00  0.00     0.208 A 
ATOM      3  C   UNL     1      64.108  34.540  39.088  1.00  0.00     0.238 A 
ATOM      4  O   UNL     1      62.926  34.915  38.876  1.00  0.00    -0.285 OA
ATOM      5  C   UNL     1      64.652  33.404  38.439  1.00  0.00     0.111 A 
ATOM      6  C   UNL     1      63.974  32.636  37.445  1.00  0.00     0.134 A 
ATOM      7  C   UNL     1      64.558  31.458  36.965  1.00  0.00     0.093 A 
ATOM      8  C   UNL     1      65.820  31.053  37.395  1.00  0.00     0.123 A 
ATOM      9  C   UNL     1      66.518  31.826  38.323  1.00  0.00     0.094 A 
ATOM     10  C   UNL     1      65.947  32.989  38.847  1.00  0.00     0.146 A 
ATOM     11  O   UNL     1      66.639  33.690  39.736  1.00  0.00    -0.451 OA
ENDROOT
BRANCH   1  12
ATOM     12  C   UNL     1      67.052  35.502  41.272  1.00  0.00     0.063 A 
ATOM     13  C   UNL     1      68.476  37.407  41.774  1.00  0.00     0.047 A 
ATOM     14  C   UNL     1      67.650  36.711  40.887  1.00  0.00     0.020 A 
ATOM     15  C   UNL     1      68.703  36.909  43.062  1.00  0.00     0.119 A 
ATOM     16  C   UNL     1      68.093  35.716  43.463  1.00  0.00     0.093 A 
ATOM     17  C   UNL     1      67.257  35.014  42.580  1.00  0.00     0.130 A 
BRANCH  15  18
ATOM     18  O   UNL     1      69.528  37.591  43.953  1.00  0.00    -0.508 OA
ATOM     19  H   UNL     1      70.527  37.660  43.803  1.00  0.00     0.293 HD
ENDBRANCH  15  18
BRANCH  17  20
ATOM     20  O   UNL     1      66.616  33.852  43.009  1.00  0.00    -0.507 OA
ATOM     21  H   UNL     1      66.844  33.413  43.893  1.00  0.00     0.293 HD
ENDBRANCH  17  20
ENDBRANCH   1  12
BRANCH   2  22
ATOM     22  O   UNL     1      64.363  36.358  40.691  1.00  0.00    -0.502 OA
ATOM     23  H   UNL     1      64.553  36.541  41.669  1.00  0.00     0.293 HD
ENDBRANCH   2  22
BRANCH   6  24
ATOM     24  O   UNL     1      62.748  33.001  36.879  1.00  0.00    -0.507 OA
ATOM     25  H   UNL     1      62.360  33.932  36.902  1.00  0.00     0.293 HD
ENDBRANCH   6  24
BRANCH   8  26
ATOM     26  O   UNL     1      66.377  29.882  36.885  1.00  0.00    -0.508 OA
ATOM     27  H   UNL     1      66.333  29.660  35.897  1.00  0.00     0.293 HD
ENDBRANCH   8  26
TORSDOF 6
ENDMDL
MODEL 6
REMARK VINA RESULT:    -0.123      2.419      2.828
REMARK INTER + INTRA:          -0.571
REMARK INTER:                  -0.148
REMARK INTRA:                  -0.423
REMARK UNBOUND:                -0.423
REMARK SMILES O=c1c(O)c(-c2ccc(O)cc2O)oc2cc(O)cc(O)c12
REMARK SMILES IDX 5 1 3 2 2 3 1 4 22 5 20 6 19 7 17 8 16 9 15 10 14 11 6 12
REMARK SMILES IDX 8 13 7 14 9 15 11 16 12 17 10 18 13 20 4 22 21 24 18 26
REMARK H PARENT 10 19 13 21 4 23 21 25 18 27
REMARK Flexibility Score: inf
ROOT
ATOM      1  C   UNL     1      67.731  32.376  40.771  1.00  0.00     0.184 A 
ATOM      2  C   UNL     1      68.234  31.549  39.755  1.00  0.00     0.208 A 
ATOM      3  C   UNL     1      67.355  31.062  38.776  1.00  0.00     0.238 A 
ATOM      4  O   UNL     1      67.821  30.366  37.838  1.00  0.00    -0.285 OA
ATOM      5  C   UNL     1      65.979  31.395  38.836  1.00  0.00     0.111 A 
ATOM      6  C   UNL     1      64.990  30.926  37.921  1.00  0.00     0.134 A 
ATOM      7  C   UNL     1      63.684  31.424  38.000  1.00  0.00     0.093 A 
ATOM      8  C   UNL     1      63.315  32.323  38.999  1.00  0.00     0.123 A 
ATOM      9  C   UNL     1      64.260  32.744  39.936  1.00  0.00     0.094 A 
ATOM     10  C   UNL     1      65.580  32.293  39.862  1.00  0.00     0.146 A 
ATOM     11  O   UNL     1      66.450  32.726  40.766  1.00  0.00    -0.451 OA
ENDROOT
BRANCH   1  12
ATOM     12  C   UNL     1      68.599  32.909  41.842  1.00  0.00     0.063 A 
ATOM     13  C   UNL     1      69.837  32.521  43.898  1.00  0.00     0.047 A 
ATOM     14  C   UNL     1      69.011  32.051  42.873  1.00  0.00     0.020 A 
ATOM     15  C   UNL     1      70.272  33.852  43.897  1.00  0.00     0.119 A 
ATOM     16  C   UNL     1      69.886  34.707  42.861  1.00  0.00     0.093 A 
ATOM     17  C   UNL     1      69.062  34.242  41.824  1.00  0.00     0.130 A 
BRANCH  15  18
ATOM     18  O   UNL     1      71.091  34.332  44.916  1.00  0.00    -0.508 OA
ATOM     19  H   UNL     1      71.022  35.287  45.245  1.00  0.00     0.293 HD
ENDBRANCH  15  18
BRANCH  17  20
ATOM     20  O   UNL     1      68.724  35.092  40.772  1.00  0.00    -0.507 OA
ATOM     21  H   UNL     1      68.445  36.053  40.932  1.00  0.00     0.293 HD
ENDBRANCH  17  20
ENDBRANCH   1  12
BRANCH   2  22
ATOM     22  O   UNL     1      69.599  31.250  39.709  1.00  0.00    -0.502 OA
ATOM     23  H   UNL     1      70.143  31.325  38.859  1.00  0.00     0.293 HD
ENDBRANCH   2  22
BRANCH   6  24
ATOM     24  O   UNL     1      65.231  29.958  36.941  1.00  0.00    -0.507 OA
ATOM     25  H   UNL     1      64.795  29.941  36.031  1.00  0.00     0.293 HD
ENDBRANCH   6  24
BRANCH   8  26
ATOM     26  O   UNL     1      62.003  32.785  39.057  1.00  0.00    -0.508 OA
ATOM     27  H   UNL     1      61.776  33.694  39.447  1.00  0.00     0.293 HD
ENDBRANCH   8  26
TORSDOF 6
ENDMDL
MODEL 7
REMARK VINA RESULT:    -0.123      3.769      5.163
REMARK INTER + INTRA:          -0.571
REMARK INTER:                  -0.148
REMARK INTRA:                  -0.423
REMARK UNBOUND:                -0.423
REMARK SMILES O=c1c(O)c(-c2ccc(O)cc2O)oc2cc(O)cc(O)c12
REMARK SMILES IDX 5 1 3 2 2 3 1 4 22 5 20 6 19 7 17 8 16 9 15 10 14 11 6 12
REMARK SMILES IDX 8 13 7 14 9 15 11 16 12 17 10 18 13 20 4 22 21 24 18 26
REMARK H PARENT 10 19 13 21 4 23 21 25 18 27
REMARK Flexibility Score: inf
ROOT
ATOM      1  C   UNL     1      67.270  35.332  38.879  1.00  0.00     0.184 A 
ATOM      2  C   UNL     1      65.991  35.883  39.052  1.00  0.00     0.208 A 
ATOM      3  C   UNL     1      64.867  35.121  38.696  1.00  0.00     0.238 A 
ATOM      4  O   UNL     1      63.722  35.600  38.903  1.00  0.00    -0.285 OA
ATOM      5  C   UNL     1      65.039  33.822  38.157  1.00  0.00     0.111 A 
ATOM      6  C   UNL     1      63.975  32.976  37.725  1.00  0.00     0.134 A 
ATOM      7  C   UNL     1      64.253  31.662  37.330  1.00  0.00     0.093 A 
ATOM      8  C   UNL     1      65.562  31.185  37.288  1.00  0.00     0.123 A 
ATOM      9  C   UNL     1      66.617  32.023  37.653  1.00  0.00     0.094 A 
ATOM     10  C   UNL     1      66.368  33.327  38.086  1.00  0.00     0.146 A 
ATOM     11  O   UNL     1      67.399  34.088  38.434  1.00  0.00    -0.451 OA
ENDROOT
BRANCH   1  12
ATOM     12  C   UNL     1      68.494  36.087  39.217  1.00  0.00     0.063 A 
ATOM     13  C   UNL     1      70.072  37.847  38.649  1.00  0.00     0.047 A 
ATOM     14  C   UNL     1      68.922  37.110  38.357  1.00  0.00     0.020 A 
ATOM     15  C   UNL     1      70.803  37.580  39.814  1.00  0.00     0.119 A 
ATOM     16  C   UNL     1      70.371  36.578  40.689  1.00  0.00     0.093 A 
ATOM     17  C   UNL     1      69.213  35.837  40.406  1.00  0.00     0.130 A 
BRANCH  15  18
ATOM     18  O   UNL     1      71.953  38.305  40.113  1.00  0.00    -0.508 OA
ATOM     19  H   UNL     1      71.964  39.000  40.850  1.00  0.00     0.293 HD
ENDBRANCH  15  18
BRANCH  17  20
ATOM     20  O   UNL     1      68.767  34.875  41.311  1.00  0.00    -0.507 OA
ATOM     21  H   UNL     1      69.282  34.660  42.157  1.00  0.00     0.293 HD
ENDBRANCH  17  20
ENDBRANCH   1  12
BRANCH   2  22
ATOM     22  O   UNL     1      65.849  37.160  39.602  1.00  0.00    -0.502 OA
ATOM     23  H   UNL     1      66.409  37.947  39.299  1.00  0.00     0.293 HD
ENDBRANCH   2  22
BRANCH   6  24
ATOM     24  O   UNL     1      62.640  33.383  37.640  1.00  0.00    -0.507 OA
ATOM     25  H   UNL     1      62.203  33.749  36.807  1.00  0.00     0.293 HD
ENDBRANCH   6  24
BRANCH   8  26
ATOM     26  O   UNL     1      65.804  29.877  36.875  1.00  0.00    -0.508 OA
ATOM     27  H   UNL     1      66.486  29.665  36.156  1.00  0.00     0.293 HD
ENDBRANCH   8  26
TORSDOF 6
ENDMDL
MODEL 8
REMARK VINA RESULT:    -0.119      3.582      7.273
REMARK INTER + INTRA:          -0.567
REMARK INTER:                  -0.140
REMARK INTRA:                  -0.427
REMARK UNBOUND:                -0.423
REMARK SMILES O=c1c(O)c(-c2ccc(O)cc2O)oc2cc(O)cc(O)c12
REMARK SMILES IDX 5 1 3 2 2 3 1 4 22 5 20 6 19 7 17 8 16 9 15 10 14 11 6 12
REMARK SMILES IDX 8 13 7 14 9 15 11 16 12 17 10 18 13 20 4 22 21 24 18 26
REMARK H PARENT 10 19 13 21 4 23 21 25 18 27
REMARK Flexibility Score: inf
ROOT
ATOM      1  C   UNL     1      69.083  33.138  39.652  1.00  0.00     0.184 A 
ATOM      2  C   UNL     1      68.659  34.116  40.564  1.00  0.00     0.208 A 
ATOM      3  C   UNL     1      69.623  34.870  41.252  1.00  0.00     0.238 A 
ATOM      4  O   UNL     1      69.236  35.782  42.028  1.00  0.00    -0.285 OA
ATOM      5  C   UNL     1      71.000  34.622  41.030  1.00  0.00     0.111 A 
ATOM      6  C   UNL     1      72.064  35.296  41.700  1.00  0.00     0.134 A 
ATOM      7  C   UNL     1      73.387  35.062  41.307  1.00  0.00     0.093 A 
ATOM      8  C   UNL     1      73.689  34.132  40.315  1.00  0.00     0.123 A 
ATOM      9  C   UNL     1      72.660  33.423  39.692  1.00  0.00     0.094 A 
ATOM     10  C   UNL     1      71.328  33.660  40.037  1.00  0.00     0.146 A 
ATOM     11  O   UNL     1      70.379  32.973  39.414  1.00  0.00    -0.451 OA
ENDROOT
BRANCH   1  12
ATOM     12  C   UNL     1      68.121  32.300  38.907  1.00  0.00     0.063 A 
ATOM     13  C   UNL     1      66.574  30.424  38.897  1.00  0.00     0.047 A 
ATOM     14  C   UNL     1      67.493  31.233  39.570  1.00  0.00     0.020 A 
ATOM     15  C   UNL     1      66.260  30.679  37.557  1.00  0.00     0.119 A 
ATOM     16  C   UNL     1      66.862  31.754  36.896  1.00  0.00     0.093 A 
ATOM     17  C   UNL     1      67.782  32.576  37.566  1.00  0.00     0.130 A 
BRANCH  15  18
ATOM     18  O   UNL     1      65.349  29.876  36.875  1.00  0.00    -0.508 OA
ATOM     19  H   UNL     1      65.467  29.658  35.893  1.00  0.00     0.293 HD
ENDBRANCH  15  18
BRANCH  17  20
ATOM     20  O   UNL     1      68.338  33.673  36.909  1.00  0.00    -0.507 OA
ATOM     21  H   UNL     1      68.799  33.579  36.012  1.00  0.00     0.293 HD
ENDBRANCH  17  20
ENDBRANCH   1  12
BRANCH   2  22
ATOM     22  O   UNL     1      67.294  34.352  40.752  1.00  0.00    -0.502 OA
ATOM     23  H   UNL     1      66.695  33.706  41.250  1.00  0.00     0.293 HD
ENDBRANCH   2  22
BRANCH   6  24
ATOM     24  O   UNL     1      71.877  36.178  42.769  1.00  0.00    -0.507 OA
ATOM     25  H   UNL     1      71.019  36.274  43.292  1.00  0.00     0.293 HD
ENDBRANCH   6  24
BRANCH   8  26
ATOM     26  O   UNL     1      75.018  33.912  39.960  1.00  0.00    -0.508 OA
ATOM     27  H   UNL     1      75.272  33.252  39.234  1.00  0.00     0.293 HD
ENDBRANCH   8  26
TORSDOF 6
ENDMDL
MODEL 9
REMARK VINA RESULT:    -0.118      3.818      7.438
REMARK INTER + INTRA:          -0.565
REMARK INTER:                  -0.142
REMARK INTRA:                  -0.423
REMARK UNBOUND:                -0.423
REMARK SMILES O=c1c(O)c(-c2ccc(O)cc2O)oc2cc(O)cc(O)c12
REMARK SMILES IDX 5 1 3 2 2 3 1 4 22 5 20 6 19 7 17 8 16 9 15 10 14 11 6 12
REMARK SMILES IDX 8 13 7 14 9 15 11 16 12 17 10 18 13 20 4 22 21 24 18 26
REMARK H PARENT 10 19 13 21 4 23 21 25 18 27
REMARK Flexibility Score: inf
ROOT
ATOM      1  C   UNL     1      67.309  34.803  38.703  1.00  0.00     0.184 A 
ATOM      2  C   UNL     1      67.069  36.029  38.063  1.00  0.00     0.208 A 
ATOM      3  C   UNL     1      67.668  37.191  38.574  1.00  0.00     0.238 A 
ATOM      4  O   UNL     1      67.493  38.279  37.965  1.00  0.00    -0.285 OA
ATOM      5  C   UNL     1      68.485  37.114  39.729  1.00  0.00     0.111 A 
ATOM      6  C   UNL     1      69.109  38.232  40.357  1.00  0.00     0.134 A 
ATOM      7  C   UNL     1      70.000  38.021  41.416  1.00  0.00     0.093 A 
ATOM      8  C   UNL     1      70.238  36.741  41.912  1.00  0.00     0.123 A 
ATOM      9  C   UNL     1      69.588  35.645  41.344  1.00  0.00     0.094 A 
ATOM     10  C   UNL     1      68.721  35.819  40.262  1.00  0.00     0.146 A 
ATOM     11  O   UNL     1      68.131  34.749  39.743  1.00  0.00    -0.451 OA
ENDROOT
BRANCH   1  12
ATOM     12  C   UNL     1      66.696  33.545  38.226  1.00  0.00     0.063 A 
ATOM     13  C   UNL     1      64.721  32.143  38.027  1.00  0.00     0.047 A 
ATOM     14  C   UNL     1      65.332  33.318  38.468  1.00  0.00     0.020 A 
ATOM     15  C   UNL     1      65.462  31.183  37.326  1.00  0.00     0.119 A 
ATOM     16  C   UNL     1      66.816  31.412  37.060  1.00  0.00     0.093 A 
ATOM     17  C   UNL     1      67.436  32.593  37.494  1.00  0.00     0.130 A 
BRANCH  15  18
ATOM     18  O   UNL     1      64.864  30.006  36.885  1.00  0.00    -0.508 OA
ATOM     19  H   UNL     1      65.180  29.099  37.207  1.00  0.00     0.293 HD
ENDBRANCH  15  18
BRANCH  17  20
ATOM     20  O   UNL     1      68.774  32.829  37.180  1.00  0.00    -0.507 OA
ATOM     21  H   UNL     1      69.099  33.742  36.883  1.00  0.00     0.293 HD
ENDBRANCH  17  20
ENDBRANCH   1  12
BRANCH   2  22
ATOM     22  O   UNL     1      66.273  36.075  36.915  1.00  0.00    -0.502 OA
ATOM     23  H   UNL     1      65.362  35.636  36.868  1.00  0.00     0.293 HD
ENDBRANCH   2  22
BRANCH   6  24
ATOM     24  O   UNL     1      68.869  39.562  39.999  1.00  0.00    -0.507 OA
ATOM     25  H   UNL     1      69.468  40.339  40.239  1.00  0.00     0.293 HD
ENDBRANCH   6  24
BRANCH   8  26
ATOM     26  O   UNL     1      71.119  36.569  42.978  1.00  0.00    -0.508 OA
ATOM     27  H   UNL     1      71.237  37.281  43.690  1.00  0.00     0.293 HD
ENDBRANCH   8  26
TORSDOF 6
ENDMDL
