MODEL 1
REMARK VINA RESULT:    -1.272      0.000      0.000
REMARK INTER + INTRA:          -0.670
REMARK INTER:                  -1.383
REMARK INTRA:                   0.713
REMARK UNBOUND:                 0.713
REMARK SMILES C[C@@H]1[C@H](C)CC[C@]2(C(=O)[O-])CC[C@]3(C)C(=CC[C@@H]4[C@]5(C)CC[C@@H](O)C(C)(C)[C@H]5CC[C@]43C)[C@@H]12
REMARK SMILES IDX 7 1 6 2 11 3 33 4 5 5 12 6 15 7 2 8 3 9 13 10 16 11 1 12
REMARK SMILES IDX 4 13 14 14 31 15 17 16 18 17 30 18 32 19 19 20 29 21 28 22
REMARK SMILES IDX 21 23 20 24 25 25 22 26 23 27 26 28 27 29 8 30 9 31 10 32
REMARK SMILES IDX 24 33
REMARK H PARENT 24 34
REMARK Flexibility Score: inf
ROOT
ATOM      1  C   UNL     1      21.115 -35.669 157.204  1.00  0.00     0.017 C 
ATOM      2  C   UNL     1      22.378 -35.247 156.393  1.00  0.00     0.014 C 
ATOM      3  C   UNL     1      19.866 -34.945 156.624  1.00  0.00     0.014 C 
ATOM      4  C   UNL     1      21.175 -35.236 158.706  1.00  0.00     0.030 C 
ATOM      5  C   UNL     1      23.226 -34.215 157.125  1.00  0.00     0.004 C 
ATOM      6  C   UNL     1      18.556 -35.366 157.321  1.00  0.00     0.013 C 
ATOM      7  C   UNL     1      19.958 -35.835 159.429  1.00  0.00    -0.063 C 
ATOM      8  C   UNL     1      22.587 -35.316 159.391  1.00  0.00    -0.003 C 
ATOM      9  C   UNL     1      23.751 -34.830 158.436  1.00  0.00    -0.011 C 
ATOM     10  C   UNL     1      18.570 -35.403 158.903  1.00  0.00    -0.006 C 
ATOM     11  C   UNL     1      20.089 -36.626 160.531  1.00  0.00    -0.027 C 
ATOM     12  C   UNL     1      22.565 -34.539 160.739  1.00  0.00     0.008 C 
ATOM     13  C   UNL     1      24.795 -33.875 159.062  1.00  0.00     0.008 C 
ATOM     14  C   UNL     1      18.372 -33.936 159.427  1.00  0.00     0.017 C 
ATOM     15  C   UNL     1      17.421 -36.402 159.431  1.00  0.00    -0.020 C 
ATOM     16  C   UNL     1      18.939 -37.136 161.365  1.00  0.00     0.032 C 
ATOM     17  C   UNL     1      17.567 -36.503 161.005  1.00  0.00     0.006 C 
ATOM     18  C   UNL     1      15.987 -35.882 158.991  1.00  0.00     0.008 C 
ATOM     19  C   UNL     1      17.631 -37.840 158.820  1.00  0.00     0.012 C 
ATOM     20  C   UNL     1      16.326 -37.086 161.851  1.00  0.00    -0.025 C 
ATOM     21  C   UNL     1      14.917 -35.886 160.095  1.00  0.00     0.005 C 
ATOM     22  C   UNL     1      15.051 -37.171 160.936  1.00  0.00     0.003 C 
ATOM     23  C   UNL     1      16.571 -38.520 162.411  1.00  0.00     0.010 C 
ATOM     24  C   UNL     1      16.139 -36.127 163.076  1.00  0.00     0.012 C 
ATOM     25  C   UNL     1      13.734 -37.752 161.588  1.00  0.00    -0.006 C 
ATOM     26  C   UNL     1      15.343 -39.118 163.125  1.00  0.00     0.033 C 
ATOM     27  C   UNL     1      14.088 -39.143 162.230  1.00  0.00     0.120 C 
ATOM     28  C   UNL     1      12.680 -38.020 160.472  1.00  0.00     0.014 C 
ATOM     29  C   UNL     1      13.076 -36.784 162.615  1.00  0.00     0.014 C 
ENDROOT
BRANCH   1  30
ATOM     30  C   UNL     1      20.970 -37.180 157.051  1.00  0.00     0.048 C 
ATOM     31  O   UNL     1      19.853 -37.682 156.750  1.00  0.00    -0.550 OA
ATOM     32  O   UNL     1      22.081 -38.011 157.110  1.00  0.00    -0.550 OA
ENDBRANCH   1  30
BRANCH  27  33
ATOM     33  O   UNL     1      13.005 -39.625 162.993  1.00  0.00    -0.393 OA
ATOM     34  H   UNL     1      12.343 -40.015 162.365  1.00  0.00     0.210 HD
ENDBRANCH  27  33
TORSDOF 2
ENDMDL
