MODEL 1
REMARK VINA RESULT:    -5.414      0.000      0.000
REMARK INTER + INTRA:          -9.937
REMARK INTER:                  -9.212
REMARK INTRA:                  -0.725
REMARK UNBOUND:                -0.725
REMARK SMILES CCCCCCCCCCCCCC(=O)[O-]
REMARK SMILES IDX 8 1 9 2 10 3 11 4 12 5 13 6 14 7 15 8 16 9 7 10 6 11 5 12
REMARK SMILES IDX 4 13 3 14 2 15 1 16
REMARK H PARENT
REMARK Flexibility Score: inf
ROOT
ATOM      1  C   UNL     1     -26.728  58.846   3.761  1.00  0.00     0.000 C 
ENDROOT
BRANCH   1   2
ATOM      2  C   UNL     1     -28.218  58.537   3.556  1.00  0.00     0.000 C 
BRANCH   2   3
ATOM      3  C   UNL     1     -28.491  57.791   2.241  1.00  0.00     0.000 C 
BRANCH   3   4
ATOM      4  C   UNL     1     -29.481  58.539   1.331  1.00  0.00     0.000 C 
BRANCH   4   5
ATOM      5  C   UNL     1     -29.355  58.142  -0.152  1.00  0.00     0.006 C 
BRANCH   5   6
ATOM      6  C   UNL     1     -28.137  57.254  -0.458  1.00  0.00     0.053 C 
BRANCH   6   7
ATOM      7  C   UNL     1     -27.695  57.356  -1.886  1.00  0.00     0.041 C 
ATOM      8  O   UNL     1     -28.501  57.743  -2.772  1.00  0.00    -0.550 OA
ATOM      9  O   UNL     1     -26.403  56.992  -2.245  1.00  0.00    -0.550 OA
ENDBRANCH   6   7
ENDBRANCH   5   6
ENDBRANCH   4   5
ENDBRANCH   3   4
ENDBRANCH   2   3
ENDBRANCH   1   2
BRANCH   1  10
ATOM     10  C   UNL     1     -25.856  57.955   2.869  1.00  0.00     0.000 C 
BRANCH  10  11
ATOM     11  C   UNL     1     -24.376  58.053   3.272  1.00  0.00    -0.000 C 
BRANCH  11  12
ATOM     12  C   UNL     1     -23.535  58.875   2.279  1.00  0.00    -0.000 C 
BRANCH  12  13
ATOM     13  C   UNL     1     -22.316  59.592   2.892  1.00  0.00    -0.000 C 
BRANCH  13  14
ATOM     14  C   UNL     1     -21.435  60.282   1.836  1.00  0.00    -0.000 C 
BRANCH  14  15
ATOM     15  C   UNL     1     -22.225  60.680   0.580  1.00  0.00    -0.003 C 
ATOM     16  C   UNL     1     -21.500  61.721  -0.272  1.00  0.00     0.004 C 
ENDBRANCH  14  15
ENDBRANCH  13  14
ENDBRANCH  12  13
ENDBRANCH  11  12
ENDBRANCH  10  11
ENDBRANCH   1  10
TORSDOF 12
ENDMDL
MODEL 2
REMARK VINA RESULT:    -5.363      3.686      5.165
REMARK INTER + INTRA:          -9.850
REMARK INTER:                  -8.750
REMARK INTRA:                  -1.099
REMARK UNBOUND:                -0.725
REMARK SMILES CCCCCCCCCCCCCC(=O)[O-]
REMARK SMILES IDX 8 1 9 2 10 3 11 4 12 5 13 6 14 7 15 8 16 9 7 10 6 11 5 12
REMARK SMILES IDX 4 13 3 14 2 15 1 16
REMARK H PARENT
REMARK Flexibility Score: inf
ROOT
ATOM      1  C   UNL     1     -27.993  57.066  -1.030  1.00  0.00     0.000 C 
ENDROOT
BRANCH   1   2
ATOM      2  C   UNL     1     -28.830  57.230   0.247  1.00  0.00     0.000 C 
BRANCH   2   3
ATOM      3  C   UNL     1     -29.366  58.660   0.422  1.00  0.00     0.000 C 
BRANCH   3   4
ATOM      4  C   UNL     1     -29.600  59.027   1.898  1.00  0.00     0.000 C 
BRANCH   4   5
ATOM      5  C   UNL     1     -29.191  57.906   2.871  1.00  0.00     0.006 C 
BRANCH   5   6
ATOM      6  C   UNL     1     -28.693  58.416   4.233  1.00  0.00     0.053 C 
BRANCH   6   7
ATOM      7  C   UNL     1     -29.596  58.018   5.362  1.00  0.00     0.041 C 
ATOM      8  O   UNL     1     -30.597  57.286   5.142  1.00  0.00    -0.550 OA
ATOM      9  O   UNL     1     -29.353  58.482   6.648  1.00  0.00    -0.550 OA
ENDBRANCH   6   7
ENDBRANCH   5   6
ENDBRANCH   4   5
ENDBRANCH   3   4
ENDBRANCH   2   3
ENDBRANCH   1   2
BRANCH   1  10
ATOM     10  C   UNL     1     -26.500  56.966  -0.700  1.00  0.00     0.000 C 
BRANCH  10  11
ATOM     11  C   UNL     1     -26.282  56.753   0.806  1.00  0.00    -0.000 C 
BRANCH  11  12
ATOM     12  C   UNL     1     -25.063  57.518   1.353  1.00  0.00    -0.000 C 
BRANCH  12  13
ATOM     13  C   UNL     1     -25.169  57.950   2.827  1.00  0.00    -0.000 C 
BRANCH  13  14
ATOM     14  C   UNL     1     -23.796  58.160   3.489  1.00  0.00    -0.000 C 
BRANCH  14  15
ATOM     15  C   UNL     1     -23.486  57.094   4.551  1.00  0.00    -0.003 C 
ATOM     16  C   UNL     1     -22.042  57.153   5.048  1.00  0.00     0.004 C 
ENDBRANCH  14  15
ENDBRANCH  13  14
ENDBRANCH  12  13
ENDBRANCH  11  12
ENDBRANCH  10  11
ENDBRANCH   1  10
TORSDOF 12
ENDMDL
MODEL 3
REMARK VINA RESULT:    -5.307      3.348      4.191
REMARK INTER + INTRA:          -9.755
REMARK INTER:                  -9.031
REMARK INTRA:                  -0.724
REMARK UNBOUND:                -0.725
REMARK SMILES CCCCCCCCCCCCCC(=O)[O-]
REMARK SMILES IDX 8 1 9 2 10 3 11 4 12 5 13 6 14 7 15 8 16 9 7 10 6 11 5 12
REMARK SMILES IDX 4 13 3 14 2 15 1 16
REMARK H PARENT
REMARK Flexibility Score: inf
ROOT
ATOM      1  C   UNL     1     -26.734  56.461   1.005  1.00  0.00     0.000 C 
ENDROOT
BRANCH   1   2
ATOM      2  C   UNL     1     -27.710  57.149   0.038  1.00  0.00     0.000 C 
BRANCH   2   3
ATOM      3  C   UNL     1     -29.126  57.279   0.622  1.00  0.00     0.000 C 
BRANCH   3   4
ATOM      4  C   UNL     1     -29.317  58.576   1.425  1.00  0.00     0.000 C 
BRANCH   4   5
ATOM      5  C   UNL     1     -29.009  58.409   2.925  1.00  0.00     0.006 C 
BRANCH   5   6
ATOM      6  C   UNL     1     -30.034  57.545   3.678  1.00  0.00     0.053 C 
BRANCH   6   7
ATOM      7  C   UNL     1     -30.121  57.892   5.133  1.00  0.00     0.041 C 
ATOM      8  O   UNL     1     -31.244  58.041   5.682  1.00  0.00    -0.550 OA
ATOM      9  O   UNL     1     -28.963  58.085   5.876  1.00  0.00    -0.550 OA
ENDBRANCH   6   7
ENDBRANCH   5   6
ENDBRANCH   4   5
ENDBRANCH   3   4
ENDBRANCH   2   3
ENDBRANCH   1   2
BRANCH   1  10
ATOM     10  C   UNL     1     -25.412  57.231   1.091  1.00  0.00     0.000 C 
BRANCH  10  11
ATOM     11  C   UNL     1     -25.264  57.922   2.455  1.00  0.00    -0.000 C 
BRANCH  11  12
ATOM     12  C   UNL     1     -23.809  57.963   2.955  1.00  0.00    -0.000 C 
BRANCH  12  13
ATOM     13  C   UNL     1     -23.130  59.344   2.881  1.00  0.00    -0.000 C 
BRANCH  13  14
ATOM     14  C   UNL     1     -22.791  59.769   1.442  1.00  0.00    -0.000 C 
BRANCH  14  15
ATOM     15  C   UNL     1     -21.473  60.553   1.356  1.00  0.00    -0.003 C 
ATOM     16  C   UNL     1     -21.484  61.615   0.256  1.00  0.00     0.004 C 
ENDBRANCH  14  15
ENDBRANCH  13  14
ENDBRANCH  12  13
ENDBRANCH  11  12
ENDBRANCH  10  11
ENDBRANCH   1  10
TORSDOF 12
ENDMDL
MODEL 4
REMARK VINA RESULT:    -5.285      3.521      4.983
REMARK INTER + INTRA:          -9.717
REMARK INTER:                  -9.061
REMARK INTRA:                  -0.656
REMARK UNBOUND:                -0.725
REMARK SMILES CCCCCCCCCCCCCC(=O)[O-]
REMARK SMILES IDX 8 1 9 2 10 3 11 4 12 5 13 6 14 7 15 8 16 9 7 10 6 11 5 12
REMARK SMILES IDX 4 13 3 14 2 15 1 16
REMARK H PARENT
REMARK Flexibility Score: inf
ROOT
ATOM      1  C   UNL     1     -26.848  56.504   0.884  1.00  0.00     0.000 C 
ENDROOT
BRANCH   1   2
ATOM      2  C   UNL     1     -27.792  57.004  -0.218  1.00  0.00     0.000 C 
BRANCH   2   3
ATOM      3  C   UNL     1     -29.184  57.373   0.320  1.00  0.00     0.000 C 
BRANCH   3   4
ATOM      4  C   UNL     1     -29.128  58.445   1.422  1.00  0.00     0.000 C 
BRANCH   4   5
ATOM      5  C   UNL     1     -29.337  57.870   2.835  1.00  0.00     0.006 C 
BRANCH   5   6
ATOM      6  C   UNL     1     -30.454  56.817   2.919  1.00  0.00     0.053 C 
BRANCH   6   7
ATOM      7  C   UNL     1     -31.276  56.949   4.166  1.00  0.00     0.041 C 
ATOM      8  O   UNL     1     -30.766  56.695   5.289  1.00  0.00    -0.550 OA
ATOM      9  O   UNL     1     -32.613  57.319   4.086  1.00  0.00    -0.550 OA
ENDBRANCH   6   7
ENDBRANCH   5   6
ENDBRANCH   4   5
ENDBRANCH   3   4
ENDBRANCH   2   3
ENDBRANCH   1   2
BRANCH   1  10
ATOM     10  C   UNL     1     -25.518  57.265   0.854  1.00  0.00     0.000 C 
BRANCH  10  11
ATOM     11  C   UNL     1     -25.058  57.628   2.275  1.00  0.00    -0.000 C 
BRANCH  11  12
ATOM     12  C   UNL     1     -23.910  58.653   2.294  1.00  0.00    -0.000 C 
BRANCH  12  13
ATOM     13  C   UNL     1     -22.931  58.517   3.475  1.00  0.00    -0.000 C 
BRANCH  13  14
ATOM     14  C   UNL     1     -23.179  57.254   4.316  1.00  0.00    -0.000 C 
BRANCH  14  15
ATOM     15  C   UNL     1     -21.998  56.922   5.241  1.00  0.00    -0.003 C 
ATOM     16  C   UNL     1     -22.415  56.759   6.703  1.00  0.00     0.004 C 
ENDBRANCH  14  15
ENDBRANCH  13  14
ENDBRANCH  12  13
ENDBRANCH  11  12
ENDBRANCH  10  11
ENDBRANCH   1  10
TORSDOF 12
ENDMDL
MODEL 5
REMARK VINA RESULT:    -5.281      4.240      5.843
REMARK INTER + INTRA:          -9.710
REMARK INTER:                  -8.801
REMARK INTRA:                  -0.909
REMARK UNBOUND:                -0.725
REMARK SMILES CCCCCCCCCCCCCC(=O)[O-]
REMARK SMILES IDX 8 1 9 2 10 3 11 4 12 5 13 6 14 7 15 8 16 9 7 10 6 11 5 12
REMARK SMILES IDX 4 13 3 14 2 15 1 16
REMARK H PARENT
REMARK Flexibility Score: inf
ROOT
ATOM      1  C   UNL     1     -29.381  58.857   0.089  1.00  0.00     0.000 C 
ENDROOT
BRANCH   1   2
ATOM      2  C   UNL     1     -30.209  58.622   1.360  1.00  0.00     0.000 C 
BRANCH   2   3
ATOM      3  C   UNL     1     -30.677  57.164   1.498  1.00  0.00     0.000 C 
BRANCH   3   4
ATOM      4  C   UNL     1     -30.256  56.533   2.836  1.00  0.00     0.000 C 
BRANCH   4   5
ATOM      5  C   UNL     1     -30.906  57.213   4.055  1.00  0.00     0.006 C 
BRANCH   5   6
ATOM      6  C   UNL     1     -29.920  58.019   4.917  1.00  0.00     0.053 C 
BRANCH   6   7
ATOM      7  C   UNL     1     -30.445  58.286   6.295  1.00  0.00     0.041 C 
ATOM      8  O   UNL     1     -31.679  58.454   6.480  1.00  0.00    -0.550 OA
ATOM      9  O   UNL     1     -29.571  58.383   7.370  1.00  0.00    -0.550 OA
ENDBRANCH   6   7
ENDBRANCH   5   6
ENDBRANCH   4   5
ENDBRANCH   3   4
ENDBRANCH   2   3
ENDBRANCH   1   2
BRANCH   1  10
ATOM     10  C   UNL     1     -29.108  57.537  -0.642  1.00  0.00     0.000 C 
BRANCH  10  11
ATOM     11  C   UNL     1     -27.615  57.179  -0.595  1.00  0.00    -0.000 C 
BRANCH  11  12
ATOM     12  C   UNL     1     -27.110  56.882   0.828  1.00  0.00    -0.000 C 
BRANCH  12  13
ATOM     13  C   UNL     1     -25.583  56.733   0.963  1.00  0.00    -0.000 C 
BRANCH  13  14
ATOM     14  C   UNL     1     -24.904  58.000   1.511  1.00  0.00    -0.000 C 
BRANCH  14  15
ATOM     15  C   UNL     1     -24.802  57.996   3.044  1.00  0.00    -0.003 C 
ATOM     16  C   UNL     1     -26.052  58.555   3.723  1.00  0.00     0.004 C 
ENDBRANCH  14  15
ENDBRANCH  13  14
ENDBRANCH  12  13
ENDBRANCH  11  12
ENDBRANCH  10  11
ENDBRANCH   1  10
TORSDOF 12
ENDMDL
MODEL 6
REMARK VINA RESULT:    -5.226      1.496      2.968
REMARK INTER + INTRA:          -9.616
REMARK INTER:                  -8.794
REMARK INTRA:                  -0.822
REMARK UNBOUND:                -0.725
REMARK SMILES CCCCCCCCCCCCCC(=O)[O-]
REMARK SMILES IDX 8 1 9 2 10 3 11 4 12 5 13 6 14 7 15 8 16 9 7 10 6 11 5 12
REMARK SMILES IDX 4 13 3 14 2 15 1 16
REMARK H PARENT
REMARK Flexibility Score: inf
ROOT
ATOM      1  C   UNL     1     -30.197  57.134   3.647  1.00  0.00     0.000 C 
ENDROOT
BRANCH   1   2
ATOM      2  C   UNL     1     -29.849  56.870   2.175  1.00  0.00     0.000 C 
BRANCH   2   3
ATOM      3  C   UNL     1     -30.861  57.502   1.207  1.00  0.00     0.000 C 
BRANCH   3   4
ATOM      4  C   UNL     1     -30.183  58.302   0.081  1.00  0.00     0.000 C 
BRANCH   4   5
ATOM      5  C   UNL     1     -28.935  57.603  -0.488  1.00  0.00     0.006 C 
BRANCH   5   6
ATOM      6  C   UNL     1     -28.870  57.598  -2.024  1.00  0.00     0.053 C 
BRANCH   6   7
ATOM      7  C   UNL     1     -27.513  57.229  -2.542  1.00  0.00     0.041 C 
ATOM      8  O   UNL     1     -27.313  57.135  -3.782  1.00  0.00    -0.550 OA
ATOM      9  O   UNL     1     -26.478  56.955  -1.657  1.00  0.00    -0.550 OA
ENDBRANCH   6   7
ENDBRANCH   5   6
ENDBRANCH   4   5
ENDBRANCH   3   4
ENDBRANCH   2   3
ENDBRANCH   1   2
BRANCH   1  10
ATOM     10  C   UNL     1     -29.190  58.098   4.285  1.00  0.00     0.000 C 
BRANCH  10  11
ATOM     11  C   UNL     1     -28.150  58.568   3.256  1.00  0.00    -0.000 C 
BRANCH  11  12
ATOM     12  C   UNL     1     -26.739  58.719   3.852  1.00  0.00    -0.000 C 
BRANCH  12  13
ATOM     13  C   UNL     1     -25.590  58.245   2.942  1.00  0.00    -0.000 C 
BRANCH  13  14
ATOM     14  C   UNL     1     -24.417  57.634   3.727  1.00  0.00    -0.000 C 
BRANCH  14  15
ATOM     15  C   UNL     1     -23.123  58.448   3.580  1.00  0.00    -0.003 C 
ATOM     16  C   UNL     1     -23.144  59.383   2.370  1.00  0.00     0.004 C 
ENDBRANCH  14  15
ENDBRANCH  13  14
ENDBRANCH  12  13
ENDBRANCH  11  12
ENDBRANCH  10  11
ENDBRANCH   1  10
TORSDOF 12
ENDMDL
MODEL 7
REMARK VINA RESULT:    -5.212      6.613      9.756
REMARK INTER + INTRA:          -9.594
REMARK INTER:                  -8.715
REMARK INTRA:                  -0.878
REMARK UNBOUND:                -0.725
REMARK SMILES CCCCCCCCCCCCCC(=O)[O-]
REMARK SMILES IDX 8 1 9 2 10 3 11 4 12 5 13 6 14 7 15 8 16 9 7 10 6 11 5 12
REMARK SMILES IDX 4 13 3 14 2 15 1 16
REMARK H PARENT
REMARK Flexibility Score: inf
ROOT
ATOM      1  C   UNL     1     -16.714  59.760  -4.477  1.00  0.00     0.000 C 
ENDROOT
BRANCH   1   2
ATOM      2  C   UNL     1     -16.702  59.139  -5.881  1.00  0.00     0.000 C 
BRANCH   2   3
ATOM      3  C   UNL     1     -17.684  57.964  -6.015  1.00  0.00     0.000 C 
BRANCH   3   4
ATOM      4  C   UNL     1     -18.893  58.303  -6.904  1.00  0.00     0.000 C 
BRANCH   4   5
ATOM      5  C   UNL     1     -20.061  58.928  -6.119  1.00  0.00     0.006 C 
BRANCH   5   6
ATOM      6  C   UNL     1     -20.397  58.193  -4.811  1.00  0.00     0.053 C 
BRANCH   6   7
ATOM      7  C   UNL     1     -21.726  57.502  -4.865  1.00  0.00     0.041 C 
ATOM      8  O   UNL     1     -21.785  56.244  -4.861  1.00  0.00    -0.550 OA
ATOM      9  O   UNL     1     -22.897  58.244  -4.954  1.00  0.00    -0.550 OA
ENDBRANCH   6   7
ENDBRANCH   5   6
ENDBRANCH   4   5
ENDBRANCH   3   4
ENDBRANCH   2   3
ENDBRANCH   1   2
BRANCH   1  10
ATOM     10  C   UNL     1     -15.461  60.612  -4.243  1.00  0.00     0.000 C 
BRANCH  10  11
ATOM     11  C   UNL     1     -15.287  60.937  -2.751  1.00  0.00    -0.000 C 
BRANCH  11  12
ATOM     12  C   UNL     1     -16.568  60.706  -1.930  1.00  0.00    -0.000 C 
BRANCH  12  13
ATOM     13  C   UNL     1     -16.341  60.213  -0.489  1.00  0.00    -0.000 C 
BRANCH  13  14
ATOM     14  C   UNL     1     -17.557  59.469   0.088  1.00  0.00    -0.000 C 
BRANCH  14  15
ATOM     15  C   UNL     1     -18.850  59.763  -0.689  1.00  0.00    -0.003 C 
ATOM     16  C   UNL     1     -19.935  60.396   0.182  1.00  0.00     0.004 C 
ENDBRANCH  14  15
ENDBRANCH  13  14
ENDBRANCH  12  13
ENDBRANCH  11  12
ENDBRANCH  10  11
ENDBRANCH   1  10
TORSDOF 12
ENDMDL
MODEL 8
REMARK VINA RESULT:    -5.108      2.122      3.288
REMARK INTER + INTRA:          -9.415
REMARK INTER:                  -8.752
REMARK INTRA:                  -0.664
REMARK UNBOUND:                -0.725
REMARK SMILES CCCCCCCCCCCCCC(=O)[O-]
REMARK SMILES IDX 8 1 9 2 10 3 11 4 12 5 13 6 14 7 15 8 16 9 7 10 6 11 5 12
REMARK SMILES IDX 4 13 3 14 2 15 1 16
REMARK H PARENT
REMARK Flexibility Score: inf
ROOT
ATOM      1  C   UNL     1     -27.991  58.740   3.671  1.00  0.00     0.000 C 
ENDROOT
BRANCH   1   2
ATOM      2  C   UNL     1     -29.221  58.201   2.926  1.00  0.00     0.000 C 
BRANCH   2   3
ATOM      3  C   UNL     1     -29.362  58.793   1.515  1.00  0.00     0.000 C 
BRANCH   3   4
ATOM      4  C   UNL     1     -30.600  58.262   0.773  1.00  0.00     0.000 C 
BRANCH   4   5
ATOM      5  C   UNL     1     -30.248  57.327  -0.399  1.00  0.00     0.006 C 
BRANCH   5   6
ATOM      6  C   UNL     1     -28.775  57.404  -0.835  1.00  0.00     0.053 C 
BRANCH   6   7
ATOM      7  C   UNL     1     -28.613  57.952  -2.220  1.00  0.00     0.041 C 
ATOM      8  O   UNL     1     -29.282  58.953  -2.587  1.00  0.00    -0.550 OA
ATOM      9  O   UNL     1     -27.749  57.337  -3.118  1.00  0.00    -0.550 OA
ENDBRANCH   6   7
ENDBRANCH   5   6
ENDBRANCH   4   5
ENDBRANCH   3   4
ENDBRANCH   2   3
ENDBRANCH   1   2
BRANCH   1  10
ATOM     10  C   UNL     1     -26.695  58.218   3.041  1.00  0.00     0.000 C 
BRANCH  10  11
ATOM     11  C   UNL     1     -25.466  58.706   3.823  1.00  0.00    -0.000 C 
BRANCH  11  12
ATOM     12  C   UNL     1     -24.141  58.453   3.083  1.00  0.00    -0.000 C 
BRANCH  12  13
ATOM     13  C   UNL     1     -23.355  57.213   3.552  1.00  0.00    -0.000 C 
BRANCH  13  14
ATOM     14  C   UNL     1     -23.480  56.962   5.065  1.00  0.00    -0.000 C 
BRANCH  14  15
ATOM     15  C   UNL     1     -22.117  56.958   5.774  1.00  0.00    -0.003 C 
ATOM     16  C   UNL     1     -22.240  57.002   7.297  1.00  0.00     0.004 C 
ENDBRANCH  14  15
ENDBRANCH  13  14
ENDBRANCH  12  13
ENDBRANCH  11  12
ENDBRANCH  10  11
ENDBRANCH   1  10
TORSDOF 12
ENDMDL
MODEL 9
REMARK VINA RESULT:    -5.083      3.081      4.791
REMARK INTER + INTRA:          -9.374
REMARK INTER:                  -8.751
REMARK INTRA:                  -0.623
REMARK UNBOUND:                -0.725
REMARK SMILES CCCCCCCCCCCCCC(=O)[O-]
REMARK SMILES IDX 8 1 9 2 10 3 11 4 12 5 13 6 14 7 15 8 16 9 7 10 6 11 5 12
REMARK SMILES IDX 4 13 3 14 2 15 1 16
REMARK H PARENT
REMARK Flexibility Score: inf
ROOT
ATOM      1  C   UNL     1     -25.791  58.032   2.911  1.00  0.00     0.000 C 
ENDROOT
BRANCH   1   2
ATOM      2  C   UNL     1     -26.849  58.745   3.764  1.00  0.00     0.000 C 
BRANCH   2   3
ATOM      3  C   UNL     1     -28.245  58.714   3.122  1.00  0.00     0.000 C 
BRANCH   3   4
ATOM      4  C   UNL     1     -29.304  58.078   4.039  1.00  0.00     0.000 C 
BRANCH   4   5
ATOM      5  C   UNL     1     -30.297  57.179   3.281  1.00  0.00     0.006 C 
BRANCH   5   6
ATOM      6  C   UNL     1     -29.944  56.971   1.799  1.00  0.00     0.053 C 
BRANCH   6   7
ATOM      7  C   UNL     1     -31.066  57.349   0.881  1.00  0.00     0.041 C 
ATOM      8  O   UNL     1     -30.850  57.512  -0.349  1.00  0.00    -0.550 OA
ATOM      9  O   UNL     1     -32.343  57.556   1.387  1.00  0.00    -0.550 OA
ENDBRANCH   6   7
ENDBRANCH   5   6
ENDBRANCH   4   5
ENDBRANCH   3   4
ENDBRANCH   2   3
ENDBRANCH   1   2
BRANCH   1  10
ATOM     10  C   UNL     1     -24.376  58.448   3.329  1.00  0.00     0.000 C 
BRANCH  10  11
ATOM     11  C   UNL     1     -23.533  57.223   3.715  1.00  0.00    -0.000 C 
BRANCH  11  12
ATOM     12  C   UNL     1     -22.268  57.590   4.512  1.00  0.00    -0.000 C 
BRANCH  12  13
ATOM     13  C   UNL     1     -22.265  57.129   5.982  1.00  0.00    -0.000 C 
BRANCH  13  14
ATOM     14  C   UNL     1     -23.452  56.213   6.325  1.00  0.00    -0.000 C 
BRANCH  14  15
ATOM     15  C   UNL     1     -23.506  55.854   7.818  1.00  0.00    -0.003 C 
ATOM     16  C   UNL     1     -22.556  56.700   8.667  1.00  0.00     0.004 C 
ENDBRANCH  14  15
ENDBRANCH  13  14
ENDBRANCH  12  13
ENDBRANCH  11  12
ENDBRANCH  10  11
ENDBRANCH   1  10
TORSDOF 12
ENDMDL
