MODEL 1
REMARK VINA RESULT:    -4.672      0.000      0.000
REMARK INTER + INTRA:         -13.933
REMARK INTER:                 -10.135
REMARK INTRA:                  -3.799
REMARK UNBOUND:                -3.799
REMARK SMILES CCCCCCCCCCCCCCCCCCCCCC(=O)[O-]
REMARK SMILES IDX 12 1 11 2 10 3 9 4 8 5 7 6 6 7 5 8 4 9 3 10 2 11 1 12 13 13
REMARK SMILES IDX 14 14 15 15 16 16 17 17 18 18 19 19 20 20 21 21 22 22 23 23
REMARK SMILES IDX 24 24
REMARK H PARENT
REMARK Flexibility Score: inf
ROOT
ATOM      1  C   UNL     1      18.968  16.827  46.410  1.00  0.00     0.000 C 
ENDROOT
BRANCH   1   2
ATOM      2  C   UNL     1      17.822  17.231  47.353  1.00  0.00     0.000 C 
BRANCH   2   3
ATOM      3  C   UNL     1      16.598  16.306  47.227  1.00  0.00     0.000 C 
BRANCH   3   4
ATOM      4  C   UNL     1      16.893  15.044  46.402  1.00  0.00    -0.000 C 
BRANCH   4   5
ATOM      5  C   UNL     1      15.640  14.176  46.184  1.00  0.00    -0.000 C 
BRANCH   5   6
ATOM      6  C   UNL     1      15.312  13.978  44.695  1.00  0.00    -0.000 C 
BRANCH   6   7
ATOM      7  C   UNL     1      16.517  14.267  43.780  1.00  0.00    -0.000 C 
BRANCH   7   8
ATOM      8  C   UNL     1      16.212  15.344  42.727  1.00  0.00    -0.000 C 
BRANCH   8   9
ATOM      9  C   UNL     1      16.723  16.733  43.140  1.00  0.00    -0.000 C 
BRANCH   9  10
ATOM     10  C   UNL     1      15.575  17.754  43.163  1.00  0.00    -0.000 C 
BRANCH  10  11
ATOM     11  C   UNL     1      15.170  18.153  44.590  1.00  0.00    -0.003 C 
ATOM     12  C   UNL     1      13.840  17.538  45.021  1.00  0.00     0.004 C 
ENDBRANCH  10  11
ENDBRANCH   9  10
ENDBRANCH   8   9
ENDBRANCH   7   8
ENDBRANCH   6   7
ENDBRANCH   5   6
ENDBRANCH   4   5
ENDBRANCH   3   4
ENDBRANCH   2   3
ENDBRANCH   1   2
BRANCH   1  13
ATOM     13  C   UNL     1      20.197  16.300  47.169  1.00  0.00     0.000 C 
BRANCH  13  14
ATOM     14  C   UNL     1      21.171  17.418  47.573  1.00  0.00     0.000 C 
BRANCH  14  15
ATOM     15  C   UNL     1      21.021  17.833  49.048  1.00  0.00     0.000 C 
BRANCH  15  16
ATOM     16  C   UNL     1      20.469  19.260  49.213  1.00  0.00     0.000 C 
BRANCH  16  17
ATOM     17  C   UNL     1      20.223  20.021  47.898  1.00  0.00     0.000 C 
BRANCH  17  18
ATOM     18  C   UNL     1      18.882  20.776  47.883  1.00  0.00     0.000 C 
BRANCH  18  19
ATOM     19  C   UNL     1      18.209  20.742  46.495  1.00  0.00     0.000 C 
BRANCH  19  20
ATOM     20  C   UNL     1      19.207  20.631  45.329  1.00  0.00     0.006 C 
BRANCH  20  21
ATOM     21  C   UNL     1      18.618  19.922  44.104  1.00  0.00     0.053 C 
BRANCH  21  22
ATOM     22  C   UNL     1      18.098  20.924  43.123  1.00  0.00     0.041 C 
ATOM     23  O   UNL     1      17.020  20.707  42.505  1.00  0.00    -0.550 OA
ATOM     24  O   UNL     1      18.778  22.120  42.923  1.00  0.00    -0.550 OA
ENDBRANCH  21  22
ENDBRANCH  20  21
ENDBRANCH  19  20
ENDBRANCH  18  19
ENDBRANCH  17  18
ENDBRANCH  16  17
ENDBRANCH  15  16
ENDBRANCH  14  15
ENDBRANCH  13  14
ENDBRANCH   1  13
TORSDOF 20
ENDMDL
MODEL 2
REMARK VINA RESULT:    -4.569      1.347      3.852
REMARK INTER + INTRA:         -13.710
REMARK INTER:                 -10.112
REMARK INTRA:                  -3.598
REMARK UNBOUND:                -3.799
REMARK SMILES CCCCCCCCCCCCCCCCCCCCCC(=O)[O-]
REMARK SMILES IDX 12 1 11 2 10 3 9 4 8 5 7 6 6 7 5 8 4 9 3 10 2 11 1 12 13 13
REMARK SMILES IDX 14 14 15 15 16 16 17 17 18 18 19 19 20 20 21 21 22 22 23 23
REMARK SMILES IDX 24 24
REMARK H PARENT
REMARK Flexibility Score: inf
ROOT
ATOM      1  C   UNL     1      20.258  19.652  49.123  1.00  0.00     0.000 C 
ENDROOT
BRANCH   1   2
ATOM      2  C   UNL     1      20.980  18.315  48.883  1.00  0.00     0.000 C 
BRANCH   2   3
ATOM      3  C   UNL     1      20.972  17.896  47.402  1.00  0.00     0.000 C 
BRANCH   3   4
ATOM      4  C   UNL     1      20.379  16.496  47.186  1.00  0.00    -0.000 C 
BRANCH   4   5
ATOM      5  C   UNL     1      19.023  16.536  46.459  1.00  0.00    -0.000 C 
BRANCH   5   6
ATOM      6  C   UNL     1      17.935  17.249  47.280  1.00  0.00    -0.000 C 
BRANCH   6   7
ATOM      7  C   UNL     1      16.513  16.914  46.795  1.00  0.00    -0.000 C 
BRANCH   7   8
ATOM      8  C   UNL     1      16.335  15.421  46.475  1.00  0.00    -0.000 C 
BRANCH   8   9
ATOM      9  C   UNL     1      15.185  15.161  45.491  1.00  0.00    -0.000 C 
BRANCH   9  10
ATOM     10  C   UNL     1      15.166  16.221  44.379  1.00  0.00    -0.000 C 
BRANCH  10  11
ATOM     11  C   UNL     1      16.112  15.876  43.220  1.00  0.00    -0.003 C 
ATOM     12  C   UNL     1      15.649  16.461  41.886  1.00  0.00     0.004 C 
ENDBRANCH  10  11
ENDBRANCH   9  10
ENDBRANCH   8   9
ENDBRANCH   7   8
ENDBRANCH   6   7
ENDBRANCH   5   6
ENDBRANCH   4   5
ENDBRANCH   3   4
ENDBRANCH   2   3
ENDBRANCH   1   2
BRANCH   1  13
ATOM     13  C   UNL     1      20.045  20.447  47.823  1.00  0.00     0.000 C 
BRANCH  13  14
ATOM     14  C   UNL     1      18.594  20.920  47.647  1.00  0.00     0.000 C 
BRANCH  14  15
ATOM     15  C   UNL     1      18.122  20.859  46.183  1.00  0.00     0.000 C 
BRANCH  15  16
ATOM     16  C   UNL     1      19.266  20.552  45.200  1.00  0.00     0.000 C 
BRANCH  16  17
ATOM     17  C   UNL     1      18.940  19.500  44.126  1.00  0.00     0.000 C 
BRANCH  17  18
ATOM     18  C   UNL     1      17.440  19.162  44.051  1.00  0.00     0.000 C 
BRANCH  18  19
ATOM     19  C   UNL     1      16.740  19.875  42.875  1.00  0.00     0.000 C 
BRANCH  19  20
ATOM     20  C   UNL     1      15.682  20.900  43.318  1.00  0.00     0.006 C 
BRANCH  20  21
ATOM     21  C   UNL     1      15.606  22.119  42.390  1.00  0.00     0.053 C 
BRANCH  21  22
ATOM     22  C   UNL     1      16.973  22.684  42.160  1.00  0.00     0.041 C 
ATOM     23  O   UNL     1      17.378  22.904  40.987  1.00  0.00    -0.550 OA
ATOM     24  O   UNL     1      17.781  23.013  43.242  1.00  0.00    -0.550 OA
ENDBRANCH  21  22
ENDBRANCH  20  21
ENDBRANCH  19  20
ENDBRANCH  18  19
ENDBRANCH  17  18
ENDBRANCH  16  17
ENDBRANCH  15  16
ENDBRANCH  14  15
ENDBRANCH  13  14
ENDBRANCH   1  13
TORSDOF 20
ENDMDL
MODEL 3
REMARK VINA RESULT:    -4.566      2.889      5.945
REMARK INTER + INTRA:         -13.704
REMARK INTER:                 -10.200
REMARK INTRA:                  -3.504
REMARK UNBOUND:                -3.799
REMARK SMILES CCCCCCCCCCCCCCCCCCCCCC(=O)[O-]
REMARK SMILES IDX 12 1 11 2 10 3 9 4 8 5 7 6 6 7 5 8 4 9 3 10 2 11 1 12 13 13
REMARK SMILES IDX 14 14 15 15 16 16 17 17 18 18 19 19 20 20 21 21 22 22 23 23
REMARK SMILES IDX 24 24
REMARK H PARENT
REMARK Flexibility Score: inf
ROOT
ATOM      1  C   UNL     1      21.079  17.726  49.139  1.00  0.00     0.000 C 
ENDROOT
BRANCH   1   2
ATOM      2  C   UNL     1      20.576  19.114  49.572  1.00  0.00     0.000 C 
BRANCH   2   3
ATOM      3  C   UNL     1      20.386  20.071  48.382  1.00  0.00     0.000 C 
BRANCH   3   4
ATOM      4  C   UNL     1      18.980  20.691  48.341  1.00  0.00    -0.000 C 
BRANCH   4   5
ATOM      5  C   UNL     1      18.489  20.940  46.904  1.00  0.00    -0.000 C 
BRANCH   5   6
ATOM      6  C   UNL     1      19.505  20.481  45.845  1.00  0.00    -0.000 C 
BRANCH   6   7
ATOM      7  C   UNL     1      19.033  20.770  44.408  1.00  0.00    -0.000 C 
BRANCH   7   8
ATOM      8  C   UNL     1      18.366  19.551  43.751  1.00  0.00    -0.000 C 
BRANCH   8   9
ATOM      9  C   UNL     1      16.832  19.628  43.787  1.00  0.00    -0.000 C 
BRANCH   9  10
ATOM     10  C   UNL     1      16.210  18.235  43.604  1.00  0.00    -0.000 C 
BRANCH  10  11
ATOM     11  C   UNL     1      17.184  17.235  42.964  1.00  0.00    -0.003 C 
ATOM     12  C   UNL     1      16.494  15.951  42.504  1.00  0.00     0.004 C 
ENDBRANCH  10  11
ENDBRANCH   9  10
ENDBRANCH   8   9
ENDBRANCH   7   8
ENDBRANCH   6   7
ENDBRANCH   5   6
ENDBRANCH   4   5
ENDBRANCH   3   4
ENDBRANCH   2   3
ENDBRANCH   1   2
BRANCH   1  13
ATOM     13  C   UNL     1      21.041  17.536  47.613  1.00  0.00     0.000 C 
BRANCH  13  14
ATOM     14  C   UNL     1      20.145  16.365  47.181  1.00  0.00     0.000 C 
BRANCH  14  15
ATOM     15  C   UNL     1      18.957  16.814  46.310  1.00  0.00     0.000 C 
BRANCH  15  16
ATOM     16  C   UNL     1      17.784  17.365  47.140  1.00  0.00     0.000 C 
BRANCH  16  17
ATOM     17  C   UNL     1      16.537  16.463  47.188  1.00  0.00     0.000 C 
BRANCH  17  18
ATOM     18  C   UNL     1      16.471  15.468  46.016  1.00  0.00     0.000 C 
BRANCH  18  19
ATOM     19  C   UNL     1      15.719  14.174  46.392  1.00  0.00     0.000 C 
BRANCH  19  20
ATOM     20  C   UNL     1      16.619  12.927  46.430  1.00  0.00     0.006 C 
BRANCH  20  21
ATOM     21  C   UNL     1      17.373  12.695  45.115  1.00  0.00     0.053 C 
BRANCH  21  22
ATOM     22  C   UNL     1      18.834  12.507  45.378  1.00  0.00     0.041 C 
ATOM     23  O   UNL     1      19.554  11.895  44.545  1.00  0.00    -0.550 OA
ATOM     24  O   UNL     1      19.410  13.050  46.521  1.00  0.00    -0.550 OA
ENDBRANCH  21  22
ENDBRANCH  20  21
ENDBRANCH  19  20
ENDBRANCH  18  19
ENDBRANCH  17  18
ENDBRANCH  16  17
ENDBRANCH  15  16
ENDBRANCH  14  15
ENDBRANCH  13  14
ENDBRANCH   1  13
TORSDOF 20
ENDMDL
MODEL 4
REMARK VINA RESULT:    -4.542      1.330      5.663
REMARK INTER + INTRA:         -13.651
REMARK INTER:                  -9.969
REMARK INTRA:                  -3.682
REMARK UNBOUND:                -3.799
REMARK SMILES CCCCCCCCCCCCCCCCCCCCCC(=O)[O-]
REMARK SMILES IDX 12 1 11 2 10 3 9 4 8 5 7 6 6 7 5 8 4 9 3 10 2 11 1 12 13 13
REMARK SMILES IDX 14 14 15 15 16 16 17 17 18 18 19 19 20 20 21 21 22 22 23 23
REMARK SMILES IDX 24 24
REMARK H PARENT
REMARK Flexibility Score: inf
ROOT
ATOM      1  C   UNL     1      16.627  16.538  47.285  1.00  0.00     0.000 C 
ENDROOT
BRANCH   1   2
ATOM      2  C   UNL     1      17.266  17.725  46.544  1.00  0.00     0.000 C 
BRANCH   2   3
ATOM      3  C   UNL     1      18.673  17.400  46.009  1.00  0.00     0.000 C 
BRANCH   3   4
ATOM      4  C   UNL     1      19.282  16.152  46.666  1.00  0.00    -0.000 C 
BRANCH   4   5
ATOM      5  C   UNL     1      20.652  16.433  47.308  1.00  0.00    -0.000 C 
BRANCH   5   6
ATOM      6  C   UNL     1      20.928  17.937  47.473  1.00  0.00    -0.000 C 
BRANCH   6   7
ATOM      7  C   UNL     1      20.782  18.409  48.932  1.00  0.00    -0.000 C 
BRANCH   7   8
ATOM      8  C   UNL     1      20.062  19.762  49.044  1.00  0.00    -0.000 C 
BRANCH   8   9
ATOM      9  C   UNL     1      19.900  20.459  47.685  1.00  0.00    -0.000 C 
BRANCH   9  10
ATOM     10  C   UNL     1      18.506  21.092  47.557  1.00  0.00    -0.000 C 
BRANCH  10  11
ATOM     11  C   UNL     1      18.111  21.358  46.097  1.00  0.00    -0.003 C 
ATOM     12  C   UNL     1      19.153  20.849  45.101  1.00  0.00     0.004 C 
ENDBRANCH  10  11
ENDBRANCH   9  10
ENDBRANCH   8   9
ENDBRANCH   7   8
ENDBRANCH   6   7
ENDBRANCH   5   6
ENDBRANCH   4   5
ENDBRANCH   3   4
ENDBRANCH   2   3
ENDBRANCH   1   2
BRANCH   1  13
ATOM     13  C   UNL     1      15.614  15.776  46.413  1.00  0.00     0.000 C 
BRANCH  13  14
ATOM     14  C   UNL     1      16.008  14.308  46.188  1.00  0.00     0.000 C 
BRANCH  14  15
ATOM     15  C   UNL     1      16.350  14.002  44.719  1.00  0.00     0.000 C 
BRANCH  15  16
ATOM     16  C   UNL     1      16.634  15.272  43.897  1.00  0.00     0.000 C 
BRANCH  16  17
ATOM     17  C   UNL     1      15.675  15.516  42.718  1.00  0.00     0.000 C 
BRANCH  17  18
ATOM     18  C   UNL     1      16.039  16.764  41.895  1.00  0.00     0.000 C 
BRANCH  18  19
ATOM     19  C   UNL     1      16.797  17.814  42.734  1.00  0.00     0.000 C 
BRANCH  19  20
ATOM     20  C   UNL     1      16.246  19.242  42.577  1.00  0.00     0.006 C 
BRANCH  20  21
ATOM     21  C   UNL     1      15.532  19.748  43.835  1.00  0.00     0.053 C 
BRANCH  21  22
ATOM     22  C   UNL     1      15.262  21.216  43.726  1.00  0.00     0.041 C 
ATOM     23  O   UNL     1      14.197  21.701  44.193  1.00  0.00    -0.550 OA
ATOM     24  O   UNL     1      16.209  22.056  43.151  1.00  0.00    -0.550 OA
ENDBRANCH  21  22
ENDBRANCH  20  21
ENDBRANCH  19  20
ENDBRANCH  18  19
ENDBRANCH  17  18
ENDBRANCH  16  17
ENDBRANCH  15  16
ENDBRANCH  14  15
ENDBRANCH  13  14
ENDBRANCH   1  13
TORSDOF 20
ENDMDL
MODEL 5
REMARK VINA RESULT:    -4.535      1.037      2.738
REMARK INTER + INTRA:         -13.636
REMARK INTER:                 -10.003
REMARK INTRA:                  -3.633
REMARK UNBOUND:                -3.799
REMARK SMILES CCCCCCCCCCCCCCCCCCCCCC(=O)[O-]
REMARK SMILES IDX 12 1 11 2 10 3 9 4 8 5 7 6 6 7 5 8 4 9 3 10 2 11 1 12 13 13
REMARK SMILES IDX 14 14 15 15 16 16 17 17 18 18 19 19 20 20 21 21 22 22 23 23
REMARK SMILES IDX 24 24
REMARK H PARENT
REMARK Flexibility Score: inf
ROOT
ATOM      1  C   UNL     1      20.357  16.646  47.196  1.00  0.00     0.000 C 
ENDROOT
BRANCH   1   2
ATOM      2  C   UNL     1      19.038  16.995  46.487  1.00  0.00     0.000 C 
BRANCH   2   3
ATOM      3  C   UNL     1      17.816  16.867  47.415  1.00  0.00     0.000 C 
BRANCH   3   4
ATOM      4  C   UNL     1      16.509  17.306  46.736  1.00  0.00    -0.000 C 
BRANCH   4   5
ATOM      5  C   UNL     1      16.719  17.727  45.271  1.00  0.00    -0.000 C 
BRANCH   5   6
ATOM      6  C   UNL     1      15.447  17.564  44.423  1.00  0.00    -0.000 C 
BRANCH   6   7
ATOM      7  C   UNL     1      15.197  16.103  44.006  1.00  0.00    -0.000 C 
BRANCH   7   8
ATOM      8  C   UNL     1      16.449  15.437  43.415  1.00  0.00    -0.000 C 
BRANCH   8   9
ATOM      9  C   UNL     1      16.605  13.974  43.860  1.00  0.00    -0.000 C 
BRANCH   9  10
ATOM     10  C   UNL     1      17.178  13.893  45.282  1.00  0.00    -0.000 C 
BRANCH  10  11
ATOM     11  C   UNL     1      16.123  13.482  46.320  1.00  0.00    -0.003 C 
ATOM     12  C   UNL     1      16.203  12.002  46.690  1.00  0.00     0.004 C 
ENDBRANCH  10  11
ENDBRANCH   9  10
ENDBRANCH   8   9
ENDBRANCH   7   8
ENDBRANCH   6   7
ENDBRANCH   5   6
ENDBRANCH   4   5
ENDBRANCH   3   4
ENDBRANCH   2   3
ENDBRANCH   1   2
BRANCH   1  13
ATOM     13  C   UNL     1      21.097  17.894  47.710  1.00  0.00     0.000 C 
BRANCH  13  14
ATOM     14  C   UNL     1      20.720  18.255  49.155  1.00  0.00     0.000 C 
BRANCH  14  15
ATOM     15  C   UNL     1      20.382  19.748  49.326  1.00  0.00     0.000 C 
BRANCH  15  16
ATOM     16  C   UNL     1      20.028  20.434  47.995  1.00  0.00     0.000 C 
BRANCH  16  17
ATOM     17  C   UNL     1      18.523  20.508  47.678  1.00  0.00     0.000 C 
BRANCH  17  18
ATOM     18  C   UNL     1      18.235  20.878  46.213  1.00  0.00     0.000 C 
BRANCH  18  19
ATOM     19  C   UNL     1      19.396  20.486  45.274  1.00  0.00     0.000 C 
BRANCH  19  20
ATOM     20  C   UNL     1      18.932  20.005  43.888  1.00  0.00     0.006 C 
BRANCH  20  21
ATOM     21  C   UNL     1      18.345  21.132  43.030  1.00  0.00     0.053 C 
BRANCH  21  22
ATOM     22  C   UNL     1      16.872  20.936  42.850  1.00  0.00     0.041 C 
ATOM     23  O   UNL     1      16.441  19.983  42.147  1.00  0.00    -0.550 OA
ATOM     24  O   UNL     1      15.975  21.777  43.496  1.00  0.00    -0.550 OA
ENDBRANCH  21  22
ENDBRANCH  20  21
ENDBRANCH  19  20
ENDBRANCH  18  19
ENDBRANCH  17  18
ENDBRANCH  16  17
ENDBRANCH  15  16
ENDBRANCH  14  15
ENDBRANCH  13  14
ENDBRANCH   1  13
TORSDOF 20
ENDMDL
MODEL 6
REMARK VINA RESULT:    -4.522      1.813      4.002
REMARK INTER + INTRA:         -13.608
REMARK INTER:                 -10.360
REMARK INTRA:                  -3.248
REMARK UNBOUND:                -3.799
REMARK SMILES CCCCCCCCCCCCCCCCCCCCCC(=O)[O-]
REMARK SMILES IDX 12 1 11 2 10 3 9 4 8 5 7 6 6 7 5 8 4 9 3 10 2 11 1 12 13 13
REMARK SMILES IDX 14 14 15 15 16 16 17 17 18 18 19 19 20 20 21 21 22 22 23 23
REMARK SMILES IDX 24 24
REMARK H PARENT
REMARK Flexibility Score: inf
ROOT
ATOM      1  C   UNL     1      21.074  17.892  47.622  1.00  0.00     0.000 C 
ENDROOT
BRANCH   1   2
ATOM      2  C   UNL     1      20.356  16.589  47.235  1.00  0.00     0.000 C 
BRANCH   2   3
ATOM      3  C   UNL     1      19.061  16.841  46.441  1.00  0.00     0.000 C 
BRANCH   3   4
ATOM      4  C   UNL     1      17.838  17.034  47.350  1.00  0.00    -0.000 C 
BRANCH   4   5
ATOM      5  C   UNL     1      16.516  17.060  46.562  1.00  0.00    -0.000 C 
BRANCH   5   6
ATOM      6  C   UNL     1      15.834  15.683  46.509  1.00  0.00    -0.000 C 
BRANCH   6   7
ATOM      7  C   UNL     1      16.248  14.865  45.272  1.00  0.00    -0.000 C 
BRANCH   7   8
ATOM      8  C   UNL     1      16.179  13.349  45.517  1.00  0.00    -0.000 C 
BRANCH   8   9
ATOM      9  C   UNL     1      17.316  12.845  46.419  1.00  0.00    -0.000 C 
BRANCH   9  10
ATOM     10  C   UNL     1      18.669  13.412  45.961  1.00  0.00    -0.000 C 
BRANCH  10  11
ATOM     11  C   UNL     1      19.813  12.399  46.112  1.00  0.00    -0.003 C 
ATOM     12  C   UNL     1      20.908  12.881  47.063  1.00  0.00     0.004 C 
ENDBRANCH  10  11
ENDBRANCH   9  10
ENDBRANCH   8   9
ENDBRANCH   7   8
ENDBRANCH   6   7
ENDBRANCH   5   6
ENDBRANCH   4   5
ENDBRANCH   3   4
ENDBRANCH   2   3
ENDBRANCH   1   2
BRANCH   1  13
ATOM     13  C   UNL     1      20.761  18.332  49.063  1.00  0.00     0.000 C 
BRANCH  13  14
ATOM     14  C   UNL     1      20.254  19.780  49.146  1.00  0.00     0.000 C 
BRANCH  14  15
ATOM     15  C   UNL     1      20.028  20.412  47.761  1.00  0.00     0.000 C 
BRANCH  15  16
ATOM     16  C   UNL     1      18.541  20.659  47.454  1.00  0.00     0.000 C 
BRANCH  16  17
ATOM     17  C   UNL     1      18.166  20.620  45.961  1.00  0.00     0.000 C 
BRANCH  17  18
ATOM     18  C   UNL     1      19.332  20.177  45.061  1.00  0.00     0.000 C 
BRANCH  18  19
ATOM     19  C   UNL     1      18.874  19.878  43.617  1.00  0.00     0.000 C 
BRANCH  19  20
ATOM     20  C   UNL     1      17.722  18.861  43.535  1.00  0.00     0.006 C 
BRANCH  20  21
ATOM     21  C   UNL     1      16.383  19.504  43.158  1.00  0.00     0.053 C 
BRANCH  21  22
ATOM     22  C   UNL     1      15.492  18.501  42.496  1.00  0.00     0.041 C 
ATOM     23  O   UNL     1      15.370  17.343  42.981  1.00  0.00    -0.550 OA
ATOM     24  O   UNL     1      14.759  18.857  41.371  1.00  0.00    -0.550 OA
ENDBRANCH  21  22
ENDBRANCH  20  21
ENDBRANCH  19  20
ENDBRANCH  18  19
ENDBRANCH  17  18
ENDBRANCH  16  17
ENDBRANCH  15  16
ENDBRANCH  14  15
ENDBRANCH  13  14
ENDBRANCH   1  13
TORSDOF 20
ENDMDL
MODEL 7
REMARK VINA RESULT:    -4.498      2.193      4.930
REMARK INTER + INTRA:         -13.555
REMARK INTER:                 -10.418
REMARK INTRA:                  -3.138
REMARK UNBOUND:                -3.799
REMARK SMILES CCCCCCCCCCCCCCCCCCCCCC(=O)[O-]
REMARK SMILES IDX 12 1 11 2 10 3 9 4 8 5 7 6 6 7 5 8 4 9 3 10 2 11 1 12 13 13
REMARK SMILES IDX 14 14 15 15 16 16 17 17 18 18 19 19 20 20 21 21 22 22 23 23
REMARK SMILES IDX 24 24
REMARK H PARENT
REMARK Flexibility Score: inf
ROOT
ATOM      1  C   UNL     1      19.928  20.205  48.997  1.00  0.00     0.000 C 
ENDROOT
BRANCH   1   2
ATOM      2  C   UNL     1      20.628  18.846  49.170  1.00  0.00     0.000 C 
BRANCH   2   3
ATOM      3  C   UNL     1      21.060  18.229  47.827  1.00  0.00     0.000 C 
BRANCH   3   4
ATOM      4  C   UNL     1      20.997  16.694  47.834  1.00  0.00    -0.000 C 
BRANCH   4   5
ATOM      5  C   UNL     1      19.902  16.145  46.903  1.00  0.00    -0.000 C 
BRANCH   5   6
ATOM      6  C   UNL     1      19.011  17.255  46.321  1.00  0.00    -0.000 C 
BRANCH   6   7
ATOM      7  C   UNL     1      17.722  17.468  47.136  1.00  0.00    -0.000 C 
BRANCH   7   8
ATOM      8  C   UNL     1      16.475  16.930  46.417  1.00  0.00    -0.000 C 
BRANCH   8   9
ATOM      9  C   UNL     1      16.033  15.558  46.949  1.00  0.00    -0.000 C 
BRANCH   9  10
ATOM     10  C   UNL     1      16.732  14.423  46.184  1.00  0.00    -0.000 C 
BRANCH  10  11
ATOM     11  C   UNL     1      15.945  13.105  46.236  1.00  0.00    -0.003 C 
ATOM     12  C   UNL     1      14.556  13.271  46.851  1.00  0.00     0.004 C 
ENDBRANCH  10  11
ENDBRANCH   9  10
ENDBRANCH   8   9
ENDBRANCH   7   8
ENDBRANCH   6   7
ENDBRANCH   5   6
ENDBRANCH   4   5
ENDBRANCH   3   4
ENDBRANCH   2   3
ENDBRANCH   1   2
BRANCH   1  13
ATOM     13  C   UNL     1      19.802  20.619  47.521  1.00  0.00     0.000 C 
BRANCH  13  14
ATOM     14  C   UNL     1      18.369  21.018  47.135  1.00  0.00     0.000 C 
BRANCH  14  15
ATOM     15  C   UNL     1      18.205  21.255  45.623  1.00  0.00     0.000 C 
BRANCH  15  16
ATOM     16  C   UNL     1      19.160  20.394  44.777  1.00  0.00     0.000 C 
BRANCH  16  17
ATOM     17  C   UNL     1      18.538  19.780  43.510  1.00  0.00     0.000 C 
BRANCH  17  18
ATOM     18  C   UNL     1      17.055  20.151  43.329  1.00  0.00     0.000 C 
BRANCH  18  19
ATOM     19  C   UNL     1      16.169  18.911  43.086  1.00  0.00     0.000 C 
BRANCH  19  20
ATOM     20  C   UNL     1      16.883  17.785  42.319  1.00  0.00     0.006 C 
BRANCH  20  21
ATOM     21  C   UNL     1      16.768  16.423  43.012  1.00  0.00     0.053 C 
BRANCH  21  22
ATOM     22  C   UNL     1      15.585  15.670  42.488  1.00  0.00     0.041 C 
ATOM     23  O   UNL     1      15.028  14.791  43.199  1.00  0.00    -0.550 OA
ATOM     24  O   UNL     1      15.068  15.973  41.234  1.00  0.00    -0.550 OA
ENDBRANCH  21  22
ENDBRANCH  20  21
ENDBRANCH  19  20
ENDBRANCH  18  19
ENDBRANCH  17  18
ENDBRANCH  16  17
ENDBRANCH  15  16
ENDBRANCH  14  15
ENDBRANCH  13  14
ENDBRANCH   1  13
TORSDOF 20
ENDMDL
MODEL 8
REMARK VINA RESULT:    -4.488      3.772      7.010
REMARK INTER + INTRA:         -13.533
REMARK INTER:                 -10.610
REMARK INTRA:                  -2.923
REMARK UNBOUND:                -3.799
REMARK SMILES CCCCCCCCCCCCCCCCCCCCCC(=O)[O-]
REMARK SMILES IDX 12 1 11 2 10 3 9 4 8 5 7 6 6 7 5 8 4 9 3 10 2 11 1 12 13 13
REMARK SMILES IDX 14 14 15 15 16 16 17 17 18 18 19 19 20 20 21 21 22 22 23 23
REMARK SMILES IDX 24 24
REMARK H PARENT
REMARK Flexibility Score: inf
ROOT
ATOM      1  C   UNL     1      16.535  15.725  45.266  1.00  0.00     0.000 C 
ENDROOT
BRANCH   1   2
ATOM      2  C   UNL     1      16.467  16.021  46.774  1.00  0.00     0.000 C 
BRANCH   2   3
ATOM      3  C   UNL     1      17.584  16.973  47.239  1.00  0.00     0.000 C 
BRANCH   3   4
ATOM      4  C   UNL     1      18.883  16.798  46.439  1.00  0.00    -0.000 C 
BRANCH   4   5
ATOM      5  C   UNL     1      20.131  16.766  47.339  1.00  0.00    -0.000 C 
BRANCH   5   6
ATOM      6  C   UNL     1      20.887  18.105  47.345  1.00  0.00    -0.000 C 
BRANCH   6   7
ATOM      7  C   UNL     1      20.393  19.059  48.448  1.00  0.00    -0.000 C 
BRANCH   7   8
ATOM      8  C   UNL     1      20.042  20.454  47.905  1.00  0.00    -0.000 C 
BRANCH   8   9
ATOM      9  C   UNL     1      18.567  20.572  47.493  1.00  0.00    -0.000 C 
BRANCH   9  10
ATOM     10  C   UNL     1      18.435  21.244  46.117  1.00  0.00    -0.000 C 
BRANCH  10  11
ATOM     11  C   UNL     1      19.362  20.618  45.064  1.00  0.00    -0.003 C 
ATOM     12  C   UNL     1      18.645  19.600  44.178  1.00  0.00     0.004 C 
ENDBRANCH  10  11
ENDBRANCH   9  10
ENDBRANCH   8   9
ENDBRANCH   7   8
ENDBRANCH   6   7
ENDBRANCH   5   6
ENDBRANCH   4   5
ENDBRANCH   3   4
ENDBRANCH   2   3
ENDBRANCH   1   2
BRANCH   1  13
ATOM     13  C   UNL     1      16.861  14.251  44.969  1.00  0.00     0.000 C 
BRANCH  13  14
ATOM     14  C   UNL     1      16.743  13.354  46.211  1.00  0.00     0.000 C 
BRANCH  14  15
ATOM     15  C   UNL     1      17.962  12.433  46.397  1.00  0.00     0.000 C 
BRANCH  15  16
ATOM     16  C   UNL     1      19.300  13.172  46.217  1.00  0.00     0.000 C 
BRANCH  16  17
ATOM     17  C   UNL     1      20.517  12.488  46.865  1.00  0.00     0.000 C 
BRANCH  17  18
ATOM     18  C   UNL     1      21.459  13.480  47.570  1.00  0.00     0.000 C 
BRANCH  18  19
ATOM     19  C   UNL     1      22.929  13.010  47.541  1.00  0.00     0.000 C 
BRANCH  19  20
ATOM     20  C   UNL     1      23.913  14.029  48.139  1.00  0.00     0.006 C 
BRANCH  20  21
ATOM     21  C   UNL     1      23.269  15.393  48.411  1.00  0.00     0.053 C 
BRANCH  21  22
ATOM     22  C   UNL     1      23.064  15.588  49.881  1.00  0.00     0.041 C 
ATOM     23  O   UNL     1      23.936  15.191  50.700  1.00  0.00    -0.550 OA
ATOM     24  O   UNL     1      21.933  16.250  50.344  1.00  0.00    -0.550 OA
ENDBRANCH  21  22
ENDBRANCH  20  21
ENDBRANCH  19  20
ENDBRANCH  18  19
ENDBRANCH  17  18
ENDBRANCH  16  17
ENDBRANCH  15  16
ENDBRANCH  14  15
ENDBRANCH  13  14
ENDBRANCH   1  13
TORSDOF 20
ENDMDL
MODEL 9
REMARK VINA RESULT:    -4.434      1.885      6.494
REMARK INTER + INTRA:         -13.417
REMARK INTER:                 -10.142
REMARK INTRA:                  -3.275
REMARK UNBOUND:                -3.799
REMARK SMILES CCCCCCCCCCCCCCCCCCCCCC(=O)[O-]
REMARK SMILES IDX 12 1 11 2 10 3 9 4 8 5 7 6 6 7 5 8 4 9 3 10 2 11 1 12 13 13
REMARK SMILES IDX 14 14 15 15 16 16 17 17 18 18 19 19 20 20 21 21 22 22 23 23
REMARK SMILES IDX 24 24
REMARK H PARENT
REMARK Flexibility Score: inf
ROOT
ATOM      1  C   UNL     1      17.497  17.757  46.815  1.00  0.00     0.000 C 
ENDROOT
BRANCH   1   2
ATOM      2  C   UNL     1      18.042  19.194  46.888  1.00  0.00     0.000 C 
BRANCH   2   3
ATOM      3  C   UNL     1      19.350  19.371  46.096  1.00  0.00     0.000 C 
BRANCH   3   4
ATOM      4  C   UNL     1      20.561  19.631  47.004  1.00  0.00    -0.000 C 
BRANCH   4   5
ATOM      5  C   UNL     1      20.237  19.422  48.493  1.00  0.00    -0.000 C 
BRANCH   5   6
ATOM      6  C   UNL     1      20.808  18.104  49.042  1.00  0.00    -0.000 C 
BRANCH   6   7
ATOM      7  C   UNL     1      21.768  17.417  48.052  1.00  0.00    -0.000 C 
BRANCH   7   8
ATOM      8  C   UNL     1      21.382  15.956  47.775  1.00  0.00    -0.000 C 
BRANCH   8   9
ATOM      9  C   UNL     1      22.230  14.959  48.580  1.00  0.00    -0.000 C 
BRANCH   9  10
ATOM     10  C   UNL     1      23.672  15.466  48.734  1.00  0.00    -0.000 C 
BRANCH  10  11
ATOM     11  C   UNL     1      24.163  15.414  50.188  1.00  0.00    -0.003 C 
ATOM     12  C   UNL     1      23.035  15.608  51.200  1.00  0.00     0.004 C 
ENDBRANCH  10  11
ENDBRANCH   9  10
ENDBRANCH   8   9
ENDBRANCH   7   8
ENDBRANCH   6   7
ENDBRANCH   5   6
ENDBRANCH   4   5
ENDBRANCH   3   4
ENDBRANCH   2   3
ENDBRANCH   1   2
BRANCH   1  13
ATOM     13  C   UNL     1      18.457  16.800  46.088  1.00  0.00     0.000 C 
BRANCH  13  14
ATOM     14  C   UNL     1      17.975  15.341  46.114  1.00  0.00     0.000 C 
BRANCH  14  15
ATOM     15  C   UNL     1      16.582  15.164  45.483  1.00  0.00     0.000 C 
BRANCH  15  16
ATOM     16  C   UNL     1      16.605  14.275  44.227  1.00  0.00     0.000 C 
BRANCH  16  17
ATOM     17  C   UNL     1      16.211  14.983  42.918  1.00  0.00     0.000 C 
BRANCH  17  18
ATOM     18  C   UNL     1      16.047  16.504  43.084  1.00  0.00     0.000 C 
BRANCH  18  19
ATOM     19  C   UNL     1      17.288  17.280  42.594  1.00  0.00     0.000 C 
BRANCH  19  20
ATOM     20  C   UNL     1      17.365  18.720  43.131  1.00  0.00     0.006 C 
BRANCH  20  21
ATOM     21  C   UNL     1      16.036  19.211  43.718  1.00  0.00     0.053 C 
BRANCH  21  22
ATOM     22  C   UNL     1      16.070  20.694  43.914  1.00  0.00     0.041 C 
ATOM     23  O   UNL     1      17.173  21.293  44.031  1.00  0.00    -0.550 OA
ATOM     24  O   UNL     1      14.886  21.422  43.919  1.00  0.00    -0.550 OA
ENDBRANCH  21  22
ENDBRANCH  20  21
ENDBRANCH  19  20
ENDBRANCH  18  19
ENDBRANCH  17  18
ENDBRANCH  16  17
ENDBRANCH  15  16
ENDBRANCH  14  15
ENDBRANCH  13  14
ENDBRANCH   1  13
TORSDOF 20
ENDMDL
