MODEL 1
REMARK VINA RESULT:    -5.181      0.000      0.000
REMARK INTER + INTRA:          -5.181
REMARK INTER:                  -5.181
REMARK INTRA:                   0.000
REMARK UNBOUND:                 0.000
REMARK SMILES C=C1CC[C@@H]2C[C@H]1C2(C)C
REMARK SMILES IDX 9 1 8 2 5 3 4 4 3 5 2 6 1 7 7 8 6 9 10 10
REMARK H PARENT
REMARK Flexibility Score: inf
ROOT
ATOM      1  C   UNL     1     108.986 104.927 129.417  1.00  0.00     0.012 C 
ATOM      2  C   UNL     1     109.807 105.899 128.531  1.00  0.00    -0.026 C 
ATOM      3  C   UNL     1     111.078 106.410 129.256  1.00  0.00    -0.004 C 
ATOM      4  C   UNL     1     111.665 107.669 128.539  1.00  0.00     0.008 C 
ATOM      5  C   UNL     1     111.866 107.444 126.993  1.00  0.00     0.031 C 
ATOM      6  C   UNL     1     111.282 106.105 126.515  1.00  0.00    -0.074 C 
ATOM      7  C   UNL     1     111.229 105.792 125.216  1.00  0.00     0.008 C 
ATOM      8  C   UNL     1     110.775 105.147 127.589  1.00  0.00     0.021 C 
ATOM      9  C   UNL     1     111.837 105.195 128.698  1.00  0.00     0.012 C 
ATOM     10  C   UNL     1     108.832 106.938 127.913  1.00  0.00     0.012 C 
ENDROOT
TORSDOF 0
ENDMDL
MODEL 2
REMARK VINA RESULT:    -5.149      7.273      9.357
REMARK INTER + INTRA:          -5.149
REMARK INTER:                  -5.149
REMARK INTRA:                   0.000
REMARK UNBOUND:                 0.000
REMARK SMILES C=C1CC[C@@H]2C[C@H]1C2(C)C
REMARK SMILES IDX 9 1 8 2 5 3 4 4 3 5 2 6 1 7 7 8 6 9 10 10
REMARK H PARENT
REMARK Flexibility Score: inf
ROOT
ATOM      1  C   UNL     1     103.566 107.696 129.290  1.00  0.00     0.012 C 
ATOM      2  C   UNL     1     102.761 106.674 128.449  1.00  0.00    -0.026 C 
ATOM      3  C   UNL     1     101.550 106.105 129.231  1.00  0.00    -0.004 C 
ATOM      4  C   UNL     1     101.000 104.810 128.550  1.00  0.00     0.008 C 
ATOM      5  C   UNL     1     100.722 105.008 127.012  1.00  0.00     0.031 C 
ATOM      6  C   UNL     1     101.214 106.371 126.499  1.00  0.00    -0.074 C 
ATOM      7  C   UNL     1     101.197 106.672 125.197  1.00  0.00     0.008 C 
ATOM      8  C   UNL     1     101.716 107.365 127.542  1.00  0.00     0.021 C 
ATOM      9  C   UNL     1     100.705 107.273 128.696  1.00  0.00     0.012 C 
ATOM     10  C   UNL     1     103.761 105.681 127.797  1.00  0.00     0.012 C 
ENDROOT
TORSDOF 0
ENDMDL
MODEL 3
REMARK VINA RESULT:    -5.142      4.902      6.635
REMARK INTER + INTRA:          -5.142
REMARK INTER:                  -5.142
REMARK INTRA:                   0.000
REMARK UNBOUND:                 0.000
REMARK SMILES C=C1CC[C@@H]2C[C@H]1C2(C)C
REMARK SMILES IDX 9 1 8 2 5 3 4 4 3 5 2 6 1 7 7 8 6 9 10 10
REMARK H PARENT
REMARK Flexibility Score: inf
ROOT
ATOM      1  C   UNL     1     104.937 103.537 129.334  1.00  0.00     0.012 C 
ATOM      2  C   UNL     1     105.913 102.707 128.462  1.00  0.00    -0.026 C 
ATOM      3  C   UNL     1     106.429 101.450 129.207  1.00  0.00    -0.004 C 
ATOM      4  C   UNL     1     107.691 100.858 128.500  1.00  0.00     0.008 C 
ATOM      5  C   UNL     1     107.468 100.632 126.956  1.00  0.00     0.031 C 
ATOM      6  C   UNL     1     106.126 101.201 126.470  1.00  0.00    -0.074 C 
ATOM      7  C   UNL     1     105.813 101.233 125.170  1.00  0.00     0.008 C 
ATOM      8  C   UNL     1     105.165 101.721 127.535  1.00  0.00     0.021 C 
ATOM      9  C   UNL     1     105.218 100.676 128.661  1.00  0.00     0.012 C 
ATOM     10  C   UNL     1     106.947 103.677 127.828  1.00  0.00     0.012 C 
ENDROOT
TORSDOF 0
ENDMDL
MODEL 4
REMARK VINA RESULT:    -5.133      5.000      6.454
REMARK INTER + INTRA:          -5.133
REMARK INTER:                  -5.133
REMARK INTRA:                   0.000
REMARK UNBOUND:                 0.000
REMARK SMILES C=C1CC[C@@H]2C[C@H]1C2(C)C
REMARK SMILES IDX 9 1 8 2 5 3 4 4 3 5 2 6 1 7 7 8 6 9 10 10
REMARK H PARENT
REMARK Flexibility Score: inf
ROOT
ATOM      1  C   UNL     1     107.832 100.398 129.425  1.00  0.00     0.012 C 
ATOM      2  C   UNL     1     106.753 101.160 128.614  1.00  0.00    -0.026 C 
ATOM      3  C   UNL     1     106.994 102.691 128.625  1.00  0.00    -0.004 C 
ATOM      4  C   UNL     1     105.715 103.464 128.168  1.00  0.00     0.008 C 
ATOM      5  C   UNL     1     105.138 102.925 126.804  1.00  0.00     0.031 C 
ATOM      6  C   UNL     1     105.862 101.657 126.324  1.00  0.00    -0.074 C 
ATOM      7  C   UNL     1     105.430 100.968 125.262  1.00  0.00     0.008 C 
ATOM      8  C   UNL     1     107.097 101.224 127.108  1.00  0.00     0.021 C 
ATOM      9  C   UNL     1     107.874 102.523 127.375  1.00  0.00     0.012 C 
ATOM     10  C   UNL     1     105.357 100.622 129.030  1.00  0.00     0.012 C 
ENDROOT
TORSDOF 0
ENDMDL
MODEL 5
REMARK VINA RESULT:    -5.118      7.133      9.134
REMARK INTER + INTRA:          -5.118
REMARK INTER:                  -5.118
REMARK INTRA:                   0.000
REMARK UNBOUND:                 0.000
REMARK SMILES C=C1CC[C@@H]2C[C@H]1C2(C)C
REMARK SMILES IDX 9 1 8 2 5 3 4 4 3 5 2 6 1 7 7 8 6 9 10 10
REMARK H PARENT
REMARK Flexibility Score: inf
ROOT
ATOM      1  C   UNL     1     100.477 107.392 129.578  1.00  0.00     0.012 C 
ATOM      2  C   UNL     1     101.106 106.276 128.705  1.00  0.00    -0.026 C 
ATOM      3  C   UNL     1     101.189 106.687 127.213  1.00  0.00    -0.004 C 
ATOM      4  C   UNL     1     101.434 105.441 126.301  1.00  0.00     0.008 C 
ATOM      5  C   UNL     1     102.654 104.568 126.786  1.00  0.00     0.031 C 
ATOM      6  C   UNL     1     103.214 105.045 128.136  1.00  0.00    -0.074 C 
ATOM      7  C   UNL     1     104.158 104.353 128.781  1.00  0.00     0.008 C 
ATOM      8  C   UNL     1     102.651 106.346 128.700  1.00  0.00     0.021 C 
ATOM      9  C   UNL     1     102.570 107.299 127.498  1.00  0.00     0.012 C 
ATOM     10  C   UNL     1     100.429 104.928 129.072  1.00  0.00     0.012 C 
ENDROOT
TORSDOF 0
ENDMDL
MODEL 6
REMARK VINA RESULT:    -5.105      4.804      6.580
REMARK INTER + INTRA:          -5.105
REMARK INTER:                  -5.105
REMARK INTRA:                   0.000
REMARK UNBOUND:                 0.000
REMARK SMILES C=C1CC[C@@H]2C[C@H]1C2(C)C
REMARK SMILES IDX 9 1 8 2 5 3 4 4 3 5 2 6 1 7 7 8 6 9 10 10
REMARK H PARENT
REMARK Flexibility Score: inf
ROOT
ATOM      1  C   UNL     1     107.845 108.916 129.247  1.00  0.00     0.012 C 
ATOM      2  C   UNL     1     106.768 109.686 128.442  1.00  0.00    -0.026 C 
ATOM      3  C   UNL     1     106.145 110.842 129.266  1.00  0.00    -0.004 C 
ATOM      4  C   UNL     1     104.812 111.338 128.618  1.00  0.00     0.008 C 
ATOM      5  C   UNL     1     104.971 111.668 127.085  1.00  0.00     0.031 C 
ATOM      6  C   UNL     1     106.352 111.266 126.541  1.00  0.00    -0.074 C 
ATOM      7  C   UNL     1     106.633 111.336 125.236  1.00  0.00     0.008 C 
ATOM      8  C   UNL     1     107.387 110.792 127.556  1.00  0.00     0.021 C 
ATOM      9  C   UNL     1     107.257 111.765 128.739  1.00  0.00     0.012 C 
ATOM     10  C   UNL     1     105.822 108.651 127.776  1.00  0.00     0.012 C 
ENDROOT
TORSDOF 0
ENDMDL
MODEL 7
REMARK VINA RESULT:    -5.098      4.454      6.460
REMARK INTER + INTRA:          -5.098
REMARK INTER:                  -5.098
REMARK INTRA:                   0.000
REMARK UNBOUND:                 0.000
REMARK SMILES C=C1CC[C@@H]2C[C@H]1C2(C)C
REMARK SMILES IDX 9 1 8 2 5 3 4 4 3 5 2 6 1 7 7 8 6 9 10 10
REMARK H PARENT
REMARK Flexibility Score: inf
ROOT
ATOM      1  C   UNL     1     105.065 100.473 129.608  1.00  0.00     0.012 C 
ATOM      2  C   UNL     1     106.174 101.082 128.712  1.00  0.00    -0.026 C 
ATOM      3  C   UNL     1     105.744 101.150 127.225  1.00  0.00    -0.004 C 
ATOM      4  C   UNL     1     106.979 101.373 126.294  1.00  0.00     0.008 C 
ATOM      5  C   UNL     1     107.868 102.591 126.751  1.00  0.00     0.031 C 
ATOM      6  C   UNL     1     107.415 103.172 128.100  1.00  0.00    -0.074 C 
ATOM      7  C   UNL     1     108.124 104.118 128.725  1.00  0.00     0.008 C 
ATOM      8  C   UNL     1     106.117 102.627 128.690  1.00  0.00     0.021 C 
ATOM      9  C   UNL     1     105.147 102.540 127.501  1.00  0.00     0.012 C 
ATOM     10  C   UNL     1     107.521 100.398 129.069  1.00  0.00     0.012 C 
ENDROOT
TORSDOF 0
ENDMDL
MODEL 8
REMARK VINA RESULT:    -5.087      1.015      2.850
REMARK INTER + INTRA:          -5.087
REMARK INTER:                  -5.087
REMARK INTRA:                   0.000
REMARK UNBOUND:                 0.000
REMARK SMILES C=C1CC[C@@H]2C[C@H]1C2(C)C
REMARK SMILES IDX 9 1 8 2 5 3 4 4 3 5 2 6 1 7 7 8 6 9 10 10
REMARK H PARENT
REMARK Flexibility Score: inf
ROOT
ATOM      1  C   UNL     1     111.984 105.060 129.598  1.00  0.00     0.012 C 
ATOM      2  C   UNL     1     111.373 106.174 128.711  1.00  0.00    -0.026 C 
ATOM      3  C   UNL     1     111.296 105.751 127.222  1.00  0.00    -0.004 C 
ATOM      4  C   UNL     1     111.070 106.991 126.298  1.00  0.00     0.008 C 
ATOM      5  C   UNL     1     109.856 107.880 126.766  1.00  0.00     0.031 C 
ATOM      6  C   UNL     1     109.282 107.421 128.116  1.00  0.00    -0.074 C 
ATOM      7  C   UNL     1     108.340 108.129 128.749  1.00  0.00     0.008 C 
ATOM      8  C   UNL     1     109.827 106.120 128.696  1.00  0.00     0.021 C 
ATOM      9  C   UNL     1     109.907 105.155 127.503  1.00  0.00     0.012 C 
ATOM     10  C   UNL     1     112.061 107.518 129.071  1.00  0.00     0.012 C 
ENDROOT
TORSDOF 0
ENDMDL
MODEL 9
REMARK VINA RESULT:    -5.041      5.447      7.096
REMARK INTER + INTRA:          -5.041
REMARK INTER:                  -5.041
REMARK INTRA:                   0.000
REMARK UNBOUND:                 0.000
REMARK SMILES C=C1CC[C@@H]2C[C@H]1C2(C)C
REMARK SMILES IDX 9 1 8 2 5 3 4 4 3 5 2 6 1 7 7 8 6 9 10 10
REMARK H PARENT
REMARK Flexibility Score: inf
ROOT
ATOM      1  C   UNL     1     107.386 111.959 129.614  1.00  0.00     0.012 C 
ATOM      2  C   UNL     1     106.270 111.352 128.726  1.00  0.00    -0.026 C 
ATOM      3  C   UNL     1     106.683 111.299 127.233  1.00  0.00    -0.004 C 
ATOM      4  C   UNL     1     105.438 111.077 126.315  1.00  0.00     0.008 C 
ATOM      5  C   UNL     1     104.561 109.850 126.772  1.00  0.00     0.031 C 
ATOM      6  C   UNL     1     105.034 109.260 128.110  1.00  0.00    -0.074 C 
ATOM      7  C   UNL     1     104.338 108.304 128.735  1.00  0.00     0.008 C 
ATOM      8  C   UNL     1     106.335 109.807 128.689  1.00  0.00     0.021 C 
ATOM      9  C   UNL     1     107.291 109.910 127.490  1.00  0.00     0.012 C 
ATOM     10  C   UNL     1     104.924 112.025 129.105  1.00  0.00     0.012 C 
ENDROOT
TORSDOF 0
ENDMDL
