MODEL 1
REMARK VINA RESULT:    -4.980      0.000      0.000
REMARK INTER + INTRA:         -11.994
REMARK INTER:                 -10.802
REMARK INTRA:                  -1.192
REMARK UNBOUND:                -1.192
REMARK SMILES CCCCCCCCCCCCCCCCCCCCCC(=O)[O-]
REMARK SMILES IDX 12 1 11 2 10 3 9 4 8 5 7 6 6 7 5 8 4 9 3 10 2 11 1 12 13 13
REMARK SMILES IDX 14 14 15 15 16 16 17 17 18 18 19 19 20 20 21 21 22 22 23 23
REMARK SMILES IDX 24 24
REMARK H PARENT
REMARK Flexibility Score: inf
ROOT
ATOM      1  C   UNL     1      10.551  44.826  94.865  1.00  0.00     0.000 C 
ENDROOT
BRANCH   1   2
ATOM      2  C   UNL     1      10.681  43.477  95.588  1.00  0.00     0.000 C 
BRANCH   2   3
ATOM      3  C   UNL     1      11.670  42.521  94.898  1.00  0.00     0.000 C 
BRANCH   3   4
ATOM      4  C   UNL     1      13.016  42.340  95.629  1.00  0.00    -0.000 C 
BRANCH   4   5
ATOM      5  C   UNL     1      14.266  42.409  94.730  1.00  0.00    -0.000 C 
BRANCH   5   6
ATOM      6  C   UNL     1      13.997  42.268  93.221  1.00  0.00    -0.000 C 
BRANCH   6   7
ATOM      7  C   UNL     1      15.045  41.398  92.506  1.00  0.00    -0.000 C 
BRANCH   7   8
ATOM      8  C   UNL     1      16.263  41.079  93.394  1.00  0.00    -0.000 C 
BRANCH   8   9
ATOM      9  C   UNL     1      16.430  39.594  93.770  1.00  0.00    -0.000 C 
BRANCH   9  10
ATOM     10  C   UNL     1      16.768  39.326  95.249  1.00  0.00    -0.000 C 
BRANCH  10  11
ATOM     11  C   UNL     1      17.484  37.981  95.491  1.00  0.00    -0.003 C 
ATOM     12  C   UNL     1      17.890  37.782  96.951  1.00  0.00     0.004 C 
ENDBRANCH  10  11
ENDBRANCH   9  10
ENDBRANCH   8   9
ENDBRANCH   7   8
ENDBRANCH   6   7
ENDBRANCH   5   6
ENDBRANCH   4   5
ENDBRANCH   3   4
ENDBRANCH   2   3
ENDBRANCH   1   2
BRANCH   1  13
ATOM     13  C   UNL     1       9.135  45.395  95.016  1.00  0.00     0.000 C 
BRANCH  13  14
ATOM     14  C   UNL     1       8.950  46.059  96.386  1.00  0.00     0.000 C 
BRANCH  14  15
ATOM     15  C   UNL     1       8.740  47.574  96.239  1.00  0.00     0.000 C 
BRANCH  15  16
ATOM     16  C   UNL     1       8.610  48.290  97.594  1.00  0.00     0.000 C 
BRANCH  16  17
ATOM     17  C   UNL     1       9.447  49.578  97.666  1.00  0.00     0.000 C 
BRANCH  17  18
ATOM     18  C   UNL     1      10.864  49.338  98.212  1.00  0.00     0.000 C 
BRANCH  18  19
ATOM     19  C   UNL     1      11.905  49.024  97.116  1.00  0.00     0.000 C 
BRANCH  19  20
ATOM     20  C   UNL     1      13.168  49.895  97.247  1.00  0.00     0.006 C 
BRANCH  20  21
ATOM     21  C   UNL     1      14.352  49.326  96.454  1.00  0.00     0.053 C 
BRANCH  21  22
ATOM     22  C   UNL     1      14.431  49.914  95.079  1.00  0.00     0.041 C 
ATOM     23  O   UNL     1      14.900  49.239  94.125  1.00  0.00    -0.550 OA
ATOM     24  O   UNL     1      14.024  51.224  94.858  1.00  0.00    -0.550 OA
ENDBRANCH  21  22
ENDBRANCH  20  21
ENDBRANCH  19  20
ENDBRANCH  18  19
ENDBRANCH  17  18
ENDBRANCH  16  17
ENDBRANCH  15  16
ENDBRANCH  14  15
ENDBRANCH  13  14
ENDBRANCH   1  13
TORSDOF 20
ENDMDL
MODEL 2
REMARK VINA RESULT:    -4.717      3.952      6.705
REMARK INTER + INTRA:         -11.425
REMARK INTER:                  -9.909
REMARK INTRA:                  -1.516
REMARK UNBOUND:                -1.192
REMARK SMILES CCCCCCCCCCCCCCCCCCCCCC(=O)[O-]
REMARK SMILES IDX 12 1 11 2 10 3 9 4 8 5 7 6 6 7 5 8 4 9 3 10 2 11 1 12 13 13
REMARK SMILES IDX 14 14 15 15 16 16 17 17 18 18 19 19 20 20 21 21 22 22 23 23
REMARK SMILES IDX 24 24
REMARK H PARENT
REMARK Flexibility Score: inf
ROOT
ATOM      1  C   UNL     1      13.408  49.273  97.242  1.00  0.00     0.000 C 
ENDROOT
BRANCH   1   2
ATOM      2  C   UNL     1      13.913  50.684  96.904  1.00  0.00     0.000 C 
BRANCH   2   3
ATOM      3  C   UNL     1      14.192  50.877  95.403  1.00  0.00     0.000 C 
BRANCH   3   4
ATOM      4  C   UNL     1      15.645  50.596  94.970  1.00  0.00    -0.000 C 
BRANCH   4   5
ATOM      5  C   UNL     1      15.981  49.112  94.721  1.00  0.00    -0.000 C 
BRANCH   5   6
ATOM      6  C   UNL     1      15.343  48.498  93.462  1.00  0.00    -0.000 C 
BRANCH   6   7
ATOM      7  C   UNL     1      16.384  48.032  92.430  1.00  0.00    -0.000 C 
BRANCH   7   8
ATOM      8  C   UNL     1      16.178  46.570  91.993  1.00  0.00    -0.000 C 
BRANCH   8   9
ATOM      9  C   UNL     1      16.984  45.526  92.789  1.00  0.00    -0.000 C 
BRANCH   9  10
ATOM     10  C   UNL     1      18.351  46.011  93.310  1.00  0.00    -0.000 C 
BRANCH  10  11
ATOM     11  C   UNL     1      19.365  46.334  92.193  1.00  0.00    -0.003 C 
ATOM     12  C   UNL     1      19.864  45.083  91.469  1.00  0.00     0.004 C 
ENDBRANCH  10  11
ENDBRANCH   9  10
ENDBRANCH   8   9
ENDBRANCH   7   8
ENDBRANCH   6   7
ENDBRANCH   5   6
ENDBRANCH   4   5
ENDBRANCH   3   4
ENDBRANCH   2   3
ENDBRANCH   1   2
BRANCH   1  13
ATOM     13  C   UNL     1      11.976  49.067  96.735  1.00  0.00     0.000 C 
BRANCH  13  14
ATOM     14  C   UNL     1      10.959  49.227  97.872  1.00  0.00     0.000 C 
BRANCH  14  15
ATOM     15  C   UNL     1       9.658  48.474  97.556  1.00  0.00     0.000 C 
BRANCH  15  16
ATOM     16  C   UNL     1       8.967  48.989  96.284  1.00  0.00     0.000 C 
BRANCH  16  17
ATOM     17  C   UNL     1       8.686  47.870  95.266  1.00  0.00     0.000 C 
BRANCH  17  18
ATOM     18  C   UNL     1       8.979  46.468  95.827  1.00  0.00     0.000 C 
BRANCH  18  19
ATOM     19  C   UNL     1       9.920  45.629  94.937  1.00  0.00     0.000 C 
BRANCH  19  20
ATOM     20  C   UNL     1      10.272  44.274  95.577  1.00  0.00     0.006 C 
BRANCH  20  21
ATOM     21  C   UNL     1      11.303  43.492  94.753  1.00  0.00     0.053 C 
BRANCH  21  22
ATOM     22  C   UNL     1      11.913  42.376  95.545  1.00  0.00     0.041 C 
ATOM     23  O   UNL     1      11.180  41.504  96.083  1.00  0.00    -0.550 OA
ATOM     24  O   UNL     1      13.289  42.323  95.725  1.00  0.00    -0.550 OA
ENDBRANCH  21  22
ENDBRANCH  20  21
ENDBRANCH  19  20
ENDBRANCH  18  19
ENDBRANCH  17  18
ENDBRANCH  16  17
ENDBRANCH  15  16
ENDBRANCH  14  15
ENDBRANCH  13  14
ENDBRANCH   1  13
TORSDOF 20
ENDMDL
MODEL 3
REMARK VINA RESULT:    -4.613      3.103      8.375
REMARK INTER + INTRA:         -11.198
REMARK INTER:                  -9.112
REMARK INTRA:                  -2.086
REMARK UNBOUND:                -1.192
REMARK SMILES CCCCCCCCCCCCCCCCCCCCCC(=O)[O-]
REMARK SMILES IDX 12 1 11 2 10 3 9 4 8 5 7 6 6 7 5 8 4 9 3 10 2 11 1 12 13 13
REMARK SMILES IDX 14 14 15 15 16 16 17 17 18 18 19 19 20 20 21 21 22 22 23 23
REMARK SMILES IDX 24 24
REMARK H PARENT
REMARK Flexibility Score: inf
ROOT
ATOM      1  C   UNL     1      10.781  49.361  93.817  1.00  0.00     0.000 C 
ENDROOT
BRANCH   1   2
ATOM      2  C   UNL     1       9.251  49.490  93.795  1.00  0.00     0.000 C 
BRANCH   2   3
ATOM      3  C   UNL     1       8.677  50.031  95.117  1.00  0.00     0.000 C 
BRANCH   3   4
ATOM      4  C   UNL     1       8.813  49.079  96.323  1.00  0.00    -0.000 C 
BRANCH   4   5
ATOM      5  C   UNL     1       9.020  49.771  97.685  1.00  0.00    -0.000 C 
BRANCH   5   6
ATOM      6  C   UNL     1      10.366  49.477  98.372  1.00  0.00    -0.000 C 
BRANCH   6   7
ATOM      7  C   UNL     1      11.436  48.963  97.394  1.00  0.00    -0.000 C 
BRANCH   7   8
ATOM      8  C   UNL     1      12.782  49.697  97.541  1.00  0.00    -0.000 C 
BRANCH   8   9
ATOM      9  C   UNL     1      13.834  49.361  96.468  1.00  0.00    -0.000 C 
BRANCH   9  10
ATOM     10  C   UNL     1      14.097  50.474  95.435  1.00  0.00    -0.000 C 
BRANCH  10  11
ATOM     11  C   UNL     1      15.211  50.134  94.423  1.00  0.00    -0.003 C 
ATOM     12  C   UNL     1      16.018  48.900  94.825  1.00  0.00     0.004 C 
ENDBRANCH  10  11
ENDBRANCH   9  10
ENDBRANCH   8   9
ENDBRANCH   7   8
ENDBRANCH   6   7
ENDBRANCH   5   6
ENDBRANCH   4   5
ENDBRANCH   3   4
ENDBRANCH   2   3
ENDBRANCH   1   2
BRANCH   1  13
ATOM     13  C   UNL     1      11.207  47.888  93.847  1.00  0.00     0.000 C 
BRANCH  13  14
ATOM     14  C   UNL     1      10.032  46.966  93.501  1.00  0.00     0.000 C 
BRANCH  14  15
ATOM     15  C   UNL     1       9.838  45.892  94.582  1.00  0.00     0.000 C 
BRANCH  15  16
ATOM     16  C   UNL     1      10.340  44.508  94.141  1.00  0.00     0.000 C 
BRANCH  16  17
ATOM     17  C   UNL     1      10.996  43.721  95.288  1.00  0.00     0.000 C 
BRANCH  17  18
ATOM     18  C   UNL     1      12.001  42.668  94.791  1.00  0.00     0.000 C 
BRANCH  18  19
ATOM     19  C   UNL     1      13.000  42.205  95.873  1.00  0.00     0.000 C 
BRANCH  19  20
ATOM     20  C   UNL     1      14.439  42.114  95.335  1.00  0.00     0.006 C 
BRANCH  20  21
ATOM     21  C   UNL     1      14.494  42.194  93.804  1.00  0.00     0.053 C 
BRANCH  21  22
ATOM     22  C   UNL     1      15.753  41.587  93.263  1.00  0.00     0.041 C 
ATOM     23  O   UNL     1      16.456  42.220  92.432  1.00  0.00    -0.550 OA
ATOM     24  O   UNL     1      16.127  40.306  93.646  1.00  0.00    -0.550 OA
ENDBRANCH  21  22
ENDBRANCH  20  21
ENDBRANCH  19  20
ENDBRANCH  18  19
ENDBRANCH  17  18
ENDBRANCH  16  17
ENDBRANCH  15  16
ENDBRANCH  14  15
ENDBRANCH  13  14
ENDBRANCH   1  13
TORSDOF 20
ENDMDL
MODEL 4
REMARK VINA RESULT:    -4.449      3.526      8.326
REMARK INTER + INTRA:         -10.843
REMARK INTER:                  -8.622
REMARK INTRA:                  -2.221
REMARK UNBOUND:                -1.192
REMARK SMILES CCCCCCCCCCCCCCCCCCCCCC(=O)[O-]
REMARK SMILES IDX 12 1 11 2 10 3 9 4 8 5 7 6 6 7 5 8 4 9 3 10 2 11 1 12 13 13
REMARK SMILES IDX 14 14 15 15 16 16 17 17 18 18 19 19 20 20 21 21 22 22 23 23
REMARK SMILES IDX 24 24
REMARK H PARENT
REMARK Flexibility Score: inf
ROOT
ATOM      1  C   UNL     1       9.601  49.186  96.953  1.00  0.00     0.000 C 
ENDROOT
BRANCH   1   2
ATOM      2  C   UNL     1      10.873  48.680  97.650  1.00  0.00     0.000 C 
BRANCH   2   3
ATOM      3  C   UNL     1      11.887  49.802  97.934  1.00  0.00     0.000 C 
BRANCH   3   4
ATOM      4  C   UNL     1      13.330  49.507  97.477  1.00  0.00    -0.000 C 
BRANCH   4   5
ATOM      5  C   UNL     1      14.113  50.724  96.946  1.00  0.00    -0.000 C 
BRANCH   5   6
ATOM      6  C   UNL     1      14.594  50.608  95.489  1.00  0.00    -0.000 C 
BRANCH   6   7
ATOM      7  C   UNL     1      13.437  50.597  94.476  1.00  0.00    -0.000 C 
BRANCH   7   8
ATOM      8  C   UNL     1      13.041  49.175  94.037  1.00  0.00    -0.000 C 
BRANCH   8   9
ATOM      9  C   UNL     1      11.533  48.866  94.097  1.00  0.00    -0.000 C 
BRANCH   9  10
ATOM     10  C   UNL     1      10.745  49.187  92.812  1.00  0.00    -0.000 C 
BRANCH  10  11
ATOM     11  C   UNL     1      10.197  50.629  92.761  1.00  0.00    -0.003 C 
ATOM     12  C   UNL     1       9.926  51.108  91.335  1.00  0.00     0.004 C 
ENDBRANCH  10  11
ENDBRANCH   9  10
ENDBRANCH   8   9
ENDBRANCH   7   8
ENDBRANCH   6   7
ENDBRANCH   5   6
ENDBRANCH   4   5
ENDBRANCH   3   4
ENDBRANCH   2   3
ENDBRANCH   1   2
BRANCH   1  13
ATOM     13  C   UNL     1       8.604  48.042  96.734  1.00  0.00     0.000 C 
BRANCH  13  14
ATOM     14  C   UNL     1       8.069  48.044  95.297  1.00  0.00     0.000 C 
BRANCH  14  15
ATOM     15  C   UNL     1       7.269  46.765  95.006  1.00  0.00     0.000 C 
BRANCH  15  16
ATOM     16  C   UNL     1       8.168  45.569  94.651  1.00  0.00     0.000 C 
BRANCH  16  17
ATOM     17  C   UNL     1       9.602  45.992  94.291  1.00  0.00     0.000 C 
BRANCH  17  18
ATOM     18  C   UNL     1      10.626  44.864  94.502  1.00  0.00     0.000 C 
BRANCH  18  19
ATOM     19  C   UNL     1      10.355  44.007  95.757  1.00  0.00     0.000 C 
BRANCH  19  20
ATOM     20  C   UNL     1      10.805  42.547  95.572  1.00  0.00     0.006 C 
BRANCH  20  21
ATOM     21  C   UNL     1      11.997  42.187  96.468  1.00  0.00     0.053 C 
BRANCH  21  22
ATOM     22  C   UNL     1      13.301  42.368  95.753  1.00  0.00     0.041 C 
ATOM     23  O   UNL     1      13.320  42.593  94.514  1.00  0.00    -0.550 OA
ATOM     24  O   UNL     1      14.497  42.247  96.448  1.00  0.00    -0.550 OA
ENDBRANCH  21  22
ENDBRANCH  20  21
ENDBRANCH  19  20
ENDBRANCH  18  19
ENDBRANCH  17  18
ENDBRANCH  16  17
ENDBRANCH  15  16
ENDBRANCH  14  15
ENDBRANCH  13  14
ENDBRANCH   1  13
TORSDOF 20
ENDMDL
MODEL 5
REMARK VINA RESULT:    -4.428      4.956      9.091
REMARK INTER + INTRA:         -10.797
REMARK INTER:                  -8.506
REMARK INTRA:                  -2.291
REMARK UNBOUND:                -1.192
REMARK SMILES CCCCCCCCCCCCCCCCCCCCCC(=O)[O-]
REMARK SMILES IDX 12 1 11 2 10 3 9 4 8 5 7 6 6 7 5 8 4 9 3 10 2 11 1 12 13 13
REMARK SMILES IDX 14 14 15 15 16 16 17 17 18 18 19 19 20 20 21 21 22 22 23 23
REMARK SMILES IDX 24 24
REMARK H PARENT
REMARK Flexibility Score: inf
ROOT
ATOM      1  C   UNL     1      11.039  48.581  96.951  1.00  0.00     0.000 C 
ENDROOT
BRANCH   1   2
ATOM      2  C   UNL     1       9.898  48.135  97.877  1.00  0.00     0.000 C 
BRANCH   2   3
ATOM      3  C   UNL     1       8.507  48.323  97.245  1.00  0.00     0.000 C 
BRANCH   3   4
ATOM      4  C   UNL     1       7.580  49.303  97.991  1.00  0.00    -0.000 C 
BRANCH   4   5
ATOM      5  C   UNL     1       7.936  50.795  97.833  1.00  0.00    -0.000 C 
BRANCH   5   6
ATOM      6  C   UNL     1       6.976  51.608  96.947  1.00  0.00    -0.000 C 
BRANCH   6   7
ATOM      7  C   UNL     1       7.473  51.749  95.499  1.00  0.00    -0.000 C 
BRANCH   7   8
ATOM      8  C   UNL     1       6.774  50.778  94.530  1.00  0.00    -0.000 C 
BRANCH   8   9
ATOM      9  C   UNL     1       7.695  49.736  93.867  1.00  0.00    -0.000 C 
BRANCH   9  10
ATOM     10  C   UNL     1       9.186  50.121  93.807  1.00  0.00    -0.000 C 
BRANCH  10  11
ATOM     11  C   UNL     1      10.107  48.978  93.334  1.00  0.00    -0.003 C 
ATOM     12  C   UNL     1      11.581  49.240  93.644  1.00  0.00     0.004 C 
ENDBRANCH  10  11
ENDBRANCH   9  10
ENDBRANCH   8   9
ENDBRANCH   7   8
ENDBRANCH   6   7
ENDBRANCH   5   6
ENDBRANCH   4   5
ENDBRANCH   3   4
ENDBRANCH   2   3
ENDBRANCH   1   2
BRANCH   1  13
ATOM     13  C   UNL     1      11.913  49.642  97.630  1.00  0.00     0.000 C 
BRANCH  13  14
ATOM     14  C   UNL     1      13.393  49.445  97.280  1.00  0.00     0.000 C 
BRANCH  14  15
ATOM     15  C   UNL     1      14.067  50.789  96.961  1.00  0.00     0.000 C 
BRANCH  15  16
ATOM     16  C   UNL     1      14.667  50.831  95.546  1.00  0.00     0.000 C 
BRANCH  16  17
ATOM     17  C   UNL     1      15.210  49.466  95.091  1.00  0.00     0.000 C 
BRANCH  17  18
ATOM     18  C   UNL     1      15.568  49.435  93.595  1.00  0.00     0.000 C 
BRANCH  18  19
ATOM     19  C   UNL     1      16.233  48.118  93.144  1.00  0.00     0.000 C 
BRANCH  19  20
ATOM     20  C   UNL     1      16.903  47.374  94.313  1.00  0.00     0.006 C 
BRANCH  20  21
ATOM     21  C   UNL     1      17.555  46.058  93.869  1.00  0.00     0.053 C 
BRANCH  21  22
ATOM     22  C   UNL     1      19.044  46.185  93.768  1.00  0.00     0.041 C 
ATOM     23  O   UNL     1      19.745  46.293  94.809  1.00  0.00    -0.550 OA
ATOM     24  O   UNL     1      19.656  46.226  92.522  1.00  0.00    -0.550 OA
ENDBRANCH  21  22
ENDBRANCH  20  21
ENDBRANCH  19  20
ENDBRANCH  18  19
ENDBRANCH  17  18
ENDBRANCH  16  17
ENDBRANCH  15  16
ENDBRANCH  14  15
ENDBRANCH  13  14
ENDBRANCH   1  13
TORSDOF 20
ENDMDL
MODEL 6
REMARK VINA RESULT:    -4.389      3.584      7.243
REMARK INTER + INTRA:         -10.712
REMARK INTER:                  -8.820
REMARK INTRA:                  -1.891
REMARK UNBOUND:                -1.192
REMARK SMILES CCCCCCCCCCCCCCCCCCCCCC(=O)[O-]
REMARK SMILES IDX 12 1 11 2 10 3 9 4 8 5 7 6 6 7 5 8 4 9 3 10 2 11 1 12 13 13
REMARK SMILES IDX 14 14 15 15 16 16 17 17 18 18 19 19 20 20 21 21 22 22 23 23
REMARK SMILES IDX 24 24
REMARK H PARENT
REMARK Flexibility Score: inf
ROOT
ATOM      1  C   UNL     1      10.932  47.585  95.199  1.00  0.00     0.000 C 
ENDROOT
BRANCH   1   2
ATOM      2  C   UNL     1      10.717  48.856  96.034  1.00  0.00     0.000 C 
BRANCH   2   3
ATOM      3  C   UNL     1      11.525  48.856  97.344  1.00  0.00     0.000 C 
BRANCH   3   4
ATOM      4  C   UNL     1      12.716  49.835  97.373  1.00  0.00    -0.000 C 
BRANCH   4   5
ATOM      5  C   UNL     1      13.991  49.341  96.661  1.00  0.00    -0.000 C 
BRANCH   5   6
ATOM      6  C   UNL     1      14.434  50.183  95.452  1.00  0.00    -0.000 C 
BRANCH   6   7
ATOM      7  C   UNL     1      15.221  49.368  94.412  1.00  0.00    -0.000 C 
BRANCH   7   8
ATOM      8  C   UNL     1      16.324  48.499  95.043  1.00  0.00    -0.000 C 
BRANCH   8   9
ATOM      9  C   UNL     1      16.997  47.495  94.088  1.00  0.00    -0.000 C 
BRANCH   9  10
ATOM     10  C   UNL     1      16.437  47.479  92.653  1.00  0.00    -0.000 C 
BRANCH  10  11
ATOM     11  C   UNL     1      16.798  46.208  91.857  1.00  0.00    -0.003 C 
ATOM     12  C   UNL     1      16.901  44.965  92.742  1.00  0.00     0.004 C 
ENDBRANCH  10  11
ENDBRANCH   9  10
ENDBRANCH   8   9
ENDBRANCH   7   8
ENDBRANCH   6   7
ENDBRANCH   5   6
ENDBRANCH   4   5
ENDBRANCH   3   4
ENDBRANCH   2   3
ENDBRANCH   1   2
BRANCH   1  13
ATOM     13  C   UNL     1       9.757  47.351  94.242  1.00  0.00     0.000 C 
BRANCH  13  14
ATOM     14  C   UNL     1       9.717  45.895  93.763  1.00  0.00     0.000 C 
BRANCH  14  15
ATOM     15  C   UNL     1      10.702  45.026  94.560  1.00  0.00     0.000 C 
BRANCH  15  16
ATOM     16  C   UNL     1       9.996  44.062  95.527  1.00  0.00     0.000 C 
BRANCH  16  17
ATOM     17  C   UNL     1      10.910  42.917  95.996  1.00  0.00     0.000 C 
BRANCH  17  18
ATOM     18  C   UNL     1      11.977  42.541  94.953  1.00  0.00     0.000 C 
BRANCH  18  19
ATOM     19  C   UNL     1      13.362  42.240  95.564  1.00  0.00     0.000 C 
BRANCH  19  20
ATOM     20  C   UNL     1      14.501  42.437  94.548  1.00  0.00     0.006 C 
BRANCH  20  21
ATOM     21  C   UNL     1      13.976  42.701  93.130  1.00  0.00     0.053 C 
BRANCH  21  22
ATOM     22  C   UNL     1      14.499  41.695  92.151  1.00  0.00     0.041 C 
ATOM     23  O   UNL     1      15.618  41.147  92.339  1.00  0.00    -0.550 OA
ATOM     24  O   UNL     1      13.770  41.394  91.008  1.00  0.00    -0.550 OA
ENDBRANCH  21  22
ENDBRANCH  20  21
ENDBRANCH  19  20
ENDBRANCH  18  19
ENDBRANCH  17  18
ENDBRANCH  16  17
ENDBRANCH  15  16
ENDBRANCH  14  15
ENDBRANCH  13  14
ENDBRANCH   1  13
TORSDOF 20
ENDMDL
MODEL 7
REMARK VINA RESULT:    -4.383      4.758      6.633
REMARK INTER + INTRA:         -10.700
REMARK INTER:                  -8.474
REMARK INTRA:                  -2.226
REMARK UNBOUND:                -1.192
REMARK SMILES CCCCCCCCCCCCCCCCCCCCCC(=O)[O-]
REMARK SMILES IDX 12 1 11 2 10 3 9 4 8 5 7 6 6 7 5 8 4 9 3 10 2 11 1 12 13 13
REMARK SMILES IDX 14 14 15 15 16 16 17 17 18 18 19 19 20 20 21 21 22 22 23 23
REMARK SMILES IDX 24 24
REMARK H PARENT
REMARK Flexibility Score: inf
ROOT
ATOM      1  C   UNL     1      11.772  49.765  97.624  1.00  0.00     0.000 C 
ENDROOT
BRANCH   1   2
ATOM      2  C   UNL     1      13.142  49.233  97.178  1.00  0.00     0.000 C 
BRANCH   2   3
ATOM      3  C   UNL     1      14.112  50.352  96.760  1.00  0.00     0.000 C 
BRANCH   3   4
ATOM      4  C   UNL     1      14.110  50.686  95.254  1.00  0.00    -0.000 C 
BRANCH   4   5
ATOM      5  C   UNL     1      15.218  50.002  94.428  1.00  0.00    -0.000 C 
BRANCH   5   6
ATOM      6  C   UNL     1      15.988  48.888  95.160  1.00  0.00    -0.000 C 
BRANCH   6   7
ATOM      7  C   UNL     1      16.713  47.932  94.198  1.00  0.00    -0.000 C 
BRANCH   7   8
ATOM      8  C   UNL     1      17.510  46.838  94.932  1.00  0.00    -0.000 C 
BRANCH   8   9
ATOM      9  C   UNL     1      18.671  46.221  94.129  1.00  0.00    -0.000 C 
BRANCH   9  10
ATOM     10  C   UNL     1      18.606  46.443  92.605  1.00  0.00    -0.000 C 
BRANCH  10  11
ATOM     11  C   UNL     1      19.988  46.618  91.941  1.00  0.00    -0.003 C 
ATOM     12  C   UNL     1      19.974  47.649  90.812  1.00  0.00     0.004 C 
ENDBRANCH  10  11
ENDBRANCH   9  10
ENDBRANCH   8   9
ENDBRANCH   7   8
ENDBRANCH   6   7
ENDBRANCH   5   6
ENDBRANCH   4   5
ENDBRANCH   3   4
ENDBRANCH   2   3
ENDBRANCH   1   2
BRANCH   1  13
ATOM     13  C   UNL     1      10.720  48.649  97.614  1.00  0.00     0.000 C 
BRANCH  13  14
ATOM     14  C   UNL     1       9.325  49.203  97.928  1.00  0.00     0.000 C 
BRANCH  14  15
ATOM     15  C   UNL     1       8.324  48.829  96.824  1.00  0.00     0.000 C 
BRANCH  15  16
ATOM     16  C   UNL     1       8.240  49.890  95.714  1.00  0.00     0.000 C 
BRANCH  16  17
ATOM     17  C   UNL     1       8.706  49.358  94.349  1.00  0.00     0.000 C 
BRANCH  17  18
ATOM     18  C   UNL     1      10.203  49.602  94.093  1.00  0.00     0.000 C 
BRANCH  18  19
ATOM     19  C   UNL     1      10.920  48.410  93.424  1.00  0.00     0.000 C 
BRANCH  19  20
ATOM     20  C   UNL     1      11.091  47.221  94.386  1.00  0.00     0.006 C 
BRANCH  20  21
ATOM     21  C   UNL     1      10.233  46.016  93.980  1.00  0.00     0.053 C 
BRANCH  21  22
ATOM     22  C   UNL     1       9.168  45.727  94.994  1.00  0.00     0.041 C 
ATOM     23  O   UNL     1       9.478  45.508  96.195  1.00  0.00    -0.550 OA
ATOM     24  O   UNL     1       7.837  45.660  94.604  1.00  0.00    -0.550 OA
ENDBRANCH  21  22
ENDBRANCH  20  21
ENDBRANCH  19  20
ENDBRANCH  18  19
ENDBRANCH  17  18
ENDBRANCH  16  17
ENDBRANCH  15  16
ENDBRANCH  14  15
ENDBRANCH  13  14
ENDBRANCH   1  13
TORSDOF 20
ENDMDL
MODEL 8
REMARK VINA RESULT:    -4.329      3.446      7.345
REMARK INTER + INTRA:         -10.582
REMARK INTER:                  -8.464
REMARK INTRA:                  -2.117
REMARK UNBOUND:                -1.192
REMARK SMILES CCCCCCCCCCCCCCCCCCCCCC(=O)[O-]
REMARK SMILES IDX 12 1 11 2 10 3 9 4 8 5 7 6 6 7 5 8 4 9 3 10 2 11 1 12 13 13
REMARK SMILES IDX 14 14 15 15 16 16 17 17 18 18 19 19 20 20 21 21 22 22 23 23
REMARK SMILES IDX 24 24
REMARK H PARENT
REMARK Flexibility Score: inf
ROOT
ATOM      1  C   UNL     1      10.801  48.363  94.091  1.00  0.00     0.000 C 
ENDROOT
BRANCH   1   2
ATOM      2  C   UNL     1      12.093  48.819  94.785  1.00  0.00     0.000 C 
BRANCH   2   3
ATOM      3  C   UNL     1      11.974  48.836  96.320  1.00  0.00     0.000 C 
BRANCH   3   4
ATOM      4  C   UNL     1      13.246  49.289  97.065  1.00  0.00    -0.000 C 
BRANCH   4   5
ATOM      5  C   UNL     1      13.763  50.692  96.690  1.00  0.00    -0.000 C 
BRANCH   5   6
ATOM      6  C   UNL     1      15.236  50.750  96.245  1.00  0.00    -0.000 C 
BRANCH   6   7
ATOM      7  C   UNL     1      15.435  50.326  94.781  1.00  0.00    -0.000 C 
BRANCH   7   8
ATOM      8  C   UNL     1      15.922  48.872  94.641  1.00  0.00    -0.000 C 
BRANCH   8   9
ATOM      9  C   UNL     1      15.933  48.319  93.203  1.00  0.00    -0.000 C 
BRANCH   9  10
ATOM     10  C   UNL     1      16.866  47.114  92.971  1.00  0.00    -0.000 C 
BRANCH  10  11
ATOM     11  C   UNL     1      17.571  46.616  94.250  1.00  0.00    -0.003 C 
ATOM     12  C   UNL     1      19.020  46.198  94.001  1.00  0.00     0.004 C 
ENDBRANCH  10  11
ENDBRANCH   9  10
ENDBRANCH   8   9
ENDBRANCH   7   8
ENDBRANCH   6   7
ENDBRANCH   5   6
ENDBRANCH   4   5
ENDBRANCH   3   4
ENDBRANCH   2   3
ENDBRANCH   1   2
BRANCH   1  13
ATOM     13  C   UNL     1       9.633  48.315  95.083  1.00  0.00     0.000 C 
BRANCH  13  14
ATOM     14  C   UNL     1       9.128  46.880  95.274  1.00  0.00     0.000 C 
BRANCH  14  15
ATOM     15  C   UNL     1       9.825  45.918  94.299  1.00  0.00     0.000 C 
BRANCH  15  16
ATOM     16  C   UNL     1      10.336  44.642  94.988  1.00  0.00     0.000 C 
BRANCH  16  17
ATOM     17  C   UNL     1      11.404  43.908  94.160  1.00  0.00     0.000 C 
BRANCH  17  18
ATOM     18  C   UNL     1      11.685  44.591  92.811  1.00  0.00     0.000 C 
BRANCH  18  19
ATOM     19  C   UNL     1      12.031  43.604  91.676  1.00  0.00     0.000 C 
BRANCH  19  20
ATOM     20  C   UNL     1      12.405  42.210  92.211  1.00  0.00     0.006 C 
BRANCH  20  21
ATOM     21  C   UNL     1      13.840  41.811  91.843  1.00  0.00     0.053 C 
BRANCH  21  22
ATOM     22  C   UNL     1      14.824  42.266  92.878  1.00  0.00     0.041 C 
ATOM     23  O   UNL     1      16.003  42.559  92.548  1.00  0.00    -0.550 OA
ATOM     24  O   UNL     1      14.449  42.328  94.214  1.00  0.00    -0.550 OA
ENDBRANCH  21  22
ENDBRANCH  20  21
ENDBRANCH  19  20
ENDBRANCH  18  19
ENDBRANCH  17  18
ENDBRANCH  16  17
ENDBRANCH  15  16
ENDBRANCH  14  15
ENDBRANCH  13  14
ENDBRANCH   1  13
TORSDOF 20
ENDMDL
MODEL 9
REMARK VINA RESULT:    -4.273      2.223      3.513
REMARK INTER + INTRA:         -10.461
REMARK INTER:                  -8.754
REMARK INTRA:                  -1.708
REMARK UNBOUND:                -1.192
REMARK SMILES CCCCCCCCCCCCCCCCCCCCCC(=O)[O-]
REMARK SMILES IDX 12 1 11 2 10 3 9 4 8 5 7 6 6 7 5 8 4 9 3 10 2 11 1 12 13 13
REMARK SMILES IDX 14 14 15 15 16 16 17 17 18 18 19 19 20 20 21 21 22 22 23 23
REMARK SMILES IDX 24 24
REMARK H PARENT
REMARK Flexibility Score: inf
ROOT
ATOM      1  C   UNL     1       8.776  46.276  95.641  1.00  0.00     0.000 C 
ENDROOT
BRANCH   1   2
ATOM      2  C   UNL     1       9.555  45.422  94.630  1.00  0.00     0.000 C 
BRANCH   2   3
ATOM      3  C   UNL     1      10.736  44.668  95.267  1.00  0.00     0.000 C 
BRANCH   3   4
ATOM      4  C   UNL     1      10.427  43.219  95.696  1.00  0.00    -0.000 C 
BRANCH   4   5
ATOM      5  C   UNL     1      11.472  42.170  95.266  1.00  0.00    -0.000 C 
BRANCH   5   6
ATOM      6  C   UNL     1      12.915  42.460  95.717  1.00  0.00    -0.000 C 
BRANCH   6   7
ATOM      7  C   UNL     1      13.959  42.109  94.643  1.00  0.00    -0.000 C 
BRANCH   7   8
ATOM      8  C   UNL     1      13.716  42.845  93.312  1.00  0.00    -0.000 C 
BRANCH   8   9
ATOM      9  C   UNL     1      14.426  42.238  92.087  1.00  0.00    -0.000 C 
BRANCH   9  10
ATOM     10  C   UNL     1      13.496  41.583  91.047  1.00  0.00    -0.000 C 
BRANCH  10  11
ATOM     11  C   UNL     1      12.007  41.589  91.451  1.00  0.00    -0.003 C 
ATOM     12  C   UNL     1      11.226  40.421  90.848  1.00  0.00     0.004 C 
ENDBRANCH  10  11
ENDBRANCH   9  10
ENDBRANCH   8   9
ENDBRANCH   7   8
ENDBRANCH   6   7
ENDBRANCH   5   6
ENDBRANCH   4   5
ENDBRANCH   3   4
ENDBRANCH   2   3
ENDBRANCH   1   2
BRANCH   1  13
ATOM     13  C   UNL     1       7.378  46.614  95.111  1.00  0.00     0.000 C 
BRANCH  13  14
ATOM     14  C   UNL     1       7.314  48.059  94.601  1.00  0.00     0.000 C 
BRANCH  14  15
ATOM     15  C   UNL     1       8.392  48.926  95.270  1.00  0.00     0.000 C 
BRANCH  15  16
ATOM     16  C   UNL     1       7.813  49.885  96.323  1.00  0.00     0.000 C 
BRANCH  16  17
ATOM     17  C   UNL     1       8.685  49.973  97.587  1.00  0.00     0.000 C 
BRANCH  17  18
ATOM     18  C   UNL     1       9.650  48.784  97.729  1.00  0.00     0.000 C 
BRANCH  18  19
ATOM     19  C   UNL     1      11.066  49.187  98.192  1.00  0.00     0.000 C 
BRANCH  19  20
ATOM     20  C   UNL     1      12.086  49.156  97.040  1.00  0.00     0.006 C 
BRANCH  20  21
ATOM     21  C   UNL     1      13.366  49.933  97.374  1.00  0.00     0.053 C 
BRANCH  21  22
ATOM     22  C   UNL     1      14.254  50.077  96.177  1.00  0.00     0.041 C 
ATOM     23  O   UNL     1      14.130  51.069  95.410  1.00  0.00    -0.550 OA
ATOM     24  O   UNL     1      15.192  49.096  95.884  1.00  0.00    -0.550 OA
ENDBRANCH  21  22
ENDBRANCH  20  21
ENDBRANCH  19  20
ENDBRANCH  18  19
ENDBRANCH  17  18
ENDBRANCH  16  17
ENDBRANCH  15  16
ENDBRANCH  14  15
ENDBRANCH  13  14
ENDBRANCH   1  13
TORSDOF 20
ENDMDL
