MODEL 1
REMARK VINA RESULT:    -4.012      0.000      0.000
REMARK INTER + INTRA:         -11.093
REMARK INTER:                  -8.704
REMARK INTRA:                  -2.390
REMARK UNBOUND:                -2.390
REMARK SMILES CCCCCCCCCCCCCCCCCCCCCC(=O)[O-]
REMARK SMILES IDX 12 1 11 2 10 3 9 4 8 5 7 6 6 7 5 8 4 9 3 10 2 11 1 12 13 13
REMARK SMILES IDX 14 14 15 15 16 16 17 17 18 18 19 19 20 20 21 21 22 22 23 23
REMARK SMILES IDX 24 24
REMARK H PARENT
REMARK Flexibility Score: inf
ROOT
ATOM      1  C   UNL     1      -7.512  -5.573   5.324  1.00  0.00     0.000 C 
ENDROOT
BRANCH   1   2
ATOM      2  C   UNL     1      -8.815  -6.046   4.656  1.00  0.00     0.000 C 
BRANCH   2   3
ATOM      3  C   UNL     1      -8.641  -7.356   3.873  1.00  0.00     0.000 C 
BRANCH   3   4
ATOM      4  C   UNL     1      -8.793  -8.571   4.799  1.00  0.00    -0.000 C 
BRANCH   4   5
ATOM      5  C   UNL     1      -7.630  -9.567   4.667  1.00  0.00    -0.000 C 
BRANCH   5   6
ATOM      6  C   UNL     1      -6.362  -9.098   5.397  1.00  0.00    -0.000 C 
BRANCH   6   7
ATOM      7  C   UNL     1      -5.456 -10.285   5.745  1.00  0.00    -0.000 C 
BRANCH   7   8
ATOM      8  C   UNL     1      -5.014 -11.030   4.479  1.00  0.00    -0.000 C 
BRANCH   8   9
ATOM      9  C   UNL     1      -3.486 -11.049   4.356  1.00  0.00    -0.000 C 
BRANCH   9  10
ATOM     10  C   UNL     1      -3.046 -10.764   2.912  1.00  0.00    -0.000 C 
BRANCH  10  11
ATOM     11  C   UNL     1      -2.099  -9.559   2.810  1.00  0.00    -0.003 C 
ATOM     12  C   UNL     1      -2.307  -8.547   3.936  1.00  0.00     0.004 C 
ENDBRANCH  10  11
ENDBRANCH   9  10
ENDBRANCH   8   9
ENDBRANCH   7   8
ENDBRANCH   6   7
ENDBRANCH   5   6
ENDBRANCH   4   5
ENDBRANCH   3   4
ENDBRANCH   2   3
ENDBRANCH   1   2
BRANCH   1  13
ATOM     13  C   UNL     1      -7.586  -5.422   6.857  1.00  0.00     0.000 C 
BRANCH  13  14
ATOM     14  C   UNL     1      -8.611  -4.390   7.367  1.00  0.00     0.000 C 
BRANCH  14  15
ATOM     15  C   UNL     1      -8.041  -2.989   7.659  1.00  0.00     0.000 C 
BRANCH  15  16
ATOM     16  C   UNL     1      -8.390  -1.963   6.568  1.00  0.00     0.000 C 
BRANCH  16  17
ATOM     17  C   UNL     1      -7.163  -1.178   6.068  1.00  0.00     0.000 C 
BRANCH  17  18
ATOM     18  C   UNL     1      -6.056  -2.034   5.423  1.00  0.00     0.000 C 
BRANCH  18  19
ATOM     19  C   UNL     1      -4.670  -1.781   6.034  1.00  0.00     0.000 C 
BRANCH  19  20
ATOM     20  C   UNL     1      -3.672  -2.865   5.598  1.00  0.00     0.006 C 
BRANCH  20  21
ATOM     21  C   UNL     1      -4.362  -4.198   5.284  1.00  0.00     0.053 C 
BRANCH  21  22
ATOM     22  C   UNL     1      -3.524  -5.368   5.702  1.00  0.00     0.041 C 
ATOM     23  O   UNL     1      -2.270  -5.321   5.593  1.00  0.00    -0.550 OA
ATOM     24  O   UNL     1      -4.127  -6.497   6.243  1.00  0.00    -0.550 OA
ENDBRANCH  21  22
ENDBRANCH  20  21
ENDBRANCH  19  20
ENDBRANCH  18  19
ENDBRANCH  17  18
ENDBRANCH  16  17
ENDBRANCH  15  16
ENDBRANCH  14  15
ENDBRANCH  13  14
ENDBRANCH   1  13
TORSDOF 20
ENDMDL
MODEL 2
REMARK VINA RESULT:    -3.992      1.756      6.111
REMARK INTER + INTRA:         -11.048
REMARK INTER:                  -7.602
REMARK INTRA:                  -3.446
REMARK UNBOUND:                -2.390
REMARK SMILES CCCCCCCCCCCCCCCCCCCCCC(=O)[O-]
REMARK SMILES IDX 12 1 11 2 10 3 9 4 8 5 7 6 6 7 5 8 4 9 3 10 2 11 1 12 13 13
REMARK SMILES IDX 14 14 15 15 16 16 17 17 18 18 19 19 20 20 21 21 22 22 23 23
REMARK SMILES IDX 24 24
REMARK H PARENT
REMARK Flexibility Score: inf
ROOT
ATOM      1  C   UNL     1      -3.498  -3.209   5.681  1.00  0.00     0.000 C 
ENDROOT
BRANCH   1   2
ATOM      2  C   UNL     1      -4.893  -3.032   5.056  1.00  0.00     0.000 C 
BRANCH   2   3
ATOM      3  C   UNL     1      -5.621  -1.780   5.567  1.00  0.00     0.000 C 
BRANCH   3   4
ATOM      4  C   UNL     1      -6.627  -2.144   6.670  1.00  0.00    -0.000 C 
BRANCH   4   5
ATOM      5  C   UNL     1      -7.797  -2.994   6.148  1.00  0.00    -0.000 C 
BRANCH   5   6
ATOM      6  C   UNL     1      -8.277  -4.032   7.173  1.00  0.00    -0.000 C 
BRANCH   6   7
ATOM      7  C   UNL     1      -8.703  -5.333   6.480  1.00  0.00    -0.000 C 
BRANCH   7   8
ATOM      8  C   UNL     1      -7.959  -5.518   5.152  1.00  0.00    -0.000 C 
BRANCH   8   9
ATOM      9  C   UNL     1      -8.469  -6.755   4.402  1.00  0.00    -0.000 C 
BRANCH   9  10
ATOM     10  C   UNL     1      -9.086  -7.771   5.374  1.00  0.00    -0.000 C 
BRANCH  10  11
ATOM     11  C   UNL     1      -8.551  -9.195   5.158  1.00  0.00    -0.003 C 
ATOM     12  C   UNL     1      -8.427  -9.561   3.679  1.00  0.00     0.004 C 
ENDBRANCH  10  11
ENDBRANCH   9  10
ENDBRANCH   8   9
ENDBRANCH   7   8
ENDBRANCH   6   7
ENDBRANCH   5   6
ENDBRANCH   4   5
ENDBRANCH   3   4
ENDBRANCH   2   3
ENDBRANCH   1   2
BRANCH   1  13
ATOM     13  C   UNL     1      -3.158  -4.649   6.115  1.00  0.00     0.000 C 
BRANCH  13  14
ATOM     14  C   UNL     1      -4.371  -5.582   6.302  1.00  0.00     0.000 C 
BRANCH  14  15
ATOM     15  C   UNL     1      -4.835  -5.771   7.758  1.00  0.00     0.000 C 
BRANCH  15  16
ATOM     16  C   UNL     1      -5.797  -6.959   7.931  1.00  0.00     0.000 C 
BRANCH  16  17
ATOM     17  C   UNL     1      -5.659  -8.010   6.814  1.00  0.00     0.000 C 
BRANCH  17  18
ATOM     18  C   UNL     1      -5.230  -9.413   7.284  1.00  0.00     0.000 C 
BRANCH  18  19
ATOM     19  C   UNL     1      -5.106 -10.420   6.131  1.00  0.00     0.000 C 
BRANCH  19  20
ATOM     20  C   UNL     1      -4.733  -9.711   4.820  1.00  0.00     0.006 C 
BRANCH  20  21
ATOM     21  C   UNL     1      -3.519 -10.354   4.137  1.00  0.00     0.053 C 
BRANCH  21  22
ATOM     22  C   UNL     1      -2.545  -9.323   3.653  1.00  0.00     0.041 C 
ATOM     23  O   UNL     1      -2.024  -8.512   4.463  1.00  0.00    -0.550 OA
ATOM     24  O   UNL     1      -2.189  -9.280   2.311  1.00  0.00    -0.550 OA
ENDBRANCH  21  22
ENDBRANCH  20  21
ENDBRANCH  19  20
ENDBRANCH  18  19
ENDBRANCH  17  18
ENDBRANCH  16  17
ENDBRANCH  15  16
ENDBRANCH  14  15
ENDBRANCH  13  14
ENDBRANCH   1  13
TORSDOF 20
ENDMDL
MODEL 3
REMARK VINA RESULT:    -3.888      1.801      7.116
REMARK INTER + INTRA:         -10.824
REMARK INTER:                  -8.032
REMARK INTRA:                  -2.792
REMARK UNBOUND:                -2.390
REMARK SMILES CCCCCCCCCCCCCCCCCCCCCC(=O)[O-]
REMARK SMILES IDX 12 1 11 2 10 3 9 4 8 5 7 6 6 7 5 8 4 9 3 10 2 11 1 12 13 13
REMARK SMILES IDX 14 14 15 15 16 16 17 17 18 18 19 19 20 20 21 21 22 22 23 23
REMARK SMILES IDX 24 24
REMARK H PARENT
REMARK Flexibility Score: inf
ROOT
ATOM      1  C   UNL     1      -3.025  -4.537   6.667  1.00  0.00     0.000 C 
ENDROOT
BRANCH   1   2
ATOM      2  C   UNL     1      -2.779  -3.055   6.329  1.00  0.00     0.000 C 
BRANCH   2   3
ATOM      3  C   UNL     1      -3.875  -2.129   6.876  1.00  0.00     0.000 C 
BRANCH   3   4
ATOM      4  C   UNL     1      -4.867  -1.743   5.768  1.00  0.00    -0.000 C 
BRANCH   4   5
ATOM      5  C   UNL     1      -5.612  -0.433   6.069  1.00  0.00    -0.000 C 
BRANCH   5   6
ATOM      6  C   UNL     1      -7.059  -0.666   6.528  1.00  0.00    -0.000 C 
BRANCH   6   7
ATOM      7  C   UNL     1      -7.497  -2.110   6.255  1.00  0.00    -0.000 C 
BRANCH   7   8
ATOM      8  C   UNL     1      -7.914  -2.813   7.552  1.00  0.00    -0.000 C 
BRANCH   8   9
ATOM      9  C   UNL     1      -9.165  -3.674   7.335  1.00  0.00    -0.000 C 
BRANCH   9  10
ATOM     10  C   UNL     1      -9.251  -4.162   5.880  1.00  0.00    -0.000 C 
BRANCH  10  11
ATOM     11  C   UNL     1      -9.137  -5.690   5.762  1.00  0.00    -0.003 C 
ATOM     12  C   UNL     1      -8.727  -6.145   4.362  1.00  0.00     0.004 C 
ENDBRANCH  10  11
ENDBRANCH   9  10
ENDBRANCH   8   9
ENDBRANCH   7   8
ENDBRANCH   6   7
ENDBRANCH   5   6
ENDBRANCH   4   5
ENDBRANCH   3   4
ENDBRANCH   2   3
ENDBRANCH   1   2
BRANCH   1  13
ATOM     13  C   UNL     1      -3.950  -5.281   5.683  1.00  0.00     0.000 C 
BRANCH  13  14
ATOM     14  C   UNL     1      -5.425  -5.386   6.120  1.00  0.00     0.000 C 
BRANCH  14  15
ATOM     15  C   UNL     1      -5.647  -5.780   7.592  1.00  0.00     0.000 C 
BRANCH  15  16
ATOM     16  C   UNL     1      -5.706  -7.303   7.802  1.00  0.00     0.000 C 
BRANCH  16  17
ATOM     17  C   UNL     1      -6.634  -8.011   6.798  1.00  0.00     0.000 C 
BRANCH  17  18
ATOM     18  C   UNL     1      -6.374  -9.519   6.616  1.00  0.00     0.000 C 
BRANCH  18  19
ATOM     19  C   UNL     1      -5.772  -9.863   5.246  1.00  0.00     0.000 C 
BRANCH  19  20
ATOM     20  C   UNL     1      -4.245  -9.694   5.260  1.00  0.00     0.006 C 
BRANCH  20  21
ATOM     21  C   UNL     1      -3.598 -10.155   3.948  1.00  0.00     0.053 C 
BRANCH  21  22
ATOM     22  C   UNL     1      -2.459  -9.266   3.549  1.00  0.00     0.041 C 
ATOM     23  O   UNL     1      -1.940  -8.484   4.389  1.00  0.00    -0.550 OA
ATOM     24  O   UNL     1      -1.950  -9.326   2.258  1.00  0.00    -0.550 OA
ENDBRANCH  21  22
ENDBRANCH  20  21
ENDBRANCH  19  20
ENDBRANCH  18  19
ENDBRANCH  17  18
ENDBRANCH  16  17
ENDBRANCH  15  16
ENDBRANCH  14  15
ENDBRANCH  13  14
ENDBRANCH   1  13
TORSDOF 20
ENDMDL
MODEL 4
REMARK VINA RESULT:    -3.849      1.638      2.763
REMARK INTER + INTRA:         -10.739
REMARK INTER:                  -8.788
REMARK INTRA:                  -1.951
REMARK UNBOUND:                -2.390
REMARK SMILES CCCCCCCCCCCCCCCCCCCCCC(=O)[O-]
REMARK SMILES IDX 12 1 11 2 10 3 9 4 8 5 7 6 6 7 5 8 4 9 3 10 2 11 1 12 13 13
REMARK SMILES IDX 14 14 15 15 16 16 17 17 18 18 19 19 20 20 21 21 22 22 23 23
REMARK SMILES IDX 24 24
REMARK H PARENT
REMARK Flexibility Score: inf
ROOT
ATOM      1  C   UNL     1      -5.887  -5.879   6.939  1.00  0.00     0.000 C 
ENDROOT
BRANCH   1   2
ATOM      2  C   UNL     1      -5.018  -7.114   6.638  1.00  0.00     0.000 C 
BRANCH   2   3
ATOM      3  C   UNL     1      -5.732  -8.436   6.957  1.00  0.00     0.000 C 
BRANCH   3   4
ATOM      4  C   UNL     1      -5.690  -9.385   5.751  1.00  0.00    -0.000 C 
BRANCH   4   5
ATOM      5  C   UNL     1      -4.580 -10.442   5.865  1.00  0.00    -0.000 C 
BRANCH   5   6
ATOM      6  C   UNL     1      -3.787 -10.611   4.560  1.00  0.00    -0.000 C 
BRANCH   6   7
ATOM      7  C   UNL     1      -3.201  -9.273   4.095  1.00  0.00    -0.000 C 
BRANCH   7   8
ATOM      8  C   UNL     1      -1.993  -9.491   3.176  1.00  0.00    -0.000 C 
BRANCH   8   9
ATOM      9  C   UNL     1      -2.061 -10.861   2.490  1.00  0.00    -0.000 C 
BRANCH   9  10
ATOM     10  C   UNL     1      -1.026 -10.963   1.360  1.00  0.00    -0.000 C 
BRANCH  10  11
ATOM     11  C   UNL     1      -1.445 -10.183   0.104  1.00  0.00    -0.003 C 
ATOM     12  C   UNL     1      -2.773 -10.666  -0.476  1.00  0.00     0.004 C 
ENDBRANCH  10  11
ENDBRANCH   9  10
ENDBRANCH   8   9
ENDBRANCH   7   8
ENDBRANCH   6   7
ENDBRANCH   5   6
ENDBRANCH   4   5
ENDBRANCH   3   4
ENDBRANCH   2   3
ENDBRANCH   1   2
BRANCH   1  13
ATOM     13  C   UNL     1      -6.984  -5.587   5.897  1.00  0.00     0.000 C 
BRANCH  13  14
ATOM     14  C   UNL     1      -7.181  -4.098   5.548  1.00  0.00     0.000 C 
BRANCH  14  15
ATOM     15  C   UNL     1      -7.578  -3.195   6.730  1.00  0.00     0.000 C 
BRANCH  15  16
ATOM     16  C   UNL     1      -8.132  -1.832   6.281  1.00  0.00     0.000 C 
BRANCH  16  17
ATOM     17  C   UNL     1      -7.282  -0.646   6.774  1.00  0.00     0.000 C 
BRANCH  17  18
ATOM     18  C   UNL     1      -5.798  -0.686   6.359  1.00  0.00     0.000 C 
BRANCH  18  19
ATOM     19  C   UNL     1      -4.848  -0.889   7.549  1.00  0.00     0.000 C 
BRANCH  19  20
ATOM     20  C   UNL     1      -4.050  -2.193   7.398  1.00  0.00     0.006 C 
BRANCH  20  21
ATOM     21  C   UNL     1      -3.775  -2.539   5.929  1.00  0.00     0.053 C 
BRANCH  21  22
ATOM     22  C   UNL     1      -2.511  -3.328   5.772  1.00  0.00     0.041 C 
ATOM     23  O   UNL     1      -1.406  -2.738   5.646  1.00  0.00    -0.550 OA
ATOM     24  O   UNL     1      -2.550  -4.717   5.800  1.00  0.00    -0.550 OA
ENDBRANCH  21  22
ENDBRANCH  20  21
ENDBRANCH  19  20
ENDBRANCH  18  19
ENDBRANCH  17  18
ENDBRANCH  16  17
ENDBRANCH  15  16
ENDBRANCH  14  15
ENDBRANCH  13  14
ENDBRANCH   1  13
TORSDOF 20
ENDMDL
MODEL 5
REMARK VINA RESULT:    -3.837      1.631      7.235
REMARK INTER + INTRA:         -10.714
REMARK INTER:                  -8.216
REMARK INTRA:                  -2.497
REMARK UNBOUND:                -2.390
REMARK SMILES CCCCCCCCCCCCCCCCCCCCCC(=O)[O-]
REMARK SMILES IDX 12 1 11 2 10 3 9 4 8 5 7 6 6 7 5 8 4 9 3 10 2 11 1 12 13 13
REMARK SMILES IDX 14 14 15 15 16 16 17 17 18 18 19 19 20 20 21 21 22 22 23 23
REMARK SMILES IDX 24 24
REMARK H PARENT
REMARK Flexibility Score: inf
ROOT
ATOM      1  C   UNL     1      -6.344  -5.684   6.148  1.00  0.00     0.000 C 
ENDROOT
BRANCH   1   2
ATOM      2  C   UNL     1      -4.960  -5.900   6.786  1.00  0.00     0.000 C 
BRANCH   2   3
ATOM      3  C   UNL     1      -3.806  -5.480   5.863  1.00  0.00     0.000 C 
BRANCH   3   4
ATOM      4  C   UNL     1      -2.918  -4.427   6.543  1.00  0.00    -0.000 C 
BRANCH   4   5
ATOM      5  C   UNL     1      -3.033  -3.041   5.889  1.00  0.00    -0.000 C 
BRANCH   5   6
ATOM      6  C   UNL     1      -4.103  -2.161   6.550  1.00  0.00    -0.000 C 
BRANCH   6   7
ATOM      7  C   UNL     1      -5.385  -2.128   5.710  1.00  0.00    -0.000 C 
BRANCH   7   8
ATOM      8  C   UNL     1      -6.101  -0.779   5.849  1.00  0.00    -0.000 C 
BRANCH   8   9
ATOM      9  C   UNL     1      -7.145  -0.822   6.972  1.00  0.00    -0.000 C 
BRANCH   9  10
ATOM     10  C   UNL     1      -7.642  -2.256   7.206  1.00  0.00    -0.000 C 
BRANCH  10  11
ATOM     11  C   UNL     1      -8.733  -2.673   6.207  1.00  0.00    -0.003 C 
ATOM     12  C   UNL     1     -10.123  -2.185   6.613  1.00  0.00     0.004 C 
ENDBRANCH  10  11
ENDBRANCH   9  10
ENDBRANCH   8   9
ENDBRANCH   7   8
ENDBRANCH   6   7
ENDBRANCH   5   6
ENDBRANCH   4   5
ENDBRANCH   3   4
ENDBRANCH   2   3
ENDBRANCH   1   2
BRANCH   1  13
ATOM     13  C   UNL     1      -7.522  -6.303   6.926  1.00  0.00     0.000 C 
BRANCH  13  14
ATOM     14  C   UNL     1      -8.763  -6.646   6.078  1.00  0.00     0.000 C 
BRANCH  14  15
ATOM     15  C   UNL     1      -8.538  -6.641   4.555  1.00  0.00     0.000 C 
BRANCH  15  16
ATOM     16  C   UNL     1      -8.374  -8.054   3.969  1.00  0.00     0.000 C 
BRANCH  16  17
ATOM     17  C   UNL     1      -7.992  -9.102   5.030  1.00  0.00     0.000 C 
BRANCH  17  18
ATOM     18  C   UNL     1      -6.641  -9.806   4.799  1.00  0.00     0.000 C 
BRANCH  18  19
ATOM     19  C   UNL     1      -5.525  -9.277   5.712  1.00  0.00     0.000 C 
BRANCH  19  20
ATOM     20  C   UNL     1      -4.228 -10.075   5.512  1.00  0.00     0.006 C 
BRANCH  20  21
ATOM     21  C   UNL     1      -3.848 -10.204   4.032  1.00  0.00     0.053 C 
BRANCH  21  22
ATOM     22  C   UNL     1      -2.623  -9.406   3.702  1.00  0.00     0.041 C 
ATOM     23  O   UNL     1      -1.949  -9.674   2.672  1.00  0.00    -0.550 OA
ATOM     24  O   UNL     1      -2.246  -8.344   4.514  1.00  0.00    -0.550 OA
ENDBRANCH  21  22
ENDBRANCH  20  21
ENDBRANCH  19  20
ENDBRANCH  18  19
ENDBRANCH  17  18
ENDBRANCH  16  17
ENDBRANCH  15  16
ENDBRANCH  14  15
ENDBRANCH  13  14
ENDBRANCH   1  13
TORSDOF 20
ENDMDL
MODEL 6
REMARK VINA RESULT:    -3.713      2.176      3.990
REMARK INTER + INTRA:         -10.443
REMARK INTER:                  -8.154
REMARK INTRA:                  -2.289
REMARK UNBOUND:                -2.390
REMARK SMILES CCCCCCCCCCCCCCCCCCCCCC(=O)[O-]
REMARK SMILES IDX 12 1 11 2 10 3 9 4 8 5 7 6 6 7 5 8 4 9 3 10 2 11 1 12 13 13
REMARK SMILES IDX 14 14 15 15 16 16 17 17 18 18 19 19 20 20 21 21 22 22 23 23
REMARK SMILES IDX 24 24
REMARK H PARENT
REMARK Flexibility Score: inf
ROOT
ATOM      1  C   UNL     1      -5.848  -4.556   5.497  1.00  0.00     0.000 C 
ENDROOT
BRANCH   1   2
ATOM      2  C   UNL     1      -5.663  -4.905   6.985  1.00  0.00     0.000 C 
BRANCH   2   3
ATOM      3  C   UNL     1      -5.076  -6.308   7.200  1.00  0.00     0.000 C 
BRANCH   3   4
ATOM      4  C   UNL     1      -5.738  -7.328   6.260  1.00  0.00    -0.000 C 
BRANCH   4   5
ATOM      5  C   UNL     1      -5.103  -8.724   6.358  1.00  0.00    -0.000 C 
BRANCH   5   6
ATOM      6  C   UNL     1      -5.425  -9.608   5.145  1.00  0.00    -0.000 C 
BRANCH   6   7
ATOM      7  C   UNL     1      -4.142 -10.097   4.464  1.00  0.00    -0.000 C 
BRANCH   7   8
ATOM      8  C   UNL     1      -3.108  -8.969   4.363  1.00  0.00    -0.000 C 
BRANCH   8   9
ATOM      9  C   UNL     1      -2.057  -9.277   3.290  1.00  0.00    -0.000 C 
BRANCH   9  10
ATOM     10  C   UNL     1      -2.441 -10.530   2.488  1.00  0.00    -0.000 C 
BRANCH  10  11
ATOM     11  C   UNL     1      -1.438 -10.845   1.367  1.00  0.00    -0.003 C 
ATOM     12  C   UNL     1      -1.946 -10.432  -0.013  1.00  0.00     0.004 C 
ENDBRANCH  10  11
ENDBRANCH   9  10
ENDBRANCH   8   9
ENDBRANCH   7   8
ENDBRANCH   6   7
ENDBRANCH   5   6
ENDBRANCH   4   5
ENDBRANCH   3   4
ENDBRANCH   2   3
ENDBRANCH   1   2
BRANCH   1  13
ATOM     13  C   UNL     1      -4.733  -3.679   4.893  1.00  0.00     0.000 C 
BRANCH  13  14
ATOM     14  C   UNL     1      -4.272  -2.502   5.775  1.00  0.00     0.000 C 
BRANCH  14  15
ATOM     15  C   UNL     1      -5.238  -1.303   5.825  1.00  0.00     0.000 C 
BRANCH  15  16
ATOM     16  C   UNL     1      -5.979  -1.187   7.168  1.00  0.00     0.000 C 
BRANCH  16  17
ATOM     17  C   UNL     1      -7.486  -0.918   7.001  1.00  0.00     0.000 C 
BRANCH  17  18
ATOM     18  C   UNL     1      -8.232  -1.912   6.089  1.00  0.00     0.000 C 
BRANCH  18  19
ATOM     19  C   UNL     1      -9.201  -2.821   6.859  1.00  0.00     0.000 C 
BRANCH  19  20
ATOM     20  C   UNL     1      -9.687  -3.979   5.974  1.00  0.00     0.006 C 
BRANCH  20  21
ATOM     21  C   UNL     1      -9.339  -5.349   6.568  1.00  0.00     0.053 C 
BRANCH  21  22
ATOM     22  C   UNL     1      -9.194  -6.394   5.503  1.00  0.00     0.041 C 
ATOM     23  O   UNL     1      -9.454  -7.600   5.758  1.00  0.00    -0.550 OA
ATOM     24  O   UNL     1      -8.805  -6.030   4.220  1.00  0.00    -0.550 OA
ENDBRANCH  21  22
ENDBRANCH  20  21
ENDBRANCH  19  20
ENDBRANCH  18  19
ENDBRANCH  17  18
ENDBRANCH  16  17
ENDBRANCH  15  16
ENDBRANCH  14  15
ENDBRANCH  13  14
ENDBRANCH   1  13
TORSDOF 20
ENDMDL
MODEL 7
REMARK VINA RESULT:    -3.612      6.189     10.157
REMARK INTER + INTRA:         -10.225
REMARK INTER:                  -9.218
REMARK INTRA:                  -1.007
REMARK UNBOUND:                -2.390
REMARK SMILES CCCCCCCCCCCCCCCCCCCCCC(=O)[O-]
REMARK SMILES IDX 12 1 11 2 10 3 9 4 8 5 7 6 6 7 5 8 4 9 3 10 2 11 1 12 13 13
REMARK SMILES IDX 14 14 15 15 16 16 17 17 18 18 19 19 20 20 21 21 22 22 23 23
REMARK SMILES IDX 24 24
REMARK H PARENT
REMARK Flexibility Score: inf
ROOT
ATOM      1  C   UNL     1      -0.777  -8.645  -0.875  1.00  0.00     0.000 C 
ENDROOT
BRANCH   1   2
ATOM      2  C   UNL     1      -0.745  -8.175  -2.341  1.00  0.00     0.000 C 
BRANCH   2   3
ATOM      3  C   UNL     1      -0.729  -6.645  -2.475  1.00  0.00     0.000 C 
BRANCH   3   4
ATOM      4  C   UNL     1       0.377  -6.031  -1.603  1.00  0.00    -0.000 C 
BRANCH   4   5
ATOM      5  C   UNL     1       0.787  -4.625  -2.068  1.00  0.00    -0.000 C 
BRANCH   5   6
ATOM      6  C   UNL     1       0.501  -3.546  -1.013  1.00  0.00    -0.000 C 
BRANCH   6   7
ATOM      7  C   UNL     1       0.521  -2.146  -1.639  1.00  0.00    -0.000 C 
BRANCH   7   8
ATOM      8  C   UNL     1       1.258  -2.154  -2.983  1.00  0.00    -0.000 C 
BRANCH   8   9
ATOM      9  C   UNL     1       2.713  -1.700  -2.817  1.00  0.00    -0.000 C 
BRANCH   9  10
ATOM     10  C   UNL     1       2.799  -0.435  -1.950  1.00  0.00    -0.000 C 
BRANCH  10  11
ATOM     11  C   UNL     1       4.064  -0.402  -1.078  1.00  0.00    -0.003 C 
ATOM     12  C   UNL     1       5.345  -0.592  -1.889  1.00  0.00     0.004 C 
ENDBRANCH  10  11
ENDBRANCH   9  10
ENDBRANCH   8   9
ENDBRANCH   7   8
ENDBRANCH   6   7
ENDBRANCH   5   6
ENDBRANCH   4   5
ENDBRANCH   3   4
ENDBRANCH   2   3
ENDBRANCH   1   2
BRANCH   1  13
ATOM     13  C   UNL     1      -1.792  -9.766  -0.575  1.00  0.00     0.000 C 
BRANCH  13  14
ATOM     14  C   UNL     1      -1.398 -10.721   0.569  1.00  0.00     0.000 C 
BRANCH  14  15
ATOM     15  C   UNL     1      -2.252 -10.604   1.845  1.00  0.00     0.000 C 
BRANCH  15  16
ATOM     16  C   UNL     1      -1.955  -9.326   2.648  1.00  0.00     0.000 C 
BRANCH  16  17
ATOM     17  C   UNL     1      -2.690  -9.282   4.000  1.00  0.00     0.000 C 
BRANCH  17  18
ATOM     18  C   UNL     1      -3.780 -10.355   4.189  1.00  0.00     0.000 C 
BRANCH  18  19
ATOM     19  C   UNL     1      -5.054  -9.806   4.848  1.00  0.00     0.000 C 
BRANCH  19  20
ATOM     20  C   UNL     1      -4.710  -8.793   5.951  1.00  0.00     0.006 C 
BRANCH  20  21
ATOM     21  C   UNL     1      -5.959  -8.261   6.662  1.00  0.00     0.053 C 
BRANCH  21  22
ATOM     22  C   UNL     1      -5.823  -6.810   7.012  1.00  0.00     0.041 C 
ATOM     23  O   UNL     1      -6.762  -6.007   6.766  1.00  0.00    -0.550 OA
ATOM     24  O   UNL     1      -4.672  -6.352   7.640  1.00  0.00    -0.550 OA
ENDBRANCH  21  22
ENDBRANCH  20  21
ENDBRANCH  19  20
ENDBRANCH  18  19
ENDBRANCH  17  18
ENDBRANCH  16  17
ENDBRANCH  15  16
ENDBRANCH  14  15
ENDBRANCH  13  14
ENDBRANCH   1  13
TORSDOF 20
ENDMDL
MODEL 8
REMARK VINA RESULT:    -3.539      2.046      4.297
REMARK INTER + INTRA:         -10.066
REMARK INTER:                  -7.201
REMARK INTRA:                  -2.865
REMARK UNBOUND:                -2.390
REMARK SMILES CCCCCCCCCCCCCCCCCCCCCC(=O)[O-]
REMARK SMILES IDX 12 1 11 2 10 3 9 4 8 5 7 6 6 7 5 8 4 9 3 10 2 11 1 12 13 13
REMARK SMILES IDX 14 14 15 15 16 16 17 17 18 18 19 19 20 20 21 21 22 22 23 23
REMARK SMILES IDX 24 24
REMARK H PARENT
REMARK Flexibility Score: inf
ROOT
ATOM      1  C   UNL     1      -2.782  -3.478   6.272  1.00  0.00     0.000 C 
ENDROOT
BRANCH   1   2
ATOM      2  C   UNL     1      -3.502  -4.681   6.908  1.00  0.00     0.000 C 
BRANCH   2   3
ATOM      3  C   UNL     1      -3.967  -5.713   5.871  1.00  0.00     0.000 C 
BRANCH   3   4
ATOM      4  C   UNL     1      -5.396  -6.189   6.175  1.00  0.00    -0.000 C 
BRANCH   4   5
ATOM      5  C   UNL     1      -5.530  -6.806   7.577  1.00  0.00    -0.000 C 
BRANCH   5   6
ATOM      6  C   UNL     1      -6.087  -8.236   7.543  1.00  0.00    -0.000 C 
BRANCH   6   7
ATOM      7  C   UNL     1      -4.957  -9.269   7.630  1.00  0.00    -0.000 C 
BRANCH   7   8
ATOM      8  C   UNL     1      -5.079 -10.314   6.514  1.00  0.00    -0.000 C 
BRANCH   8   9
ATOM      9  C   UNL     1      -4.992  -9.657   5.131  1.00  0.00    -0.000 C 
BRANCH   9  10
ATOM     10  C   UNL     1      -3.823 -10.236   4.320  1.00  0.00    -0.000 C 
BRANCH  10  11
ATOM     11  C   UNL     1      -2.743  -9.187   4.010  1.00  0.00    -0.003 C 
ATOM     12  C   UNL     1      -2.137  -9.357   2.618  1.00  0.00     0.004 C 
ENDBRANCH  10  11
ENDBRANCH   9  10
ENDBRANCH   8   9
ENDBRANCH   7   8
ENDBRANCH   6   7
ENDBRANCH   5   6
ENDBRANCH   4   5
ENDBRANCH   3   4
ENDBRANCH   2   3
ENDBRANCH   1   2
BRANCH   1  13
ATOM     13  C   UNL     1      -3.697  -2.513   5.492  1.00  0.00     0.000 C 
BRANCH  13  14
ATOM     14  C   UNL     1      -4.735  -1.756   6.344  1.00  0.00     0.000 C 
BRANCH  14  15
ATOM     15  C   UNL     1      -6.018  -1.343   5.601  1.00  0.00     0.000 C 
BRANCH  15  16
ATOM     16  C   UNL     1      -7.189  -2.309   5.845  1.00  0.00     0.000 C 
BRANCH  16  17
ATOM     17  C   UNL     1      -7.016  -3.150   7.123  1.00  0.00     0.000 C 
BRANCH  17  18
ATOM     18  C   UNL     1      -8.187  -4.098   7.448  1.00  0.00     0.000 C 
BRANCH  18  19
ATOM     19  C   UNL     1      -9.191  -4.230   6.293  1.00  0.00     0.000 C 
BRANCH  19  20
ATOM     20  C   UNL     1      -9.377  -5.701   5.893  1.00  0.00     0.006 C 
BRANCH  20  21
ATOM     21  C   UNL     1      -8.925  -5.973   4.453  1.00  0.00     0.053 C 
BRANCH  21  22
ATOM     22  C   UNL     1      -8.675  -7.431   4.216  1.00  0.00     0.041 C 
ATOM     23  O   UNL     1      -8.441  -8.200   5.186  1.00  0.00    -0.550 OA
ATOM     24  O   UNL     1      -8.734  -7.946   2.928  1.00  0.00    -0.550 OA
ENDBRANCH  21  22
ENDBRANCH  20  21
ENDBRANCH  19  20
ENDBRANCH  18  19
ENDBRANCH  17  18
ENDBRANCH  16  17
ENDBRANCH  15  16
ENDBRANCH  14  15
ENDBRANCH  13  14
ENDBRANCH   1  13
TORSDOF 20
ENDMDL
MODEL 9
REMARK VINA RESULT:    -3.241      2.160      7.322
REMARK INTER + INTRA:          -9.419
REMARK INTER:                  -6.347
REMARK INTRA:                  -3.073
REMARK UNBOUND:                -2.390
REMARK SMILES CCCCCCCCCCCCCCCCCCCCCC(=O)[O-]
REMARK SMILES IDX 12 1 11 2 10 3 9 4 8 5 7 6 6 7 5 8 4 9 3 10 2 11 1 12 13 13
REMARK SMILES IDX 14 14 15 15 16 16 17 17 18 18 19 19 20 20 21 21 22 22 23 23
REMARK SMILES IDX 24 24
REMARK H PARENT
REMARK Flexibility Score: inf
ROOT
ATOM      1  C   UNL     1      -5.902  -5.380   6.169  1.00  0.00     0.000 C 
ENDROOT
BRANCH   1   2
ATOM      2  C   UNL     1      -6.015  -4.115   5.298  1.00  0.00     0.000 C 
BRANCH   2   3
ATOM      3  C   UNL     1      -4.653  -3.616   4.793  1.00  0.00     0.000 C 
BRANCH   3   4
ATOM      4  C   UNL     1      -3.528  -4.033   5.752  1.00  0.00    -0.000 C 
BRANCH   4   5
ATOM      5  C   UNL     1      -2.989  -2.856   6.581  1.00  0.00    -0.000 C 
BRANCH   5   6
ATOM      6  C   UNL     1      -3.820  -2.594   7.846  1.00  0.00    -0.000 C 
BRANCH   6   7
ATOM      7  C   UNL     1      -4.160  -1.105   7.982  1.00  0.00    -0.000 C 
BRANCH   7   8
ATOM      8  C   UNL     1      -5.423  -0.754   7.187  1.00  0.00    -0.000 C 
BRANCH   8   9
ATOM      9  C   UNL     1      -6.647  -1.494   7.741  1.00  0.00    -0.000 C 
BRANCH   9  10
ATOM     10  C   UNL     1      -7.845  -1.367   6.788  1.00  0.00    -0.000 C 
BRANCH  10  11
ATOM     11  C   UNL     1      -9.011  -2.287   7.179  1.00  0.00    -0.003 C 
ATOM     12  C   UNL     1      -9.678  -2.942   5.970  1.00  0.00     0.004 C 
ENDBRANCH  10  11
ENDBRANCH   9  10
ENDBRANCH   8   9
ENDBRANCH   7   8
ENDBRANCH   6   7
ENDBRANCH   5   6
ENDBRANCH   4   5
ENDBRANCH   3   4
ENDBRANCH   2   3
ENDBRANCH   1   2
BRANCH   1  13
ATOM     13  C   UNL     1      -6.371  -5.207   7.627  1.00  0.00     0.000 C 
BRANCH  13  14
ATOM     14  C   UNL     1      -7.826  -5.637   7.905  1.00  0.00     0.000 C 
BRANCH  14  15
ATOM     15  C   UNL     1      -8.518  -6.390   6.754  1.00  0.00     0.000 C 
BRANCH  15  16
ATOM     16  C   UNL     1      -8.854  -7.849   7.110  1.00  0.00     0.000 C 
BRANCH  16  17
ATOM     17  C   UNL     1      -9.444  -8.635   5.925  1.00  0.00     0.000 C 
BRANCH  17  18
ATOM     18  C   UNL     1      -8.822 -10.024   5.685  1.00  0.00     0.000 C 
BRANCH  18  19
ATOM     19  C   UNL     1      -7.980 -10.091   4.401  1.00  0.00     0.000 C 
BRANCH  19  20
ATOM     20  C   UNL     1      -6.502 -10.351   4.727  1.00  0.00     0.006 C 
BRANCH  20  21
ATOM     21  C   UNL     1      -5.822  -9.129   5.358  1.00  0.00     0.053 C 
BRANCH  21  22
ATOM     22  C   UNL     1      -4.470  -9.468   5.906  1.00  0.00     0.041 C 
ATOM     23  O   UNL     1      -4.338  -9.786   7.117  1.00  0.00    -0.550 OA
ATOM     24  O   UNL     1      -3.360  -9.465   5.070  1.00  0.00    -0.550 OA
ENDBRANCH  21  22
ENDBRANCH  20  21
ENDBRANCH  19  20
ENDBRANCH  18  19
ENDBRANCH  17  18
ENDBRANCH  16  17
ENDBRANCH  15  16
ENDBRANCH  14  15
ENDBRANCH  13  14
ENDBRANCH   1  13
TORSDOF 20
ENDMDL
