MODEL 1
REMARK VINA RESULT:    -7.410      0.000      0.000
REMARK INTER + INTRA:          -9.159
REMARK INTER:                  -8.927
REMARK INTRA:                  -0.232
REMARK UNBOUND:                -0.232
REMARK SMILES O=c1c(O)c(-c2ccc(O)c(O)c2)oc2cc(O)cc(O)c12
REMARK SMILES IDX 5 1 3 2 2 3 1 4 22 5 20 6 19 7 17 8 16 9 15 10 14 11 6 12
REMARK SMILES IDX 7 13 8 14 9 15 13 16 11 17 10 18 12 20 4 22 21 24 18 26
REMARK H PARENT 10 19 12 21 4 23 21 25 18 27
REMARK Flexibility Score: inf
ROOT
ATOM      1  C   UNL     1     -18.237  32.509 -23.874  1.00  0.00     0.180 A 
ATOM      2  C   UNL     1     -17.866  33.865 -23.839  1.00  0.00     0.208 A 
ATOM      3  C   UNL     1     -18.820  34.822 -23.458  1.00  0.00     0.238 A 
ATOM      4  O   UNL     1     -18.466  36.027 -23.376  1.00  0.00    -0.285 OA
ATOM      5  C   UNL     1     -20.136  34.415 -23.135  1.00  0.00     0.111 A 
ATOM      6  C   UNL     1     -21.194  35.303 -22.776  1.00  0.00     0.134 A 
ATOM      7  C   UNL     1     -22.420  34.779 -22.349  1.00  0.00     0.093 A 
ATOM      8  C   UNL     1     -22.650  33.404 -22.330  1.00  0.00     0.123 A 
ATOM      9  C   UNL     1     -21.642  32.529 -22.736  1.00  0.00     0.094 A 
ATOM     10  C   UNL     1     -20.395  33.020 -23.133  1.00  0.00     0.146 A 
ATOM     11  O   UNL     1     -19.461  32.152 -23.502  1.00  0.00    -0.452 OA
ENDROOT
BRANCH   1  12
ATOM     12  C   UNL     1     -17.294  31.445 -24.288  1.00  0.00     0.025 A 
ATOM     13  C   UNL     1     -17.432  30.854 -25.554  1.00  0.00     0.016 A 
ATOM     14  C   UNL     1     -16.541  29.863 -25.973  1.00  0.00     0.051 A 
ATOM     15  C   UNL     1     -15.489  29.460 -25.140  1.00  0.00     0.157 A 
ATOM     16  C   UNL     1     -16.224  31.053 -23.463  1.00  0.00     0.062 A 
ATOM     17  C   UNL     1     -15.329  30.062 -23.881  1.00  0.00     0.158 A 
BRANCH  15  18
ATOM     18  O   UNL     1     -14.602  28.470 -25.560  1.00  0.00    -0.504 OA
ATOM     19  H   UNL     1     -14.060  27.926 -24.897  1.00  0.00     0.293 HD
ENDBRANCH  15  18
BRANCH  17  20
ATOM     20  O   UNL     1     -14.283  29.694 -23.035  1.00  0.00    -0.504 OA
ATOM     21  H   UNL     1     -14.270  29.945 -22.054  1.00  0.00     0.293 HD
ENDBRANCH  17  20
ENDBRANCH   1  12
BRANCH   2  22
ATOM     22  O   UNL     1     -16.554  34.243 -24.140  1.00  0.00    -0.502 OA
ATOM     23  H   UNL     1     -16.157  34.137 -25.066  1.00  0.00     0.293 HD
ENDBRANCH   2  22
BRANCH   6  24
ATOM     24  O   UNL     1     -21.102  36.696 -22.847  1.00  0.00    -0.507 OA
ATOM     25  H   UNL     1     -20.493  37.200 -23.473  1.00  0.00     0.293 HD
ENDBRANCH   6  24
BRANCH   8  26
ATOM     26  O   UNL     1     -23.887  32.918 -21.915  1.00  0.00    -0.508 OA
ATOM     27  H   UNL     1     -24.304  32.097 -22.338  1.00  0.00     0.293 HD
ENDBRANCH   8  26
TORSDOF 6
ENDMDL
MODEL 2
REMARK VINA RESULT:    -7.395      1.348      2.939
REMARK INTER + INTRA:          -9.140
REMARK INTER:                  -8.838
REMARK INTRA:                  -0.302
REMARK UNBOUND:                -0.232
REMARK SMILES O=c1c(O)c(-c2ccc(O)c(O)c2)oc2cc(O)cc(O)c12
REMARK SMILES IDX 5 1 3 2 2 3 1 4 22 5 20 6 19 7 17 8 16 9 15 10 14 11 6 12
REMARK SMILES IDX 7 13 8 14 9 15 13 16 11 17 10 18 12 20 4 22 21 24 18 26
REMARK H PARENT 10 19 12 21 4 23 21 25 18 27
REMARK Flexibility Score: inf
ROOT
ATOM      1  C   UNL     1     -18.546  31.406 -24.343  1.00  0.00     0.180 A 
ATOM      2  C   UNL     1     -19.663  30.656 -23.934  1.00  0.00     0.208 A 
ATOM      3  C   UNL     1     -20.790  31.330 -23.436  1.00  0.00     0.238 A 
ATOM      4  O   UNL     1     -21.806  30.657 -23.123  1.00  0.00    -0.285 OA
ATOM      5  C   UNL     1     -20.780  32.742 -23.338  1.00  0.00     0.111 A 
ATOM      6  C   UNL     1     -21.851  33.525 -22.811  1.00  0.00     0.134 A 
ATOM      7  C   UNL     1     -21.785  34.922 -22.883  1.00  0.00     0.093 A 
ATOM      8  C   UNL     1     -20.663  35.565 -23.401  1.00  0.00     0.123 A 
ATOM      9  C   UNL     1     -19.585  34.810 -23.865  1.00  0.00     0.094 A 
ATOM     10  C   UNL     1     -19.636  33.414 -23.840  1.00  0.00     0.146 A 
ATOM     11  O   UNL     1     -18.593  32.733 -24.300  1.00  0.00    -0.452 OA
ENDROOT
BRANCH   1  12
ATOM     12  C   UNL     1     -17.313  30.767 -24.856  1.00  0.00     0.025 A 
ATOM     13  C   UNL     1     -17.239  30.391 -26.206  1.00  0.00     0.016 A 
ATOM     14  C   UNL     1     -16.078  29.806 -26.715  1.00  0.00     0.051 A 
ATOM     15  C   UNL     1     -14.967  29.601 -25.887  1.00  0.00     0.157 A 
ATOM     16  C   UNL     1     -16.189  30.579 -24.031  1.00  0.00     0.062 A 
ATOM     17  C   UNL     1     -15.023  29.994 -24.539  1.00  0.00     0.158 A 
BRANCH  15  18
ATOM     18  O   UNL     1     -13.810  29.015 -26.397  1.00  0.00    -0.504 OA
ATOM     19  H   UNL     1     -12.923  29.507 -26.402  1.00  0.00     0.293 HD
ENDBRANCH  15  18
BRANCH  17  20
ATOM     20  O   UNL     1     -13.929  29.817 -23.692  1.00  0.00    -0.504 OA
ATOM     21  H   UNL     1     -13.970  30.042 -22.705  1.00  0.00     0.293 HD
ENDBRANCH  17  20
ENDBRANCH   1  12
BRANCH   2  22
ATOM     22  O   UNL     1     -19.660  29.264 -24.061  1.00  0.00    -0.502 OA
ATOM     23  H   UNL     1     -19.911  28.796 -24.923  1.00  0.00     0.293 HD
ENDBRANCH   2  22
BRANCH   6  24
ATOM     24  O   UNL     1     -22.979  32.985 -22.187  1.00  0.00    -0.507 OA
ATOM     25  H   UNL     1     -23.176  31.999 -22.110  1.00  0.00     0.293 HD
ENDBRANCH   6  24
BRANCH   8  26
ATOM     26  O   UNL     1     -20.624  36.956 -23.443  1.00  0.00    -0.508 OA
ATOM     27  H   UNL     1     -21.022  37.521 -22.702  1.00  0.00     0.293 HD
ENDBRANCH   8  26
TORSDOF 6
ENDMDL
MODEL 3
REMARK VINA RESULT:    -7.306      2.432      3.720
REMARK INTER + INTRA:          -9.033
REMARK INTER:                  -8.741
REMARK INTRA:                  -0.292
REMARK UNBOUND:                -0.232
REMARK SMILES O=c1c(O)c(-c2ccc(O)c(O)c2)oc2cc(O)cc(O)c12
REMARK SMILES IDX 5 1 3 2 2 3 1 4 22 5 20 6 19 7 17 8 16 9 15 10 14 11 6 12
REMARK SMILES IDX 7 13 8 14 9 15 13 16 11 17 10 18 12 20 4 22 21 24 18 26
REMARK H PARENT 10 19 12 21 4 23 21 25 18 27
REMARK Flexibility Score: inf
ROOT
ATOM      1  C   UNL     1     -18.229  31.666 -24.594  1.00  0.00     0.180 A 
ATOM      2  C   UNL     1     -19.423  32.336 -24.914  1.00  0.00     0.208 A 
ATOM      3  C   UNL     1     -19.645  33.620 -24.389  1.00  0.00     0.238 A 
ATOM      4  O   UNL     1     -20.692  34.235 -24.723  1.00  0.00    -0.285 OA
ATOM      5  C   UNL     1     -18.680  34.210 -23.539  1.00  0.00     0.111 A 
ATOM      6  C   UNL     1     -18.820  35.489 -22.920  1.00  0.00     0.134 A 
ATOM      7  C   UNL     1     -17.745  36.030 -22.203  1.00  0.00     0.093 A 
ATOM      8  C   UNL     1     -16.562  35.314 -22.029  1.00  0.00     0.123 A 
ATOM      9  C   UNL     1     -16.436  34.039 -22.581  1.00  0.00     0.094 A 
ATOM     10  C   UNL     1     -17.478  33.486 -23.331  1.00  0.00     0.146 A 
ATOM     11  O   UNL     1     -17.314  32.274 -23.847  1.00  0.00    -0.452 OA
ENDROOT
BRANCH   1  12
ATOM     12  C   UNL     1     -17.934  30.303 -25.088  1.00  0.00     0.025 A 
ATOM     13  C   UNL     1     -17.436  30.132 -26.389  1.00  0.00     0.016 A 
ATOM     14  C   UNL     1     -17.132  28.856 -26.869  1.00  0.00     0.051 A 
ATOM     15  C   UNL     1     -17.305  27.733 -26.050  1.00  0.00     0.157 A 
ATOM     16  C   UNL     1     -18.086  29.175 -24.261  1.00  0.00     0.062 A 
ATOM     17  C   UNL     1     -17.780  27.895 -24.738  1.00  0.00     0.158 A 
BRANCH  15  18
ATOM     18  O   UNL     1     -17.001  26.460 -26.531  1.00  0.00    -0.504 OA
ATOM     19  H   UNL     1     -17.716  25.748 -26.638  1.00  0.00     0.293 HD
ENDBRANCH  15  18
BRANCH  17  20
ATOM     20  O   UNL     1     -17.949  26.799 -23.893  1.00  0.00    -0.504 OA
ATOM     21  H   UNL     1     -18.090  26.905 -22.895  1.00  0.00     0.293 HD
ENDBRANCH  17  20
ENDBRANCH   1  12
BRANCH   2  22
ATOM     22  O   UNL     1     -20.353  31.744 -25.772  1.00  0.00    -0.502 OA
ATOM     23  H   UNL     1     -20.697  32.207 -26.605  1.00  0.00     0.293 HD
ENDBRANCH   2  22
BRANCH   6  24
ATOM     24  O   UNL     1     -19.993  36.248 -22.953  1.00  0.00    -0.507 OA
ATOM     25  H   UNL     1     -20.746  36.171 -22.287  1.00  0.00     0.293 HD
ENDBRANCH   6  24
BRANCH   8  26
ATOM     26  O   UNL     1     -15.518  35.877 -21.298  1.00  0.00    -0.508 OA
ATOM     27  H   UNL     1     -14.714  36.291 -21.754  1.00  0.00     0.293 HD
ENDBRANCH   8  26
TORSDOF 6
ENDMDL
MODEL 4
REMARK VINA RESULT:    -7.204      1.879      6.960
REMARK INTER + INTRA:          -8.910
REMARK INTER:                  -8.583
REMARK INTRA:                  -0.328
REMARK UNBOUND:                -0.232
REMARK SMILES O=c1c(O)c(-c2ccc(O)c(O)c2)oc2cc(O)cc(O)c12
REMARK SMILES IDX 5 1 3 2 2 3 1 4 22 5 20 6 19 7 17 8 16 9 15 10 14 11 6 12
REMARK SMILES IDX 7 13 8 14 9 15 13 16 11 17 10 18 12 20 4 22 21 24 18 26
REMARK H PARENT 10 19 12 21 4 23 21 25 18 27
REMARK Flexibility Score: inf
ROOT
ATOM      1  C   UNL     1     -19.543  32.134 -23.503  1.00  0.00     0.180 A 
ATOM      2  C   UNL     1     -19.373  31.573 -24.781  1.00  0.00     0.208 A 
ATOM      3  C   UNL     1     -18.456  30.522 -24.946  1.00  0.00     0.238 A 
ATOM      4  O   UNL     1     -18.348  29.989 -26.081  1.00  0.00    -0.285 OA
ATOM      5  C   UNL     1     -17.709  30.058 -23.837  1.00  0.00     0.111 A 
ATOM      6  C   UNL     1     -16.723  29.027 -23.899  1.00  0.00     0.134 A 
ATOM      7  C   UNL     1     -16.140  28.559 -22.715  1.00  0.00     0.093 A 
ATOM      8  C   UNL     1     -16.456  29.126 -21.482  1.00  0.00     0.123 A 
ATOM      9  C   UNL     1     -17.375  30.174 -21.417  1.00  0.00     0.094 A 
ATOM     10  C   UNL     1     -18.000  30.640 -22.576  1.00  0.00     0.146 A 
ATOM     11  O   UNL     1     -18.875  31.633 -22.470  1.00  0.00    -0.452 OA
ENDROOT
BRANCH   1  12
ATOM     12  C   UNL     1     -20.472  33.259 -23.254  1.00  0.00     0.025 A 
ATOM     13  C   UNL     1     -21.754  32.997 -22.746  1.00  0.00     0.016 A 
ATOM     14  C   UNL     1     -22.640  34.046 -22.484  1.00  0.00     0.051 A 
ATOM     15  C   UNL     1     -22.252  35.372 -22.712  1.00  0.00     0.157 A 
ATOM     16  C   UNL     1     -20.079  34.594 -23.461  1.00  0.00     0.062 A 
ATOM     17  C   UNL     1     -20.963  35.647 -23.199  1.00  0.00     0.158 A 
BRANCH  15  18
ATOM     18  O   UNL     1     -23.138  36.417 -22.451  1.00  0.00    -0.504 OA
ATOM     19  H   UNL     1     -23.709  36.432 -21.613  1.00  0.00     0.293 HD
ENDBRANCH  15  18
BRANCH  17  20
ATOM     20  O   UNL     1     -20.541  36.957 -23.421  1.00  0.00    -0.504 OA
ATOM     21  H   UNL     1     -19.563  37.220 -23.399  1.00  0.00     0.293 HD
ENDBRANCH  17  20
ENDBRANCH   1  12
BRANCH   2  22
ATOM     22  O   UNL     1     -20.136  32.032 -25.857  1.00  0.00    -0.502 OA
ATOM     23  H   UNL     1     -21.130  32.211 -25.782  1.00  0.00     0.293 HD
ENDBRANCH   2  22
BRANCH   6  24
ATOM     24  O   UNL     1     -16.265  28.455 -25.089  1.00  0.00    -0.507 OA
ATOM     25  H   UNL     1     -16.399  28.853 -26.006  1.00  0.00     0.293 HD
ENDBRANCH   6  24
BRANCH   8  26
ATOM     26  O   UNL     1     -15.846  28.645 -20.326  1.00  0.00    -0.508 OA
ATOM     27  H   UNL     1     -15.073  27.991 -20.367  1.00  0.00     0.293 HD
ENDBRANCH   8  26
TORSDOF 6
ENDMDL
MODEL 5
REMARK VINA RESULT:    -7.139      1.930      7.377
REMARK INTER + INTRA:          -8.831
REMARK INTER:                  -8.504
REMARK INTRA:                  -0.327
REMARK UNBOUND:                -0.232
REMARK SMILES O=c1c(O)c(-c2ccc(O)c(O)c2)oc2cc(O)cc(O)c12
REMARK SMILES IDX 5 1 3 2 2 3 1 4 22 5 20 6 19 7 17 8 16 9 15 10 14 11 6 12
REMARK SMILES IDX 7 13 8 14 9 15 13 16 11 17 10 18 12 20 4 22 21 24 18 26
REMARK H PARENT 10 19 12 21 4 23 21 25 18 27
REMARK Flexibility Score: inf
ROOT
ATOM      1  C   UNL     1     -17.322  31.933 -23.062  1.00  0.00     0.180 A 
ATOM      2  C   UNL     1     -17.352  31.059 -21.960  1.00  0.00     0.208 A 
ATOM      3  C   UNL     1     -16.578  29.889 -21.998  1.00  0.00     0.238 A 
ATOM      4  O   UNL     1     -16.568  29.139 -20.987  1.00  0.00    -0.285 OA
ATOM      5  C   UNL     1     -15.797  29.597 -23.142  1.00  0.00     0.111 A 
ATOM      6  C   UNL     1     -15.007  28.420 -23.304  1.00  0.00     0.134 A 
ATOM      7  C   UNL     1     -14.172  28.297 -24.422  1.00  0.00     0.093 A 
ATOM      8  C   UNL     1     -14.147  29.277 -25.414  1.00  0.00     0.123 A 
ATOM      9  C   UNL     1     -14.961  30.404 -25.294  1.00  0.00     0.094 A 
ATOM     10  C   UNL     1     -15.778  30.572 -24.173  1.00  0.00     0.146 A 
ATOM     11  O   UNL     1     -16.529  31.663 -24.093  1.00  0.00    -0.452 OA
ENDROOT
BRANCH   1  12
ATOM     12  C   UNL     1     -18.129  33.173 -23.106  1.00  0.00     0.025 A 
ATOM     13  C   UNL     1     -17.528  34.400 -22.785  1.00  0.00     0.016 A 
ATOM     14  C   UNL     1     -18.265  35.585 -22.840  1.00  0.00     0.051 A 
ATOM     15  C   UNL     1     -19.610  35.564 -23.233  1.00  0.00     0.157 A 
ATOM     16  C   UNL     1     -19.473  33.158 -23.521  1.00  0.00     0.062 A 
ATOM     17  C   UNL     1     -20.214  34.344 -23.579  1.00  0.00     0.158 A 
BRANCH  15  18
ATOM     18  O   UNL     1     -20.344  36.748 -23.286  1.00  0.00    -0.504 OA
ATOM     19  H   UNL     1     -19.920  37.645 -23.078  1.00  0.00     0.293 HD
ENDBRANCH  15  18
BRANCH  17  20
ATOM     20  O   UNL     1     -21.546  34.291 -23.989  1.00  0.00    -0.504 OA
ATOM     21  H   UNL     1     -21.855  33.686 -24.742  1.00  0.00     0.293 HD
ENDBRANCH  17  20
ENDBRANCH   1  12
BRANCH   2  22
ATOM     22  O   UNL     1     -18.113  31.378 -20.832  1.00  0.00    -0.502 OA
ATOM     23  H   UNL     1     -18.431  32.320 -20.638  1.00  0.00     0.293 HD
ENDBRANCH   2  22
BRANCH   6  24
ATOM     24  O   UNL     1     -15.026  27.338 -22.419  1.00  0.00    -0.507 OA
ATOM     25  H   UNL     1     -15.569  27.300 -21.570  1.00  0.00     0.293 HD
ENDBRANCH   6  24
BRANCH   8  26
ATOM     26  O   UNL     1     -13.317  29.116 -26.520  1.00  0.00    -0.508 OA
ATOM     27  H   UNL     1     -12.887  28.223 -26.735  1.00  0.00     0.293 HD
ENDBRANCH   8  26
TORSDOF 6
ENDMDL
MODEL 6
REMARK VINA RESULT:    -7.046      1.674      7.102
REMARK INTER + INTRA:          -8.719
REMARK INTER:                  -8.400
REMARK INTRA:                  -0.320
REMARK UNBOUND:                -0.232
REMARK SMILES O=c1c(O)c(-c2ccc(O)c(O)c2)oc2cc(O)cc(O)c12
REMARK SMILES IDX 5 1 3 2 2 3 1 4 22 5 20 6 19 7 17 8 16 9 15 10 14 11 6 12
REMARK SMILES IDX 7 13 8 14 9 15 13 16 11 17 10 18 12 20 4 22 21 24 18 26
REMARK H PARENT 10 19 12 21 4 23 21 25 18 27
REMARK Flexibility Score: inf
ROOT
ATOM      1  C   UNL     1     -19.980  32.986 -23.829  1.00  0.00     0.180 A 
ATOM      2  C   UNL     1     -20.082  32.492 -25.142  1.00  0.00     0.208 A 
ATOM      3  C   UNL     1     -19.109  31.592 -25.607  1.00  0.00     0.238 A 
ATOM      4  O   UNL     1     -19.236  31.112 -26.764  1.00  0.00    -0.285 OA
ATOM      5  C   UNL     1     -18.040  31.211 -24.762  1.00  0.00     0.111 A 
ATOM      6  C   UNL     1     -16.977  30.338 -25.144  1.00  0.00     0.134 A 
ATOM      7  C   UNL     1     -16.043  29.927 -24.185  1.00  0.00     0.093 A 
ATOM      8  C   UNL     1     -16.094  30.407 -22.877  1.00  0.00     0.123 A 
ATOM      9  C   UNL     1     -17.095  31.307 -22.508  1.00  0.00     0.094 A 
ATOM     10  C   UNL     1     -18.062  31.708 -23.433  1.00  0.00     0.146 A 
ATOM     11  O   UNL     1     -19.002  32.558 -23.039  1.00  0.00    -0.452 OA
ENDROOT
BRANCH   1  12
ATOM     12  C   UNL     1     -20.953  33.955 -23.275  1.00  0.00     0.025 A 
ATOM     13  C   UNL     1     -20.773  35.327 -23.512  1.00  0.00     0.016 A 
ATOM     14  C   UNL     1     -21.690  36.257 -23.017  1.00  0.00     0.051 A 
ATOM     15  C   UNL     1     -22.809  35.829 -22.291  1.00  0.00     0.157 A 
ATOM     16  C   UNL     1     -22.089  33.528 -22.564  1.00  0.00     0.062 A 
ATOM     17  C   UNL     1     -23.010  34.457 -22.068  1.00  0.00     0.158 A 
BRANCH  15  18
ATOM     18  O   UNL     1     -23.721  36.760 -21.797  1.00  0.00    -0.504 OA
ATOM     19  H   UNL     1     -24.524  37.058 -22.341  1.00  0.00     0.293 HD
ENDBRANCH  15  18
BRANCH  17  20
ATOM     20  O   UNL     1     -24.122  33.999 -21.362  1.00  0.00    -0.504 OA
ATOM     21  H   UNL     1     -24.035  33.403 -20.547  1.00  0.00     0.293 HD
ENDBRANCH  17  20
ENDBRANCH   1  12
BRANCH   2  22
ATOM     22  O   UNL     1     -21.158  32.864 -25.951  1.00  0.00    -0.502 OA
ATOM     23  H   UNL     1     -21.621  33.760 -25.862  1.00  0.00     0.293 HD
ENDBRANCH   2  22
BRANCH   6  24
ATOM     24  O   UNL     1     -16.779  29.873 -26.447  1.00  0.00    -0.507 OA
ATOM     25  H   UNL     1     -16.800  28.902 -26.720  1.00  0.00     0.293 HD
ENDBRANCH   6  24
BRANCH   8  26
ATOM     26  O   UNL     1     -15.140  29.989 -21.953  1.00  0.00    -0.508 OA
ATOM     27  H   UNL     1     -14.177  29.823 -22.223  1.00  0.00     0.293 HD
ENDBRANCH   8  26
TORSDOF 6
ENDMDL
MODEL 7
REMARK VINA RESULT:    -6.989      2.356      3.577
REMARK INTER + INTRA:          -8.651
REMARK INTER:                  -8.375
REMARK INTRA:                  -0.276
REMARK UNBOUND:                -0.232
REMARK SMILES O=c1c(O)c(-c2ccc(O)c(O)c2)oc2cc(O)cc(O)c12
REMARK SMILES IDX 5 1 3 2 2 3 1 4 22 5 20 6 19 7 17 8 16 9 15 10 14 11 6 12
REMARK SMILES IDX 7 13 8 14 9 15 13 16 11 17 10 18 12 20 4 22 21 24 18 26
REMARK H PARENT 10 19 12 21 4 23 21 25 18 27
REMARK Flexibility Score: inf
ROOT
ATOM      1  C   UNL     1     -17.240  31.254 -23.442  1.00  0.00     0.180 A 
ATOM      2  C   UNL     1     -18.287  31.345 -24.376  1.00  0.00     0.208 A 
ATOM      3  C   UNL     1     -19.022  32.539 -24.459  1.00  0.00     0.238 A 
ATOM      4  O   UNL     1     -19.923  32.633 -25.334  1.00  0.00    -0.285 OA
ATOM      5  C   UNL     1     -18.714  33.618 -23.598  1.00  0.00     0.111 A 
ATOM      6  C   UNL     1     -19.420  34.858 -23.568  1.00  0.00     0.134 A 
ATOM      7  C   UNL     1     -18.946  35.903 -22.766  1.00  0.00     0.093 A 
ATOM      8  C   UNL     1     -17.833  35.734 -21.945  1.00  0.00     0.123 A 
ATOM      9  C   UNL     1     -17.169  34.506 -21.922  1.00  0.00     0.094 A 
ATOM     10  C   UNL     1     -17.597  33.456 -22.738  1.00  0.00     0.146 A 
ATOM     11  O   UNL     1     -16.933  32.307 -22.693  1.00  0.00    -0.452 OA
ENDROOT
BRANCH   1  12
ATOM     12  C   UNL     1     -16.435  30.022 -23.278  1.00  0.00     0.025 A 
ATOM     13  C   UNL     1     -15.105  30.001 -23.726  1.00  0.00     0.016 A 
ATOM     14  C   UNL     1     -14.322  28.856 -23.562  1.00  0.00     0.051 A 
ATOM     15  C   UNL     1     -14.851  27.721 -22.935  1.00  0.00     0.157 A 
ATOM     16  C   UNL     1     -16.957  28.888 -22.630  1.00  0.00     0.062 A 
ATOM     17  C   UNL     1     -16.174  27.740 -22.463  1.00  0.00     0.158 A 
BRANCH  15  18
ATOM     18  O   UNL     1     -14.067  26.579 -22.775  1.00  0.00    -0.504 OA
ATOM     19  H   UNL     1     -14.244  25.734 -23.308  1.00  0.00     0.293 HD
ENDBRANCH  15  18
BRANCH  17  20
ATOM     20  O   UNL     1     -16.725  26.631 -21.821  1.00  0.00    -0.504 OA
ATOM     21  H   UNL     1     -16.810  26.579 -20.813  1.00  0.00     0.293 HD
ENDBRANCH  17  20
ENDBRANCH   1  12
BRANCH   2  22
ATOM     22  O   UNL     1     -18.560  30.275 -25.232  1.00  0.00    -0.502 OA
ATOM     23  H   UNL     1     -17.990  29.439 -25.255  1.00  0.00     0.293 HD
ENDBRANCH   2  22
BRANCH   6  24
ATOM     24  O   UNL     1     -20.599  35.103 -24.279  1.00  0.00    -0.507 OA
ATOM     25  H   UNL     1     -20.738  34.883 -25.253  1.00  0.00     0.293 HD
ENDBRANCH   6  24
BRANCH   8  26
ATOM     26  O   UNL     1     -17.397  36.791 -21.149  1.00  0.00    -0.508 OA
ATOM     27  H   UNL     1     -17.220  37.710 -21.537  1.00  0.00     0.293 HD
ENDBRANCH   8  26
TORSDOF 6
ENDMDL
MODEL 8
REMARK VINA RESULT:    -6.907      2.123      7.008
REMARK INTER + INTRA:          -8.552
REMARK INTER:                  -8.254
REMARK INTRA:                  -0.298
REMARK UNBOUND:                -0.232
REMARK SMILES O=c1c(O)c(-c2ccc(O)c(O)c2)oc2cc(O)cc(O)c12
REMARK SMILES IDX 5 1 3 2 2 3 1 4 22 5 20 6 19 7 17 8 16 9 15 10 14 11 6 12
REMARK SMILES IDX 7 13 8 14 9 15 13 16 11 17 10 18 12 20 4 22 21 24 18 26
REMARK H PARENT 10 19 12 21 4 23 21 25 18 27
REMARK Flexibility Score: inf
ROOT
ATOM      1  C   UNL     1     -17.624  31.726 -23.304  1.00  0.00     0.180 A 
ATOM      2  C   UNL     1     -17.260  31.124 -24.521  1.00  0.00     0.208 A 
ATOM      3  C   UNL     1     -16.554  29.910 -24.496  1.00  0.00     0.238 A 
ATOM      4  O   UNL     1     -16.279  29.350 -25.589  1.00  0.00    -0.285 OA
ATOM      5  C   UNL     1     -16.207  29.323 -23.256  1.00  0.00     0.111 A 
ATOM      6  C   UNL     1     -15.458  28.116 -23.113  1.00  0.00     0.134 A 
ATOM      7  C   UNL     1     -15.285  27.558 -21.841  1.00  0.00     0.093 A 
ATOM      8  C   UNL     1     -15.776  28.194 -20.702  1.00  0.00     0.123 A 
ATOM      9  C   UNL     1     -16.459  29.405 -20.825  1.00  0.00     0.094 A 
ATOM     10  C   UNL     1     -16.679  29.968 -22.084  1.00  0.00     0.146 A 
ATOM     11  O   UNL     1     -17.341  31.116 -22.158  1.00  0.00    -0.452 OA
ENDROOT
BRANCH   1  12
ATOM     12  C   UNL     1     -18.347  33.017 -23.249  1.00  0.00     0.025 A 
ATOM     13  C   UNL     1     -17.624  34.207 -23.071  1.00  0.00     0.016 A 
ATOM     14  C   UNL     1     -18.284  35.437 -23.038  1.00  0.00     0.051 A 
ATOM     15  C   UNL     1     -19.674  35.499 -23.197  1.00  0.00     0.157 A 
ATOM     16  C   UNL     1     -19.741  33.084 -23.430  1.00  0.00     0.062 A 
ATOM     17  C   UNL     1     -20.404  34.316 -23.398  1.00  0.00     0.158 A 
BRANCH  15  18
ATOM     18  O   UNL     1     -20.331  36.728 -23.161  1.00  0.00    -0.504 OA
ATOM     19  H   UNL     1     -20.168  37.438 -23.868  1.00  0.00     0.293 HD
ENDBRANCH  15  18
BRANCH  17  20
ATOM     20  O   UNL     1     -21.787  34.344 -23.575  1.00  0.00    -0.504 OA
ATOM     21  H   UNL     1     -22.280  33.623 -24.088  1.00  0.00     0.293 HD
ENDBRANCH  17  20
ENDBRANCH   1  12
BRANCH   2  22
ATOM     22  O   UNL     1     -17.632  31.710 -25.734  1.00  0.00    -0.502 OA
ATOM     23  H   UNL     1     -18.355  32.416 -25.797  1.00  0.00     0.293 HD
ENDBRANCH   2  22
BRANCH   6  24
ATOM     24  O   UNL     1     -14.845  27.447 -24.176  1.00  0.00    -0.507 OA
ATOM     25  H   UNL     1     -14.852  26.448 -24.307  1.00  0.00     0.293 HD
ENDBRANCH   6  24
BRANCH   8  26
ATOM     26  O   UNL     1     -15.573  27.618 -19.450  1.00  0.00    -0.508 OA
ATOM     27  H   UNL     1     -16.138  27.876 -18.649  1.00  0.00     0.293 HD
ENDBRANCH   8  26
TORSDOF 6
ENDMDL
MODEL 9
REMARK VINA RESULT:    -5.497      1.026      1.596
REMARK INTER + INTRA:          -6.854
REMARK INTER:                  -6.743
REMARK INTRA:                  -0.112
REMARK UNBOUND:                -0.232
REMARK SMILES O=c1c(O)c(-c2ccc(O)c(O)c2)oc2cc(O)cc(O)c12
REMARK SMILES IDX 5 1 3 2 2 3 1 4 22 5 20 6 19 7 17 8 16 9 15 10 14 11 6 12
REMARK SMILES IDX 7 13 8 14 9 15 13 16 11 17 10 18 12 20 4 22 21 24 18 26
REMARK H PARENT 10 19 12 21 4 23 21 25 18 27
REMARK Flexibility Score: inf
ROOT
ATOM      1  C   UNL     1     -18.431  32.567 -23.028  1.00  0.00     0.180 A 
ATOM      2  C   UNL     1     -18.310  33.930 -23.351  1.00  0.00     0.208 A 
ATOM      3  C   UNL     1     -19.433  34.763 -23.218  1.00  0.00     0.238 A 
ATOM      4  O   UNL     1     -19.303  35.992 -23.457  1.00  0.00    -0.285 OA
ATOM      5  C   UNL     1     -20.665  34.221 -22.780  1.00  0.00     0.111 A 
ATOM      6  C   UNL     1     -21.875  34.965 -22.648  1.00  0.00     0.134 A 
ATOM      7  C   UNL     1     -23.002  34.356 -22.082  1.00  0.00     0.093 A 
ATOM      8  C   UNL     1     -22.982  33.014 -21.703  1.00  0.00     0.123 A 
ATOM      9  C   UNL     1     -21.820  32.262 -21.882  1.00  0.00     0.094 A 
ATOM     10  C   UNL     1     -20.670  32.851 -22.412  1.00  0.00     0.146 A 
ATOM     11  O   UNL     1     -19.583  32.102 -22.557  1.00  0.00    -0.452 OA
ENDROOT
BRANCH   1  12
ATOM     12  C   UNL     1     -17.300  31.621 -23.165  1.00  0.00     0.025 A 
ATOM     13  C   UNL     1     -16.905  30.851 -22.060  1.00  0.00     0.016 A 
ATOM     14  C   UNL     1     -15.854  29.938 -22.173  1.00  0.00     0.051 A 
ATOM     15  C   UNL     1     -15.193  29.769 -23.397  1.00  0.00     0.157 A 
ATOM     16  C   UNL     1     -16.648  31.433 -24.398  1.00  0.00     0.062 A 
ATOM     17  C   UNL     1     -15.596  30.518 -24.515  1.00  0.00     0.158 A 
BRANCH  15  18
ATOM     18  O   UNL     1     -14.144  28.858 -23.507  1.00  0.00    -0.504 OA
ATOM     19  H   UNL     1     -14.283  27.931 -23.895  1.00  0.00     0.293 HD
ENDBRANCH  15  18
BRANCH  17  20
ATOM     20  O   UNL     1     -14.969  30.362 -25.750  1.00  0.00    -0.504 OA
ATOM     21  H   UNL     1     -14.952  29.474 -26.238  1.00  0.00     0.293 HD
ENDBRANCH  17  20
ENDBRANCH   1  12
BRANCH   2  22
ATOM     22  O   UNL     1     -17.079  34.448 -23.760  1.00  0.00    -0.502 OA
ATOM     23  H   UNL     1     -16.389  33.890 -24.248  1.00  0.00     0.293 HD
ENDBRANCH   2  22
BRANCH   6  24
ATOM     24  O   UNL     1     -22.032  36.285 -23.080  1.00  0.00    -0.507 OA
ATOM     25  H   UNL     1     -22.812  36.878 -22.844  1.00  0.00     0.293 HD
ENDBRANCH   6  24
BRANCH   8  26
ATOM     26  O   UNL     1     -24.125  32.436 -21.157  1.00  0.00    -0.508 OA
ATOM     27  H   UNL     1     -24.405  31.491 -21.391  1.00  0.00     0.293 HD
ENDBRANCH   8  26
TORSDOF 6
ENDMDL
