MODEL 1
REMARK VINA RESULT:    -0.286      0.000      0.000
REMARK INTER + INTRA:          -0.649
REMARK INTER:                  -0.344
REMARK INTRA:                  -0.305
REMARK UNBOUND:                -0.305
REMARK SMILES O=c1c(O)c(-c2ccc(O)c(O)c2)oc2cc(O)cc(O)c12
REMARK SMILES IDX 5 1 3 2 2 3 1 4 22 5 20 6 19 7 17 8 16 9 15 10 14 11 6 12
REMARK SMILES IDX 7 13 8 14 9 15 13 16 11 17 10 18 12 20 4 22 21 24 18 26
REMARK H PARENT 10 19 12 21 4 23 21 25 18 27
REMARK Flexibility Score: inf
ROOT
ATOM      1  C   UNL     1       8.803 -16.004 -21.422  1.00  0.00     0.180 A 
ATOM      2  C   UNL     1       8.353 -16.658 -20.263  1.00  0.00     0.208 A 
ATOM      3  C   UNL     1       7.798 -17.944 -20.379  1.00  0.00     0.238 A 
ATOM      4  O   UNL     1       7.347 -18.503 -19.345  1.00  0.00    -0.285 OA
ATOM      5  C   UNL     1       7.717 -18.564 -21.648  1.00  0.00     0.111 A 
ATOM      6  C   UNL     1       7.211 -19.879 -21.877  1.00  0.00     0.134 A 
ATOM      7  C   UNL     1       7.056 -20.341 -23.190  1.00  0.00     0.093 A 
ATOM      8  C   UNL     1       7.450 -19.560 -24.280  1.00  0.00     0.123 A 
ATOM      9  C   UNL     1       8.000 -18.299 -24.064  1.00  0.00     0.094 A 
ATOM     10  C   UNL     1       8.133 -17.796 -22.768  1.00  0.00     0.146 A 
ATOM     11  O   UNL     1       8.653 -16.585 -22.606  1.00  0.00    -0.452 OA
ENDROOT
BRANCH   1  12
ATOM     12  C   UNL     1       9.422 -14.659 -21.377  1.00  0.00     0.025 A 
ATOM     13  C   UNL     1      10.777 -14.534 -21.030  1.00  0.00     0.016 A 
ATOM     14  C   UNL     1      11.376 -13.273 -20.962  1.00  0.00     0.051 A 
ATOM     15  C   UNL     1      10.629 -12.120 -21.223  1.00  0.00     0.157 A 
ATOM     16  C   UNL     1       8.667 -13.497 -21.619  1.00  0.00     0.062 A 
ATOM     17  C   UNL     1       9.266 -12.231 -21.548  1.00  0.00     0.158 A 
BRANCH  15  18
ATOM     18  O   UNL     1      11.254 -10.875 -21.149  1.00  0.00    -0.504 OA
ATOM     19  H   UNL     1      11.882 -10.545 -21.871  1.00  0.00     0.293 HD
ENDBRANCH  15  18
BRANCH  17  20
ATOM     20  O   UNL     1       8.513 -11.084 -21.795  1.00  0.00    -0.504 OA
ATOM     21  H   UNL     1       7.865 -10.717 -21.108  1.00  0.00     0.293 HD
ENDBRANCH  17  20
ENDBRANCH   1  12
BRANCH   2  22
ATOM     22  O   UNL     1       8.423 -16.019 -19.022  1.00  0.00    -0.502 OA
ATOM     23  H   UNL     1       8.883 -16.435 -18.221  1.00  0.00     0.293 HD
ENDBRANCH   2  22
BRANCH   6  24
ATOM     24  O   UNL     1       6.875 -20.774 -20.857  1.00  0.00    -0.507 OA
ATOM     25  H   UNL     1       7.485 -21.035 -20.097  1.00  0.00     0.293 HD
ENDBRANCH   6  24
BRANCH   8  26
ATOM     26  O   UNL     1       7.307 -20.034 -25.583  1.00  0.00    -0.508 OA
ATOM     27  H   UNL     1       6.715 -19.561 -26.256  1.00  0.00     0.293 HD
ENDBRANCH   8  26
TORSDOF 6
ENDMDL
MODEL 2
REMARK VINA RESULT:     0.829      1.725      2.493
REMARK INTER + INTRA:           0.693
REMARK INTER:                   0.845
REMARK INTRA:                  -0.152
REMARK UNBOUND:                -0.305
REMARK SMILES O=c1c(O)c(-c2ccc(O)c(O)c2)oc2cc(O)cc(O)c12
REMARK SMILES IDX 5 1 3 2 2 3 1 4 22 5 20 6 19 7 17 8 16 9 15 10 14 11 6 12
REMARK SMILES IDX 7 13 8 14 9 15 13 16 11 17 10 18 12 20 4 22 21 24 18 26
REMARK H PARENT 10 19 12 21 4 23 21 25 18 27
REMARK Flexibility Score: inf
ROOT
ATOM      1  C   UNL     1       7.625 -15.907 -21.385  1.00  0.00     0.180 A 
ATOM      2  C   UNL     1       7.280 -16.048 -20.030  1.00  0.00     0.208 A 
ATOM      3  C   UNL     1       7.238 -17.334 -19.468  1.00  0.00     0.238 A 
ATOM      4  O   UNL     1       6.875 -17.459 -18.269  1.00  0.00    -0.285 OA
ATOM      5  C   UNL     1       7.557 -18.461 -20.264  1.00  0.00     0.111 A 
ATOM      6  C   UNL     1       7.586 -19.807 -19.788  1.00  0.00     0.134 A 
ATOM      7  C   UNL     1       7.787 -20.855 -20.694  1.00  0.00     0.093 A 
ATOM      8  C   UNL     1       8.026 -20.602 -22.048  1.00  0.00     0.123 A 
ATOM      9  C   UNL     1       8.060 -19.289 -22.510  1.00  0.00     0.094 A 
ATOM     10  C   UNL     1       7.826 -18.224 -21.637  1.00  0.00     0.146 A 
ATOM     11  O   UNL     1       7.856 -16.987 -22.121  1.00  0.00    -0.452 OA
ENDROOT
BRANCH   1  12
ATOM     12  C   UNL     1       7.716 -14.582 -22.041  1.00  0.00     0.025 A 
ATOM     13  C   UNL     1       6.919 -14.313 -23.166  1.00  0.00     0.016 A 
ATOM     14  C   UNL     1       7.004 -13.077 -23.813  1.00  0.00     0.051 A 
ATOM     15  C   UNL     1       7.894 -12.100 -23.357  1.00  0.00     0.157 A 
ATOM     16  C   UNL     1       8.625 -13.606 -21.597  1.00  0.00     0.062 A 
ATOM     17  C   UNL     1       8.713 -12.365 -22.246  1.00  0.00     0.158 A 
BRANCH  15  18
ATOM     18  O   UNL     1       7.955 -10.875 -24.022  1.00  0.00    -0.504 OA
ATOM     19  H   UNL     1       7.151 -10.265 -24.099  1.00  0.00     0.293 HD
ENDBRANCH  15  18
BRANCH  17  20
ATOM     20  O   UNL     1       9.612 -11.400 -21.796  1.00  0.00    -0.504 OA
ATOM     21  H   UNL     1      10.072 -10.764 -22.437  1.00  0.00     0.293 HD
ENDBRANCH  17  20
ENDBRANCH   1  12
BRANCH   2  22
ATOM     22  O   UNL     1       6.947 -14.924 -19.269  1.00  0.00    -0.502 OA
ATOM     23  H   UNL     1       7.574 -14.530 -18.577  1.00  0.00     0.293 HD
ENDBRANCH   2  22
BRANCH   6  24
ATOM     24  O   UNL     1       7.450 -20.162 -18.444  1.00  0.00    -0.507 OA
ATOM     25  H   UNL     1       6.993 -20.998 -18.112  1.00  0.00     0.293 HD
ENDBRANCH   6  24
BRANCH   8  26
ATOM     26  O   UNL     1       8.242 -21.651 -22.940  1.00  0.00    -0.508 OA
ATOM     27  H   UNL     1       7.572 -22.404 -23.043  1.00  0.00     0.293 HD
ENDBRANCH   8  26
TORSDOF 6
ENDMDL
MODEL 3
REMARK VINA RESULT:     0.869      1.653      6.796
REMARK INTER + INTRA:           0.741
REMARK INTER:                   1.021
REMARK INTRA:                  -0.280
REMARK UNBOUND:                -0.305
REMARK SMILES O=c1c(O)c(-c2ccc(O)c(O)c2)oc2cc(O)cc(O)c12
REMARK SMILES IDX 5 1 3 2 2 3 1 4 22 5 20 6 19 7 17 8 16 9 15 10 14 11 6 12
REMARK SMILES IDX 7 13 8 14 9 15 13 16 11 17 10 18 12 20 4 22 21 24 18 26
REMARK H PARENT 10 19 12 21 4 23 21 25 18 27
REMARK Flexibility Score: inf
ROOT
ATOM      1  C   UNL     1       8.671 -15.625 -21.184  1.00  0.00     0.180 A 
ATOM      2  C   UNL     1       9.879 -15.135 -20.660  1.00  0.00     0.208 A 
ATOM      3  C   UNL     1      10.257 -13.812 -20.943  1.00  0.00     0.238 A 
ATOM      4  O   UNL     1      11.366 -13.395 -20.517  1.00  0.00    -0.285 OA
ATOM      5  C   UNL     1       9.415 -12.992 -21.732  1.00  0.00     0.111 A 
ATOM      6  C   UNL     1       9.678 -11.625 -22.048  1.00  0.00     0.134 A 
ATOM      7  C   UNL     1       8.841 -10.949 -22.943  1.00  0.00     0.093 A 
ATOM      8  C   UNL     1       7.712 -11.571 -23.484  1.00  0.00     0.123 A 
ATOM      9  C   UNL     1       7.413 -12.886 -23.135  1.00  0.00     0.094 A 
ATOM     10  C   UNL     1       8.250 -13.598 -22.272  1.00  0.00     0.146 A 
ATOM     11  O   UNL     1       7.935 -14.853 -21.974  1.00  0.00    -0.452 OA
ENDROOT
BRANCH   1  12
ATOM     12  C   UNL     1       8.194 -17.000 -20.909  1.00  0.00     0.025 A 
ATOM     13  C   UNL     1       7.633 -17.298 -19.656  1.00  0.00     0.016 A 
ATOM     14  C   UNL     1       7.195 -18.594 -19.368  1.00  0.00     0.051 A 
ATOM     15  C   UNL     1       7.323 -19.611 -20.318  1.00  0.00     0.157 A 
ATOM     16  C   UNL     1       8.341 -18.029 -21.855  1.00  0.00     0.062 A 
ATOM     17  C   UNL     1       7.903 -19.331 -21.567  1.00  0.00     0.158 A 
BRANCH  15  18
ATOM     18  O   UNL     1       6.875 -20.894 -20.003  1.00  0.00    -0.504 OA
ATOM     19  H   UNL     1       7.193 -21.387 -19.177  1.00  0.00     0.293 HD
ENDBRANCH  15  18
BRANCH  17  20
ATOM     20  O   UNL     1       8.047 -20.344 -22.512  1.00  0.00    -0.504 OA
ATOM     21  H   UNL     1       7.243 -20.782 -22.946  1.00  0.00     0.293 HD
ENDBRANCH  17  20
ENDBRANCH   1  12
BRANCH   2  22
ATOM     22  O   UNL     1      10.707 -15.968 -19.903  1.00  0.00    -0.502 OA
ATOM     23  H   UNL     1      11.452 -16.517 -20.316  1.00  0.00     0.293 HD
ENDBRANCH   2  22
BRANCH   6  24
ATOM     24  O   UNL     1      10.725 -10.884 -21.491  1.00  0.00    -0.507 OA
ATOM     25  H   UNL     1      10.614 -10.172 -20.786  1.00  0.00     0.293 HD
ENDBRANCH   6  24
BRANCH   8  26
ATOM     26  O   UNL     1       6.875 -10.886 -24.362  1.00  0.00    -0.508 OA
ATOM     27  H   UNL     1       6.916  -9.877 -24.455  1.00  0.00     0.293 HD
ENDBRANCH   8  26
TORSDOF 6
ENDMDL
MODEL 4
REMARK VINA RESULT:     0.913      2.273      3.602
REMARK INTER + INTRA:           0.794
REMARK INTER:                   0.339
REMARK INTRA:                   0.456
REMARK UNBOUND:                -0.305
REMARK SMILES O=c1c(O)c(-c2ccc(O)c(O)c2)oc2cc(O)cc(O)c12
REMARK SMILES IDX 5 1 3 2 2 3 1 4 22 5 20 6 19 7 17 8 16 9 15 10 14 11 6 12
REMARK SMILES IDX 7 13 8 14 9 15 13 16 11 17 10 18 12 20 4 22 21 24 18 26
REMARK H PARENT 10 19 12 21 4 23 21 25 18 27
REMARK Flexibility Score: inf
ROOT
ATOM      1  C   UNL     1       7.554 -16.513 -21.665  1.00  0.00     0.180 A 
ATOM      2  C   UNL     1       8.001 -17.161 -22.829  1.00  0.00     0.208 A 
ATOM      3  C   UNL     1       8.098 -18.562 -22.834  1.00  0.00     0.238 A 
ATOM      4  O   UNL     1       8.550 -19.133 -23.860  1.00  0.00    -0.285 OA
ATOM      5  C   UNL     1       7.730 -19.297 -21.682  1.00  0.00     0.111 A 
ATOM      6  C   UNL     1       7.749 -20.722 -21.589  1.00  0.00     0.134 A 
ATOM      7  C   UNL     1       7.490 -21.337 -20.358  1.00  0.00     0.093 A 
ATOM      8  C   UNL     1       7.148 -20.583 -19.233  1.00  0.00     0.123 A 
ATOM      9  C   UNL     1       7.068 -19.195 -19.329  1.00  0.00     0.094 A 
ATOM     10  C   UNL     1       7.357 -18.550 -20.533  1.00  0.00     0.146 A 
ATOM     11  O   UNL     1       7.280 -17.225 -20.579  1.00  0.00    -0.452 OA
ENDROOT
BRANCH   1  12
ATOM     12  C   UNL     1       7.403 -15.041 -21.592  1.00  0.00     0.025 A 
ATOM     13  C   UNL     1       7.053 -14.443 -20.370  1.00  0.00     0.016 A 
ATOM     14  C   UNL     1       6.885 -13.059 -20.283  1.00  0.00     0.051 A 
ATOM     15  C   UNL     1       7.047 -12.254 -21.414  1.00  0.00     0.157 A 
ATOM     16  C   UNL     1       7.546 -14.232 -22.733  1.00  0.00     0.062 A 
ATOM     17  C   UNL     1       7.375 -12.842 -22.648  1.00  0.00     0.158 A 
BRANCH  15  18
ATOM     18  O   UNL     1       6.875 -10.875 -21.296  1.00  0.00    -0.504 OA
ATOM     19  H   UNL     1       6.439 -10.323 -22.025  1.00  0.00     0.293 HD
ENDBRANCH  15  18
BRANCH  17  20
ATOM     20  O   UNL     1       7.524 -12.047 -23.782  1.00  0.00    -0.504 OA
ATOM     21  H   UNL     1       7.978 -11.142 -23.739  1.00  0.00     0.293 HD
ENDBRANCH  17  20
ENDBRANCH   1  12
BRANCH   2  22
ATOM     22  O   UNL     1       8.381 -16.414 -23.948  1.00  0.00    -0.502 OA
ATOM     23  H   UNL     1       8.121 -16.677 -24.891  1.00  0.00     0.293 HD
ENDBRANCH   2  22
BRANCH   6  24
ATOM     24  O   UNL     1       7.988 -21.570 -22.673  1.00  0.00    -0.507 OA
ATOM     25  H   UNL     1       7.270 -22.015 -23.225  1.00  0.00     0.293 HD
ENDBRANCH   6  24
BRANCH   8  26
ATOM     26  O   UNL     1       6.876 -21.204 -18.016  1.00  0.00    -0.508 OA
ATOM     27  H   UNL     1       7.615 -21.437 -17.363  1.00  0.00     0.293 HD
ENDBRANCH   8  26
TORSDOF 6
ENDMDL
MODEL 5
REMARK VINA RESULT:     0.920      2.575      7.028
REMARK INTER + INTRA:           0.803
REMARK INTER:                   0.632
REMARK INTRA:                   0.171
REMARK UNBOUND:                -0.305
REMARK SMILES O=c1c(O)c(-c2ccc(O)c(O)c2)oc2cc(O)cc(O)c12
REMARK SMILES IDX 5 1 3 2 2 3 1 4 22 5 20 6 19 7 17 8 16 9 15 10 14 11 6 12
REMARK SMILES IDX 7 13 8 14 9 15 13 16 11 17 10 18 12 20 4 22 21 24 18 26
REMARK H PARENT 10 19 12 21 4 23 21 25 18 27
REMARK Flexibility Score: inf
ROOT
ATOM      1  C   UNL     1       7.453 -16.645 -21.605  1.00  0.00     0.180 A 
ATOM      2  C   UNL     1       7.457 -16.548 -23.006  1.00  0.00     0.208 A 
ATOM      3  C   UNL     1       7.393 -15.278 -23.602  1.00  0.00     0.238 A 
ATOM      4  O   UNL     1       7.342 -15.200 -24.857  1.00  0.00    -0.285 OA
ATOM      5  C   UNL     1       7.341 -14.121 -22.788  1.00  0.00     0.111 A 
ATOM      6  C   UNL     1       7.314 -12.782 -23.283  1.00  0.00     0.134 A 
ATOM      7  C   UNL     1       7.132 -11.719 -22.391  1.00  0.00     0.093 A 
ATOM      8  C   UNL     1       7.041 -11.941 -21.015  1.00  0.00     0.123 A 
ATOM      9  C   UNL     1       7.126 -13.239 -20.516  1.00  0.00     0.094 A 
ATOM     10  C   UNL     1       7.271 -14.323 -21.385  1.00  0.00     0.146 A 
ATOM     11  O   UNL     1       7.337 -15.545 -20.870  1.00  0.00    -0.452 OA
ENDROOT
BRANCH   1  12
ATOM     12  C   UNL     1       7.544 -17.947 -20.904  1.00  0.00     0.025 A 
ATOM     13  C   UNL     1       6.875 -18.121 -19.682  1.00  0.00     0.016 A 
ATOM     14  C   UNL     1       6.964 -19.335 -18.994  1.00  0.00     0.051 A 
ATOM     15  C   UNL     1       7.733 -20.384 -19.507  1.00  0.00     0.157 A 
ATOM     16  C   UNL     1       8.333 -18.996 -21.409  1.00  0.00     0.062 A 
ATOM     17  C   UNL     1       8.425 -20.214 -20.718  1.00  0.00     0.158 A 
BRANCH  15  18
ATOM     18  O   UNL     1       7.801 -21.584 -18.800  1.00  0.00    -0.504 OA
ATOM     19  H   UNL     1       8.393 -21.695 -17.986  1.00  0.00     0.293 HD
ENDBRANCH  15  18
BRANCH  17  20
ATOM     20  O   UNL     1       9.204 -21.251 -21.228  1.00  0.00    -0.504 OA
ATOM     21  H   UNL     1      10.064 -21.540 -20.776  1.00  0.00     0.293 HD
ENDBRANCH  17  20
ENDBRANCH   1  12
BRANCH   2  22
ATOM     22  O   UNL     1       7.486 -17.705 -23.790  1.00  0.00    -0.502 OA
ATOM     23  H   UNL     1       7.100 -18.587 -23.474  1.00  0.00     0.293 HD
ENDBRANCH   2  22
BRANCH   6  24
ATOM     24  O   UNL     1       7.489 -12.445 -24.628  1.00  0.00    -0.507 OA
ATOM     25  H   UNL     1       6.794 -12.574 -25.349  1.00  0.00     0.293 HD
ENDBRANCH   6  24
BRANCH   8  26
ATOM     26  O   UNL     1       6.875 -10.875 -20.132  1.00  0.00    -0.508 OA
ATOM     27  H   UNL     1       6.049 -10.290 -20.158  1.00  0.00     0.293 HD
ENDBRANCH   8  26
TORSDOF 6
ENDMDL
MODEL 6
REMARK VINA RESULT:     1.273      2.365      6.640
REMARK INTER + INTRA:           1.228
REMARK INTER:                   0.827
REMARK INTRA:                   0.402
REMARK UNBOUND:                -0.305
REMARK SMILES O=c1c(O)c(-c2ccc(O)c(O)c2)oc2cc(O)cc(O)c12
REMARK SMILES IDX 5 1 3 2 2 3 1 4 22 5 20 6 19 7 17 8 16 9 15 10 14 11 6 12
REMARK SMILES IDX 7 13 8 14 9 15 13 16 11 17 10 18 12 20 4 22 21 24 18 26
REMARK H PARENT 10 19 12 21 4 23 21 25 18 27
REMARK Flexibility Score: inf
ROOT
ATOM      1  C   UNL     1       7.482 -16.034 -21.213  1.00  0.00     0.180 A 
ATOM      2  C   UNL     1       7.375 -15.298 -20.022  1.00  0.00     0.208 A 
ATOM      3  C   UNL     1       7.288 -13.898 -20.091  1.00  0.00     0.238 A 
ATOM      4  O   UNL     1       7.246 -13.240 -19.019  1.00  0.00    -0.285 OA
ATOM      5  C   UNL     1       7.292 -13.254 -21.352  1.00  0.00     0.111 A 
ATOM      6  C   UNL     1       7.168 -11.845 -21.543  1.00  0.00     0.134 A 
ATOM      7  C   UNL     1       7.317 -11.306 -22.827  1.00  0.00     0.093 A 
ATOM      8  C   UNL     1       7.519 -12.132 -23.936  1.00  0.00     0.123 A 
ATOM      9  C   UNL     1       7.582 -13.513 -23.767  1.00  0.00     0.094 A 
ATOM     10  C   UNL     1       7.474 -14.078 -22.495  1.00  0.00     0.146 A 
ATOM     11  O   UNL     1       7.550 -15.398 -22.376  1.00  0.00    -0.452 OA
ENDROOT
BRANCH   1  12
ATOM     12  C   UNL     1       7.553 -17.514 -21.221  1.00  0.00     0.025 A 
ATOM     13  C   UNL     1       7.931 -18.180 -22.398  1.00  0.00     0.016 A 
ATOM     14  C   UNL     1       7.985 -19.577 -22.434  1.00  0.00     0.051 A 
ATOM     15  C   UNL     1       7.647 -20.327 -21.303  1.00  0.00     0.157 A 
ATOM     16  C   UNL     1       7.194 -18.271 -20.091  1.00  0.00     0.062 A 
ATOM     17  C   UNL     1       7.245 -19.672 -20.126  1.00  0.00     0.158 A 
BRANCH  15  18
ATOM     18  O   UNL     1       7.712 -21.718 -21.368  1.00  0.00    -0.504 OA
ATOM     19  H   UNL     1       7.313 -22.240 -22.139  1.00  0.00     0.293 HD
ENDBRANCH  15  18
BRANCH  17  20
ATOM     20  O   UNL     1       6.894 -20.414 -19.000  1.00  0.00    -0.504 OA
ATOM     21  H   UNL     1       7.551 -21.044 -18.554  1.00  0.00     0.293 HD
ENDBRANCH  17  20
ENDBRANCH   1  12
BRANCH   2  22
ATOM     22  O   UNL     1       7.395 -15.952 -18.786  1.00  0.00    -0.502 OA
ATOM     23  H   UNL     1       6.654 -15.847 -18.103  1.00  0.00     0.293 HD
ENDBRANCH   2  22
BRANCH   6  24
ATOM     24  O   UNL     1       6.875 -10.942 -20.518  1.00  0.00    -0.507 OA
ATOM     25  H   UNL     1       6.531 -11.200 -19.605  1.00  0.00     0.293 HD
ENDBRANCH   6  24
BRANCH   8  26
ATOM     26  O   UNL     1       7.650 -11.589 -25.213  1.00  0.00    -0.508 OA
ATOM     27  H   UNL     1       7.362 -12.101 -26.038  1.00  0.00     0.293 HD
ENDBRANCH   8  26
TORSDOF 6
ENDMDL
MODEL 7
REMARK VINA RESULT:     2.027      1.402      3.233
REMARK INTER + INTRA:           2.137
REMARK INTER:                   2.459
REMARK INTRA:                  -0.323
REMARK UNBOUND:                -0.305
REMARK SMILES O=c1c(O)c(-c2ccc(O)c(O)c2)oc2cc(O)cc(O)c12
REMARK SMILES IDX 5 1 3 2 2 3 1 4 22 5 20 6 19 7 17 8 16 9 15 10 14 11 6 12
REMARK SMILES IDX 7 13 8 14 9 15 13 16 11 17 10 18 12 20 4 22 21 24 18 26
REMARK H PARENT 10 19 12 21 4 23 21 25 18 27
REMARK Flexibility Score: inf
ROOT
ATOM      1  C   UNL     1       8.607 -16.306 -21.626  1.00  0.00     0.180 A 
ATOM      2  C   UNL     1       8.493 -16.870 -22.907  1.00  0.00     0.208 A 
ATOM      3  C   UNL     1       8.056 -18.200 -23.030  1.00  0.00     0.238 A 
ATOM      4  O   UNL     1       8.007 -18.717 -24.176  1.00  0.00    -0.285 OA
ATOM      5  C   UNL     1       7.724 -18.941 -21.870  1.00  0.00     0.111 A 
ATOM      6  C   UNL     1       7.232 -20.281 -21.878  1.00  0.00     0.134 A 
ATOM      7  C   UNL     1       7.060 -20.962 -20.667  1.00  0.00     0.093 A 
ATOM      8  C   UNL     1       7.300 -20.328 -19.445  1.00  0.00     0.123 A 
ATOM      9  C   UNL     1       7.722 -19.000 -19.425  1.00  0.00     0.094 A 
ATOM     10  C   UNL     1       7.938 -18.307 -20.618  1.00  0.00     0.146 A 
ATOM     11  O   UNL     1       8.351 -17.047 -20.555  1.00  0.00    -0.452 OA
ENDROOT
BRANCH   1  12
ATOM     12  C   UNL     1       9.036 -14.904 -21.419  1.00  0.00     0.025 A 
ATOM     13  C   UNL     1       8.080 -13.876 -21.457  1.00  0.00     0.016 A 
ATOM     14  C   UNL     1       8.466 -12.544 -21.284  1.00  0.00     0.051 A 
ATOM     15  C   UNL     1       9.811 -12.217 -21.086  1.00  0.00     0.157 A 
ATOM     16  C   UNL     1      10.391 -14.571 -21.240  1.00  0.00     0.062 A 
ATOM     17  C   UNL     1      10.781 -13.234 -21.069  1.00  0.00     0.158 A 
BRANCH  15  18
ATOM     18  O   UNL     1      10.166 -10.880 -20.915  1.00  0.00    -0.504 OA
ATOM     19  H   UNL     1      10.890 -10.594 -20.265  1.00  0.00     0.293 HD
ENDBRANCH  15  18
BRANCH  17  20
ATOM     20  O   UNL     1      12.125 -12.914 -20.886  1.00  0.00    -0.504 OA
ATOM     21  H   UNL     1      12.524 -12.064 -21.266  1.00  0.00     0.293 HD
ENDBRANCH  17  20
ENDBRANCH   1  12
BRANCH   2  22
ATOM     22  O   UNL     1       8.847 -16.128 -24.037  1.00  0.00    -0.502 OA
ATOM     23  H   UNL     1       9.572 -16.427 -24.680  1.00  0.00     0.293 HD
ENDBRANCH   2  22
BRANCH   6  24
ATOM     24  O   UNL     1       6.875 -20.974 -23.039  1.00  0.00    -0.507 OA
ATOM     25  H   UNL     1       5.989 -20.885 -23.512  1.00  0.00     0.293 HD
ENDBRANCH   6  24
BRANCH   8  26
ATOM     26  O   UNL     1       7.111 -21.007 -18.242  1.00  0.00    -0.508 OA
ATOM     27  H   UNL     1       6.237 -21.472 -18.029  1.00  0.00     0.293 HD
ENDBRANCH   8  26
TORSDOF 6
ENDMDL
