MODEL 1
REMARK VINA RESULT:     0.256      0.000      0.000
REMARK INTER + INTRA:          -0.015
REMARK INTER:                   0.308
REMARK INTRA:                  -0.323
REMARK UNBOUND:                -0.323
REMARK SMILES O=c1c(O)c(-c2ccc(O)c(O)c2)oc2cc(O)cc(O)c12
REMARK SMILES IDX 5 1 3 2 2 3 1 4 22 5 20 6 19 7 17 8 16 9 15 10 14 11 6 12
REMARK SMILES IDX 7 13 8 14 9 15 13 16 11 17 10 18 12 20 4 22 21 24 18 26
REMARK H PARENT 10 19 12 21 4 23 21 25 18 27
REMARK Flexibility Score: inf
ROOT
ATOM      1  C   UNL     1     -15.823   6.821  21.184  1.00  0.00     0.180 A 
ATOM      2  C   UNL     1     -14.662   7.584  21.400  1.00  0.00     0.208 A 
ATOM      3  C   UNL     1     -13.426   6.926  21.511  1.00  0.00     0.238 A 
ATOM      4  O   UNL     1     -12.399   7.610  21.759  1.00  0.00    -0.285 OA
ATOM      5  C   UNL     1     -13.365   5.518  21.388  1.00  0.00     0.111 A 
ATOM      6  C   UNL     1     -12.161   4.752  21.444  1.00  0.00     0.134 A 
ATOM      7  C   UNL     1     -12.232   3.353  21.441  1.00  0.00     0.093 A 
ATOM      8  C   UNL     1     -13.454   2.694  21.318  1.00  0.00     0.123 A 
ATOM      9  C   UNL     1     -14.632   3.435  21.204  1.00  0.00     0.094 A 
ATOM     10  C   UNL     1     -14.597   4.830  21.240  1.00  0.00     0.146 A 
ATOM     11  O   UNL     1     -15.740   5.497  21.139  1.00  0.00    -0.452 OA
ENDROOT
BRANCH   1  12
ATOM     12  C   UNL     1     -17.158   7.444  21.031  1.00  0.00     0.025 A 
ATOM     13  C   UNL     1     -18.036   7.470  22.125  1.00  0.00     0.016 A 
ATOM     14  C   UNL     1     -19.308   8.035  21.998  1.00  0.00     0.051 A 
ATOM     15  C   UNL     1     -19.728   8.566  20.775  1.00  0.00     0.157 A 
ATOM     16  C   UNL     1     -17.588   7.961  19.796  1.00  0.00     0.062 A 
ATOM     17  C   UNL     1     -18.866   8.525  19.666  1.00  0.00     0.158 A 
BRANCH  15  18
ATOM     18  O   UNL     1     -21.001   9.124  20.678  1.00  0.00    -0.504 OA
ATOM     19  H   UNL     1     -21.166  10.115  20.812  1.00  0.00     0.293 HD
ENDBRANCH  15  18
BRANCH  17  20
ATOM     20  O   UNL     1     -19.281   9.040  18.438  1.00  0.00    -0.504 OA
ATOM     21  H   UNL     1     -19.170   8.517  17.578  1.00  0.00     0.293 HD
ENDBRANCH  17  20
ENDBRANCH   1  12
BRANCH   2  22
ATOM     22  O   UNL     1     -14.749   8.972  21.541  1.00  0.00    -0.502 OA
ATOM     23  H   UNL     1     -15.551   9.502  21.220  1.00  0.00     0.293 HD
ENDBRANCH   2  22
BRANCH   6  24
ATOM     24  O   UNL     1     -10.881   5.312  21.474  1.00  0.00    -0.507 OA
ATOM     25  H   UNL     1     -10.682   6.287  21.640  1.00  0.00     0.293 HD
ENDBRANCH   6  24
BRANCH   8  26
ATOM     26  O   UNL     1     -13.486   1.302  21.303  1.00  0.00    -0.508 OA
ATOM     27  H   UNL     1     -14.361   0.792  21.245  1.00  0.00     0.293 HD
ENDBRANCH   8  26
TORSDOF 6
ENDMDL
MODEL 2
REMARK VINA RESULT:     0.297      4.937      6.788
REMARK INTER + INTRA:           0.035
REMARK INTER:                  -0.497
REMARK INTRA:                   0.532
REMARK UNBOUND:                -0.323
REMARK SMILES O=c1c(O)c(-c2ccc(O)c(O)c2)oc2cc(O)cc(O)c12
REMARK SMILES IDX 5 1 3 2 2 3 1 4 22 5 20 6 19 7 17 8 16 9 15 10 14 11 6 12
REMARK SMILES IDX 7 13 8 14 9 15 13 16 11 17 10 18 12 20 4 22 21 24 18 26
REMARK H PARENT 10 19 12 21 4 23 21 25 18 27
REMARK Flexibility Score: inf
ROOT
ATOM      1  C   UNL     1     -14.265   8.868  17.121  1.00  0.00     0.180 A 
ATOM      2  C   UNL     1     -15.534   8.986  17.713  1.00  0.00     0.208 A 
ATOM      3  C   UNL     1     -15.641   8.924  19.112  1.00  0.00     0.238 A 
ATOM      4  O   UNL     1     -16.786   8.975  19.632  1.00  0.00    -0.285 OA
ATOM      5  C   UNL     1     -14.478   8.760  19.900  1.00  0.00     0.111 A 
ATOM      6  C   UNL     1     -14.465   8.723  21.328  1.00  0.00     0.134 A 
ATOM      7  C   UNL     1     -13.273   8.426  22.000  1.00  0.00     0.093 A 
ATOM      8  C   UNL     1     -12.082   8.230  21.303  1.00  0.00     0.123 A 
ATOM      9  C   UNL     1     -12.072   8.321  19.909  1.00  0.00     0.094 A 
ATOM     10  C   UNL     1     -13.251   8.581  19.209  1.00  0.00     0.146 A 
ATOM     11  O   UNL     1     -13.201   8.650  17.884  1.00  0.00    -0.452 OA
ENDROOT
BRANCH   1  12
ATOM     12  C   UNL     1     -14.069   8.950  15.655  1.00  0.00     0.025 A 
ATOM     13  C   UNL     1     -15.187   8.924  14.807  1.00  0.00     0.016 A 
ATOM     14  C   UNL     1     -15.024   8.980  13.420  1.00  0.00     0.051 A 
ATOM     15  C   UNL     1     -13.745   9.045  12.859  1.00  0.00     0.157 A 
ATOM     16  C   UNL     1     -12.782   8.994  15.089  1.00  0.00     0.062 A 
ATOM     17  C   UNL     1     -12.617   9.047  13.697  1.00  0.00     0.158 A 
BRANCH  15  18
ATOM     18  O   UNL     1     -13.614   9.100  11.473  1.00  0.00    -0.504 OA
ATOM     19  H   UNL     1     -12.897   8.582  10.979  1.00  0.00     0.293 HD
ENDBRANCH  15  18
BRANCH  17  20
ATOM     20  O   UNL     1     -11.337   9.097  13.146  1.00  0.00    -0.504 OA
ATOM     21  H   UNL     1     -11.192   9.140  12.144  1.00  0.00     0.293 HD
ENDBRANCH  17  20
ENDBRANCH   1  12
BRANCH   2  22
ATOM     22  O   UNL     1     -16.673   9.125  16.913  1.00  0.00    -0.502 OA
ATOM     23  H   UNL     1     -16.779   8.638  16.031  1.00  0.00     0.293 HD
ENDBRANCH   2  22
BRANCH   6  24
ATOM     24  O   UNL     1     -15.580   8.997  22.125  1.00  0.00    -0.507 OA
ATOM     25  H   UNL     1     -16.528   9.061  21.786  1.00  0.00     0.293 HD
ENDBRANCH   6  24
BRANCH   8  26
ATOM     26  O   UNL     1     -10.912   7.951  22.004  1.00  0.00    -0.508 OA
ATOM     27  H   UNL     1     -10.800   8.216  22.977  1.00  0.00     0.293 HD
ENDBRANCH   8  26
TORSDOF 6
ENDMDL
MODEL 3
REMARK VINA RESULT:     2.498     24.919     27.036
REMARK INTER + INTRA:           2.685
REMARK INTER:                   2.618
REMARK INTRA:                   0.068
REMARK UNBOUND:                -0.323
REMARK SMILES O=c1c(O)c(-c2ccc(O)c(O)c2)oc2cc(O)cc(O)c12
REMARK SMILES IDX 5 1 3 2 2 3 1 4 22 5 20 6 19 7 17 8 16 9 15 10 14 11 6 12
REMARK SMILES IDX 7 13 8 14 9 15 13 16 11 17 10 18 12 20 4 22 21 24 18 26
REMARK H PARENT 10 19 12 21 4 23 21 25 18 27
REMARK Flexibility Score: inf
ROOT
ATOM      1  C   UNL     1     -25.995  -8.792   2.664  1.00  0.00     0.180 A 
ATOM      2  C   UNL     1     -26.966  -9.806   2.725  1.00  0.00     0.208 A 
ATOM      3  C   UNL     1     -28.317  -9.467   2.549  1.00  0.00     0.238 A 
ATOM      4  O   UNL     1     -29.186 -10.371   2.659  1.00  0.00    -0.285 OA
ATOM      5  C   UNL     1     -28.678  -8.122   2.297  1.00  0.00     0.111 A 
ATOM      6  C   UNL     1     -30.013  -7.672   2.063  1.00  0.00     0.134 A 
ATOM      7  C   UNL     1     -30.269  -6.299   1.954  1.00  0.00     0.093 A 
ATOM      8  C   UNL     1     -29.235  -5.367   2.005  1.00  0.00     0.123 A 
ATOM      9  C   UNL     1     -27.918  -5.801   2.174  1.00  0.00     0.094 A 
ATOM     10  C   UNL     1     -27.635  -7.160   2.322  1.00  0.00     0.146 A 
ATOM     11  O   UNL     1     -26.372  -7.531   2.492  1.00  0.00    -0.452 OA
ENDROOT
BRANCH   1  12
ATOM     12  C   UNL     1     -24.549  -9.075   2.816  1.00  0.00     0.025 A 
ATOM     13  C   UNL     1     -23.643  -8.558   1.878  1.00  0.00     0.016 A 
ATOM     14  C   UNL     1     -22.277  -8.829   1.990  1.00  0.00     0.051 A 
ATOM     15  C   UNL     1     -21.797  -9.633   3.028  1.00  0.00     0.157 A 
ATOM     16  C   UNL     1     -24.068  -9.901   3.848  1.00  0.00     0.062 A 
ATOM     17  C   UNL     1     -22.697 -10.177   3.960  1.00  0.00     0.158 A 
BRANCH  15  18
ATOM     18  O   UNL     1     -20.429  -9.886   3.115  1.00  0.00    -0.504 OA
ATOM     19  H   UNL     1     -19.992 -10.659   2.629  1.00  0.00     0.293 HD
ENDBRANCH  15  18
BRANCH  17  20
ATOM     20  O   UNL     1     -22.230 -10.991   4.990  1.00  0.00    -0.504 OA
ATOM     21  H   UNL     1     -21.547 -11.721   4.822  1.00  0.00     0.293 HD
ENDBRANCH  17  20
ENDBRANCH   1  12
BRANCH   2  22
ATOM     22  O   UNL     1     -26.589 -11.125   2.998  1.00  0.00    -0.502 OA
ATOM     23  H   UNL     1     -25.635 -11.450   2.894  1.00  0.00     0.293 HD
ENDBRANCH   2  22
BRANCH   6  24
ATOM     24  O   UNL     1     -31.107  -8.526   1.902  1.00  0.00    -0.507 OA
ATOM     25  H   UNL     1     -31.100  -9.515   2.102  1.00  0.00     0.293 HD
ENDBRANCH   6  24
BRANCH   8  26
ATOM     26  O   UNL     1     -29.524  -4.011   1.877  1.00  0.00    -0.508 OA
ATOM     27  H   UNL     1     -30.456  -3.686   1.645  1.00  0.00     0.293 HD
ENDBRANCH   8  26
TORSDOF 6
ENDMDL
