MODEL 1
REMARK VINA RESULT:    -5.854      0.000      0.000
REMARK INTER + INTRA:          -7.105
REMARK INTER:                  -6.881
REMARK INTRA:                  -0.224
REMARK UNBOUND:                -0.224
REMARK SMILES O=c1c(O)c(-c2ccc(O)cc2)oc2cc(O)cc(O)c12
REMARK SMILES IDX 5 1 3 2 2 3 1 4 21 5 19 6 18 7 16 8 15 9 14 10 13 11 6 12
REMARK SMILES IDX 7 13 8 14 9 15 12 16 11 17 10 18 4 20 20 22 17 24
REMARK H PARENT 10 19 4 21 20 23 17 25
REMARK Flexibility Score: inf
ROOT
ATOM      1  C   UNL     1     308.116 226.908 204.517  1.00  0.00     0.180 A 
ATOM      2  C   UNL     1     309.434 226.742 204.046  1.00  0.00     0.208 A 
ATOM      3  C   UNL     1     309.914 225.441 203.823  1.00  0.00     0.238 A 
ATOM      4  O   UNL     1     311.089 225.280 203.392  1.00  0.00    -0.285 OA
ATOM      5  C   UNL     1     309.083 224.335 204.091  1.00  0.00     0.111 A 
ATOM      6  C   UNL     1     309.493 222.993 203.897  1.00  0.00     0.134 A 
ATOM      7  C   UNL     1     308.609 221.947 204.196  1.00  0.00     0.093 A 
ATOM      8  C   UNL     1     307.328 222.212 204.684  1.00  0.00     0.123 A 
ATOM      9  C   UNL     1     306.917 223.535 204.878  1.00  0.00     0.094 A 
ATOM     10  C   UNL     1     307.783 224.593 204.585  1.00  0.00     0.146 A 
ATOM     11  O   UNL     1     307.367 225.840 204.773  1.00  0.00    -0.452 OA
ENDROOT
BRANCH   1  12
ATOM     12  C   UNL     1     307.530 228.246 204.759  1.00  0.00     0.021 A 
ATOM     13  C   UNL     1     307.162 229.048 203.666  1.00  0.00     0.016 A 
ATOM     14  C   UNL     1     306.627 230.322 203.871  1.00  0.00     0.047 A 
ATOM     15  C   UNL     1     306.469 230.819 205.171  1.00  0.00     0.115 A 
ATOM     16  C   UNL     1     307.388 228.759 206.061  1.00  0.00     0.016 A 
ATOM     17  C   UNL     1     306.854 230.036 206.263  1.00  0.00     0.047 A 
BRANCH  15  18
ATOM     18  O   UNL     1     305.937 232.089 205.388  1.00  0.00    -0.508 OA
ATOM     19  H   UNL     1     305.067 232.379 204.957  1.00  0.00     0.293 HD
ENDBRANCH  15  18
ENDBRANCH   1  12
BRANCH   2  20
ATOM     20  O   UNL     1     310.254 227.853 203.836  1.00  0.00    -0.502 OA
ATOM     21  H   UNL     1     309.922 228.693 203.377  1.00  0.00     0.293 HD
ENDBRANCH   2  20
BRANCH   6  22
ATOM     22  O   UNL     1     310.767 222.695 203.411  1.00  0.00    -0.507 OA
ATOM     23  H   UNL     1     311.008 222.824 202.436  1.00  0.00     0.293 HD
ENDBRANCH   6  22
BRANCH   8  24
ATOM     24  O   UNL     1     306.471 221.154 204.975  1.00  0.00    -0.508 OA
ATOM     25  H   UNL     1     305.853 221.177 205.778  1.00  0.00     0.293 HD
ENDBRANCH   8  24
TORSDOF 5
ENDMDL
MODEL 2
REMARK VINA RESULT:    -5.821     11.899     14.386
REMARK INTER + INTRA:          -7.066
REMARK INTER:                  -6.768
REMARK INTRA:                  -0.298
REMARK UNBOUND:                -0.224
REMARK SMILES O=c1c(O)c(-c2ccc(O)cc2)oc2cc(O)cc(O)c12
REMARK SMILES IDX 5 1 3 2 2 3 1 4 21 5 19 6 18 7 16 8 15 9 14 10 13 11 6 12
REMARK SMILES IDX 7 13 8 14 9 15 12 16 11 17 10 18 4 20 20 22 17 24
REMARK H PARENT 10 19 4 21 20 23 17 25
REMARK Flexibility Score: inf
ROOT
ATOM      1  C   UNL     1     318.470 234.255 201.163  1.00  0.00     0.180 A 
ATOM      2  C   UNL     1     317.224 234.421 200.528  1.00  0.00     0.208 A 
ATOM      3  C   UNL     1     316.082 234.625 201.320  1.00  0.00     0.238 A 
ATOM      4  O   UNL     1     314.962 234.785 200.763  1.00  0.00    -0.285 OA
ATOM      5  C   UNL     1     316.201 234.640 202.725  1.00  0.00     0.111 A 
ATOM      6  C   UNL     1     315.100 234.835 203.594  1.00  0.00     0.134 A 
ATOM      7  C   UNL     1     315.300 234.828 204.981  1.00  0.00     0.093 A 
ATOM      8  C   UNL     1     316.573 234.629 205.518  1.00  0.00     0.123 A 
ATOM      9  C   UNL     1     317.666 234.436 204.665  1.00  0.00     0.094 A 
ATOM     10  C   UNL     1     317.488 234.441 203.278  1.00  0.00     0.146 A 
ATOM     11  O   UNL     1     318.542 234.260 202.491  1.00  0.00    -0.452 OA
ENDROOT
BRANCH   1  12
ATOM     12  C   UNL     1     319.722 234.054 200.398  1.00  0.00     0.021 A 
ATOM     13  C   UNL     1     320.163 232.749 200.123  1.00  0.00     0.016 A 
ATOM     14  C   UNL     1     321.353 232.536 199.422  1.00  0.00     0.047 A 
ATOM     15  C   UNL     1     322.126 233.626 199.000  1.00  0.00     0.115 A 
ATOM     16  C   UNL     1     320.514 235.143 199.989  1.00  0.00     0.016 A 
ATOM     17  C   UNL     1     321.705 234.927 199.289  1.00  0.00     0.047 A 
BRANCH  15  18
ATOM     18  O   UNL     1     323.314 233.426 198.300  1.00  0.00    -0.508 OA
ATOM     19  H   UNL     1     323.378 233.602 197.305  1.00  0.00     0.293 HD
ENDBRANCH  15  18
ENDBRANCH   1  12
BRANCH   2  20
ATOM     20  O   UNL     1     317.125 234.352 199.137  1.00  0.00    -0.502 OA
ATOM     21  H   UNL     1     317.695 234.922 198.524  1.00  0.00     0.293 HD
ENDBRANCH   2  20
BRANCH   6  22
ATOM     22  O   UNL     1     313.814 235.036 203.089  1.00  0.00    -0.507 OA
ATOM     23  H   UNL     1     312.993 234.961 203.677  1.00  0.00     0.293 HD
ENDBRANCH   6  22
BRANCH   8  24
ATOM     24  O   UNL     1     316.744 234.625 206.900  1.00  0.00    -0.508 OA
ATOM     25  H   UNL     1     317.188 235.398 207.382  1.00  0.00     0.293 HD
ENDBRANCH   8  24
TORSDOF 5
ENDMDL
MODEL 3
REMARK VINA RESULT:    -5.816      2.278      6.984
REMARK INTER + INTRA:          -7.060
REMARK INTER:                  -6.858
REMARK INTRA:                  -0.202
REMARK UNBOUND:                -0.224
REMARK SMILES O=c1c(O)c(-c2ccc(O)cc2)oc2cc(O)cc(O)c12
REMARK SMILES IDX 5 1 3 2 2 3 1 4 21 5 19 6 18 7 16 8 15 9 14 10 13 11 6 12
REMARK SMILES IDX 7 13 8 14 9 15 12 16 11 17 10 18 4 20 20 22 17 24
REMARK H PARENT 10 19 4 21 20 23 17 25
REMARK Flexibility Score: inf
ROOT
ATOM      1  C   UNL     1     308.120 226.669 203.643  1.00  0.00     0.180 A 
ATOM      2  C   UNL     1     306.971 227.188 203.014  1.00  0.00     0.208 A 
ATOM      3  C   UNL     1     306.938 228.553 202.685  1.00  0.00     0.238 A 
ATOM      4  O   UNL     1     305.919 229.028 202.112  1.00  0.00    -0.285 OA
ATOM      5  C   UNL     1     308.037 229.375 203.005  1.00  0.00     0.111 A 
ATOM      6  C   UNL     1     308.081 230.760 202.712  1.00  0.00     0.134 A 
ATOM      7  C   UNL     1     309.208 231.511 203.071  1.00  0.00     0.093 A 
ATOM      8  C   UNL     1     310.290 230.910 203.717  1.00  0.00     0.123 A 
ATOM      9  C   UNL     1     310.253 229.542 204.010  1.00  0.00     0.094 A 
ATOM     10  C   UNL     1     309.139 228.774 203.658  1.00  0.00     0.146 A 
ATOM     11  O   UNL     1     309.131 227.478 203.943  1.00  0.00    -0.452 OA
ENDROOT
BRANCH   1  12
ATOM     12  C   UNL     1     308.239 225.238 204.004  1.00  0.00     0.021 A 
ATOM     13  C   UNL     1     309.069 224.399 203.243  1.00  0.00     0.016 A 
ATOM     14  C   UNL     1     309.180 223.041 203.553  1.00  0.00     0.047 A 
ATOM     15  C   UNL     1     308.449 222.501 204.619  1.00  0.00     0.115 A 
ATOM     16  C   UNL     1     307.493 224.684 205.061  1.00  0.00     0.016 A 
ATOM     17  C   UNL     1     307.605 223.324 205.369  1.00  0.00     0.047 A 
BRANCH  15  18
ATOM     18  O   UNL     1     308.551 221.148 204.938  1.00  0.00    -0.508 OA
ATOM     19  H   UNL     1     307.789 220.504 204.760  1.00  0.00     0.293 HD
ENDBRANCH  15  18
ENDBRANCH   1  12
BRANCH   2  20
ATOM     20  O   UNL     1     305.875 226.363 202.752  1.00  0.00    -0.502 OA
ATOM     21  H   UNL     1     305.945 225.353 202.746  1.00  0.00     0.293 HD
ENDBRANCH   2  20
BRANCH   6  22
ATOM     22  O   UNL     1     307.016 231.391 202.067  1.00  0.00    -0.507 OA
ATOM     23  H   UNL     1     306.189 230.881 201.780  1.00  0.00     0.293 HD
ENDBRANCH   6  22
BRANCH   8  24
ATOM     24  O   UNL     1     311.397 231.679 204.065  1.00  0.00    -0.508 OA
ATOM     25  H   UNL     1     311.489 232.643 203.764  1.00  0.00     0.293 HD
ENDBRANCH   8  24
TORSDOF 5
ENDMDL
MODEL 4
REMARK VINA RESULT:    -5.776      1.652      7.006
REMARK INTER + INTRA:          -7.013
REMARK INTER:                  -7.187
REMARK INTRA:                   0.174
REMARK UNBOUND:                -0.224
REMARK SMILES O=c1c(O)c(-c2ccc(O)cc2)oc2cc(O)cc(O)c12
REMARK SMILES IDX 5 1 3 2 2 3 1 4 21 5 19 6 18 7 16 8 15 9 14 10 13 11 6 12
REMARK SMILES IDX 7 13 8 14 9 15 12 16 11 17 10 18 4 20 20 22 17 24
REMARK H PARENT 10 19 4 21 20 23 17 25
REMARK Flexibility Score: inf
ROOT
ATOM      1  C   UNL     1     307.994 225.964 204.699  1.00  0.00     0.180 A 
ATOM      2  C   UNL     1     307.247 226.244 205.860  1.00  0.00     0.208 A 
ATOM      3  C   UNL     1     306.777 227.551 206.063  1.00  0.00     0.238 A 
ATOM      4  O   UNL     1     306.098 227.812 207.094  1.00  0.00    -0.285 OA
ATOM      5  C   UNL     1     307.076 228.555 205.120  1.00  0.00     0.111 A 
ATOM      6  C   UNL     1     306.644 229.897 205.253  1.00  0.00     0.134 A 
ATOM      7  C   UNL     1     306.991 230.839 204.275  1.00  0.00     0.093 A 
ATOM      8  C   UNL     1     307.760 230.470 203.170  1.00  0.00     0.123 A 
ATOM      9  C   UNL     1     308.190 229.146 203.032  1.00  0.00     0.094 A 
ATOM     10  C   UNL     1     307.853 228.190 203.996  1.00  0.00     0.146 A 
ATOM     11  O   UNL     1     308.270 226.940 203.839  1.00  0.00    -0.452 OA
ENDROOT
BRANCH   1  12
ATOM     12  C   UNL     1     308.509 224.607 204.403  1.00  0.00     0.021 A 
ATOM     13  C   UNL     1     309.748 224.463 203.758  1.00  0.00     0.016 A 
ATOM     14  C   UNL     1     310.242 223.192 203.449  1.00  0.00     0.047 A 
ATOM     15  C   UNL     1     309.496 222.050 203.768  1.00  0.00     0.115 A 
ATOM     16  C   UNL     1     307.756 223.456 204.701  1.00  0.00     0.016 A 
ATOM     17  C   UNL     1     308.252 222.186 204.390  1.00  0.00     0.047 A 
BRANCH  15  18
ATOM     18  O   UNL     1     309.979 220.778 203.464  1.00  0.00    -0.508 OA
ATOM     19  H   UNL     1     310.912 220.489 203.731  1.00  0.00     0.293 HD
ENDBRANCH  15  18
ENDBRANCH   1  12
BRANCH   2  20
ATOM     20  O   UNL     1     307.006 225.243 206.803  1.00  0.00    -0.502 OA
ATOM     21  H   UNL     1     307.380 224.306 206.709  1.00  0.00     0.293 HD
ENDBRANCH   2  20
BRANCH   6  22
ATOM     22  O   UNL     1     305.875 230.299 206.347  1.00  0.00    -0.507 OA
ATOM     23  H   UNL     1     305.243 231.088 206.292  1.00  0.00     0.293 HD
ENDBRANCH   6  22
BRANCH   8  24
ATOM     24  O   UNL     1     308.093 231.426 202.213  1.00  0.00    -0.508 OA
ATOM     25  H   UNL     1     308.993 231.419 201.748  1.00  0.00     0.293 HD
ENDBRANCH   8  24
TORSDOF 5
ENDMDL
MODEL 5
REMARK VINA RESULT:    -5.766      2.197      3.343
REMARK INTER + INTRA:          -7.001
REMARK INTER:                  -6.711
REMARK INTRA:                  -0.290
REMARK UNBOUND:                -0.224
REMARK SMILES O=c1c(O)c(-c2ccc(O)cc2)oc2cc(O)cc(O)c12
REMARK SMILES IDX 5 1 3 2 2 3 1 4 21 5 19 6 18 7 16 8 15 9 14 10 13 11 6 12
REMARK SMILES IDX 7 13 8 14 9 15 12 16 11 17 10 18 4 20 20 22 17 24
REMARK H PARENT 10 19 4 21 20 23 17 25
REMARK Flexibility Score: inf
ROOT
ATOM      1  C   UNL     1     308.649 228.083 204.247  1.00  0.00     0.180 A 
ATOM      2  C   UNL     1     307.453 227.713 204.893  1.00  0.00     0.208 A 
ATOM      3  C   UNL     1     307.188 226.349 205.098  1.00  0.00     0.238 A 
ATOM      4  O   UNL     1     306.126 226.005 205.684  1.00  0.00    -0.285 OA
ATOM      5  C   UNL     1     308.106 225.384 204.638  1.00  0.00     0.111 A 
ATOM      6  C   UNL     1     307.911 223.990 204.800  1.00  0.00     0.134 A 
ATOM      7  C   UNL     1     308.868 223.092 204.306  1.00  0.00     0.093 A 
ATOM      8  C   UNL     1     310.012 223.556 203.654  1.00  0.00     0.123 A 
ATOM      9  C   UNL     1     310.211 224.932 203.490  1.00  0.00     0.094 A 
ATOM     10  C   UNL     1     309.269 225.844 203.977  1.00  0.00     0.146 A 
ATOM     11  O   UNL     1     309.484 227.143 203.813  1.00  0.00    -0.452 OA
ENDROOT
BRANCH   1  12
ATOM     12  C   UNL     1     309.009 229.500 204.011  1.00  0.00     0.021 A 
ATOM     13  C   UNL     1     308.789 230.068 202.746  1.00  0.00     0.016 A 
ATOM     14  C   UNL     1     309.142 231.397 202.495  1.00  0.00     0.047 A 
ATOM     15  C   UNL     1     309.735 232.170 203.502  1.00  0.00     0.115 A 
ATOM     16  C   UNL     1     309.624 230.276 205.011  1.00  0.00     0.016 A 
ATOM     17  C   UNL     1     309.978 231.605 204.757  1.00  0.00     0.047 A 
BRANCH  15  18
ATOM     18  O   UNL     1     310.092 233.496 203.263  1.00  0.00    -0.508 OA
ATOM     19  H   UNL     1     310.953 233.734 202.785  1.00  0.00     0.293 HD
ENDBRANCH  15  18
ENDBRANCH   1  12
BRANCH   2  20
ATOM     20  O   UNL     1     306.537 228.687 205.295  1.00  0.00    -0.502 OA
ATOM     21  H   UNL     1     306.021 229.254 204.632  1.00  0.00     0.293 HD
ENDBRANCH   2  20
BRANCH   6  22
ATOM     22  O   UNL     1     306.778 223.494 205.447  1.00  0.00    -0.507 OA
ATOM     23  H   UNL     1     305.865 223.913 205.318  1.00  0.00     0.293 HD
ENDBRANCH   6  22
BRANCH   8  24
ATOM     24  O   UNL     1     310.946 222.643 203.171  1.00  0.00    -0.508 OA
ATOM     25  H   UNL     1     311.023 221.709 203.556  1.00  0.00     0.293 HD
ENDBRANCH   8  24
TORSDOF 5
ENDMDL
MODEL 6
REMARK VINA RESULT:    -5.531      3.169      7.113
REMARK INTER + INTRA:          -6.725
REMARK INTER:                  -6.434
REMARK INTRA:                  -0.291
REMARK UNBOUND:                -0.224
REMARK SMILES O=c1c(O)c(-c2ccc(O)cc2)oc2cc(O)cc(O)c12
REMARK SMILES IDX 5 1 3 2 2 3 1 4 21 5 19 6 18 7 16 8 15 9 14 10 13 11 6 12
REMARK SMILES IDX 7 13 8 14 9 15 12 16 11 17 10 18 4 20 20 22 17 24
REMARK H PARENT 10 19 4 21 20 23 17 25
REMARK Flexibility Score: inf
ROOT
ATOM      1  C   UNL     1     308.098 228.259 203.373  1.00  0.00     0.180 A 
ATOM      2  C   UNL     1     307.217 228.739 202.385  1.00  0.00     0.208 A 
ATOM      3  C   UNL     1     307.529 229.937 201.722  1.00  0.00     0.238 A 
ATOM      4  O   UNL     1     306.752 230.372 200.828  1.00  0.00    -0.285 OA
ATOM      5  C   UNL     1     308.699 230.641 202.070  1.00  0.00     0.111 A 
ATOM      6  C   UNL     1     309.083 231.858 201.454  1.00  0.00     0.134 A 
ATOM      7  C   UNL     1     310.259 232.503 201.863  1.00  0.00     0.093 A 
ATOM      8  C   UNL     1     311.056 231.961 202.872  1.00  0.00     0.123 A 
ATOM      9  C   UNL     1     310.682 230.759 203.485  1.00  0.00     0.094 A 
ATOM     10  C   UNL     1     309.515 230.099 203.091  1.00  0.00     0.146 A 
ATOM     11  O   UNL     1     309.185 228.959 203.685  1.00  0.00    -0.452 OA
ENDROOT
BRANCH   1  12
ATOM     12  C   UNL     1     307.849 226.995 204.103  1.00  0.00     0.021 A 
ATOM     13  C   UNL     1     308.332 225.786 203.576  1.00  0.00     0.016 A 
ATOM     14  C   UNL     1     308.089 224.578 204.237  1.00  0.00     0.047 A 
ATOM     15  C   UNL     1     307.347 224.563 205.425  1.00  0.00     0.115 A 
ATOM     16  C   UNL     1     307.087 226.969 205.285  1.00  0.00     0.016 A 
ATOM     17  C   UNL     1     306.845 225.759 205.944  1.00  0.00     0.047 A 
BRANCH  15  18
ATOM     18  O   UNL     1     307.098 223.365 206.092  1.00  0.00    -0.508 OA
ATOM     19  H   UNL     1     306.651 222.584 205.627  1.00  0.00     0.293 HD
ENDBRANCH  15  18
ENDBRANCH   1  12
BRANCH   2  20
ATOM     20  O   UNL     1     306.038 228.048 202.093  1.00  0.00    -0.502 OA
ATOM     21  H   UNL     1     305.257 228.011 202.737  1.00  0.00     0.293 HD
ENDBRANCH   2  20
BRANCH   6  22
ATOM     22  O   UNL     1     308.308 232.426 200.442  1.00  0.00    -0.507 OA
ATOM     23  H   UNL     1     308.067 231.912 199.603  1.00  0.00     0.293 HD
ENDBRANCH   6  22
BRANCH   8  24
ATOM     24  O   UNL     1     312.218 232.623 203.261  1.00  0.00    -0.508 OA
ATOM     25  H   UNL     1     313.034 232.657 202.661  1.00  0.00     0.293 HD
ENDBRANCH   8  24
TORSDOF 5
ENDMDL
MODEL 7
REMARK VINA RESULT:    -5.480      9.644     11.770
REMARK INTER + INTRA:          -6.665
REMARK INTER:                  -6.441
REMARK INTRA:                  -0.224
REMARK UNBOUND:                -0.224
REMARK SMILES O=c1c(O)c(-c2ccc(O)cc2)oc2cc(O)cc(O)c12
REMARK SMILES IDX 5 1 3 2 2 3 1 4 21 5 19 6 18 7 16 8 15 9 14 10 13 11 6 12
REMARK SMILES IDX 7 13 8 14 9 15 12 16 11 17 10 18 4 20 20 22 17 24
REMARK H PARENT 10 19 4 21 20 23 17 25
REMARK Flexibility Score: inf
ROOT
ATOM      1  C   UNL     1     314.957 233.995 201.817  1.00  0.00     0.180 A 
ATOM      2  C   UNL     1     313.780 233.226 201.904  1.00  0.00     0.208 A 
ATOM      3  C   UNL     1     313.200 232.740 200.720  1.00  0.00     0.238 A 
ATOM      4  O   UNL     1     312.151 232.042 200.785  1.00  0.00    -0.285 OA
ATOM      5  C   UNL     1     313.791 233.045 199.478  1.00  0.00     0.111 A 
ATOM      6  C   UNL     1     313.267 232.598 198.240  1.00  0.00     0.134 A 
ATOM      7  C   UNL     1     313.910 232.952 197.045  1.00  0.00     0.093 A 
ATOM      8  C   UNL     1     315.061 233.742 197.061  1.00  0.00     0.123 A 
ATOM      9  C   UNL     1     315.583 234.187 198.280  1.00  0.00     0.094 A 
ATOM     10  C   UNL     1     314.959 233.844 199.483  1.00  0.00     0.146 A 
ATOM     11  O   UNL     1     315.478 234.275 200.626  1.00  0.00    -0.452 OA
ENDROOT
BRANCH   1  12
ATOM     12  C   UNL     1     315.639 234.527 203.020  1.00  0.00     0.021 A 
ATOM     13  C   UNL     1     316.804 233.898 203.490  1.00  0.00     0.016 A 
ATOM     14  C   UNL     1     317.451 234.370 204.635  1.00  0.00     0.047 A 
ATOM     15  C   UNL     1     316.932 235.468 205.334  1.00  0.00     0.115 A 
ATOM     16  C   UNL     1     315.112 235.616 203.739  1.00  0.00     0.016 A 
ATOM     17  C   UNL     1     315.761 236.085 204.886  1.00  0.00     0.047 A 
BRANCH  15  18
ATOM     18  O   UNL     1     317.568 235.947 206.478  1.00  0.00    -0.508 OA
ATOM     19  H   UNL     1     317.413 236.890 206.813  1.00  0.00     0.293 HD
ENDBRANCH  15  18
ENDBRANCH   1  12
BRANCH   2  20
ATOM     20  O   UNL     1     313.186 232.980 203.144  1.00  0.00    -0.502 OA
ATOM     21  H   UNL     1     312.182 232.991 203.276  1.00  0.00     0.293 HD
ENDBRANCH   2  20
BRANCH   6  22
ATOM     22  O   UNL     1     312.118 231.808 198.190  1.00  0.00    -0.507 OA
ATOM     23  H   UNL     1     312.028 230.963 198.743  1.00  0.00     0.293 HD
ENDBRANCH   6  22
BRANCH   8  24
ATOM     24  O   UNL     1     315.678 234.081 195.859  1.00  0.00    -0.508 OA
ATOM     25  H   UNL     1     316.573 234.557 195.839  1.00  0.00     0.293 HD
ENDBRANCH   8  24
TORSDOF 5
ENDMDL
MODEL 8
REMARK VINA RESULT:    -5.412     10.585     12.432
REMARK INTER + INTRA:          -6.585
REMARK INTER:                  -6.295
REMARK INTRA:                  -0.290
REMARK UNBOUND:                -0.224
REMARK SMILES O=c1c(O)c(-c2ccc(O)cc2)oc2cc(O)cc(O)c12
REMARK SMILES IDX 5 1 3 2 2 3 1 4 21 5 19 6 18 7 16 8 15 9 14 10 13 11 6 12
REMARK SMILES IDX 7 13 8 14 9 15 12 16 11 17 10 18 4 20 20 22 17 24
REMARK H PARENT 10 19 4 21 20 23 17 25
REMARK Flexibility Score: inf
ROOT
ATOM      1  C   UNL     1     313.291 232.770 196.818  1.00  0.00     0.180 A 
ATOM      2  C   UNL     1     314.494 233.135 196.183  1.00  0.00     0.208 A 
ATOM      3  C   UNL     1     314.538 233.161 194.780  1.00  0.00     0.238 A 
ATOM      4  O   UNL     1     315.607 233.496 194.199  1.00  0.00    -0.285 OA
ATOM      5  C   UNL     1     313.394 232.803 194.040  1.00  0.00     0.111 A 
ATOM      6  C   UNL     1     313.357 232.798 192.624  1.00  0.00     0.134 A 
ATOM      7  C   UNL     1     312.181 232.421 191.960  1.00  0.00     0.093 A 
ATOM      8  C   UNL     1     311.044 232.048 192.680  1.00  0.00     0.123 A 
ATOM      9  C   UNL     1     311.074 232.051 194.079  1.00  0.00     0.094 A 
ATOM     10  C   UNL     1     312.236 232.425 194.759  1.00  0.00     0.146 A 
ATOM     11  O   UNL     1     312.236 232.424 196.087  1.00  0.00    -0.452 OA
ENDROOT
BRANCH   1  12
ATOM     12  C   UNL     1     313.159 232.737 198.293  1.00  0.00     0.021 A 
ATOM     13  C   UNL     1     312.743 233.892 198.976  1.00  0.00     0.016 A 
ATOM     14  C   UNL     1     312.633 233.890 200.369  1.00  0.00     0.047 A 
ATOM     15  C   UNL     1     312.952 232.738 201.099  1.00  0.00     0.115 A 
ATOM     16  C   UNL     1     313.497 231.590 199.034  1.00  0.00     0.016 A 
ATOM     17  C   UNL     1     313.387 231.591 200.429  1.00  0.00     0.047 A 
BRANCH  15  18
ATOM     18  O   UNL     1     312.846 232.724 202.488  1.00  0.00    -0.508 OA
ATOM     19  H   UNL     1     313.174 231.938 203.036  1.00  0.00     0.293 HD
ENDBRANCH  15  18
ENDBRANCH   1  12
BRANCH   2  20
ATOM     20  O   UNL     1     315.629 233.437 196.939  1.00  0.00    -0.502 OA
ATOM     21  H   UNL     1     315.710 233.192 197.918  1.00  0.00     0.293 HD
ENDBRANCH   2  20
BRANCH   6  22
ATOM     22  O   UNL     1     314.477 233.165 191.875  1.00  0.00    -0.507 OA
ATOM     23  H   UNL     1     315.021 233.989 192.100  1.00  0.00     0.293 HD
ENDBRANCH   6  22
BRANCH   8  24
ATOM     24  O   UNL     1     309.889 231.676 191.996  1.00  0.00    -0.508 OA
ATOM     25  H   UNL     1     309.890 230.911 191.331  1.00  0.00     0.293 HD
ENDBRANCH   8  24
TORSDOF 5
ENDMDL
MODEL 9
REMARK VINA RESULT:    -5.337      9.947     12.428
REMARK INTER + INTRA:          -6.496
REMARK INTER:                  -6.211
REMARK INTRA:                  -0.286
REMARK UNBOUND:                -0.224
REMARK SMILES O=c1c(O)c(-c2ccc(O)cc2)oc2cc(O)cc(O)c12
REMARK SMILES IDX 5 1 3 2 2 3 1 4 21 5 19 6 18 7 16 8 15 9 14 10 13 11 6 12
REMARK SMILES IDX 7 13 8 14 9 15 12 16 11 17 10 18 4 20 20 22 17 24
REMARK H PARENT 10 19 4 21 20 23 17 25
REMARK Flexibility Score: inf
ROOT
ATOM      1  C   UNL     1     312.522 233.072 196.981  1.00  0.00     0.180 A 
ATOM      2  C   UNL     1     311.908 232.547 198.135  1.00  0.00     0.208 A 
ATOM      3  C   UNL     1     312.547 232.709 199.375  1.00  0.00     0.238 A 
ATOM      4  O   UNL     1     312.002 232.251 200.417  1.00  0.00    -0.285 OA
ATOM      5  C   UNL     1     313.789 233.371 199.438  1.00  0.00     0.111 A 
ATOM      6  C   UNL     1     314.500 233.572 200.647  1.00  0.00     0.134 A 
ATOM      7  C   UNL     1     315.735 234.234 200.625  1.00  0.00     0.093 A 
ATOM      8  C   UNL     1     316.276 234.697 199.424  1.00  0.00     0.123 A 
ATOM      9  C   UNL     1     315.579 234.502 198.226  1.00  0.00     0.094 A 
ATOM     10  C   UNL     1     314.344 233.846 198.227  1.00  0.00     0.146 A 
ATOM     11  O   UNL     1     313.701 233.678 197.077  1.00  0.00    -0.452 OA
ENDROOT
BRANCH   1  12
ATOM     12  C   UNL     1     311.903 232.959 195.640  1.00  0.00     0.021 A 
ATOM     13  C   UNL     1     310.950 233.908 195.236  1.00  0.00     0.016 A 
ATOM     14  C   UNL     1     310.338 233.808 193.984  1.00  0.00     0.047 A 
ATOM     15  C   UNL     1     310.659 232.748 193.126  1.00  0.00     0.115 A 
ATOM     16  C   UNL     1     312.205 231.885 194.782  1.00  0.00     0.016 A 
ATOM     17  C   UNL     1     311.589 231.787 193.530  1.00  0.00     0.047 A 
BRANCH  15  18
ATOM     18  O   UNL     1     310.054 232.637 191.875  1.00  0.00    -0.508 OA
ATOM     19  H   UNL     1     309.294 231.987 191.711  1.00  0.00     0.293 HD
ENDBRANCH  15  18
ENDBRANCH   1  12
BRANCH   2  20
ATOM     20  O   UNL     1     310.701 231.851 198.038  1.00  0.00    -0.502 OA
ATOM     21  H   UNL     1     310.601 231.011 197.481  1.00  0.00     0.293 HD
ENDBRANCH   2  20
BRANCH   6  22
ATOM     22  O   UNL     1     313.987 233.121 201.864  1.00  0.00    -0.507 OA
ATOM     23  H   UNL     1     314.144 233.625 202.728  1.00  0.00     0.293 HD
ENDBRANCH   6  22
BRANCH   8  24
ATOM     24  O   UNL     1     317.506 235.349 199.430  1.00  0.00    -0.508 OA
ATOM     25  H   UNL     1     317.569 236.361 199.416  1.00  0.00     0.293 HD
ENDBRANCH   8  24
TORSDOF 5
ENDMDL
