MODEL 1
REMARK VINA RESULT:    -5.970      0.000      0.000
REMARK INTER + INTRA:          -7.749
REMARK INTER:                  -7.366
REMARK INTRA:                  -0.383
REMARK UNBOUND:                -0.383
REMARK SMILES Oc1cc(O)c2cc(O)c(-c3cc(O)c(O)c(O)c3)[o+]c2c1
REMARK SMILES IDX 10 1 20 2 21 3 22 4 2 5 3 6 4 7 6 8 7 9 8 10 11 11 12 12
REMARK SMILES IDX 13 13 19 14 15 15 17 16 14 17 16 19 18 21 9 23 1 25 5 27
REMARK H PARENT 14 18 16 20 18 22 9 24 1 26 5 28
REMARK Flexibility Score: inf
ROOT
ATOM      1  C   UNL     1     174.520 171.749 175.718  1.00  0.00     0.402 A 
ATOM      2  O   UNL     1     174.784 172.213 176.938  1.00  0.00    -0.202 OA
ATOM      3  C   UNL     1     173.841 172.603 177.790  1.00  0.00     0.368 A 
ATOM      4  C   UNL     1     174.218 173.080 179.048  1.00  0.00     0.162 A 
ATOM      5  C   UNL     1     173.250 173.499 179.961  1.00  0.00     0.128 A 
ATOM      6  C   UNL     1     171.895 173.442 179.617  1.00  0.00     0.093 A 
ATOM      7  C   UNL     1     171.492 172.970 178.362  1.00  0.00     0.136 A 
ATOM      8  C   UNL     1     172.473 172.540 177.430  1.00  0.00     0.125 A 
ATOM      9  C   UNL     1     172.161 172.039 176.155  1.00  0.00     0.078 A 
ATOM     10  C   UNL     1     173.183 171.630 175.294  1.00  0.00     0.223 A 
ENDROOT
BRANCH   1  11
ATOM     11  C   UNL     1     175.658 171.355 174.857  1.00  0.00     0.091 A 
ATOM     12  C   UNL     1     176.156 170.047 174.927  1.00  0.00     0.068 A 
ATOM     13  C   UNL     1     177.243 169.645 174.144  1.00  0.00     0.162 A 
ATOM     14  C   UNL     1     176.289 172.280 174.012  1.00  0.00     0.068 A 
ATOM     15  C   UNL     1     177.861 170.577 173.274  1.00  0.00     0.200 A 
ATOM     16  C   UNL     1     177.378 171.898 173.222  1.00  0.00     0.162 A 
BRANCH  13  17
ATOM     17  O   UNL     1     177.674 168.321 174.260  1.00  0.00    -0.504 OA
ATOM     18  H   UNL     1     177.718 167.670 173.491  1.00  0.00     0.293 HD
ENDBRANCH  13  17
BRANCH  15  19
ATOM     19  O   UNL     1     178.945 170.234 172.462  1.00  0.00    -0.502 OA
ATOM     20  H   UNL     1     179.890 170.116 172.798  1.00  0.00     0.293 HD
ENDBRANCH  15  19
BRANCH  16  21
ATOM     21  O   UNL     1     177.969 172.849 172.391  1.00  0.00    -0.504 OA
ATOM     22  H   UNL     1     178.213 172.650 171.428  1.00  0.00     0.293 HD
ENDBRANCH  16  21
ENDBRANCH   1  11
BRANCH  10  23
ATOM     23  O   UNL     1     172.872 171.086 174.047  1.00  0.00    -0.500 OA
ATOM     24  H   UNL     1     172.590 170.119 173.944  1.00  0.00     0.294 HD
ENDBRANCH  10  23
BRANCH   5  25
ATOM     25  O   UNL     1     173.644 173.970 181.212  1.00  0.00    -0.507 OA
ATOM     26  H   UNL     1     174.621 174.079 181.454  1.00  0.00     0.293 HD
ENDBRANCH   5  25
BRANCH   7  27
ATOM     27  O   UNL     1     170.120 172.948 178.092  1.00  0.00    -0.507 OA
ATOM     28  H   UNL     1     169.669 173.508 177.384  1.00  0.00     0.293 HD
ENDBRANCH   7  27
TORSDOF 7
ENDMDL
MODEL 2
REMARK VINA RESULT:    -5.945      3.865      6.857
REMARK INTER + INTRA:          -7.718
REMARK INTER:                  -7.336
REMARK INTRA:                  -0.382
REMARK UNBOUND:                -0.383
REMARK SMILES Oc1cc(O)c2cc(O)c(-c3cc(O)c(O)c(O)c3)[o+]c2c1
REMARK SMILES IDX 10 1 20 2 21 3 22 4 2 5 3 6 4 7 6 8 7 9 8 10 11 11 12 12
REMARK SMILES IDX 13 13 19 14 15 15 17 16 14 17 16 19 18 21 9 23 1 25 5 27
REMARK H PARENT 14 18 16 20 18 22 9 24 1 26 5 28
REMARK Flexibility Score: inf
ROOT
ATOM      1  C   UNL     1     171.865 174.652 175.739  1.00  0.00     0.402 A 
ATOM      2  O   UNL     1     171.596 174.188 176.957  1.00  0.00    -0.202 OA
ATOM      3  C   UNL     1     172.535 173.801 177.814  1.00  0.00     0.368 A 
ATOM      4  C   UNL     1     172.153 173.324 179.071  1.00  0.00     0.162 A 
ATOM      5  C   UNL     1     173.116 172.908 179.990  1.00  0.00     0.128 A 
ATOM      6  C   UNL     1     174.473 172.966 179.651  1.00  0.00     0.093 A 
ATOM      7  C   UNL     1     174.882 173.438 178.398  1.00  0.00     0.136 A 
ATOM      8  C   UNL     1     173.905 173.865 177.461  1.00  0.00     0.125 A 
ATOM      9  C   UNL     1     174.222 174.366 176.188  1.00  0.00     0.078 A 
ATOM     10  C   UNL     1     173.203 174.772 175.321  1.00  0.00     0.223 A 
ENDROOT
BRANCH   1  11
ATOM     11  C   UNL     1     170.730 175.043 174.872  1.00  0.00     0.091 A 
ATOM     12  C   UNL     1     170.238 176.354 174.929  1.00  0.00     0.068 A 
ATOM     13  C   UNL     1     169.154 176.753 174.140  1.00  0.00     0.162 A 
ATOM     14  C   UNL     1     170.097 174.114 174.033  1.00  0.00     0.068 A 
ATOM     15  C   UNL     1     168.534 175.817 173.277  1.00  0.00     0.200 A 
ATOM     16  C   UNL     1     169.012 174.494 173.238  1.00  0.00     0.162 A 
BRANCH  13  17
ATOM     17  O   UNL     1     168.729 178.080 174.243  1.00  0.00    -0.504 OA
ATOM     18  H   UNL     1     169.327 178.847 174.513  1.00  0.00     0.293 HD
ENDBRANCH  13  17
BRANCH  15  19
ATOM     19  O   UNL     1     167.453 176.157 172.459  1.00  0.00    -0.502 OA
ATOM     20  H   UNL     1     167.515 176.278 171.459  1.00  0.00     0.293 HD
ENDBRANCH  15  19
BRANCH  16  21
ATOM     21  O   UNL     1     168.419 173.538 172.413  1.00  0.00    -0.504 OA
ATOM     22  H   UNL     1     167.873 172.768 172.783  1.00  0.00     0.293 HD
ENDBRANCH  16  21
ENDBRANCH   1  11
BRANCH  10  23
ATOM     23  O   UNL     1     173.520 175.316 174.075  1.00  0.00    -0.500 OA
ATOM     24  H   UNL     1     174.016 176.195 173.988  1.00  0.00     0.294 HD
ENDBRANCH  10  23
BRANCH   5  25
ATOM     25  O   UNL     1     172.717 172.437 181.238  1.00  0.00    -0.507 OA
ATOM     26  H   UNL     1     172.738 171.450 181.465  1.00  0.00     0.293 HD
ENDBRANCH   5  25
BRANCH   7  27
ATOM     27  O   UNL     1     176.255 173.462 178.135  1.00  0.00    -0.507 OA
ATOM     28  H   UNL     1     176.880 172.685 178.291  1.00  0.00     0.293 HD
ENDBRANCH   7  27
TORSDOF 7
ENDMDL
MODEL 3
REMARK VINA RESULT:    -5.874      4.615      6.991
REMARK INTER + INTRA:          -7.631
REMARK INTER:                  -8.015
REMARK INTRA:                   0.384
REMARK UNBOUND:                -0.383
REMARK SMILES Oc1cc(O)c2cc(O)c(-c3cc(O)c(O)c(O)c3)[o+]c2c1
REMARK SMILES IDX 10 1 20 2 21 3 22 4 2 5 3 6 4 7 6 8 7 9 8 10 11 11 12 12
REMARK SMILES IDX 13 13 19 14 15 15 17 16 14 17 16 19 18 21 9 23 1 25 5 27
REMARK H PARENT 14 18 16 20 18 22 9 24 1 26 5 28
REMARK Flexibility Score: inf
ROOT
ATOM      1  C   UNL     1     172.839 175.924 176.131  1.00  0.00     0.402 A 
ATOM      2  O   UNL     1     172.313 175.333 177.201  1.00  0.00    -0.202 OA
ATOM      3  C   UNL     1     173.004 174.529 178.003  1.00  0.00     0.368 A 
ATOM      4  C   UNL     1     172.362 173.952 179.102  1.00  0.00     0.162 A 
ATOM      5  C   UNL     1     173.061 173.101 179.960  1.00  0.00     0.128 A 
ATOM      6  C   UNL     1     174.411 172.824 179.718  1.00  0.00     0.093 A 
ATOM      7  C   UNL     1     175.077 173.389 178.623  1.00  0.00     0.136 A 
ATOM      8  C   UNL     1     174.370 174.256 177.750  1.00  0.00     0.125 A 
ATOM      9  C   UNL     1     174.958 174.878 176.636  1.00  0.00     0.078 A 
ATOM     10  C   UNL     1     174.198 175.725 175.824  1.00  0.00     0.223 A 
ENDROOT
BRANCH   1  11
ATOM     11  C   UNL     1     171.964 176.791 175.309  1.00  0.00     0.091 A 
ATOM     12  C   UNL     1     170.587 176.829 175.572  1.00  0.00     0.068 A 
ATOM     13  C   UNL     1     169.728 177.621 174.803  1.00  0.00     0.162 A 
ATOM     14  C   UNL     1     172.473 177.532 174.233  1.00  0.00     0.068 A 
ATOM     15  C   UNL     1     170.251 178.386 173.733  1.00  0.00     0.200 A 
ATOM     16  C   UNL     1     171.629 178.328 173.452  1.00  0.00     0.162 A 
BRANCH  13  17
ATOM     17  O   UNL     1     168.371 177.616 175.135  1.00  0.00    -0.504 OA
ATOM     18  H   UNL     1     167.848 178.440 175.393  1.00  0.00     0.293 HD
ENDBRANCH  13  17
BRANCH  15  19
ATOM     19  O   UNL     1     169.444 179.201 172.934  1.00  0.00    -0.502 OA
ATOM     20  H   UNL     1     168.632 178.875 172.430  1.00  0.00     0.293 HD
ENDBRANCH  15  19
BRANCH  16  21
ATOM     21  O   UNL     1     172.180 179.054 172.397  1.00  0.00    -0.504 OA
ATOM     22  H   UNL     1     172.443 178.620 171.520  1.00  0.00     0.293 HD
ENDBRANCH  16  21
ENDBRANCH   1  11
BRANCH  10  23
ATOM     23  O   UNL     1     174.794 176.382 174.747  1.00  0.00    -0.500 OA
ATOM     24  H   UNL     1     175.711 176.120 174.404  1.00  0.00     0.294 HD
ENDBRANCH  10  23
BRANCH   5  25
ATOM     25  O   UNL     1     172.406 172.536 181.051  1.00  0.00    -0.507 OA
ATOM     26  H   UNL     1     172.317 171.532 181.155  1.00  0.00     0.293 HD
ENDBRANCH   5  25
BRANCH   7  27
ATOM     27  O   UNL     1     176.424 173.060 178.448  1.00  0.00    -0.507 OA
ATOM     28  H   UNL     1     176.976 173.323 177.645  1.00  0.00     0.293 HD
ENDBRANCH   7  27
TORSDOF 7
ENDMDL
MODEL 4
REMARK VINA RESULT:    -5.808      4.130      6.674
REMARK INTER + INTRA:          -7.550
REMARK INTER:                  -7.171
REMARK INTRA:                  -0.378
REMARK UNBOUND:                -0.383
REMARK SMILES Oc1cc(O)c2cc(O)c(-c3cc(O)c(O)c(O)c3)[o+]c2c1
REMARK SMILES IDX 10 1 20 2 21 3 22 4 2 5 3 6 4 7 6 8 7 9 8 10 11 11 12 12
REMARK SMILES IDX 13 13 19 14 15 15 17 16 14 17 16 19 18 21 9 23 1 25 5 27
REMARK H PARENT 14 18 16 20 18 22 9 24 1 26 5 28
REMARK Flexibility Score: inf
ROOT
ATOM      1  C   UNL     1     171.762 173.636 176.673  1.00  0.00     0.402 A 
ATOM      2  O   UNL     1     171.490 174.859 176.224  1.00  0.00    -0.202 OA
ATOM      3  C   UNL     1     170.825 175.090 175.096  1.00  0.00     0.368 A 
ATOM      4  C   UNL     1     170.590 176.411 174.705  1.00  0.00     0.162 A 
ATOM      5  C   UNL     1     169.897 176.684 173.526  1.00  0.00     0.128 A 
ATOM      6  C   UNL     1     169.436 175.631 172.728  1.00  0.00     0.093 A 
ATOM      7  C   UNL     1     169.659 174.299 173.097  1.00  0.00     0.136 A 
ATOM      8  C   UNL     1     170.361 174.016 174.298  1.00  0.00     0.125 A 
ATOM      9  C   UNL     1     170.619 172.713 174.754  1.00  0.00     0.078 A 
ATOM     10  C   UNL     1     171.313 172.514 175.951  1.00  0.00     0.223 A 
ENDROOT
BRANCH   1  11
ATOM     11  C   UNL     1     172.520 173.507 177.939  1.00  0.00     0.091 A 
ATOM     12  C   UNL     1     173.912 173.344 177.896  1.00  0.00     0.068 A 
ATOM     13  C   UNL     1     174.658 173.199 179.070  1.00  0.00     0.162 A 
ATOM     14  C   UNL     1     171.870 173.488 179.181  1.00  0.00     0.068 A 
ATOM     15  C   UNL     1     173.998 173.205 180.323  1.00  0.00     0.200 A 
ATOM     16  C   UNL     1     172.598 173.344 180.365  1.00  0.00     0.162 A 
BRANCH  13  17
ATOM     17  O   UNL     1     176.041 173.054 178.947  1.00  0.00    -0.504 OA
ATOM     18  H   UNL     1     176.615 172.523 179.585  1.00  0.00     0.293 HD
ENDBRANCH  13  17
BRANCH  15  19
ATOM     19  O   UNL     1     174.689 173.072 181.531  1.00  0.00    -0.502 OA
ATOM     20  H   UNL     1     175.321 172.313 181.742  1.00  0.00     0.293 HD
ENDBRANCH  15  19
BRANCH  16  21
ATOM     21  O   UNL     1     171.910 173.338 181.578  1.00  0.00    -0.504 OA
ATOM     22  H   UNL     1     171.956 172.558 182.224  1.00  0.00     0.293 HD
ENDBRANCH  16  21
ENDBRANCH   1  11
BRANCH  10  23
ATOM     23  O   UNL     1     171.526 171.221 176.430  1.00  0.00    -0.500 OA
ATOM     24  H   UNL     1     172.398 170.952 176.870  1.00  0.00     0.294 HD
ENDBRANCH  10  23
BRANCH   5  25
ATOM     25  O   UNL     1     169.672 178.007 173.152  1.00  0.00    -0.507 OA
ATOM     26  H   UNL     1     169.345 178.698 173.817  1.00  0.00     0.293 HD
ENDBRANCH   5  25
BRANCH   7  27
ATOM     27  O   UNL     1     169.169 173.303 172.246  1.00  0.00    -0.507 OA
ATOM     28  H   UNL     1     168.383 172.706 172.459  1.00  0.00     0.293 HD
ENDBRANCH   7  27
TORSDOF 7
ENDMDL
MODEL 5
REMARK VINA RESULT:    -5.804      4.893      7.511
REMARK INTER + INTRA:          -7.544
REMARK INTER:                  -7.368
REMARK INTRA:                  -0.175
REMARK UNBOUND:                -0.383
REMARK SMILES Oc1cc(O)c2cc(O)c(-c3cc(O)c(O)c(O)c3)[o+]c2c1
REMARK SMILES IDX 10 1 20 2 21 3 22 4 2 5 3 6 4 7 6 8 7 9 8 10 11 11 12 12
REMARK SMILES IDX 13 13 19 14 15 15 17 16 14 17 16 19 18 21 9 23 1 25 5 27
REMARK H PARENT 14 18 16 20 18 22 9 24 1 26 5 28
REMARK Flexibility Score: inf
ROOT
ATOM      1  C   UNL     1     172.384 176.029 174.972  1.00  0.00     0.402 A 
ATOM      2  O   UNL     1     172.298 175.118 175.939  1.00  0.00    -0.202 OA
ATOM      3  C   UNL     1     173.356 174.626 176.575  1.00  0.00     0.368 A 
ATOM      4  C   UNL     1     173.164 173.669 177.575  1.00  0.00     0.162 A 
ATOM      5  C   UNL     1     174.256 173.133 178.257  1.00  0.00     0.128 A 
ATOM      6  C   UNL     1     175.552 173.554 177.937  1.00  0.00     0.093 A 
ATOM      7  C   UNL     1     175.772 174.510 176.939  1.00  0.00     0.136 A 
ATOM      8  C   UNL     1     174.663 175.060 176.244  1.00  0.00     0.125 A 
ATOM      9  C   UNL     1     174.786 176.033 175.238  1.00  0.00     0.078 A 
ATOM     10  C   UNL     1     173.645 176.531 174.602  1.00  0.00     0.223 A 
ENDROOT
BRANCH   1  11
ATOM     11  C   UNL     1     171.132 176.492 174.333  1.00  0.00     0.091 A 
ATOM     12  C   UNL     1     170.094 176.993 175.131  1.00  0.00     0.068 A 
ATOM     13  C   UNL     1     168.889 177.421 174.563  1.00  0.00     0.162 A 
ATOM     14  C   UNL     1     170.937 176.389 172.948  1.00  0.00     0.068 A 
ATOM     15  C   UNL     1     168.707 177.337 173.161  1.00  0.00     0.200 A 
ATOM     16  C   UNL     1     169.739 176.810 172.362  1.00  0.00     0.162 A 
BRANCH  13  17
ATOM     17  O   UNL     1     167.908 177.920 175.422  1.00  0.00    -0.504 OA
ATOM     18  H   UNL     1     167.006 178.256 175.119  1.00  0.00     0.293 HD
ENDBRANCH  13  17
BRANCH  15  19
ATOM     19  O   UNL     1     167.530 177.754 172.535  1.00  0.00    -0.502 OA
ATOM     20  H   UNL     1     166.819 178.316 172.981  1.00  0.00     0.293 HD
ENDBRANCH  15  19
BRANCH  16  21
ATOM     21  O   UNL     1     169.593 176.695 170.980  1.00  0.00    -0.504 OA
ATOM     22  H   UNL     1     170.020 177.348 170.334  1.00  0.00     0.293 HD
ENDBRANCH  16  21
ENDBRANCH   1  11
BRANCH  10  23
ATOM     23  O   UNL     1     173.764 177.534 173.638  1.00  0.00    -0.500 OA
ATOM     24  H   UNL     1     173.187 178.366 173.662  1.00  0.00     0.294 HD
ENDBRANCH  10  23
BRANCH   5  25
ATOM     25  O   UNL     1     174.045 172.181 179.252  1.00  0.00    -0.507 OA
ATOM     26  H   UNL     1     174.198 171.194 179.084  1.00  0.00     0.293 HD
ENDBRANCH   5  25
BRANCH   7  27
ATOM     27  O   UNL     1     177.096 174.875 176.676  1.00  0.00    -0.507 OA
ATOM     28  H   UNL     1     177.555 174.754 175.785  1.00  0.00     0.293 HD
ENDBRANCH   7  27
TORSDOF 7
ENDMDL
MODEL 6
REMARK VINA RESULT:    -5.786      4.124      6.602
REMARK INTER + INTRA:          -7.522
REMARK INTER:                  -7.137
REMARK INTRA:                  -0.385
REMARK UNBOUND:                -0.383
REMARK SMILES Oc1cc(O)c2cc(O)c(-c3cc(O)c(O)c(O)c3)[o+]c2c1
REMARK SMILES IDX 10 1 20 2 21 3 22 4 2 5 3 6 4 7 6 8 7 9 8 10 11 11 12 12
REMARK SMILES IDX 13 13 19 14 15 15 17 16 14 17 16 19 18 21 9 23 1 25 5 27
REMARK H PARENT 14 18 16 20 18 22 9 24 1 26 5 28
REMARK Flexibility Score: inf
ROOT
ATOM      1  C   UNL     1     171.781 173.577 176.647  1.00  0.00     0.402 A 
ATOM      2  O   UNL     1     171.470 174.805 176.238  1.00  0.00    -0.202 OA
ATOM      3  C   UNL     1     170.785 175.053 175.126  1.00  0.00     0.368 A 
ATOM      4  C   UNL     1     170.510 176.378 174.779  1.00  0.00     0.162 A 
ATOM      5  C   UNL     1     169.795 176.668 173.616  1.00  0.00     0.128 A 
ATOM      6  C   UNL     1     169.353 175.627 172.792  1.00  0.00     0.093 A 
ATOM      7  C   UNL     1     169.616 174.291 173.118  1.00  0.00     0.136 A 
ATOM      8  C   UNL     1     170.341 173.991 174.301  1.00  0.00     0.125 A 
ATOM      9  C   UNL     1     170.639 172.682 174.714  1.00  0.00     0.078 A 
ATOM     10  C   UNL     1     171.353 172.467 175.896  1.00  0.00     0.223 A 
ENDROOT
BRANCH   1  11
ATOM     11  C   UNL     1     172.557 173.431 177.899  1.00  0.00     0.091 A 
ATOM     12  C   UNL     1     171.892 173.470 179.132  1.00  0.00     0.068 A 
ATOM     13  C   UNL     1     172.595 173.356 180.336  1.00  0.00     0.162 A 
ATOM     14  C   UNL     1     173.955 173.313 177.883  1.00  0.00     0.068 A 
ATOM     15  C   UNL     1     174.004 173.212 180.312  1.00  0.00     0.200 A 
ATOM     16  C   UNL     1     174.675 173.199 179.075  1.00  0.00     0.162 A 
BRANCH  13  17
ATOM     17  O   UNL     1     171.860 173.390 181.523  1.00  0.00    -0.504 OA
ATOM     18  H   UNL     1     172.070 172.831 182.337  1.00  0.00     0.293 HD
ENDBRANCH  13  17
BRANCH  15  19
ATOM     19  O   UNL     1     174.761 173.087 181.481  1.00  0.00    -0.502 OA
ATOM     20  H   UNL     1     175.770 173.101 181.507  1.00  0.00     0.293 HD
ENDBRANCH  15  19
BRANCH  16  21
ATOM     21  O   UNL     1     176.063 173.075 179.010  1.00  0.00    -0.504 OA
ATOM     22  H   UNL     1     176.517 172.210 178.742  1.00  0.00     0.293 HD
ENDBRANCH  16  21
ENDBRANCH   1  11
BRANCH  10  23
ATOM     23  O   UNL     1     171.607 171.165 176.333  1.00  0.00    -0.500 OA
ATOM     24  H   UNL     1     172.355 170.957 176.983  1.00  0.00     0.294 HD
ENDBRANCH  10  23
BRANCH   5  25
ATOM     25  O   UNL     1     169.529 177.995 173.286  1.00  0.00    -0.507 OA
ATOM     26  H   UNL     1     168.816 178.529 173.767  1.00  0.00     0.293 HD
ENDBRANCH   5  25
BRANCH   7  27
ATOM     27  O   UNL     1     169.143 173.308 172.242  1.00  0.00    -0.507 OA
ATOM     28  H   UNL     1     169.237 173.346 171.238  1.00  0.00     0.293 HD
ENDBRANCH   7  27
TORSDOF 7
ENDMDL
MODEL 7
REMARK VINA RESULT:    -5.786      1.391      7.198
REMARK INTER + INTRA:          -7.522
REMARK INTER:                  -7.143
REMARK INTRA:                  -0.378
REMARK UNBOUND:                -0.383
REMARK SMILES Oc1cc(O)c2cc(O)c(-c3cc(O)c(O)c(O)c3)[o+]c2c1
REMARK SMILES IDX 10 1 20 2 21 3 22 4 2 5 3 6 4 7 6 8 7 9 8 10 11 11 12 12
REMARK SMILES IDX 13 13 19 14 15 15 17 16 14 17 16 19 18 21 9 23 1 25 5 27
REMARK H PARENT 14 18 16 20 18 22 9 24 1 26 5 28
REMARK Flexibility Score: inf
ROOT
ATOM      1  C   UNL     1     174.624 172.719 176.710  1.00  0.00     0.402 A 
ATOM      2  O   UNL     1     174.773 171.479 176.250  1.00  0.00    -0.202 OA
ATOM      3  C   UNL     1     175.440 171.188 175.138  1.00  0.00     0.368 A 
ATOM      4  C   UNL     1     175.538 169.854 174.734  1.00  0.00     0.162 A 
ATOM      5  C   UNL     1     176.230 169.519 173.570  1.00  0.00     0.128 A 
ATOM      6  C   UNL     1     176.828 170.524 172.801  1.00  0.00     0.093 A 
ATOM      7  C   UNL     1     176.743 171.869 173.184  1.00  0.00     0.136 A 
ATOM      8  C   UNL     1     176.042 172.213 174.369  1.00  0.00     0.125 A 
ATOM      9  C   UNL     1     175.917 173.532 174.838  1.00  0.00     0.078 A 
ATOM     10  C   UNL     1     175.215 173.792 176.018  1.00  0.00     0.223 A 
ENDROOT
BRANCH   1  11
ATOM     11  C   UNL     1     173.849 172.916 177.957  1.00  0.00     0.091 A 
ATOM     12  C   UNL     1     174.513 172.901 179.191  1.00  0.00     0.068 A 
ATOM     13  C   UNL     1     173.810 173.064 180.390  1.00  0.00     0.162 A 
ATOM     14  C   UNL     1     172.454 173.059 177.935  1.00  0.00     0.068 A 
ATOM     15  C   UNL     1     172.405 173.232 180.360  1.00  0.00     0.200 A 
ATOM     16  C   UNL     1     171.735 173.221 179.122  1.00  0.00     0.162 A 
BRANCH  13  17
ATOM     17  O   UNL     1     174.543 173.051 181.579  1.00  0.00    -0.504 OA
ATOM     18  H   UNL     1     175.529 173.259 181.640  1.00  0.00     0.293 HD
ENDBRANCH  13  17
BRANCH  15  19
ATOM     19  O   UNL     1     171.649 173.406 181.523  1.00  0.00    -0.502 OA
ATOM     20  H   UNL     1     171.786 174.158 182.181  1.00  0.00     0.293 HD
ENDBRANCH  15  19
BRANCH  16  21
ATOM     21  O   UNL     1     170.349 173.368 179.051  1.00  0.00    -0.504 OA
ATOM     22  H   UNL     1     169.816 173.830 179.778  1.00  0.00     0.293 HD
ENDBRANCH  16  21
ENDBRANCH   1  11
BRANCH  10  23
ATOM     23  O   UNL     1     175.133 175.096 176.510  1.00  0.00    -0.500 OA
ATOM     24  H   UNL     1     175.885 175.511 177.046  1.00  0.00     0.294 HD
ENDBRANCH  10  23
BRANCH   5  25
ATOM     25  O   UNL     1     176.319 168.184 173.183  1.00  0.00    -0.507 OA
ATOM     26  H   UNL     1     175.658 167.491 173.512  1.00  0.00     0.293 HD
ENDBRANCH   5  25
BRANCH   7  27
ATOM     27  O   UNL     1     177.364 172.814 172.361  1.00  0.00    -0.507 OA
ATOM     28  H   UNL     1     177.329 173.811 172.511  1.00  0.00     0.293 HD
ENDBRANCH   7  27
TORSDOF 7
ENDMDL
MODEL 8
REMARK VINA RESULT:    -5.743      3.527      5.084
REMARK INTER + INTRA:          -7.469
REMARK INTER:                  -7.085
REMARK INTRA:                  -0.384
REMARK UNBOUND:                -0.383
REMARK SMILES Oc1cc(O)c2cc(O)c(-c3cc(O)c(O)c(O)c3)[o+]c2c1
REMARK SMILES IDX 10 1 20 2 21 3 22 4 2 5 3 6 4 7 6 8 7 9 8 10 11 11 12 12
REMARK SMILES IDX 13 13 19 14 15 15 17 16 14 17 16 19 18 21 9 23 1 25 5 27
REMARK H PARENT 14 18 16 20 18 22 9 24 1 26 5 28
REMARK Flexibility Score: inf
ROOT
ATOM      1  C   UNL     1     173.931 174.257 176.395  1.00  0.00     0.402 A 
ATOM      2  O   UNL     1     172.927 174.192 177.266  1.00  0.00    -0.202 OA
ATOM      3  C   UNL     1     173.081 173.808 178.530  1.00  0.00     0.368 A 
ATOM      4  C   UNL     1     171.964 173.769 179.368  1.00  0.00     0.162 A 
ATOM      5  C   UNL     1     172.095 173.368 180.698  1.00  0.00     0.128 A 
ATOM      6  C   UNL     1     173.351 173.001 181.195  1.00  0.00     0.093 A 
ATOM      7  C   UNL     1     174.485 173.030 180.374  1.00  0.00     0.136 A 
ATOM      8  C   UNL     1     174.357 173.441 179.021  1.00  0.00     0.125 A 
ATOM      9  C   UNL     1     175.440 173.514 178.130  1.00  0.00     0.078 A 
ATOM     10  C   UNL     1     175.235 173.933 176.812  1.00  0.00     0.223 A 
ENDROOT
BRANCH   1  11
ATOM     11  C   UNL     1     173.631 174.690 175.011  1.00  0.00     0.091 A 
ATOM     12  C   UNL     1     173.637 176.057 174.699  1.00  0.00     0.068 A 
ATOM     13  C   UNL     1     173.338 176.504 173.408  1.00  0.00     0.162 A 
ATOM     14  C   UNL     1     173.282 173.766 174.015  1.00  0.00     0.068 A 
ATOM     15  C   UNL     1     173.011 175.564 172.401  1.00  0.00     0.200 A 
ATOM     16  C   UNL     1     172.979 174.194 172.719  1.00  0.00     0.162 A 
BRANCH  13  17
ATOM     17  O   UNL     1     173.378 177.880 173.172  1.00  0.00    -0.504 OA
ATOM     18  H   UNL     1     172.930 178.569 173.757  1.00  0.00     0.293 HD
ENDBRANCH  13  17
BRANCH  15  19
ATOM     19  O   UNL     1     172.710 175.949 171.091  1.00  0.00    -0.502 OA
ATOM     20  H   UNL     1     171.775 175.983 170.711  1.00  0.00     0.293 HD
ENDBRANCH  15  19
BRANCH  16  21
ATOM     21  O   UNL     1     172.646 173.238 171.760  1.00  0.00    -0.504 OA
ATOM     22  H   UNL     1     172.664 172.244 171.956  1.00  0.00     0.293 HD
ENDBRANCH  16  21
ENDBRANCH   1  11
BRANCH  10  23
ATOM     23  O   UNL     1     176.319 174.054 175.941  1.00  0.00    -0.500 OA
ATOM     24  H   UNL     1     176.446 173.424 175.158  1.00  0.00     0.294 HD
ENDBRANCH  10  23
BRANCH   5  25
ATOM     25  O   UNL     1     170.971 173.336 181.520  1.00  0.00    -0.507 OA
ATOM     26  H   UNL     1     171.048 173.186 182.519  1.00  0.00     0.293 HD
ENDBRANCH   5  25
BRANCH   7  27
ATOM     27  O   UNL     1     175.703 172.646 180.944  1.00  0.00    -0.507 OA
ATOM     28  H   UNL     1     176.441 172.170 180.446  1.00  0.00     0.293 HD
ENDBRANCH   7  27
TORSDOF 7
ENDMDL
MODEL 9
REMARK VINA RESULT:    -5.587      7.057     10.166
REMARK INTER + INTRA:          -7.276
REMARK INTER:                  -6.916
REMARK INTRA:                  -0.360
REMARK UNBOUND:                -0.383
REMARK SMILES Oc1cc(O)c2cc(O)c(-c3cc(O)c(O)c(O)c3)[o+]c2c1
REMARK SMILES IDX 10 1 20 2 21 3 22 4 2 5 3 6 4 7 6 8 7 9 8 10 11 11 12 12
REMARK SMILES IDX 13 13 19 14 15 15 17 16 14 17 16 19 18 21 9 23 1 25 5 27
REMARK H PARENT 14 18 16 20 18 22 9 24 1 26 5 28
REMARK Flexibility Score: inf
ROOT
ATOM      1  C   UNL     1     168.562 176.799 173.403  1.00  0.00     0.402 A 
ATOM      2  O   UNL     1     169.141 175.979 174.277  1.00  0.00    -0.202 OA
ATOM      3  C   UNL     1     170.440 176.012 174.558  1.00  0.00     0.368 A 
ATOM      4  C   UNL     1     170.956 175.106 175.489  1.00  0.00     0.162 A 
ATOM      5  C   UNL     1     172.316 175.115 175.802  1.00  0.00     0.128 A 
ATOM      6  C   UNL     1     173.168 176.034 175.179  1.00  0.00     0.093 A 
ATOM      7  C   UNL     1     172.676 176.951 174.242  1.00  0.00     0.136 A 
ATOM      8  C   UNL     1     171.292 176.947 173.923  1.00  0.00     0.125 A 
ATOM      9  C   UNL     1     170.708 177.837 173.007  1.00  0.00     0.078 A 
ATOM     10  C   UNL     1     169.336 177.775 172.749  1.00  0.00     0.223 A 
ENDROOT
BRANCH   1  11
ATOM     11  C   UNL     1     167.107 176.658 173.168  1.00  0.00     0.091 A 
ATOM     12  C   UNL     1     166.212 177.477 173.870  1.00  0.00     0.068 A 
ATOM     13  C   UNL     1     164.830 177.358 173.688  1.00  0.00     0.162 A 
ATOM     14  C   UNL     1     166.599 175.681 172.299  1.00  0.00     0.068 A 
ATOM     15  C   UNL     1     164.324 176.386 172.792  1.00  0.00     0.200 A 
ATOM     16  C   UNL     1     165.220 175.546 172.106  1.00  0.00     0.162 A 
BRANCH  13  17
ATOM     17  O   UNL     1     164.004 178.219 174.414  1.00  0.00    -0.504 OA
ATOM     18  H   UNL     1     162.995 178.195 174.385  1.00  0.00     0.293 HD
ENDBRANCH  13  17
BRANCH  15  19
ATOM     19  O   UNL     1     162.954 176.224 172.564  1.00  0.00    -0.502 OA
ATOM     20  H   UNL     1     162.499 176.417 171.683  1.00  0.00     0.293 HD
ENDBRANCH  15  19
BRANCH  16  21
ATOM     21  O   UNL     1     164.761 174.566 171.227  1.00  0.00    -0.504 OA
ATOM     22  H   UNL     1     165.132 173.623 171.225  1.00  0.00     0.293 HD
ENDBRANCH  16  21
ENDBRANCH   1  11
BRANCH  10  23
ATOM     23  O   UNL     1     168.747 178.692 171.877  1.00  0.00    -0.500 OA
ATOM     24  H   UNL     1     169.187 178.956 171.003  1.00  0.00     0.294 HD
ENDBRANCH  10  23
BRANCH   5  25
ATOM     25  O   UNL     1     172.813 174.206 176.733  1.00  0.00    -0.507 OA
ATOM     26  H   UNL     1     172.815 174.410 177.725  1.00  0.00     0.293 HD
ENDBRANCH   5  25
BRANCH   7  27
ATOM     27  O   UNL     1     173.591 177.835 173.662  1.00  0.00    -0.507 OA
ATOM     28  H   UNL     1     174.302 177.565 172.999  1.00  0.00     0.293 HD
ENDBRANCH   7  27
TORSDOF 7
ENDMDL
