MODEL 1
REMARK VINA RESULT:    -5.799      0.000      0.000
REMARK INTER + INTRA:         -12.901
REMARK INTER:                 -10.884
REMARK INTRA:                  -2.017
REMARK UNBOUND:                -2.017
REMARK SMILES CCCCCCCCC=CCCCCCCCC(=O)[O-]
REMARK SMILES IDX 10 1 9 2 11 3 12 4 13 5 14 6 15 7 16 8 17 9 18 10 19 11
REMARK SMILES IDX 20 12 8 13 7 14 6 15 5 16 4 17 3 18 2 19 1 20
REMARK H PARENT
REMARK Flexibility Score: inf
ROOT
ATOM      1  C   UNL     1      42.252  40.090  15.765  1.00  0.00    -0.031 C 
ATOM      2  C   UNL     1      43.108  40.344  14.766  1.00  0.00    -0.031 C 
ENDROOT
BRANCH   1   3
ATOM      3  C   UNL     1      40.929  40.802  15.870  1.00  0.00     0.027 C 
BRANCH   3   4
ATOM      4  C   UNL     1      40.346  40.760  17.294  1.00  0.00     0.004 C 
BRANCH   4   5
ATOM      5  C   UNL     1      41.401  40.701  18.417  1.00  0.00     0.000 C 
BRANCH   5   6
ATOM      6  C   UNL     1      41.876  42.070  18.935  1.00  0.00     0.000 C 
BRANCH   6   7
ATOM      7  C   UNL     1      43.285  42.438  18.445  1.00  0.00     0.000 C 
BRANCH   7   8
ATOM      8  C   UNL     1      43.301  43.837  17.817  1.00  0.00     0.006 C 
BRANCH   8   9
ATOM      9  C   UNL     1      42.732  43.808  16.396  1.00  0.00     0.053 C 
BRANCH   9  10
ATOM     10  C   UNL     1      41.524  44.684  16.298  1.00  0.00     0.041 C 
ATOM     11  O   UNL     1      41.632  45.930  16.441  1.00  0.00    -0.550 OA
ATOM     12  O   UNL     1      40.286  44.130  15.999  1.00  0.00    -0.550 OA
ENDBRANCH   9  10
ENDBRANCH   8   9
ENDBRANCH   7   8
ENDBRANCH   6   7
ENDBRANCH   5   6
ENDBRANCH   4   5
ENDBRANCH   3   4
ENDBRANCH   1   3
BRANCH   2  13
ATOM     13  C   UNL     1      44.413  39.601  14.668  1.00  0.00     0.027 C 
BRANCH  13  14
ATOM     14  C   UNL     1      44.234  38.169  14.136  1.00  0.00     0.004 C 
BRANCH  14  15
ATOM     15  C   UNL     1      43.003  37.981  13.226  1.00  0.00     0.000 C 
BRANCH  15  16
ATOM     16  C   UNL     1      42.024  36.877  13.672  1.00  0.00     0.000 C 
BRANCH  16  17
ATOM     17  C   UNL     1      40.570  37.110  13.211  1.00  0.00    -0.000 C 
BRANCH  17  18
ATOM     18  C   UNL     1      40.197  38.600  13.186  1.00  0.00    -0.000 C 
BRANCH  18  19
ATOM     19  C   UNL     1      39.156  38.887  12.098  1.00  0.00    -0.003 C 
ATOM     20  C   UNL     1      38.442  37.609  11.667  1.00  0.00     0.004 C 
ENDBRANCH  18  19
ENDBRANCH  17  18
ENDBRANCH  16  17
ENDBRANCH  15  16
ENDBRANCH  14  15
ENDBRANCH  13  14
ENDBRANCH   2  13
TORSDOF 15
ENDMDL
MODEL 2
REMARK VINA RESULT:    -5.408      1.032      2.800
REMARK INTER + INTRA:         -12.167
REMARK INTER:                 -10.265
REMARK INTRA:                  -1.902
REMARK UNBOUND:                -2.017
REMARK SMILES CCCCCCCCC=CCCCCCCCC(=O)[O-]
REMARK SMILES IDX 10 1 9 2 11 3 12 4 13 5 14 6 15 7 16 8 17 9 18 10 19 11
REMARK SMILES IDX 20 12 8 13 7 14 6 15 5 16 4 17 3 18 2 19 1 20
REMARK H PARENT
REMARK Flexibility Score: inf
ROOT
ATOM      1  C   UNL     1      41.387  40.211  18.668  1.00  0.00    -0.031 C 
ATOM      2  C   UNL     1      40.983  41.071  17.724  1.00  0.00    -0.031 C 
ENDROOT
BRANCH   1   3
ATOM      3  C   UNL     1      41.738  40.671  20.058  1.00  0.00     0.027 C 
BRANCH   3   4
ATOM      4  C   UNL     1      41.846  42.202  20.166  1.00  0.00     0.004 C 
BRANCH   4   5
ATOM      5  C   UNL     1      43.258  42.722  20.508  1.00  0.00     0.000 C 
BRANCH   5   6
ATOM      6  C   UNL     1      43.939  43.536  19.393  1.00  0.00     0.000 C 
BRANCH   6   7
ATOM      7  C   UNL     1      43.203  43.438  18.048  1.00  0.00     0.000 C 
BRANCH   7   8
ATOM      8  C   UNL     1      43.427  44.700  17.206  1.00  0.00     0.006 C 
BRANCH   8   9
ATOM      9  C   UNL     1      42.892  44.514  15.784  1.00  0.00     0.053 C 
BRANCH   9  10
ATOM     10  C   UNL     1      41.469  44.968  15.696  1.00  0.00     0.041 C 
ATOM     11  O   UNL     1      41.193  46.094  15.207  1.00  0.00    -0.550 OA
ATOM     12  O   UNL     1      40.444  44.127  16.110  1.00  0.00    -0.550 OA
ENDBRANCH   9  10
ENDBRANCH   8   9
ENDBRANCH   7   8
ENDBRANCH   6   7
ENDBRANCH   5   6
ENDBRANCH   4   5
ENDBRANCH   3   4
ENDBRANCH   1   3
BRANCH   2  13
ATOM     13  C   UNL     1      40.612  40.583  16.350  1.00  0.00     0.027 C 
BRANCH  13  14
ATOM     14  C   UNL     1      41.630  41.013  15.280  1.00  0.00     0.004 C 
BRANCH  14  15
ATOM     15  C   UNL     1      43.067  40.515  15.537  1.00  0.00     0.000 C 
BRANCH  15  16
ATOM     16  C   UNL     1      43.386  39.119  14.966  1.00  0.00     0.000 C 
BRANCH  16  17
ATOM     17  C   UNL     1      42.563  38.756  13.713  1.00  0.00    -0.000 C 
BRANCH  17  18
ATOM     18  C   UNL     1      42.104  37.290  13.720  1.00  0.00    -0.000 C 
BRANCH  18  19
ATOM     19  C   UNL     1      40.607  37.181  13.405  1.00  0.00    -0.003 C 
ATOM     20  C   UNL     1      40.042  38.522  12.947  1.00  0.00     0.004 C 
ENDBRANCH  18  19
ENDBRANCH  17  18
ENDBRANCH  16  17
ENDBRANCH  15  16
ENDBRANCH  14  15
ENDBRANCH  13  14
ENDBRANCH   2  13
TORSDOF 15
ENDMDL
MODEL 3
REMARK VINA RESULT:    -5.297      1.907      2.655
REMARK INTER + INTRA:         -11.958
REMARK INTER:                  -9.944
REMARK INTRA:                  -2.014
REMARK UNBOUND:                -2.017
REMARK SMILES CCCCCCCCC=CCCCCCCCC(=O)[O-]
REMARK SMILES IDX 10 1 9 2 11 3 12 4 13 5 14 6 15 7 16 8 17 9 18 10 19 11
REMARK SMILES IDX 20 12 8 13 7 14 6 15 5 16 4 17 3 18 2 19 1 20
REMARK H PARENT
REMARK Flexibility Score: inf
ROOT
ATOM      1  C   UNL     1      41.326  40.560  16.006  1.00  0.00    -0.031 C 
ATOM      2  C   UNL     1      42.641  40.304  16.044  1.00  0.00    -0.031 C 
ENDROOT
BRANCH   1   3
ATOM      3  C   UNL     1      40.546  40.874  17.255  1.00  0.00     0.027 C 
BRANCH   3   4
ATOM      4  C   UNL     1      40.233  42.375  17.396  1.00  0.00     0.004 C 
BRANCH   4   5
ATOM      5  C   UNL     1      40.657  43.234  16.188  1.00  0.00     0.000 C 
BRANCH   5   6
ATOM      6  C   UNL     1      41.631  44.380  16.515  1.00  0.00     0.000 C 
BRANCH   6   7
ATOM      7  C   UNL     1      43.066  43.891  16.764  1.00  0.00     0.000 C 
BRANCH   7   8
ATOM      8  C   UNL     1      43.399  43.903  18.261  1.00  0.00     0.006 C 
BRANCH   8   9
ATOM      9  C   UNL     1      43.509  42.478  18.811  1.00  0.00     0.053 C 
BRANCH   9  10
ATOM     10  C   UNL     1      42.897  42.394  20.173  1.00  0.00     0.041 C 
ATOM     11  O   UNL     1      42.014  41.532  20.419  1.00  0.00    -0.550 OA
ATOM     12  O   UNL     1      43.338  43.237  21.186  1.00  0.00    -0.550 OA
ENDBRANCH   9  10
ENDBRANCH   8   9
ENDBRANCH   7   8
ENDBRANCH   6   7
ENDBRANCH   5   6
ENDBRANCH   4   5
ENDBRANCH   3   4
ENDBRANCH   1   3
BRANCH   2  13
ATOM     13  C   UNL     1      43.403  40.019  14.779  1.00  0.00     0.027 C 
BRANCH  13  14
ATOM     14  C   UNL     1      43.541  38.512  14.503  1.00  0.00     0.004 C 
BRANCH  14  15
ATOM     15  C   UNL     1      42.845  38.039  13.211  1.00  0.00     0.000 C 
BRANCH  15  16
ATOM     16  C   UNL     1      41.906  36.829  13.380  1.00  0.00     0.000 C 
BRANCH  16  17
ATOM     17  C   UNL     1      40.416  37.209  13.506  1.00  0.00    -0.000 C 
BRANCH  17  18
ATOM     18  C   UNL     1      40.162  38.690  13.187  1.00  0.00    -0.000 C 
BRANCH  18  19
ATOM     19  C   UNL     1      39.158  38.841  12.039  1.00  0.00    -0.003 C 
ATOM     20  C   UNL     1      38.407  37.537  11.789  1.00  0.00     0.004 C 
ENDBRANCH  18  19
ENDBRANCH  17  18
ENDBRANCH  16  17
ENDBRANCH  15  16
ENDBRANCH  14  15
ENDBRANCH  13  14
ENDBRANCH   2  13
TORSDOF 15
ENDMDL
MODEL 4
REMARK VINA RESULT:    -5.147      2.353      6.765
REMARK INTER + INTRA:         -11.676
REMARK INTER:                  -9.713
REMARK INTRA:                  -1.963
REMARK UNBOUND:                -2.017
REMARK SMILES CCCCCCCCC=CCCCCCCCC(=O)[O-]
REMARK SMILES IDX 10 1 9 2 11 3 12 4 13 5 14 6 15 7 16 8 17 9 18 10 19 11
REMARK SMILES IDX 20 12 8 13 7 14 6 15 5 16 4 17 3 18 2 19 1 20
REMARK H PARENT
REMARK Flexibility Score: inf
ROOT
ATOM      1  C   UNL     1      41.079  42.440  15.405  1.00  0.00    -0.031 C 
ATOM      2  C   UNL     1      40.731  43.505  16.141  1.00  0.00    -0.031 C 
ENDROOT
BRANCH   1   3
ATOM      3  C   UNL     1      40.717  41.040  15.822  1.00  0.00     0.027 C 
BRANCH   3   4
ATOM      4  C   UNL     1      41.953  40.155  16.063  1.00  0.00     0.004 C 
BRANCH   4   5
ATOM      5  C   UNL     1      43.204  40.570  15.263  1.00  0.00     0.000 C 
BRANCH   5   6
ATOM      6  C   UNL     1      43.844  39.446  14.428  1.00  0.00     0.000 C 
BRANCH   6   7
ATOM      7  C   UNL     1      43.027  38.145  14.453  1.00  0.00     0.000 C 
BRANCH   7   8
ATOM      8  C   UNL     1      42.234  37.969  13.152  1.00  0.00     0.006 C 
BRANCH   8   9
ATOM      9  C   UNL     1      40.884  37.298  13.418  1.00  0.00     0.053 C 
BRANCH   9  10
ATOM     10  C   UNL     1      39.768  38.132  12.872  1.00  0.00     0.041 C 
ATOM     11  O   UNL     1      39.768  39.379  13.040  1.00  0.00    -0.550 OA
ATOM     12  O   UNL     1      38.752  37.536  12.135  1.00  0.00    -0.550 OA
ENDBRANCH   9  10
ENDBRANCH   8   9
ENDBRANCH   7   8
ENDBRANCH   6   7
ENDBRANCH   5   6
ENDBRANCH   4   5
ENDBRANCH   3   4
ENDBRANCH   1   3
BRANCH   2  13
ATOM     13  C   UNL     1      41.082  44.896  15.689  1.00  0.00     0.027 C 
BRANCH  13  14
ATOM     14  C   UNL     1      42.220  45.513  16.519  1.00  0.00     0.004 C 
BRANCH  14  15
ATOM     15  C   UNL     1      43.407  44.561  16.773  1.00  0.00     0.000 C 
BRANCH  15  16
ATOM     16  C   UNL     1      43.538  44.053  18.221  1.00  0.00     0.000 C 
BRANCH  16  17
ATOM     17  C   UNL     1      43.305  42.535  18.373  1.00  0.00    -0.000 C 
BRANCH  17  18
ATOM     18  C   UNL     1      42.042  42.217  19.187  1.00  0.00    -0.000 C 
BRANCH  18  19
ATOM     19  C   UNL     1      42.350  41.224  20.314  1.00  0.00    -0.003 C 
ATOM     20  C   UNL     1      41.820  39.832  19.982  1.00  0.00     0.004 C 
ENDBRANCH  18  19
ENDBRANCH  17  18
ENDBRANCH  16  17
ENDBRANCH  15  16
ENDBRANCH  14  15
ENDBRANCH  13  14
ENDBRANCH   2  13
TORSDOF 15
ENDMDL
MODEL 5
REMARK VINA RESULT:    -4.899     10.784     13.104
REMARK INTER + INTRA:         -11.212
REMARK INTER:                 -10.160
REMARK INTRA:                  -1.052
REMARK UNBOUND:                -2.017
REMARK SMILES CCCCCCCCC=CCCCCCCCC(=O)[O-]
REMARK SMILES IDX 10 1 9 2 11 3 12 4 13 5 14 6 15 7 16 8 17 9 18 10 19 11
REMARK SMILES IDX 20 12 8 13 7 14 6 15 5 16 4 17 3 18 2 19 1 20
REMARK H PARENT
REMARK Flexibility Score: inf
ROOT
ATOM      1  C   UNL     1      41.996  29.317  15.332  1.00  0.00    -0.031 C 
ATOM      2  C   UNL     1      41.519  30.292  16.117  1.00  0.00    -0.031 C 
ENDROOT
BRANCH   1   3
ATOM      3  C   UNL     1      41.841  29.362  13.835  1.00  0.00     0.027 C 
BRANCH   3   4
ATOM      4  C   UNL     1      40.927  28.244  13.300  1.00  0.00     0.004 C 
BRANCH   4   5
ATOM      5  C   UNL     1      39.430  28.432  13.622  1.00  0.00     0.000 C 
BRANCH   5   6
ATOM      6  C   UNL     1      38.894  29.859  13.411  1.00  0.00     0.000 C 
BRANCH   6   7
ATOM      7  C   UNL     1      38.287  30.463  14.686  1.00  0.00     0.000 C 
BRANCH   7   8
ATOM      8  C   UNL     1      37.145  31.429  14.347  1.00  0.00     0.006 C 
BRANCH   8   9
ATOM      9  C   UNL     1      35.786  30.816  14.695  1.00  0.00     0.053 C 
BRANCH   9  10
ATOM     10  C   UNL     1      34.804  31.061  13.594  1.00  0.00     0.041 C 
ATOM     11  O   UNL     1      34.579  32.233  13.194  1.00  0.00    -0.550 OA
ATOM     12  O   UNL     1      34.172  29.989  12.975  1.00  0.00    -0.550 OA
ENDBRANCH   9  10
ENDBRANCH   8   9
ENDBRANCH   7   8
ENDBRANCH   6   7
ENDBRANCH   5   6
ENDBRANCH   4   5
ENDBRANCH   3   4
ENDBRANCH   1   3
BRANCH   2  13
ATOM     13  C   UNL     1      41.710  30.237  17.609  1.00  0.00     0.027 C 
BRANCH  13  14
ATOM     14  C   UNL     1      42.732  29.168  18.030  1.00  0.00     0.004 C 
BRANCH  14  15
ATOM     15  C   UNL     1      44.104  29.735  18.450  1.00  0.00     0.000 C 
BRANCH  15  16
ATOM     16  C   UNL     1      44.246  30.056  19.951  1.00  0.00     0.000 C 
BRANCH  16  17
ATOM     17  C   UNL     1      44.848  28.902  20.780  1.00  0.00    -0.000 C 
BRANCH  17  18
ATOM     18  C   UNL     1      43.818  28.261  21.722  1.00  0.00    -0.000 C 
BRANCH  18  19
ATOM     19  C   UNL     1      44.078  28.667  23.178  1.00  0.00    -0.003 C 
ATOM     20  C   UNL     1      43.464  30.029  23.488  1.00  0.00     0.004 C 
ENDBRANCH  18  19
ENDBRANCH  17  18
ENDBRANCH  16  17
ENDBRANCH  15  16
ENDBRANCH  14  15
ENDBRANCH  13  14
ENDBRANCH   2  13
TORSDOF 15
ENDMDL
MODEL 6
REMARK VINA RESULT:    -4.852      2.608      6.980
REMARK INTER + INTRA:         -11.123
REMARK INTER:                  -9.444
REMARK INTRA:                  -1.679
REMARK UNBOUND:                -2.017
REMARK SMILES CCCCCCCCC=CCCCCCCCC(=O)[O-]
REMARK SMILES IDX 10 1 9 2 11 3 12 4 13 5 14 6 15 7 16 8 17 9 18 10 19 11
REMARK SMILES IDX 20 12 8 13 7 14 6 15 5 16 4 17 3 18 2 19 1 20
REMARK H PARENT
REMARK Flexibility Score: inf
ROOT
ATOM      1  C   UNL     1      40.940  40.721  16.829  1.00  0.00    -0.031 C 
ATOM      2  C   UNL     1      41.781  40.450  17.837  1.00  0.00    -0.031 C 
ENDROOT
BRANCH   1   3
ATOM      3  C   UNL     1      41.431  40.892  15.416  1.00  0.00     0.027 C 
BRANCH   3   4
ATOM      4  C   UNL     1      42.952  41.112  15.339  1.00  0.00     0.004 C 
BRANCH   4   5
ATOM      5  C   UNL     1      43.728  39.981  14.634  1.00  0.00     0.000 C 
BRANCH   5   6
ATOM      6  C   UNL     1      43.257  38.557  14.979  1.00  0.00     0.000 C 
BRANCH   6   7
ATOM      7  C   UNL     1      43.100  37.663  13.740  1.00  0.00     0.000 C 
BRANCH   7   8
ATOM      8  C   UNL     1      41.628  37.302  13.505  1.00  0.00     0.006 C 
BRANCH   8   9
ATOM      9  C   UNL     1      40.797  38.551  13.202  1.00  0.00     0.053 C 
BRANCH   9  10
ATOM     10  C   UNL     1      39.535  38.180  12.489  1.00  0.00     0.041 C 
ATOM     11  O   UNL     1      38.838  39.068  11.931  1.00  0.00    -0.550 OA
ATOM     12  O   UNL     1      39.153  36.848  12.401  1.00  0.00    -0.550 OA
ENDBRANCH   9  10
ENDBRANCH   8   9
ENDBRANCH   7   8
ENDBRANCH   6   7
ENDBRANCH   5   6
ENDBRANCH   4   5
ENDBRANCH   3   4
ENDBRANCH   1   3
BRANCH   2  13
ATOM     13  C   UNL     1      41.263  40.257  19.236  1.00  0.00     0.027 C 
BRANCH  13  14
ATOM     14  C   UNL     1      42.251  40.758  20.302  1.00  0.00     0.004 C 
BRANCH  14  15
ATOM     15  C   UNL     1      42.220  42.284  20.527  1.00  0.00     0.000 C 
BRANCH  15  16
ATOM     16  C   UNL     1      43.600  42.968  20.557  1.00  0.00     0.000 C 
BRANCH  16  17
ATOM     17  C   UNL     1      43.832  43.952  19.391  1.00  0.00    -0.000 C 
BRANCH  17  18
ATOM     18  C   UNL     1      43.264  43.429  18.063  1.00  0.00    -0.000 C 
BRANCH  18  19
ATOM     19  C   UNL     1      43.132  44.561  17.038  1.00  0.00    -0.003 C 
ATOM     20  C   UNL     1      41.766  44.532  16.358  1.00  0.00     0.004 C 
ENDBRANCH  18  19
ENDBRANCH  17  18
ENDBRANCH  16  17
ENDBRANCH  15  16
ENDBRANCH  14  15
ENDBRANCH  13  14
ENDBRANCH   2  13
TORSDOF 15
ENDMDL
MODEL 7
REMARK VINA RESULT:    -4.793      2.501      6.746
REMARK INTER + INTRA:         -11.012
REMARK INTER:                  -8.960
REMARK INTRA:                  -2.052
REMARK UNBOUND:                -2.017
REMARK SMILES CCCCCCCCC=CCCCCCCCC(=O)[O-]
REMARK SMILES IDX 10 1 9 2 11 3 12 4 13 5 14 6 15 7 16 8 17 9 18 10 19 11
REMARK SMILES IDX 20 12 8 13 7 14 6 15 5 16 4 17 3 18 2 19 1 20
REMARK H PARENT
REMARK Flexibility Score: inf
ROOT
ATOM      1  C   UNL     1      41.547  40.820  16.121  1.00  0.00    -0.031 C 
ATOM      2  C   UNL     1      41.950  40.353  17.310  1.00  0.00    -0.031 C 
ENDROOT
BRANCH   1   3
ATOM      3  C   UNL     1      42.350  40.589  14.868  1.00  0.00     0.027 C 
BRANCH   3   4
ATOM      4  C   UNL     1      43.820  40.242  15.162  1.00  0.00     0.004 C 
BRANCH   4   5
ATOM      5  C   UNL     1      44.373  39.053  14.350  1.00  0.00     0.000 C 
BRANCH   5   6
ATOM      6  C   UNL     1      43.366  38.400  13.387  1.00  0.00     0.000 C 
BRANCH   6   7
ATOM      7  C   UNL     1      42.760  37.103  13.945  1.00  0.00     0.000 C 
BRANCH   7   8
ATOM      8  C   UNL     1      41.307  36.932  13.485  1.00  0.00     0.006 C 
BRANCH   8   9
ATOM      9  C   UNL     1      40.566  38.271  13.495  1.00  0.00     0.053 C 
BRANCH   9  10
ATOM     10  C   UNL     1      39.438  38.253  12.513  1.00  0.00     0.041 C 
ATOM     11  O   UNL     1      39.113  39.304  11.901  1.00  0.00    -0.550 OA
ATOM     12  O   UNL     1      38.776  37.063  12.238  1.00  0.00    -0.550 OA
ENDBRANCH   9  10
ENDBRANCH   8   9
ENDBRANCH   7   8
ENDBRANCH   6   7
ENDBRANCH   5   6
ENDBRANCH   4   5
ENDBRANCH   3   4
ENDBRANCH   1   3
BRANCH   2  13
ATOM     13  C   UNL     1      41.116  40.575  18.543  1.00  0.00     0.027 C 
BRANCH  13  14
ATOM     14  C   UNL     1      41.351  41.959  19.169  1.00  0.00     0.004 C 
BRANCH  14  15
ATOM     15  C   UNL     1      42.808  42.218  19.604  1.00  0.00     0.000 C 
BRANCH  15  16
ATOM     16  C   UNL     1      43.643  43.062  18.622  1.00  0.00     0.000 C 
BRANCH  16  17
ATOM     17  C   UNL     1      42.808  44.060  17.792  1.00  0.00    -0.000 C 
BRANCH  17  18
ATOM     18  C   UNL     1      43.405  44.303  16.398  1.00  0.00    -0.000 C 
BRANCH  18  19
ATOM     19  C   UNL     1      42.332  44.172  15.311  1.00  0.00    -0.003 C 
ATOM     20  C   UNL     1      40.950  44.521  15.856  1.00  0.00     0.004 C 
ENDBRANCH  18  19
ENDBRANCH  17  18
ENDBRANCH  16  17
ENDBRANCH  15  16
ENDBRANCH  14  15
ENDBRANCH  13  14
ENDBRANCH   2  13
TORSDOF 15
ENDMDL
MODEL 8
REMARK VINA RESULT:    -4.754      3.029      7.148
REMARK INTER + INTRA:         -10.939
REMARK INTER:                  -9.295
REMARK INTRA:                  -1.644
REMARK UNBOUND:                -2.017
REMARK SMILES CCCCCCCCC=CCCCCCCCC(=O)[O-]
REMARK SMILES IDX 10 1 9 2 11 3 12 4 13 5 14 6 15 7 16 8 17 9 18 10 19 11
REMARK SMILES IDX 20 12 8 13 7 14 6 15 5 16 4 17 3 18 2 19 1 20
REMARK H PARENT
REMARK Flexibility Score: inf
ROOT
ATOM      1  C   UNL     1      42.824  40.130  15.646  1.00  0.00    -0.031 C 
ATOM      2  C   UNL     1      41.755  40.896  15.391  1.00  0.00    -0.031 C 
ENDROOT
BRANCH   1   3
ATOM      3  C   UNL     1      44.034  40.139  14.750  1.00  0.00     0.027 C 
BRANCH   3   4
ATOM      4  C   UNL     1      44.606  38.730  14.513  1.00  0.00     0.004 C 
BRANCH   4   5
ATOM      5  C   UNL     1      44.003  37.989  13.301  1.00  0.00     0.000 C 
BRANCH   5   6
ATOM      6  C   UNL     1      43.173  36.741  13.651  1.00  0.00     0.000 C 
BRANCH   6   7
ATOM      7  C   UNL     1      41.667  37.030  13.733  1.00  0.00     0.000 C 
BRANCH   7   8
ATOM      8  C   UNL     1      41.311  38.313  12.973  1.00  0.00     0.006 C 
BRANCH   8   9
ATOM      9  C   UNL     1      39.809  38.599  13.051  1.00  0.00     0.053 C 
BRANCH   9  10
ATOM     10  C   UNL     1      39.046  37.618  12.219  1.00  0.00     0.041 C 
ATOM     11  O   UNL     1      39.090  36.389  12.489  1.00  0.00    -0.550 OA
ATOM     12  O   UNL     1      38.246  38.065  11.174  1.00  0.00    -0.550 OA
ENDBRANCH   9  10
ENDBRANCH   8   9
ENDBRANCH   7   8
ENDBRANCH   6   7
ENDBRANCH   5   6
ENDBRANCH   4   5
ENDBRANCH   3   4
ENDBRANCH   1   3
BRANCH   2  13
ATOM     13  C   UNL     1      40.569  40.890  16.317  1.00  0.00     0.027 C 
BRANCH  13  14
ATOM     14  C   UNL     1      40.608  42.047  17.329  1.00  0.00     0.004 C 
BRANCH  14  15
ATOM     15  C   UNL     1      41.414  43.274  16.856  1.00  0.00     0.000 C 
BRANCH  15  16
ATOM     16  C   UNL     1      42.709  43.547  17.645  1.00  0.00     0.000 C 
BRANCH  16  17
ATOM     17  C   UNL     1      43.212  42.335  18.456  1.00  0.00    -0.000 C 
BRANCH  17  18
ATOM     18  C   UNL     1      43.075  42.549  19.971  1.00  0.00    -0.000 C 
BRANCH  18  19
ATOM     19  C   UNL     1      41.996  41.633  20.560  1.00  0.00    -0.003 C 
ATOM     20  C   UNL     1      42.105  40.220  19.994  1.00  0.00     0.004 C 
ENDBRANCH  18  19
ENDBRANCH  17  18
ENDBRANCH  16  17
ENDBRANCH  15  16
ENDBRANCH  14  15
ENDBRANCH  13  14
ENDBRANCH   2  13
TORSDOF 15
ENDMDL
MODEL 9
REMARK VINA RESULT:    -4.752      2.490      6.746
REMARK INTER + INTRA:         -10.936
REMARK INTER:                  -8.884
REMARK INTRA:                  -2.053
REMARK UNBOUND:                -2.017
REMARK SMILES CCCCCCCCC=CCCCCCCCC(=O)[O-]
REMARK SMILES IDX 10 1 9 2 11 3 12 4 13 5 14 6 15 7 16 8 17 9 18 10 19 11
REMARK SMILES IDX 20 12 8 13 7 14 6 15 5 16 4 17 3 18 2 19 1 20
REMARK H PARENT
REMARK Flexibility Score: inf
ROOT
ATOM      1  C   UNL     1      40.817  41.009  17.707  1.00  0.00    -0.031 C 
ATOM      2  C   UNL     1      41.573  40.270  18.530  1.00  0.00    -0.031 C 
ENDROOT
BRANCH   1   3
ATOM      3  C   UNL     1      40.622  40.633  16.262  1.00  0.00     0.027 C 
BRANCH   3   4
ATOM      4  C   UNL     1      41.439  41.518  15.304  1.00  0.00     0.004 C 
BRANCH   4   5
ATOM      5  C   UNL     1      42.895  41.057  15.089  1.00  0.00     0.000 C 
BRANCH   5   6
ATOM      6  C   UNL     1      43.139  39.553  15.307  1.00  0.00     0.000 C 
BRANCH   6   7
ATOM      7  C   UNL     1      43.993  38.920  14.199  1.00  0.00     0.000 C 
BRANCH   7   8
ATOM      8  C   UNL     1      43.113  38.197  13.172  1.00  0.00     0.006 C 
BRANCH   8   9
ATOM      9  C   UNL     1      42.081  37.303  13.865  1.00  0.00     0.053 C 
BRANCH   9  10
ATOM     10  C   UNL     1      40.707  37.592  13.348  1.00  0.00     0.041 C 
ATOM     11  O   UNL     1      39.934  36.647  13.042  1.00  0.00    -0.550 OA
ATOM     12  O   UNL     1      40.263  38.904  13.252  1.00  0.00    -0.550 OA
ENDBRANCH   9  10
ENDBRANCH   8   9
ENDBRANCH   7   8
ENDBRANCH   6   7
ENDBRANCH   5   6
ENDBRANCH   4   5
ENDBRANCH   3   4
ENDBRANCH   1   3
BRANCH   2  13
ATOM     13  C   UNL     1      41.730  40.652  19.977  1.00  0.00     0.027 C 
BRANCH  13  14
ATOM     14  C   UNL     1      42.047  42.146  20.158  1.00  0.00     0.004 C 
BRANCH  14  15
ATOM     15  C   UNL     1      43.489  42.538  19.776  1.00  0.00     0.000 C 
BRANCH  15  16
ATOM     16  C   UNL     1      43.621  43.858  18.993  1.00  0.00     0.000 C 
BRANCH  16  17
ATOM     17  C   UNL     1      43.132  43.767  17.532  1.00  0.00    -0.000 C 
BRANCH  17  18
ATOM     18  C   UNL     1      43.469  45.028  16.723  1.00  0.00    -0.000 C 
BRANCH  18  19
ATOM     19  C   UNL     1      42.892  44.943  15.305  1.00  0.00    -0.003 C 
ATOM     20  C   UNL     1      43.970  44.564  14.294  1.00  0.00     0.004 C 
ENDBRANCH  18  19
ENDBRANCH  17  18
ENDBRANCH  16  17
ENDBRANCH  15  16
ENDBRANCH  14  15
ENDBRANCH  13  14
ENDBRANCH   2  13
TORSDOF 15
ENDMDL
