MODEL 1
REMARK VINA RESULT:    11.393      0.000      0.000
REMARK INTER + INTRA:          15.048
REMARK INTER:                  15.057
REMARK INTRA:                  -0.009
REMARK UNBOUND:                -0.009
REMARK SMILES CC[C@@H](C=C[C@H](C)[C@H]1CC[C@H]2[C@H]3CC=C4C[C@@H](O)CC[C@]4(C)[C@@H]3CC[C@@]12C)C(C)C
REMARK SMILES IDX 6 1 7 2 5 3 4 4 3 5 2 6 1 7 28 8 29 9 30 10 8 11 9 12 26 13
REMARK SMILES IDX 10 14 11 15 25 16 27 17 12 18 24 19 23 20 13 21 21 22 14 23
REMARK SMILES IDX 15 24 20 25 22 26 16 27 19 28 17 29 18 30
REMARK H PARENT 18 31
REMARK Flexibility Score: inf
ROOT
ATOM      1  C   UNL     1      78.313  15.781   4.684  1.00  0.00     0.012 C 
ATOM      2  C   UNL     1      78.300  17.273   5.034  1.00  0.00     0.012 C 
ENDROOT
BRANCH   1   3
ATOM      3  C   UNL     1      78.183  15.631   3.173  1.00  0.00    -0.028 C 
ATOM      4  C   UNL     1      78.970  16.277   2.298  1.00  0.00    -0.027 C 
BRANCH   4   5
ATOM      5  C   UNL     1      78.714  16.322   0.799  1.00  0.00     0.014 C 
BRANCH   5   6
ATOM      6  C   UNL     1      77.544  17.296   0.482  1.00  0.00     0.004 C 
ATOM      7  C   UNL     1      77.685  18.691   1.088  1.00  0.00     0.004 C 
ENDBRANCH   5   6
BRANCH   5   8
ATOM      8  C   UNL     1      78.614  14.911   0.137  1.00  0.00    -0.011 C 
ATOM      9  C   UNL     1      77.267  14.232   0.465  1.00  0.00     0.008 C 
ATOM     10  C   UNL     1      79.763  13.978   0.564  1.00  0.00     0.008 C 
ENDBRANCH   5   8
ENDBRANCH   4   5
ENDBRANCH   1   3
BRANCH   1  11
ATOM     11  C   UNL     1      79.484  14.933   5.298  1.00  0.00     0.002 C 
ATOM     12  C   UNL     1      80.906  15.308   4.891  1.00  0.00     0.005 C 
ATOM     13  C   UNL     1      79.538  14.849   6.848  1.00  0.00    -0.026 C 
ATOM     14  C   UNL     1      81.818  14.629   5.922  1.00  0.00     0.005 C 
ATOM     15  C   UNL     1      80.908  14.171   7.094  1.00  0.00    -0.001 C 
ATOM     16  C   UNL     1      79.511  16.267   7.491  1.00  0.00     0.007 C 
ATOM     17  C   UNL     1      78.387  13.960   7.397  1.00  0.00     0.012 C 
ATOM     18  C   UNL     1      81.475  14.302   8.556  1.00  0.00     0.000 C 
ATOM     19  C   UNL     1      79.872  16.237   8.974  1.00  0.00     0.005 C 
ATOM     20  C   UNL     1      81.305  15.705   9.191  1.00  0.00     0.003 C 
ATOM     21  C   UNL     1      82.949  13.877   8.659  1.00  0.00     0.031 C 
ATOM     22  C   UNL     1      81.739  15.708  10.715  1.00  0.00    -0.008 C 
ATOM     23  C   UNL     1      83.433  13.919  10.069  1.00  0.00    -0.027 C 
ATOM     24  C   UNL     1      82.963  14.810  10.975  1.00  0.00    -0.065 C 
ATOM     25  C   UNL     1      80.596  15.181  11.646  1.00  0.00     0.014 C 
ATOM     26  C   UNL     1      82.107  17.171  11.100  1.00  0.00     0.016 C 
ATOM     27  C   UNL     1      83.432  14.681  12.405  1.00  0.00     0.063 C 
ATOM     28  C   UNL     1      81.024  14.985  13.115  1.00  0.00     0.033 C 
ATOM     29  C   UNL     1      82.288  14.111  13.251  1.00  0.00     0.118 C 
BRANCH  29  30
ATOM     30  O   UNL     1      82.667  14.067  14.603  1.00  0.00    -0.393 OA
ATOM     31  H   UNL     1      83.625  14.288  14.637  1.00  0.00     0.210 HD
ENDBRANCH  29  30
ENDBRANCH   1  11
TORSDOF 6
ENDMDL
MODEL 2
REMARK VINA RESULT:    11.581      0.579      1.780
REMARK INTER + INTRA:          15.295
REMARK INTER:                  15.640
REMARK INTRA:                  -0.344
REMARK UNBOUND:                -0.009
REMARK SMILES CC[C@@H](C=C[C@H](C)[C@H]1CC[C@H]2[C@H]3CC=C4C[C@@H](O)CC[C@]4(C)[C@@H]3CC[C@@]12C)C(C)C
REMARK SMILES IDX 6 1 7 2 5 3 4 4 3 5 2 6 1 7 28 8 29 9 30 10 8 11 9 12 26 13
REMARK SMILES IDX 10 14 11 15 25 16 27 17 12 18 24 19 23 20 13 21 21 22 14 23
REMARK SMILES IDX 15 24 20 25 22 26 16 27 19 28 17 29 18 30
REMARK H PARENT 18 31
REMARK Flexibility Score: inf
ROOT
ATOM      1  C   UNL     1      78.087  16.081   5.063  1.00  0.00     0.012 C 
ATOM      2  C   UNL     1      78.209  17.576   5.381  1.00  0.00     0.012 C 
ENDROOT
BRANCH   1   3
ATOM      3  C   UNL     1      77.803  15.919   3.575  1.00  0.00    -0.028 C 
ATOM      4  C   UNL     1      78.617  16.385   2.613  1.00  0.00    -0.027 C 
BRANCH   4   5
ATOM      5  C   UNL     1      78.246  16.437   1.139  1.00  0.00     0.014 C 
BRANCH   5   6
ATOM      6  C   UNL     1      78.838  15.208   0.392  1.00  0.00     0.004 C 
ATOM      7  C   UNL     1      79.827  14.375   1.205  1.00  0.00     0.004 C 
ENDBRANCH   5   6
BRANCH   5   8
ATOM      8  C   UNL     1      78.514  17.824   0.473  1.00  0.00    -0.011 C 
ATOM      9  C   UNL     1      79.775  18.493   1.060  1.00  0.00     0.008 C 
ATOM     10  C   UNL     1      77.321  18.786   0.618  1.00  0.00     0.008 C 
ENDBRANCH   5   8
ENDBRANCH   4   5
ENDBRANCH   1   3
BRANCH   1  11
ATOM     11  C   UNL     1      79.249  15.163   5.582  1.00  0.00     0.002 C 
ATOM     12  C   UNL     1      80.656  15.462   5.073  1.00  0.00     0.005 C 
ATOM     13  C   UNL     1      79.413  15.057   7.123  1.00  0.00    -0.026 C 
ATOM     14  C   UNL     1      81.603  14.722   6.029  1.00  0.00     0.005 C 
ATOM     15  C   UNL     1      80.757  14.301   7.262  1.00  0.00    -0.001 C 
ATOM     16  C   UNL     1      79.513  16.467   7.777  1.00  0.00     0.007 C 
ATOM     17  C   UNL     1      78.257  14.227   7.749  1.00  0.00     0.012 C 
ATOM     18  C   UNL     1      81.436  14.384   8.679  1.00  0.00     0.000 C 
ATOM     19  C   UNL     1      79.980  16.400   9.229  1.00  0.00     0.005 C 
ATOM     20  C   UNL     1      81.394  15.787   9.335  1.00  0.00     0.003 C 
ATOM     21  C   UNL     1      82.888  13.876   8.669  1.00  0.00     0.031 C 
ATOM     22  C   UNL     1      81.938  15.749  10.822  1.00  0.00    -0.008 C 
ATOM     23  C   UNL     1      83.476  13.875  10.039  1.00  0.00    -0.027 C 
ATOM     24  C   UNL     1      83.125  14.781  10.984  1.00  0.00    -0.065 C 
ATOM     25  C   UNL     1      80.839  15.275  11.831  1.00  0.00     0.014 C 
ATOM     26  C   UNL     1      82.415  17.184  11.189  1.00  0.00     0.016 C 
ATOM     27  C   UNL     1      83.690  14.609  12.374  1.00  0.00     0.063 C 
ATOM     28  C   UNL     1      81.362  15.039  13.263  1.00  0.00     0.033 C 
ATOM     29  C   UNL     1      82.581  14.094  13.299  1.00  0.00     0.118 C 
BRANCH  29  30
ATOM     30  O   UNL     1      83.055  14.014  14.619  1.00  0.00    -0.393 OA
ATOM     31  H   UNL     1      83.999  13.738  14.565  1.00  0.00     0.210 HD
ENDBRANCH  29  30
ENDBRANCH   1  11
TORSDOF 6
ENDMDL
MODEL 3
REMARK VINA RESULT:    14.304      2.072      4.173
REMARK INTER + INTRA:          18.893
REMARK INTER:                  17.738
REMARK INTRA:                   1.155
REMARK UNBOUND:                -0.009
REMARK SMILES CC[C@@H](C=C[C@H](C)[C@H]1CC[C@H]2[C@H]3CC=C4C[C@@H](O)CC[C@]4(C)[C@@H]3CC[C@@]12C)C(C)C
REMARK SMILES IDX 6 1 7 2 5 3 4 4 3 5 2 6 1 7 28 8 29 9 30 10 8 11 9 12 26 13
REMARK SMILES IDX 10 14 11 15 25 16 27 17 12 18 24 19 23 20 13 21 21 22 14 23
REMARK SMILES IDX 15 24 20 25 22 26 16 27 19 28 17 29 18 30
REMARK H PARENT 18 31
REMARK Flexibility Score: inf
ROOT
ATOM      1  C   UNL     1      77.914  14.879   0.502  1.00  0.00     0.012 C 
ATOM      2  C   UNL     1      76.396  14.772   0.687  1.00  0.00     0.012 C 
ENDROOT
BRANCH   1   3
ATOM      3  C   UNL     1      78.278  16.343   0.281  1.00  0.00    -0.028 C 
ATOM      4  C   UNL     1      78.181  17.279   1.239  1.00  0.00    -0.027 C 
BRANCH   4   5
ATOM      5  C   UNL     1      78.318  18.772   0.983  1.00  0.00     0.014 C 
BRANCH   5   6
ATOM      6  C   UNL     1      79.489  19.357   1.823  1.00  0.00     0.004 C 
ATOM      7  C   UNL     1      80.528  18.335   2.279  1.00  0.00     0.004 C 
ENDBRANCH   5   6
BRANCH   5   8
ATOM      8  C   UNL     1      76.967  19.551   1.074  1.00  0.00    -0.011 C 
ATOM      9  C   UNL     1      76.015  19.160  -0.075  1.00  0.00     0.008 C 
ATOM     10  C   UNL     1      77.168  21.078   1.063  1.00  0.00     0.008 C 
ENDBRANCH   5   8
ENDBRANCH   4   5
ENDBRANCH   1   3
BRANCH   1  11
ATOM     11  C   UNL     1      78.799  14.172   1.588  1.00  0.00     0.002 C 
ATOM     12  C   UNL     1      80.313  14.313   1.456  1.00  0.00     0.005 C 
ATOM     13  C   UNL     1      78.507  14.543   3.068  1.00  0.00    -0.026 C 
ATOM     14  C   UNL     1      80.882  13.906   2.823  1.00  0.00     0.005 C 
ATOM     15  C   UNL     1      79.688  13.876   3.816  1.00  0.00    -0.001 C 
ATOM     16  C   UNL     1      78.535  16.086   3.278  1.00  0.00     0.007 C 
ATOM     17  C   UNL     1      77.156  13.936   3.537  1.00  0.00     0.012 C 
ATOM     18  C   UNL     1      79.939  14.392   5.280  1.00  0.00     0.000 C 
ATOM     19  C   UNL     1      78.561  16.469   4.756  1.00  0.00     0.005 C 
ATOM     20  C   UNL     1      79.829  15.928   5.452  1.00  0.00     0.003 C 
ATOM     21  C   UNL     1      81.285  13.916   5.852  1.00  0.00     0.031 C 
ATOM     22  C   UNL     1      79.922  16.350   6.976  1.00  0.00    -0.008 C 
ATOM     23  C   UNL     1      81.456  14.339   7.272  1.00  0.00    -0.027 C 
ATOM     24  C   UNL     1      80.928  15.487   7.760  1.00  0.00    -0.065 C 
ATOM     25  C   UNL     1      78.544  16.199   7.706  1.00  0.00     0.014 C 
ATOM     26  C   UNL     1      80.393  17.833   7.030  1.00  0.00     0.016 C 
ATOM     27  C   UNL     1      81.056  15.752   9.242  1.00  0.00     0.063 C 
ATOM     28  C   UNL     1      78.616  16.415   9.232  1.00  0.00     0.033 C 
ATOM     29  C   UNL     1      79.691  15.535   9.903  1.00  0.00     0.118 C 
BRANCH  29  30
ATOM     30  O   UNL     1      79.760  15.865  11.267  1.00  0.00    -0.393 OA
ATOM     31  H   UNL     1      79.360  15.114  11.762  1.00  0.00     0.210 HD
ENDBRANCH  29  30
ENDBRANCH   1  11
TORSDOF 6
ENDMDL
