MODEL 1
REMARK VINA RESULT:     9.226      0.000      0.000
REMARK INTER + INTRA:          11.107
REMARK INTER:                  11.383
REMARK INTRA:                  -0.276
REMARK UNBOUND:                -0.276
REMARK SMILES Oc1cc(O)c2cc(O)c(-c3cc(O)c(O)c(O)c3)[o+]c2c1.[Cl-]
REMARK SMILES IDX 10 1 20 2 21 3 22 4 2 5 3 6 4 7 6 8 7 9 8 10 11 11 12 12
REMARK SMILES IDX 13 13 19 14 15 15 17 16 14 17 16 19 18 21 9 23 1 25 5 27
REMARK H PARENT 14 18 16 20 18 22 9 24 1 26 5 28
REMARK Flexibility Score: inf
ROOT
ATOM      1  C   UNL     1      11.980  21.798  -0.438  1.00  0.00     0.402 A 
ATOM      2  O   UNL     1      10.933  21.434  -1.174  1.00  0.00    -0.202 OA
ATOM      3  C   UNL     1      11.034  21.022  -2.433  1.00  0.00     0.368 A 
ATOM      4  C   UNL     1       9.875  20.662  -3.126  1.00  0.00     0.162 A 
ATOM      5  C   UNL     1       9.951  20.229  -4.451  1.00  0.00     0.128 A 
ATOM      6  C   UNL     1      11.195  20.155  -5.089  1.00  0.00     0.093 A 
ATOM      7  C   UNL     1      12.370  20.510  -4.417  1.00  0.00     0.136 A 
ATOM      8  C   UNL     1      12.298  20.949  -3.070  1.00  0.00     0.125 A 
ATOM      9  C   UNL     1      13.424  21.313  -2.313  1.00  0.00     0.078 A 
ATOM     10  C   UNL     1      13.273  21.730  -0.988  1.00  0.00     0.223 A 
ENDROOT
BRANCH   1  11
ATOM     11  C   UNL     1      11.736  22.249   0.951  1.00  0.00     0.091 A 
ATOM     12  C   UNL     1      12.098  21.417   2.019  1.00  0.00     0.068 A 
ATOM     13  C   UNL     1      11.864  21.807   3.340  1.00  0.00     0.162 A 
ATOM     14  C   UNL     1      11.097  23.468   1.223  1.00  0.00     0.068 A 
ATOM     15  C   UNL     1      11.244  23.041   3.615  1.00  0.00     0.200 A 
ATOM     16  C   UNL     1      10.851  23.874   2.541  1.00  0.00     0.162 A 
BRANCH  13  17
ATOM     17  O   UNL     1      12.256  20.953   4.371  1.00  0.00    -0.504 OA
ATOM     18  H   UNL     1      11.746  20.888   5.244  1.00  0.00     0.293 HD
ENDBRANCH  13  17
BRANCH  15  19
ATOM     19  O   UNL     1      11.036  23.397   4.950  1.00  0.00    -0.502 OA
ATOM     20  H   UNL     1      11.760  23.404   5.655  1.00  0.00     0.293 HD
ENDBRANCH  15  19
BRANCH  16  21
ATOM     21  O   UNL     1      10.210  25.101   2.732  1.00  0.00    -0.504 OA
ATOM     22  H   UNL     1       9.393  25.400   2.219  1.00  0.00     0.293 HD
ENDBRANCH  16  21
ENDBRANCH   1  11
BRANCH  10  23
ATOM     23  O   UNL     1      14.395  22.043  -0.220  1.00  0.00    -0.500 OA
ATOM     24  H   UNL     1      15.333  21.980  -0.599  1.00  0.00     0.294 HD
ENDBRANCH  10  23
BRANCH   5  25
ATOM     25  O   UNL     1       8.785  19.875  -5.125  1.00  0.00    -0.507 OA
ATOM     26  H   UNL     1       8.810  19.496  -6.065  1.00  0.00     0.293 HD
ENDBRANCH   5  25
BRANCH   7  27
ATOM     27  O   UNL     1      13.572  20.413  -5.125  1.00  0.00    -0.507 OA
ATOM     28  H   UNL     1      14.442  20.833  -4.833  1.00  0.00     0.293 HD
ENDBRANCH   7  27
TORSDOF 7
ENDMDL
MODEL 2
REMARK VINA RESULT:     9.697      0.837      1.971
REMARK INTER + INTRA:          11.689
REMARK INTER:                  12.056
REMARK INTRA:                  -0.367
REMARK UNBOUND:                -0.276
REMARK SMILES Oc1cc(O)c2cc(O)c(-c3cc(O)c(O)c(O)c3)[o+]c2c1.[Cl-]
REMARK SMILES IDX 10 1 20 2 21 3 22 4 2 5 3 6 4 7 6 8 7 9 8 10 11 11 12 12
REMARK SMILES IDX 13 13 19 14 15 15 17 16 14 17 16 19 18 21 9 23 1 25 5 27
REMARK H PARENT 14 18 16 20 18 22 9 24 1 26 5 28
REMARK Flexibility Score: inf
ROOT
ATOM      1  C   UNL     1      11.893  21.879  -0.133  1.00  0.00     0.402 A 
ATOM      2  O   UNL     1      10.912  21.325  -0.841  1.00  0.00    -0.202 OA
ATOM      3  C   UNL     1      10.946  21.203  -2.164  1.00  0.00     0.368 A 
ATOM      4  C   UNL     1       9.865  20.609  -2.820  1.00  0.00     0.162 A 
ATOM      5  C   UNL     1       9.872  20.470  -4.208  1.00  0.00     0.128 A 
ATOM      6  C   UNL     1      10.967  20.930  -4.949  1.00  0.00     0.093 A 
ATOM      7  C   UNL     1      12.063  21.529  -4.315  1.00  0.00     0.136 A 
ATOM      8  C   UNL     1      12.060  21.669  -2.904  1.00  0.00     0.125 A 
ATOM      9  C   UNL     1      13.119  22.245  -2.182  1.00  0.00     0.078 A 
ATOM     10  C   UNL     1      13.047  22.344  -0.790  1.00  0.00     0.223 A 
ENDROOT
BRANCH   1  11
ATOM     11  C   UNL     1      11.732  21.966   1.336  1.00  0.00     0.091 A 
ATOM     12  C   UNL     1      11.294  23.166   1.913  1.00  0.00     0.068 A 
ATOM     13  C   UNL     1      11.151  23.283   3.297  1.00  0.00     0.162 A 
ATOM     14  C   UNL     1      12.063  20.889   2.173  1.00  0.00     0.068 A 
ATOM     15  C   UNL     1      11.461  22.196   4.136  1.00  0.00     0.200 A 
ATOM     16  C   UNL     1      11.929  20.989   3.563  1.00  0.00     0.162 A 
BRANCH  13  17
ATOM     17  O   UNL     1      10.697  24.492   3.824  1.00  0.00    -0.504 OA
ATOM     18  H   UNL     1       9.758  24.836   3.660  1.00  0.00     0.293 HD
ENDBRANCH  13  17
BRANCH  15  19
ATOM     19  O   UNL     1      11.295  22.352   5.515  1.00  0.00    -0.502 OA
ATOM     20  H   UNL     1      12.016  22.166   6.198  1.00  0.00     0.293 HD
ENDBRANCH  15  19
BRANCH  16  21
ATOM     21  O   UNL     1      12.279  19.875   4.330  1.00  0.00    -0.504 OA
ATOM     22  H   UNL     1      12.831  19.918   5.174  1.00  0.00     0.293 HD
ENDBRANCH  16  21
ENDBRANCH   1  11
BRANCH  10  23
ATOM     23  O   UNL     1      14.119  22.870  -0.068  1.00  0.00    -0.500 OA
ATOM     24  H   UNL     1      14.655  23.658  -0.411  1.00  0.00     0.294 HD
ENDBRANCH  10  23
BRANCH   5  25
ATOM     25  O   UNL     1       8.785  19.876  -4.845  1.00  0.00    -0.507 OA
ATOM     26  H   UNL     1       8.038  19.437  -4.319  1.00  0.00     0.293 HD
ENDBRANCH   5  25
BRANCH   7  27
ATOM     27  O   UNL     1      13.115  21.965  -5.125  1.00  0.00    -0.507 OA
ATOM     28  H   UNL     1      13.072  22.031  -6.131  1.00  0.00     0.293 HD
ENDBRANCH   7  27
TORSDOF 7
ENDMDL
MODEL 3
REMARK VINA RESULT:    10.781      1.693      7.049
REMARK INTER + INTRA:          13.027
REMARK INTER:                  13.003
REMARK INTRA:                   0.024
REMARK UNBOUND:                -0.276
REMARK SMILES Oc1cc(O)c2cc(O)c(-c3cc(O)c(O)c(O)c3)[o+]c2c1.[Cl-]
REMARK SMILES IDX 10 1 20 2 21 3 22 4 2 5 3 6 4 7 6 8 7 9 8 10 11 11 12 12
REMARK SMILES IDX 13 13 19 14 15 15 17 16 14 17 16 19 18 21 9 23 1 25 5 27
REMARK H PARENT 14 18 16 20 18 22 9 24 1 26 5 28
REMARK Flexibility Score: inf
ROOT
ATOM      1  C   UNL     1      11.737  21.985   0.134  1.00  0.00     0.402 A 
ATOM      2  O   UNL     1      11.398  21.179   1.136  1.00  0.00    -0.202 OA
ATOM      3  C   UNL     1      11.660  21.449   2.411  1.00  0.00     0.368 A 
ATOM      4  C   UNL     1      11.267  20.538   3.394  1.00  0.00     0.162 A 
ATOM      5  C   UNL     1      11.532  20.795   4.740  1.00  0.00     0.128 A 
ATOM      6  C   UNL     1      12.198  21.971   5.107  1.00  0.00     0.093 A 
ATOM      7  C   UNL     1      12.603  22.899   4.141  1.00  0.00     0.136 A 
ATOM      8  C   UNL     1      12.332  22.643   2.772  1.00  0.00     0.125 A 
ATOM      9  C   UNL     1      12.689  23.522   1.736  1.00  0.00     0.078 A 
ATOM     10  C   UNL     1      12.384  23.204   0.410  1.00  0.00     0.223 A 
ENDROOT
BRANCH   1  11
ATOM     11  C   UNL     1      11.397  21.567  -1.245  1.00  0.00     0.091 A 
ATOM     12  C   UNL     1      10.177  20.922  -1.490  1.00  0.00     0.068 A 
ATOM     13  C   UNL     1       9.837  20.500  -2.778  1.00  0.00     0.162 A 
ATOM     14  C   UNL     1      12.295  21.752  -2.308  1.00  0.00     0.068 A 
ATOM     15  C   UNL     1      10.727  20.706  -3.849  1.00  0.00     0.200 A 
ATOM     16  C   UNL     1      11.973  21.333  -3.605  1.00  0.00     0.162 A 
BRANCH  13  17
ATOM     17  O   UNL     1       8.606  19.877  -2.976  1.00  0.00    -0.504 OA
ATOM     18  H   UNL     1       8.527  18.940  -3.355  1.00  0.00     0.293 HD
ENDBRANCH  13  17
BRANCH  15  19
ATOM     19  O   UNL     1      10.345  20.277  -5.123  1.00  0.00    -0.502 OA
ATOM     20  H   UNL     1       9.718  19.505  -5.297  1.00  0.00     0.293 HD
ENDBRANCH  15  19
BRANCH  16  21
ATOM     21  O   UNL     1      12.918  21.551  -4.610  1.00  0.00    -0.504 OA
ATOM     22  H   UNL     1      13.734  20.975  -4.755  1.00  0.00     0.293 HD
ENDBRANCH  16  21
ENDBRANCH   1  11
BRANCH  10  23
ATOM     23  O   UNL     1      12.693  24.098  -0.615  1.00  0.00    -0.500 OA
ATOM     24  H   UNL     1      11.975  24.636  -1.086  1.00  0.00     0.294 HD
ENDBRANCH  10  23
BRANCH   5  25
ATOM     25  O   UNL     1      11.132  19.875   5.706  1.00  0.00    -0.507 OA
ATOM     26  H   UNL     1      10.335  19.265   5.561  1.00  0.00     0.293 HD
ENDBRANCH   5  25
BRANCH   7  27
ATOM     27  O   UNL     1      13.265  24.046   4.588  1.00  0.00    -0.507 OA
ATOM     28  H   UNL     1      14.150  24.372   4.227  1.00  0.00     0.293 HD
ENDBRANCH   7  27
TORSDOF 7
ENDMDL
MODEL 4
REMARK VINA RESULT:    11.455      2.202      2.819
REMARK INTER + INTRA:          13.858
REMARK INTER:                  13.630
REMARK INTRA:                   0.228
REMARK UNBOUND:                -0.276
REMARK SMILES Oc1cc(O)c2cc(O)c(-c3cc(O)c(O)c(O)c3)[o+]c2c1.[Cl-]
REMARK SMILES IDX 10 1 20 2 21 3 22 4 2 5 3 6 4 7 6 8 7 9 8 10 11 11 12 12
REMARK SMILES IDX 13 13 19 14 15 15 17 16 14 17 16 19 18 21 9 23 1 25 5 27
REMARK H PARENT 14 18 16 20 18 22 9 24 1 26 5 28
REMARK Flexibility Score: inf
ROOT
ATOM      1  C   UNL     1      11.682  22.220  -0.056  1.00  0.00     0.402 A 
ATOM      2  O   UNL     1      11.955  23.350  -0.703  1.00  0.00    -0.202 OA
ATOM      3  C   UNL     1      11.977  23.446  -2.028  1.00  0.00     0.368 A 
ATOM      4  C   UNL     1      12.277  24.677  -2.617  1.00  0.00     0.162 A 
ATOM      5  C   UNL     1      12.311  24.805  -4.006  1.00  0.00     0.128 A 
ATOM      6  C   UNL     1      12.045  23.694  -4.815  1.00  0.00     0.093 A 
ATOM      7  C   UNL     1      11.743  22.449  -4.250  1.00  0.00     0.136 A 
ATOM      8  C   UNL     1      11.704  22.315  -2.838  1.00  0.00     0.125 A 
ATOM      9  C   UNL     1      11.398  21.111  -2.183  1.00  0.00     0.078 A 
ATOM     10  C   UNL     1      11.374  21.058  -0.787  1.00  0.00     0.223 A 
ENDROOT
BRANCH   1  11
ATOM     11  C   UNL     1      11.697  22.240   1.424  1.00  0.00     0.091 A 
ATOM     12  C   UNL     1      12.025  21.072   2.126  1.00  0.00     0.068 A 
ATOM     13  C   UNL     1      12.030  21.056   3.523  1.00  0.00     0.162 A 
ATOM     14  C   UNL     1      11.335  23.389   2.144  1.00  0.00     0.068 A 
ATOM     15  C   UNL     1      11.689  22.214   4.247  1.00  0.00     0.200 A 
ATOM     16  C   UNL     1      11.331  23.391   3.544  1.00  0.00     0.162 A 
BRANCH  13  17
ATOM     17  O   UNL     1      12.378  19.875   4.178  1.00  0.00    -0.504 OA
ATOM     18  H   UNL     1      13.341  19.576   4.281  1.00  0.00     0.293 HD
ENDBRANCH  13  17
BRANCH  15  19
ATOM     19  O   UNL     1      11.715  22.158   5.643  1.00  0.00    -0.502 OA
ATOM     20  H   UNL     1      12.226  21.468   6.173  1.00  0.00     0.293 HD
ENDBRANCH  15  19
BRANCH  16  21
ATOM     21  O   UNL     1      10.959  24.572   4.190  1.00  0.00    -0.504 OA
ATOM     22  H   UNL     1      10.668  25.412   3.712  1.00  0.00     0.293 HD
ENDBRANCH  16  21
ENDBRANCH   1  11
BRANCH  10  23
ATOM     23  O   UNL     1      11.021  19.875  -0.137  1.00  0.00    -0.500 OA
ATOM     24  H   UNL     1      10.098  19.742   0.260  1.00  0.00     0.294 HD
ENDBRANCH  10  23
BRANCH   5  25
ATOM     25  O   UNL     1      12.612  26.040  -4.574  1.00  0.00    -0.507 OA
ATOM     26  H   UNL     1      12.995  26.115  -5.510  1.00  0.00     0.293 HD
ENDBRANCH   5  25
BRANCH   7  27
ATOM     27  O   UNL     1      11.492  21.388  -5.125  1.00  0.00    -0.507 OA
ATOM     28  H   UNL     1      12.073  21.152  -5.916  1.00  0.00     0.293 HD
ENDBRANCH   7  27
TORSDOF 7
ENDMDL
MODEL 5
REMARK VINA RESULT:    11.537      2.105      3.629
REMARK INTER + INTRA:          13.960
REMARK INTER:                  14.247
REMARK INTRA:                  -0.288
REMARK UNBOUND:                -0.276
REMARK SMILES Oc1cc(O)c2cc(O)c(-c3cc(O)c(O)c(O)c3)[o+]c2c1.[Cl-]
REMARK SMILES IDX 10 1 20 2 21 3 22 4 2 5 3 6 4 7 6 8 7 9 8 10 11 11 12 12
REMARK SMILES IDX 13 13 19 14 15 15 17 16 14 17 16 19 18 21 9 23 1 25 5 27
REMARK H PARENT 14 18 16 20 18 22 9 24 1 26 5 28
REMARK Flexibility Score: inf
ROOT
ATOM      1  C   UNL     1      11.733  22.935   1.369  1.00  0.00     0.402 A 
ATOM      2  O   UNL     1      12.299  22.179   0.431  1.00  0.00    -0.202 OA
ATOM      3  C   UNL     1      12.218  22.446  -0.868  1.00  0.00     0.368 A 
ATOM      4  C   UNL     1      12.844  21.591  -1.779  1.00  0.00     0.162 A 
ATOM      5  C   UNL     1      12.772  21.845  -3.149  1.00  0.00     0.128 A 
ATOM      6  C   UNL     1      12.068  22.961  -3.615  1.00  0.00     0.093 A 
ATOM      7  C   UNL     1      11.431  23.833  -2.723  1.00  0.00     0.136 A 
ATOM      8  C   UNL     1      11.504  23.580  -1.329  1.00  0.00     0.125 A 
ATOM      9  C   UNL     1      10.908  24.405  -0.361  1.00  0.00     0.078 A 
ATOM     10  C   UNL     1      11.028  24.094   0.996  1.00  0.00     0.223 A 
ENDROOT
BRANCH   1  11
ATOM     11  C   UNL     1      11.888  22.527   2.784  1.00  0.00     0.091 A 
ATOM     12  C   UNL     1      12.754  23.245   3.618  1.00  0.00     0.068 A 
ATOM     13  C   UNL     1      12.934  22.872   4.953  1.00  0.00     0.162 A 
ATOM     14  C   UNL     1      11.228  21.399   3.296  1.00  0.00     0.068 A 
ATOM     15  C   UNL     1      12.255  21.755   5.474  1.00  0.00     0.200 A 
ATOM     16  C   UNL     1      11.398  21.008   4.630  1.00  0.00     0.162 A 
BRANCH  13  17
ATOM     17  O   UNL     1      13.794  23.628   5.749  1.00  0.00    -0.504 OA
ATOM     18  H   UNL     1      14.699  23.282   6.049  1.00  0.00     0.293 HD
ENDBRANCH  13  17
BRANCH  15  19
ATOM     19  O   UNL     1      12.455  21.422   6.816  1.00  0.00    -0.502 OA
ATOM     20  H   UNL     1      12.294  20.503   7.202  1.00  0.00     0.293 HD
ENDBRANCH  15  19
BRANCH  16  21
ATOM     21  O   UNL     1      10.708  19.875   5.066  1.00  0.00    -0.504 OA
ATOM     22  H   UNL     1      10.166  19.274   4.463  1.00  0.00     0.293 HD
ENDBRANCH  16  21
ENDBRANCH   1  11
BRANCH  10  23
ATOM     23  O   UNL     1      10.480  24.940   1.960  1.00  0.00    -0.500 OA
ATOM     24  H   UNL     1      10.934  25.805   2.229  1.00  0.00     0.294 HD
ENDBRANCH  10  23
BRANCH   5  25
ATOM     25  O   UNL     1      13.403  20.981  -4.041  1.00  0.00    -0.507 OA
ATOM     26  H   UNL     1      12.980  20.103  -4.319  1.00  0.00     0.293 HD
ENDBRANCH   5  25
BRANCH   7  27
ATOM     27  O   UNL     1      10.746  24.923  -3.267  1.00  0.00    -0.507 OA
ATOM     28  H   UNL     1      10.055  25.468  -2.771  1.00  0.00     0.293 HD
ENDBRANCH   7  27
TORSDOF 7
ENDMDL
