MODEL 1
REMARK VINA RESULT:    -4.422      0.000      0.000
REMARK INTER + INTRA:          -8.600
REMARK INTER:                  -7.007
REMARK INTRA:                  -1.593
REMARK UNBOUND:                -1.593
REMARK SMILES CCCCCCCCCCCC(=O)[O-]
REMARK SMILES IDX 7 1 8 2 9 3 10 4 11 5 12 6 13 7 14 8 6 9 5 10 4 11 3 12 2 13
REMARK SMILES IDX 1 14
REMARK H PARENT
REMARK Flexibility Score: inf
ROOT
ATOM      1  C   UNL     1      -0.471  55.797  19.801  1.00  0.00     0.000 C 
ENDROOT
BRANCH   1   2
ATOM      2  C   UNL     1       0.321  54.738  20.591  1.00  0.00     0.000 C 
BRANCH   2   3
ATOM      3  C   UNL     1       1.815  55.054  20.777  1.00  0.00     0.000 C 
BRANCH   3   4
ATOM      4  C   UNL     1       2.730  53.935  20.257  1.00  0.00     0.006 C 
BRANCH   4   5
ATOM      5  C   UNL     1       1.950  52.961  19.369  1.00  0.00     0.053 C 
BRANCH   5   6
ATOM      6  C   UNL     1       2.446  53.025  17.960  1.00  0.00     0.041 C 
ATOM      7  O   UNL     1       3.682  53.033  17.723  1.00  0.00    -0.550 OA
ATOM      8  O   UNL     1       1.543  53.028  16.904  1.00  0.00    -0.550 OA
ENDBRANCH   5   6
ENDBRANCH   4   5
ENDBRANCH   3   4
ENDBRANCH   2   3
ENDBRANCH   1   2
BRANCH   1   9
ATOM      9  C   UNL     1      -0.673  55.439  18.312  1.00  0.00     0.000 C 
BRANCH   9  10
ATOM     10  C   UNL     1      -0.147  56.538  17.374  1.00  0.00    -0.000 C 
BRANCH  10  11
ATOM     11  C   UNL     1       1.389  56.602  17.342  1.00  0.00    -0.000 C 
BRANCH  11  12
ATOM     12  C   UNL     1       1.940  57.838  18.070  1.00  0.00    -0.000 C 
BRANCH  12  13
ATOM     13  C   UNL     1       3.326  57.553  18.661  1.00  0.00    -0.003 C 
ATOM     14  C   UNL     1       4.092  56.544  17.811  1.00  0.00     0.004 C 
ENDBRANCH  12  13
ENDBRANCH  11  12
ENDBRANCH  10  11
ENDBRANCH   9  10
ENDBRANCH   1   9
TORSDOF 10
ENDMDL
MODEL 2
REMARK VINA RESULT:    -4.379      1.504      3.858
REMARK INTER + INTRA:          -8.533
REMARK INTER:                  -7.059
REMARK INTRA:                  -1.473
REMARK UNBOUND:                -1.593
REMARK SMILES CCCCCCCCCCCC(=O)[O-]
REMARK SMILES IDX 7 1 8 2 9 3 10 4 11 5 12 6 13 7 14 8 6 9 5 10 4 11 3 12 2 13
REMARK SMILES IDX 1 14
REMARK H PARENT
REMARK Flexibility Score: inf
ROOT
ATOM      1  C   UNL     1      -0.409  55.153  18.351  1.00  0.00     0.000 C 
ENDROOT
BRANCH   1   2
ATOM      2  C   UNL     1      -0.417  56.477  17.562  1.00  0.00     0.000 C 
BRANCH   2   3
ATOM      3  C   UNL     1       0.975  57.056  17.257  1.00  0.00     0.000 C 
BRANCH   3   4
ATOM      4  C   UNL     1       2.013  55.971  16.934  1.00  0.00     0.006 C 
BRANCH   4   5
ATOM      5  C   UNL     1       3.382  56.333  17.518  1.00  0.00     0.053 C 
BRANCH   5   6
ATOM      6  C   UNL     1       4.468  56.019  16.540  1.00  0.00     0.041 C 
ATOM      7  O   UNL     1       5.569  56.627  16.600  1.00  0.00    -0.550 OA
ATOM      8  O   UNL     1       4.284  55.021  15.592  1.00  0.00    -0.550 OA
ENDBRANCH   5   6
ENDBRANCH   4   5
ENDBRANCH   3   4
ENDBRANCH   2   3
ENDBRANCH   1   2
BRANCH   1   9
ATOM      9  C   UNL     1      -0.619  55.334  19.870  1.00  0.00     0.000 C 
BRANCH   9  10
ATOM     10  C   UNL     1       0.334  54.454  20.697  1.00  0.00    -0.000 C 
BRANCH  10  11
ATOM     11  C   UNL     1       1.788  54.949  20.648  1.00  0.00    -0.000 C 
BRANCH  11  12
ATOM     12  C   UNL     1       2.775  53.836  20.263  1.00  0.00    -0.000 C 
BRANCH  12  13
ATOM     13  C   UNL     1       2.062  52.710  19.505  1.00  0.00    -0.003 C 
ATOM     14  C   UNL     1       2.649  52.525  18.110  1.00  0.00     0.004 C 
ENDBRANCH  12  13
ENDBRANCH  11  12
ENDBRANCH  10  11
ENDBRANCH   9  10
ENDBRANCH   1   9
TORSDOF 10
ENDMDL
MODEL 3
REMARK VINA RESULT:    -4.324      1.642      3.709
REMARK INTER + INTRA:          -8.445
REMARK INTER:                  -7.095
REMARK INTRA:                  -1.351
REMARK UNBOUND:                -1.593
REMARK SMILES CCCCCCCCCCCC(=O)[O-]
REMARK SMILES IDX 7 1 8 2 9 3 10 4 11 5 12 6 13 7 14 8 6 9 5 10 4 11 3 12 2 13
REMARK SMILES IDX 1 14
REMARK H PARENT
REMARK Flexibility Score: inf
ROOT
ATOM      1  C   UNL     1      -0.774  56.251  17.675  1.00  0.00     0.000 C 
ENDROOT
BRANCH   1   2
ATOM      2  C   UNL     1       0.371  57.060  17.034  1.00  0.00     0.000 C 
BRANCH   2   3
ATOM      3  C   UNL     1       1.779  56.493  17.281  1.00  0.00     0.000 C 
BRANCH   3   4
ATOM      4  C   UNL     1       2.023  55.164  16.549  1.00  0.00     0.006 C 
BRANCH   4   5
ATOM      5  C   UNL     1       3.359  55.191  15.800  1.00  0.00     0.053 C 
BRANCH   5   6
ATOM      6  C   UNL     1       4.476  55.531  16.733  1.00  0.00     0.041 C 
ATOM      7  O   UNL     1       4.783  54.745  17.667  1.00  0.00    -0.550 OA
ATOM      8  O   UNL     1       5.212  56.694  16.542  1.00  0.00    -0.550 OA
ENDBRANCH   5   6
ENDBRANCH   4   5
ENDBRANCH   3   4
ENDBRANCH   2   3
ENDBRANCH   1   2
BRANCH   1   9
ATOM      9  C   UNL     1      -0.811  56.340  19.216  1.00  0.00     0.000 C 
BRANCH   9  10
ATOM     10  C   UNL     1      -1.239  55.013  19.865  1.00  0.00    -0.000 C 
BRANCH  10  11
ATOM     11  C   UNL     1      -0.041  54.162  20.316  1.00  0.00    -0.000 C 
BRANCH  11  12
ATOM     12  C   UNL     1       1.182  55.018  20.681  1.00  0.00    -0.000 C 
BRANCH  12  13
ATOM     13  C   UNL     1       2.485  54.279  20.353  1.00  0.00    -0.003 C 
ATOM     14  C   UNL     1       2.215  53.013  19.548  1.00  0.00     0.004 C 
ENDBRANCH  12  13
ENDBRANCH  11  12
ENDBRANCH  10  11
ENDBRANCH   9  10
ENDBRANCH   1   9
TORSDOF 10
ENDMDL
MODEL 4
REMARK VINA RESULT:    -4.320      1.656      3.130
REMARK INTER + INTRA:          -8.439
REMARK INTER:                  -6.767
REMARK INTRA:                  -1.672
REMARK UNBOUND:                -1.593
REMARK SMILES CCCCCCCCCCCC(=O)[O-]
REMARK SMILES IDX 7 1 8 2 9 3 10 4 11 5 12 6 13 7 14 8 6 9 5 10 4 11 3 12 2 13
REMARK SMILES IDX 1 14
REMARK H PARENT
REMARK Flexibility Score: inf
ROOT
ATOM      1  C   UNL     1       2.589  53.597  19.753  1.00  0.00     0.000 C 
ENDROOT
BRANCH   1   2
ATOM      2  C   UNL     1       2.008  54.768  20.570  1.00  0.00     0.000 C 
BRANCH   2   3
ATOM      3  C   UNL     1       0.472  54.833  20.604  1.00  0.00     0.000 C 
BRANCH   3   4
ATOM      4  C   UNL     1      -0.190  53.649  19.883  1.00  0.00     0.006 C 
BRANCH   4   5
ATOM      5  C   UNL     1      -1.036  54.133  18.701  1.00  0.00     0.053 C 
BRANCH   5   6
ATOM      6  C   UNL     1      -1.077  53.095  17.626  1.00  0.00     0.041 C 
ATOM      7  O   UNL     1      -0.007  52.654  17.130  1.00  0.00    -0.550 OA
ATOM      8  O   UNL     1      -2.295  52.578  17.205  1.00  0.00    -0.550 OA
ENDBRANCH   5   6
ENDBRANCH   4   5
ENDBRANCH   3   4
ENDBRANCH   2   3
ENDBRANCH   1   2
BRANCH   1   9
ATOM      9  C   UNL     1       3.660  54.026  18.726  1.00  0.00     0.000 C 
BRANCH   9  10
ATOM     10  C   UNL     1       3.101  54.084  17.294  1.00  0.00    -0.000 C 
BRANCH  10  11
ATOM     11  C   UNL     1       2.899  55.524  16.797  1.00  0.00    -0.000 C 
BRANCH  11  12
ATOM     12  C   UNL     1       1.417  55.927  16.749  1.00  0.00    -0.000 C 
BRANCH  12  13
ATOM     13  C   UNL     1       1.149  57.139  17.649  1.00  0.00    -0.003 C 
ATOM     14  C   UNL     1       2.439  57.658  18.275  1.00  0.00     0.004 C 
ENDBRANCH  12  13
ENDBRANCH  11  12
ENDBRANCH  10  11
ENDBRANCH   9  10
ENDBRANCH   1   9
TORSDOF 10
ENDMDL
MODEL 5
REMARK VINA RESULT:    -4.299      2.513      3.818
REMARK INTER + INTRA:          -8.406
REMARK INTER:                  -6.774
REMARK INTRA:                  -1.632
REMARK UNBOUND:                -1.593
REMARK SMILES CCCCCCCCCCCC(=O)[O-]
REMARK SMILES IDX 7 1 8 2 9 3 10 4 11 5 12 6 13 7 14 8 6 9 5 10 4 11 3 12 2 13
REMARK SMILES IDX 1 14
REMARK H PARENT
REMARK Flexibility Score: inf
ROOT
ATOM      1  C   UNL     1       1.545  54.113  19.829  1.00  0.00     0.000 C 
ENDROOT
BRANCH   1   2
ATOM      2  C   UNL     1       0.374  54.767  20.590  1.00  0.00     0.000 C 
BRANCH   2   3
ATOM      3  C   UNL     1      -0.872  53.879  20.745  1.00  0.00     0.000 C 
BRANCH   3   4
ATOM      4  C   UNL     1      -2.137  54.520  20.156  1.00  0.00     0.006 C 
BRANCH   4   5
ATOM      5  C   UNL     1      -1.797  55.813  19.408  1.00  0.00     0.053 C 
BRANCH   5   6
ATOM      6  C   UNL     1      -2.447  55.825  18.061  1.00  0.00     0.041 C 
ATOM      7  O   UNL     1      -2.965  54.774  17.598  1.00  0.00    -0.550 OA
ATOM      8  O   UNL     1      -2.524  57.007  17.336  1.00  0.00    -0.550 OA
ENDBRANCH   5   6
ENDBRANCH   4   5
ENDBRANCH   3   4
ENDBRANCH   2   3
ENDBRANCH   1   2
BRANCH   1   9
ATOM      9  C   UNL     1       1.096  53.145  18.713  1.00  0.00     0.000 C 
BRANCH   9  10
ATOM     10  C   UNL     1       0.716  53.885  17.419  1.00  0.00    -0.000 C 
BRANCH  10  11
ATOM     11  C   UNL     1       1.695  55.021  17.080  1.00  0.00    -0.000 C 
BRANCH  11  12
ATOM     12  C   UNL     1       0.978  56.356  16.822  1.00  0.00    -0.000 C 
BRANCH  12  13
ATOM     13  C   UNL     1       1.314  57.379  17.913  1.00  0.00    -0.003 C 
ATOM     14  C   UNL     1       2.784  57.299  18.312  1.00  0.00     0.004 C 
ENDBRANCH  12  13
ENDBRANCH  11  12
ENDBRANCH  10  11
ENDBRANCH   9  10
ENDBRANCH   1   9
TORSDOF 10
ENDMDL
MODEL 6
REMARK VINA RESULT:    -4.260      1.850      3.296
REMARK INTER + INTRA:          -8.343
REMARK INTER:                  -6.695
REMARK INTRA:                  -1.649
REMARK UNBOUND:                -1.593
REMARK SMILES CCCCCCCCCCCC(=O)[O-]
REMARK SMILES IDX 7 1 8 2 9 3 10 4 11 5 12 6 13 7 14 8 6 9 5 10 4 11 3 12 2 13
REMARK SMILES IDX 1 14
REMARK H PARENT
REMARK Flexibility Score: inf
ROOT
ATOM      1  C   UNL     1       2.088  52.746  19.238  1.00  0.00     0.000 C 
ENDROOT
BRANCH   1   2
ATOM      2  C   UNL     1       2.779  53.679  20.253  1.00  0.00     0.000 C 
BRANCH   2   3
ATOM      3  C   UNL     1       1.932  54.879  20.709  1.00  0.00     0.000 C 
BRANCH   3   4
ATOM      4  C   UNL     1       0.422  54.611  20.615  1.00  0.00     0.006 C 
BRANCH   4   5
ATOM      5  C   UNL     1      -0.274  55.697  19.788  1.00  0.00     0.053 C 
BRANCH   5   6
ATOM      6  C   UNL     1      -1.168  55.079  18.761  1.00  0.00     0.041 C 
ATOM      7  O   UNL     1      -1.291  53.828  18.697  1.00  0.00    -0.550 OA
ATOM      8  O   UNL     1      -1.904  55.888  17.903  1.00  0.00    -0.550 OA
ENDBRANCH   5   6
ENDBRANCH   4   5
ENDBRANCH   3   4
ENDBRANCH   2   3
ENDBRANCH   1   2
BRANCH   1   9
ATOM      9  C   UNL     1       2.656  52.855  17.807  1.00  0.00     0.000 C 
BRANCH   9  10
ATOM     10  C   UNL     1       1.676  53.547  16.843  1.00  0.00    -0.000 C 
BRANCH  10  11
ATOM     11  C   UNL     1       2.278  54.800  16.188  1.00  0.00    -0.000 C 
BRANCH  11  12
ATOM     12  C   UNL     1       2.133  56.050  17.069  1.00  0.00    -0.000 C 
BRANCH  12  13
ATOM     13  C   UNL     1       3.483  56.452  17.676  1.00  0.00    -0.003 C 
ATOM     14  C   UNL     1       3.317  57.572  18.698  1.00  0.00     0.004 C 
ENDBRANCH  12  13
ENDBRANCH  11  12
ENDBRANCH  10  11
ENDBRANCH   9  10
ENDBRANCH   1   9
TORSDOF 10
ENDMDL
MODEL 7
REMARK VINA RESULT:    -4.235      1.675      2.980
REMARK INTER + INTRA:          -8.303
REMARK INTER:                  -6.813
REMARK INTRA:                  -1.491
REMARK UNBOUND:                -1.593
REMARK SMILES CCCCCCCCCCCC(=O)[O-]
REMARK SMILES IDX 7 1 8 2 9 3 10 4 11 5 12 6 13 7 14 8 6 9 5 10 4 11 3 12 2 13
REMARK SMILES IDX 1 14
REMARK H PARENT
REMARK Flexibility Score: inf
ROOT
ATOM      1  C   UNL     1       1.152  54.807  20.710  1.00  0.00     0.000 C 
ENDROOT
BRANCH   1   2
ATOM      2  C   UNL     1       2.594  54.401  20.348  1.00  0.00     0.000 C 
BRANCH   2   3
ATOM      3  C   UNL     1       2.707  53.320  19.260  1.00  0.00     0.000 C 
BRANCH   3   4
ATOM      4  C   UNL     1       2.950  53.906  17.861  1.00  0.00     0.006 C 
BRANCH   4   5
ATOM      5  C   UNL     1       4.345  54.533  17.766  1.00  0.00     0.053 C 
BRANCH   5   6
ATOM      6  C   UNL     1       4.452  55.390  16.546  1.00  0.00     0.041 C 
ATOM      7  O   UNL     1       3.954  55.005  15.456  1.00  0.00    -0.550 OA
ATOM      8  O   UNL     1       5.060  56.636  16.623  1.00  0.00    -0.550 OA
ENDBRANCH   5   6
ENDBRANCH   4   5
ENDBRANCH   3   4
ENDBRANCH   2   3
ENDBRANCH   1   2
BRANCH   1   9
ATOM      9  C   UNL     1       0.076  53.879  20.106  1.00  0.00     0.000 C 
BRANCH   9  10
ATOM     10  C   UNL     1      -0.964  54.656  19.279  1.00  0.00    -0.000 C 
BRANCH  10  11
ATOM     11  C   UNL     1      -0.533  56.105  19.001  1.00  0.00    -0.000 C 
BRANCH  11  12
ATOM     12  C   UNL     1      -0.590  56.457  17.507  1.00  0.00    -0.000 C 
BRANCH  12  13
ATOM     13  C   UNL     1       0.807  56.787  16.967  1.00  0.00    -0.003 C 
ATOM     14  C   UNL     1       1.692  57.383  18.056  1.00  0.00     0.004 C 
ENDBRANCH  12  13
ENDBRANCH  11  12
ENDBRANCH  10  11
ENDBRANCH   9  10
ENDBRANCH   1   9
TORSDOF 10
ENDMDL
MODEL 8
REMARK VINA RESULT:    -4.226      1.769      4.228
REMARK INTER + INTRA:          -8.290
REMARK INTER:                  -6.538
REMARK INTRA:                  -1.752
REMARK UNBOUND:                -1.593
REMARK SMILES CCCCCCCCCCCC(=O)[O-]
REMARK SMILES IDX 7 1 8 2 9 3 10 4 11 5 12 6 13 7 14 8 6 9 5 10 4 11 3 12 2 13
REMARK SMILES IDX 1 14
REMARK H PARENT
REMARK Flexibility Score: inf
ROOT
ATOM      1  C   UNL     1       1.405  55.683  20.131  1.00  0.00     0.000 C 
ENDROOT
BRANCH   1   2
ATOM      2  C   UNL     1       0.143  56.002  19.305  1.00  0.00     0.000 C 
BRANCH   2   3
ATOM      3  C   UNL     1       0.413  56.457  17.861  1.00  0.00     0.000 C 
BRANCH   3   4
ATOM      4  C   UNL     1       1.912  56.565  17.542  1.00  0.00     0.006 C 
BRANCH   4   5
ATOM      5  C   UNL     1       2.308  55.576  16.441  1.00  0.00     0.053 C 
BRANCH   5   6
ATOM      6  C   UNL     1       3.792  55.396  16.407  1.00  0.00     0.041 C 
ATOM      7  O   UNL     1       4.358  54.995  15.357  1.00  0.00    -0.550 OA
ATOM      8  O   UNL     1       4.557  55.718  17.522  1.00  0.00    -0.550 OA
ENDBRANCH   5   6
ENDBRANCH   4   5
ENDBRANCH   3   4
ENDBRANCH   2   3
ENDBRANCH   1   2
BRANCH   1   9
ATOM      9  C   UNL     1       1.563  54.185  20.471  1.00  0.00     0.000 C 
BRANCH   9  10
ATOM     10  C   UNL     1       2.762  53.549  19.748  1.00  0.00    -0.000 C 
BRANCH  10  11
ATOM     11  C   UNL     1       2.334  52.538  18.672  1.00  0.00    -0.000 C 
BRANCH  11  12
ATOM     12  C   UNL     1       0.822  52.269  18.687  1.00  0.00    -0.000 C 
BRANCH  12  13
ATOM     13  C   UNL     1       0.179  52.675  17.356  1.00  0.00    -0.003 C 
ATOM     14  C   UNL     1      -1.317  52.925  17.518  1.00  0.00     0.004 C 
ENDBRANCH  12  13
ENDBRANCH  11  12
ENDBRANCH  10  11
ENDBRANCH   9  10
ENDBRANCH   1   9
TORSDOF 10
ENDMDL
MODEL 9
REMARK VINA RESULT:    -4.224      2.557      4.258
REMARK INTER + INTRA:          -8.287
REMARK INTER:                  -6.698
REMARK INTRA:                  -1.589
REMARK UNBOUND:                -1.593
REMARK SMILES CCCCCCCCCCCC(=O)[O-]
REMARK SMILES IDX 7 1 8 2 9 3 10 4 11 5 12 6 13 7 14 8 6 9 5 10 4 11 3 12 2 13
REMARK SMILES IDX 1 14
REMARK H PARENT
REMARK Flexibility Score: inf
ROOT
ATOM      1  C   UNL     1       2.975  54.274  18.608  1.00  0.00     0.000 C 
ENDROOT
BRANCH   1   2
ATOM      2  C   UNL     1       2.615  53.064  17.723  1.00  0.00     0.000 C 
BRANCH   2   3
ATOM      3  C   UNL     1       1.242  53.152  17.036  1.00  0.00     0.000 C 
BRANCH   3   4
ATOM      4  C   UNL     1       0.112  52.552  17.887  1.00  0.00     0.006 C 
BRANCH   4   5
ATOM      5  C   UNL     1      -1.248  52.756  17.212  1.00  0.00     0.053 C 
BRANCH   5   6
ATOM      6  C   UNL     1      -2.334  52.118  18.017  1.00  0.00     0.041 C 
ATOM      7  O   UNL     1      -2.965  51.130  17.559  1.00  0.00    -0.550 OA
ATOM      8  O   UNL     1      -2.617  52.584  19.295  1.00  0.00    -0.550 OA
ENDBRANCH   5   6
ENDBRANCH   4   5
ENDBRANCH   3   4
ENDBRANCH   2   3
ENDBRANCH   1   2
BRANCH   1   9
ATOM      9  C   UNL     1       2.692  54.050  20.110  1.00  0.00     0.000 C 
BRANCH   9  10
ATOM     10  C   UNL     1       1.469  54.846  20.595  1.00  0.00    -0.000 C 
BRANCH  10  11
ATOM     11  C   UNL     1       1.061  55.959  19.616  1.00  0.00    -0.000 C 
BRANCH  11  12
ATOM     12  C   UNL     1      -0.443  55.947  19.306  1.00  0.00    -0.000 C 
BRANCH  12  13
ATOM     13  C   UNL     1      -0.707  56.357  17.853  1.00  0.00    -0.003 C 
ATOM     14  C   UNL     1       0.584  56.764  17.151  1.00  0.00     0.004 C 
ENDBRANCH  12  13
ENDBRANCH  11  12
ENDBRANCH  10  11
ENDBRANCH   9  10
ENDBRANCH   1   9
TORSDOF 10
ENDMDL
