MODEL 1
REMARK VINA RESULT:    -4.411      0.000      0.000
REMARK INTER + INTRA:         -12.956
REMARK INTER:                 -10.085
REMARK INTRA:                  -2.871
REMARK UNBOUND:                -2.871
REMARK SMILES CCCCCCCCCCCCCCCCCCCCCCCC(=O)[O-]
REMARK SMILES IDX 13 1 14 2 15 3 16 4 17 5 18 6 19 7 20 8 21 9 22 10 23 11
REMARK SMILES IDX 24 12 25 13 26 14 12 15 11 16 10 17 9 18 8 19 7 20 6 21 5 22
REMARK SMILES IDX 4 23 3 24 2 25 1 26
REMARK H PARENT
REMARK Flexibility Score: inf
ROOT
ATOM      1  C   UNL     1       3.865  -1.650   5.765  1.00  0.00     0.000 C 
ENDROOT
BRANCH   1   2
ATOM      2  C   UNL     1       4.227  -2.236   7.142  1.00  0.00     0.000 C 
BRANCH   2   3
ATOM      3  C   UNL     1       5.253  -1.364   7.896  1.00  0.00     0.000 C 
BRANCH   3   4
ATOM      4  C   UNL     1       4.665  -0.627   9.111  1.00  0.00     0.000 C 
BRANCH   4   5
ATOM      5  C   UNL     1       3.145  -0.800   9.237  1.00  0.00     0.000 C 
BRANCH   5   6
ATOM      6  C   UNL     1       2.427   0.551   9.111  1.00  0.00     0.000 C 
BRANCH   6   7
ATOM      7  C   UNL     1       2.701   1.254   7.768  1.00  0.00     0.000 C 
BRANCH   7   8
ATOM      8  C   UNL     1       1.491   1.984   7.155  1.00  0.00     0.000 C 
BRANCH   8   9
ATOM      9  C   UNL     1       0.860   3.071   8.047  1.00  0.00     0.000 C 
BRANCH   9  10
ATOM     10  C   UNL     1       0.432   4.339   7.277  1.00  0.00     0.006 C 
BRANCH  10  11
ATOM     11  C   UNL     1       1.082   4.432   5.889  1.00  0.00     0.053 C 
BRANCH  11  12
ATOM     12  C   UNL     1       0.206   5.203   4.952  1.00  0.00     0.041 C 
ATOM     13  O   UNL     1       0.448   5.205   3.715  1.00  0.00    -0.550 OA
ATOM     14  O   UNL     1      -0.907   5.879   5.437  1.00  0.00    -0.550 OA
ENDBRANCH  11  12
ENDBRANCH  10  11
ENDBRANCH   9  10
ENDBRANCH   8   9
ENDBRANCH   7   8
ENDBRANCH   6   7
ENDBRANCH   5   6
ENDBRANCH   4   5
ENDBRANCH   3   4
ENDBRANCH   2   3
ENDBRANCH   1   2
BRANCH   1  15
ATOM     15  C   UNL     1       2.570  -2.247   5.191  1.00  0.00     0.000 C 
BRANCH  15  16
ATOM     16  C   UNL     1       1.333  -1.394   5.526  1.00  0.00     0.000 C 
BRANCH  16  17
ATOM     17  C   UNL     1       0.664  -1.816   6.843  1.00  0.00     0.000 C 
BRANCH  17  18
ATOM     18  C   UNL     1      -0.403  -2.904   6.640  1.00  0.00    -0.000 C 
BRANCH  18  19
ATOM     19  C   UNL     1      -1.405  -2.491   5.552  1.00  0.00    -0.000 C 
BRANCH  19  20
ATOM     20  C   UNL     1      -2.060  -3.695   4.853  1.00  0.00    -0.000 C 
BRANCH  20  21
ATOM     21  C   UNL     1      -3.056  -3.273   3.759  1.00  0.00    -0.000 C 
BRANCH  21  22
ATOM     22  C   UNL     1      -3.124  -1.748   3.581  1.00  0.00    -0.000 C 
BRANCH  22  23
ATOM     23  C   UNL     1      -4.512  -1.173   3.924  1.00  0.00    -0.000 C 
BRANCH  23  24
ATOM     24  C   UNL     1      -4.603  -0.708   5.392  1.00  0.00    -0.000 C 
BRANCH  24  25
ATOM     25  C   UNL     1      -5.327  -1.707   6.314  1.00  0.00    -0.003 C 
ATOM     26  C   UNL     1      -4.479  -2.154   7.502  1.00  0.00     0.004 C 
ENDBRANCH  24  25
ENDBRANCH  23  24
ENDBRANCH  22  23
ENDBRANCH  21  22
ENDBRANCH  20  21
ENDBRANCH  19  20
ENDBRANCH  18  19
ENDBRANCH  17  18
ENDBRANCH  16  17
ENDBRANCH  15  16
ENDBRANCH   1  15
TORSDOF 22
ENDMDL
MODEL 2
REMARK VINA RESULT:    -4.337      4.530      8.961
REMARK INTER + INTRA:         -12.786
REMARK INTER:                  -9.881
REMARK INTRA:                  -2.905
REMARK UNBOUND:                -2.871
REMARK SMILES CCCCCCCCCCCCCCCCCCCCCCCC(=O)[O-]
REMARK SMILES IDX 13 1 14 2 15 3 16 4 17 5 18 6 19 7 20 8 21 9 22 10 23 11
REMARK SMILES IDX 24 12 25 13 26 14 12 15 11 16 10 17 9 18 8 19 7 20 6 21 5 22
REMARK SMILES IDX 4 23 3 24 2 25 1 26
REMARK H PARENT
REMARK Flexibility Score: inf
ROOT
ATOM      1  C   UNL     1      -4.147  -1.347   4.002  1.00  0.00     0.000 C 
ENDROOT
BRANCH   1   2
ATOM      2  C   UNL     1      -2.629  -1.601   3.991  1.00  0.00     0.000 C 
BRANCH   2   3
ATOM      3  C   UNL     1      -2.276  -3.004   3.451  1.00  0.00     0.000 C 
BRANCH   3   4
ATOM      4  C   UNL     1      -3.465  -3.733   2.801  1.00  0.00     0.000 C 
BRANCH   4   5
ATOM      5  C   UNL     1      -3.319  -5.260   2.833  1.00  0.00     0.000 C 
BRANCH   5   6
ATOM      6  C   UNL     1      -2.800  -5.790   1.489  1.00  0.00     0.000 C 
BRANCH   6   7
ATOM      7  C   UNL     1      -2.611  -4.680   0.438  1.00  0.00     0.000 C 
BRANCH   7   8
ATOM      8  C   UNL     1      -2.545  -5.167  -1.022  1.00  0.00     0.000 C 
BRANCH   8   9
ATOM      9  C   UNL     1      -1.149  -5.104  -1.672  1.00  0.00     0.000 C 
BRANCH   9  10
ATOM     10  C   UNL     1      -0.763  -3.701  -2.187  1.00  0.00     0.006 C 
BRANCH  10  11
ATOM     11  C   UNL     1      -0.679  -3.640  -3.719  1.00  0.00     0.053 C 
BRANCH  11  12
ATOM     12  C   UNL     1      -1.390  -2.427  -4.234  1.00  0.00     0.041 C 
ATOM     13  O   UNL     1      -0.873  -1.285  -4.103  1.00  0.00    -0.550 OA
ATOM     14  O   UNL     1      -2.601  -2.563  -4.902  1.00  0.00    -0.550 OA
ENDBRANCH  11  12
ENDBRANCH  10  11
ENDBRANCH   9  10
ENDBRANCH   8   9
ENDBRANCH   7   8
ENDBRANCH   6   7
ENDBRANCH   5   6
ENDBRANCH   4   5
ENDBRANCH   3   4
ENDBRANCH   2   3
ENDBRANCH   1   2
BRANCH   1  15
ATOM     15  C   UNL     1      -4.656  -0.879   5.376  1.00  0.00     0.000 C 
BRANCH  15  16
ATOM     16  C   UNL     1      -5.800  -1.762   5.908  1.00  0.00     0.000 C 
BRANCH  16  17
ATOM     17  C   UNL     1      -5.400  -3.241   6.020  1.00  0.00     0.000 C 
BRANCH  17  18
ATOM     18  C   UNL     1      -4.311  -3.480   7.078  1.00  0.00    -0.000 C 
BRANCH  18  19
ATOM     19  C   UNL     1      -3.299  -4.529   6.595  1.00  0.00    -0.000 C 
BRANCH  19  20
ATOM     20  C   UNL     1      -1.844  -4.156   6.930  1.00  0.00    -0.000 C 
BRANCH  20  21
ATOM     21  C   UNL     1      -1.724  -2.762   7.569  1.00  0.00    -0.000 C 
BRANCH  21  22
ATOM     22  C   UNL     1      -0.309  -2.176   7.445  1.00  0.00    -0.000 C 
BRANCH  22  23
ATOM     23  C   UNL     1       0.311  -2.413   6.055  1.00  0.00    -0.000 C 
BRANCH  23  24
ATOM     24  C   UNL     1       0.962  -1.136   5.482  1.00  0.00    -0.000 C 
BRANCH  24  25
ATOM     25  C   UNL     1       1.963  -0.469   6.443  1.00  0.00    -0.003 C 
ATOM     26  C   UNL     1       1.604   0.977   6.778  1.00  0.00     0.004 C 
ENDBRANCH  24  25
ENDBRANCH  23  24
ENDBRANCH  22  23
ENDBRANCH  21  22
ENDBRANCH  20  21
ENDBRANCH  19  20
ENDBRANCH  18  19
ENDBRANCH  17  18
ENDBRANCH  16  17
ENDBRANCH  15  16
ENDBRANCH   1  15
TORSDOF 22
ENDMDL
MODEL 3
REMARK VINA RESULT:    -4.296      1.487      3.265
REMARK INTER + INTRA:         -12.692
REMARK INTER:                  -9.678
REMARK INTRA:                  -3.014
REMARK UNBOUND:                -2.871
REMARK SMILES CCCCCCCCCCCCCCCCCCCCCCCC(=O)[O-]
REMARK SMILES IDX 13 1 14 2 15 3 16 4 17 5 18 6 19 7 20 8 21 9 22 10 23 11
REMARK SMILES IDX 24 12 25 13 26 14 12 15 11 16 10 17 9 18 8 19 7 20 6 21 5 22
REMARK SMILES IDX 4 23 3 24 2 25 1 26
REMARK H PARENT
REMARK Flexibility Score: inf
ROOT
ATOM      1  C   UNL     1       3.041  -2.526   5.110  1.00  0.00     0.000 C 
ENDROOT
BRANCH   1   2
ATOM      2  C   UNL     1       1.606  -1.968   5.121  1.00  0.00     0.000 C 
BRANCH   2   3
ATOM      3  C   UNL     1       1.526  -0.580   5.791  1.00  0.00     0.000 C 
BRANCH   3   4
ATOM      4  C   UNL     1       1.036  -0.624   7.249  1.00  0.00     0.000 C 
BRANCH   4   5
ATOM      5  C   UNL     1       1.684   0.453   8.130  1.00  0.00     0.000 C 
BRANCH   5   6
ATOM      6  C   UNL     1       1.607   1.831   7.457  1.00  0.00     0.000 C 
BRANCH   6   7
ATOM      7  C   UNL     1       0.750   2.839   8.246  1.00  0.00     0.000 C 
BRANCH   7   8
ATOM      8  C   UNL     1       0.531   4.195   7.550  1.00  0.00     0.000 C 
BRANCH   8   9
ATOM      9  C   UNL     1       1.411   4.444   6.309  1.00  0.00     0.000 C 
BRANCH   9  10
ATOM     10  C   UNL     1       0.607   4.734   5.023  1.00  0.00     0.006 C 
BRANCH  10  11
ATOM     11  C   UNL     1      -0.654   5.568   5.293  1.00  0.00     0.053 C 
BRANCH  11  12
ATOM     12  C   UNL     1      -0.348   7.029   5.180  1.00  0.00     0.041 C 
ATOM     13  O   UNL     1      -0.732   7.681   4.172  1.00  0.00    -0.550 OA
ATOM     14  O   UNL     1       0.318   7.682   6.210  1.00  0.00    -0.550 OA
ENDBRANCH  11  12
ENDBRANCH  10  11
ENDBRANCH   9  10
ENDBRANCH   8   9
ENDBRANCH   7   8
ENDBRANCH   6   7
ENDBRANCH   5   6
ENDBRANCH   4   5
ENDBRANCH   3   4
ENDBRANCH   2   3
ENDBRANCH   1   2
BRANCH   1  15
ATOM     15  C   UNL     1       4.029  -1.628   5.872  1.00  0.00     0.000 C 
BRANCH  15  16
ATOM     16  C   UNL     1       4.398  -2.202   7.252  1.00  0.00     0.000 C 
BRANCH  16  17
ATOM     17  C   UNL     1       3.642  -3.501   7.572  1.00  0.00     0.000 C 
BRANCH  17  18
ATOM     18  C   UNL     1       2.926  -3.447   8.931  1.00  0.00    -0.000 C 
BRANCH  18  19
ATOM     19  C   UNL     1       1.444  -3.822   8.784  1.00  0.00    -0.000 C 
BRANCH  19  20
ATOM     20  C   UNL     1       1.151  -4.614   7.499  1.00  0.00    -0.000 C 
BRANCH  20  21
ATOM     21  C   UNL     1      -0.351  -4.878   7.297  1.00  0.00    -0.000 C 
BRANCH  21  22
ATOM     22  C   UNL     1      -1.137  -3.596   6.980  1.00  0.00    -0.000 C 
BRANCH  22  23
ATOM     23  C   UNL     1      -1.708  -3.588   5.549  1.00  0.00    -0.000 C 
BRANCH  23  24
ATOM     24  C   UNL     1      -2.030  -2.161   5.058  1.00  0.00    -0.000 C 
BRANCH  24  25
ATOM     25  C   UNL     1      -3.037  -2.121   3.893  1.00  0.00    -0.003 C 
ATOM     26  C   UNL     1      -4.122  -1.062   4.071  1.00  0.00     0.004 C 
ENDBRANCH  24  25
ENDBRANCH  23  24
ENDBRANCH  22  23
ENDBRANCH  21  22
ENDBRANCH  20  21
ENDBRANCH  19  20
ENDBRANCH  18  19
ENDBRANCH  17  18
ENDBRANCH  16  17
ENDBRANCH  15  16
ENDBRANCH   1  15
TORSDOF 22
ENDMDL
MODEL 4
REMARK VINA RESULT:    -4.282      1.332      1.984
REMARK INTER + INTRA:         -12.659
REMARK INTER:                  -9.548
REMARK INTRA:                  -3.111
REMARK UNBOUND:                -2.871
REMARK SMILES CCCCCCCCCCCCCCCCCCCCCCCC(=O)[O-]
REMARK SMILES IDX 13 1 14 2 15 3 16 4 17 5 18 6 19 7 20 8 21 9 22 10 23 11
REMARK SMILES IDX 24 12 25 13 26 14 12 15 11 16 10 17 9 18 8 19 7 20 6 21 5 22
REMARK SMILES IDX 4 23 3 24 2 25 1 26
REMARK H PARENT
REMARK Flexibility Score: inf
ROOT
ATOM      1  C   UNL     1       2.989  -1.611   5.603  1.00  0.00     0.000 C 
ENDROOT
BRANCH   1   2
ATOM      2  C   UNL     1       1.641  -0.873   5.516  1.00  0.00     0.000 C 
BRANCH   2   3
ATOM      3  C   UNL     1       1.524   0.255   6.563  1.00  0.00     0.000 C 
BRANCH   3   4
ATOM      4  C   UNL     1       2.631   0.223   7.632  1.00  0.00     0.000 C 
BRANCH   4   5
ATOM      5  C   UNL     1       2.085   0.012   9.051  1.00  0.00     0.000 C 
BRANCH   5   6
ATOM      6  C   UNL     1       0.906   0.955   9.330  1.00  0.00     0.000 C 
BRANCH   6   7
ATOM      7  C   UNL     1       1.345   2.304   9.932  1.00  0.00     0.000 C 
BRANCH   7   8
ATOM      8  C   UNL     1       0.790   3.549   9.216  1.00  0.00     0.000 C 
BRANCH   8   9
ATOM      9  C   UNL     1       0.539   3.379   7.704  1.00  0.00     0.000 C 
BRANCH   9  10
ATOM     10  C   UNL     1       1.164   4.496   6.839  1.00  0.00     0.006 C 
BRANCH  10  11
ATOM     11  C   UNL     1       1.392   4.055   5.387  1.00  0.00     0.053 C 
BRANCH  11  12
ATOM     12  C   UNL     1       0.826   5.066   4.438  1.00  0.00     0.041 C 
ATOM     13  O   UNL     1      -0.390   5.391   4.511  1.00  0.00    -0.550 OA
ATOM     14  O   UNL     1       1.650   5.684   3.506  1.00  0.00    -0.550 OA
ENDBRANCH  11  12
ENDBRANCH  10  11
ENDBRANCH   9  10
ENDBRANCH   8   9
ENDBRANCH   7   8
ENDBRANCH   6   7
ENDBRANCH   5   6
ENDBRANCH   4   5
ENDBRANCH   3   4
ENDBRANCH   2   3
ENDBRANCH   1   2
BRANCH   1  15
ATOM     15  C   UNL     1       2.821  -3.118   5.860  1.00  0.00     0.000 C 
BRANCH  15  16
ATOM     16  C   UNL     1       2.201  -3.411   7.239  1.00  0.00     0.000 C 
BRANCH  16  17
ATOM     17  C   UNL     1       0.782  -3.993   7.136  1.00  0.00     0.000 C 
BRANCH  17  18
ATOM     18  C   UNL     1      -0.251  -3.171   7.923  1.00  0.00    -0.000 C 
BRANCH  18  19
ATOM     19  C   UNL     1      -1.252  -2.496   6.973  1.00  0.00    -0.000 C 
BRANCH  19  20
ATOM     20  C   UNL     1      -1.127  -2.992   5.522  1.00  0.00    -0.000 C 
BRANCH  20  21
ATOM     21  C   UNL     1      -1.832  -2.063   4.518  1.00  0.00    -0.000 C 
BRANCH  21  22
ATOM     22  C   UNL     1      -2.963  -2.769   3.755  1.00  0.00    -0.000 C 
BRANCH  22  23
ATOM     23  C   UNL     1      -4.293  -1.994   3.815  1.00  0.00    -0.000 C 
BRANCH  23  24
ATOM     24  C   UNL     1      -4.285  -0.906   4.909  1.00  0.00    -0.000 C 
BRANCH  24  25
ATOM     25  C   UNL     1      -4.943  -1.352   6.228  1.00  0.00    -0.003 C 
ATOM     26  C   UNL     1      -6.458  -1.161   6.240  1.00  0.00     0.004 C 
ENDBRANCH  24  25
ENDBRANCH  23  24
ENDBRANCH  22  23
ENDBRANCH  21  22
ENDBRANCH  20  21
ENDBRANCH  19  20
ENDBRANCH  18  19
ENDBRANCH  17  18
ENDBRANCH  16  17
ENDBRANCH  15  16
ENDBRANCH   1  15
TORSDOF 22
ENDMDL
MODEL 5
REMARK VINA RESULT:    -4.204      2.037      5.306
REMARK INTER + INTRA:         -12.483
REMARK INTER:                 -10.120
REMARK INTRA:                  -2.363
REMARK UNBOUND:                -2.871
REMARK SMILES CCCCCCCCCCCCCCCCCCCCCCCC(=O)[O-]
REMARK SMILES IDX 13 1 14 2 15 3 16 4 17 5 18 6 19 7 20 8 21 9 22 10 23 11
REMARK SMILES IDX 24 12 25 13 26 14 12 15 11 16 10 17 9 18 8 19 7 20 6 21 5 22
REMARK SMILES IDX 4 23 3 24 2 25 1 26
REMARK H PARENT
REMARK Flexibility Score: inf
ROOT
ATOM      1  C   UNL     1       1.069   2.984   7.363  1.00  0.00     0.000 C 
ENDROOT
BRANCH   1   2
ATOM      2  C   UNL     1       0.625   2.829   8.829  1.00  0.00     0.000 C 
BRANCH   2   3
ATOM      3  C   UNL     1      -0.207   4.034   9.317  1.00  0.00     0.000 C 
BRANCH   3   4
ATOM      4  C   UNL     1      -0.091   5.272   8.412  1.00  0.00     0.000 C 
BRANCH   4   5
ATOM      5  C   UNL     1      -1.420   6.023   8.253  1.00  0.00     0.000 C 
BRANCH   5   6
ATOM      6  C   UNL     1      -1.550   6.614   6.841  1.00  0.00     0.000 C 
BRANCH   6   7
ATOM      7  C   UNL     1      -0.852   5.760   5.766  1.00  0.00     0.000 C 
BRANCH   7   8
ATOM      8  C   UNL     1       0.233   6.493   4.954  1.00  0.00     0.000 C 
BRANCH   8   9
ATOM      9  C   UNL     1       1.644   5.878   5.040  1.00  0.00     0.000 C 
BRANCH   9  10
ATOM     10  C   UNL     1       1.967   4.895   3.894  1.00  0.00     0.006 C 
BRANCH  10  11
ATOM     11  C   UNL     1       3.263   5.258   3.156  1.00  0.00     0.053 C 
BRANCH  11  12
ATOM     12  C   UNL     1       3.184   4.836   1.721  1.00  0.00     0.041 C 
ATOM     13  O   UNL     1       3.998   3.990   1.264  1.00  0.00    -0.550 OA
ATOM     14  O   UNL     1       2.181   5.340   0.902  1.00  0.00    -0.550 OA
ENDBRANCH  11  12
ENDBRANCH  10  11
ENDBRANCH   9  10
ENDBRANCH   8   9
ENDBRANCH   7   8
ENDBRANCH   6   7
ENDBRANCH   5   6
ENDBRANCH   4   5
ENDBRANCH   3   4
ENDBRANCH   2   3
ENDBRANCH   1   2
BRANCH   1  15
ATOM     15  C   UNL     1       1.708   1.703   6.802  1.00  0.00     0.000 C 
BRANCH  15  16
ATOM     16  C   UNL     1       1.833   0.596   7.866  1.00  0.00     0.000 C 
BRANCH  16  17
ATOM     17  C   UNL     1       3.287   0.152   8.087  1.00  0.00     0.000 C 
BRANCH  17  18
ATOM     18  C   UNL     1       3.467  -1.368   7.945  1.00  0.00    -0.000 C 
BRANCH  18  19
ATOM     19  C   UNL     1       4.285  -1.706   6.690  1.00  0.00    -0.000 C 
BRANCH  19  20
ATOM     20  C   UNL     1       3.440  -1.693   5.404  1.00  0.00    -0.000 C 
BRANCH  20  21
ATOM     21  C   UNL     1       2.112  -2.453   5.563  1.00  0.00    -0.000 C 
BRANCH  21  22
ATOM     22  C   UNL     1       0.896  -1.606   5.153  1.00  0.00    -0.000 C 
BRANCH  22  23
ATOM     23  C   UNL     1      -0.420  -2.125   5.762  1.00  0.00    -0.000 C 
BRANCH  23  24
ATOM     24  C   UNL     1      -1.392  -2.654   4.686  1.00  0.00    -0.000 C 
BRANCH  24  25
ATOM     25  C   UNL     1      -2.352  -1.582   4.138  1.00  0.00    -0.003 C 
ATOM     26  C   UNL     1      -3.737  -1.631   4.777  1.00  0.00     0.004 C 
ENDBRANCH  24  25
ENDBRANCH  23  24
ENDBRANCH  22  23
ENDBRANCH  21  22
ENDBRANCH  20  21
ENDBRANCH  19  20
ENDBRANCH  18  19
ENDBRANCH  17  18
ENDBRANCH  16  17
ENDBRANCH  15  16
ENDBRANCH   1  15
TORSDOF 22
ENDMDL
MODEL 6
REMARK VINA RESULT:    -4.197      1.890      3.803
REMARK INTER + INTRA:         -12.465
REMARK INTER:                 -10.293
REMARK INTRA:                  -2.172
REMARK UNBOUND:                -2.871
REMARK SMILES CCCCCCCCCCCCCCCCCCCCCCCC(=O)[O-]
REMARK SMILES IDX 13 1 14 2 15 3 16 4 17 5 18 6 19 7 20 8 21 9 22 10 23 11
REMARK SMILES IDX 24 12 25 13 26 14 12 15 11 16 10 17 9 18 8 19 7 20 6 21 5 22
REMARK SMILES IDX 4 23 3 24 2 25 1 26
REMARK H PARENT
REMARK Flexibility Score: inf
ROOT
ATOM      1  C   UNL     1      -0.332  -2.265   6.584  1.00  0.00     0.000 C 
ENDROOT
BRANCH   1   2
ATOM      2  C   UNL     1       0.594  -1.595   5.552  1.00  0.00     0.000 C 
BRANCH   2   3
ATOM      3  C   UNL     1       1.709  -0.764   6.222  1.00  0.00     0.000 C 
BRANCH   3   4
ATOM      4  C   UNL     1       1.510  -0.569   7.736  1.00  0.00     0.000 C 
BRANCH   4   5
ATOM      5  C   UNL     1       1.339   0.904   8.131  1.00  0.00     0.000 C 
BRANCH   5   6
ATOM      6  C   UNL     1       1.822   1.833   7.009  1.00  0.00     0.000 C 
BRANCH   6   7
ATOM      7  C   UNL     1       1.246   3.257   7.117  1.00  0.00     0.000 C 
BRANCH   7   8
ATOM      8  C   UNL     1       0.277   3.481   8.293  1.00  0.00     0.000 C 
BRANCH   8   9
ATOM      9  C   UNL     1      -0.344   4.890   8.371  1.00  0.00     0.000 C 
BRANCH   9  10
ATOM     10  C   UNL     1       0.137   5.846   7.258  1.00  0.00     0.006 C 
BRANCH  10  11
ATOM     11  C   UNL     1      -1.028   6.530   6.527  1.00  0.00     0.053 C 
BRANCH  11  12
ATOM     12  C   UNL     1      -0.776   6.556   5.052  1.00  0.00     0.041 C 
ATOM     13  O   UNL     1      -0.929   7.625   4.401  1.00  0.00    -0.550 OA
ATOM     14  O   UNL     1      -0.327   5.413   4.402  1.00  0.00    -0.550 OA
ENDBRANCH  11  12
ENDBRANCH  10  11
ENDBRANCH   9  10
ENDBRANCH   8   9
ENDBRANCH   7   8
ENDBRANCH   6   7
ENDBRANCH   5   6
ENDBRANCH   4   5
ENDBRANCH   3   4
ENDBRANCH   2   3
ENDBRANCH   1   2
BRANCH   1  15
ATOM     15  C   UNL     1      -1.688  -2.672   5.983  1.00  0.00     0.000 C 
BRANCH  15  16
ATOM     16  C   UNL     1      -1.712  -2.537   4.449  1.00  0.00     0.000 C 
BRANCH  16  17
ATOM     17  C   UNL     1      -2.765  -1.530   3.962  1.00  0.00     0.000 C 
BRANCH  17  18
ATOM     18  C   UNL     1      -4.039  -1.546   4.822  1.00  0.00    -0.000 C 
BRANCH  18  19
ATOM     19  C   UNL     1      -5.236  -2.075   4.019  1.00  0.00    -0.000 C 
BRANCH  19  20
ATOM     20  C   UNL     1      -5.238  -3.608   3.888  1.00  0.00    -0.000 C 
BRANCH  20  21
ATOM     21  C   UNL     1      -5.905  -4.088   2.587  1.00  0.00    -0.000 C 
BRANCH  21  22
ATOM     22  C   UNL     1      -4.881  -4.505   1.520  1.00  0.00    -0.000 C 
BRANCH  22  23
ATOM     23  C   UNL     1      -3.451  -4.619   2.081  1.00  0.00    -0.000 C 
BRANCH  23  24
ATOM     24  C   UNL     1      -3.112  -6.057   2.525  1.00  0.00    -0.000 C 
BRANCH  24  25
ATOM     25  C   UNL     1      -2.350  -6.129   3.861  1.00  0.00    -0.003 C 
ATOM     26  C   UNL     1      -1.863  -7.535   4.202  1.00  0.00     0.004 C 
ENDBRANCH  24  25
ENDBRANCH  23  24
ENDBRANCH  22  23
ENDBRANCH  21  22
ENDBRANCH  20  21
ENDBRANCH  19  20
ENDBRANCH  18  19
ENDBRANCH  17  18
ENDBRANCH  16  17
ENDBRANCH  15  16
ENDBRANCH   1  15
TORSDOF 22
ENDMDL
MODEL 7
REMARK VINA RESULT:    -4.152      1.204      2.141
REMARK INTER + INTRA:         -12.364
REMARK INTER:                  -9.078
REMARK INTRA:                  -3.286
REMARK UNBOUND:                -2.871
REMARK SMILES CCCCCCCCCCCCCCCCCCCCCCCC(=O)[O-]
REMARK SMILES IDX 13 1 14 2 15 3 16 4 17 5 18 6 19 7 20 8 21 9 22 10 23 11
REMARK SMILES IDX 24 12 25 13 26 14 12 15 11 16 10 17 9 18 8 19 7 20 6 21 5 22
REMARK SMILES IDX 4 23 3 24 2 25 1 26
REMARK H PARENT
REMARK Flexibility Score: inf
ROOT
ATOM      1  C   UNL     1       3.887  -1.878   5.336  1.00  0.00     0.000 C 
ENDROOT
BRANCH   1   2
ATOM      2  C   UNL     1       4.306  -1.774   6.814  1.00  0.00     0.000 C 
BRANCH   2   3
ATOM      3  C   UNL     1       3.439  -2.664   7.730  1.00  0.00     0.000 C 
BRANCH   3   4
ATOM      4  C   UNL     1       2.915  -1.938   8.981  1.00  0.00     0.000 C 
BRANCH   4   5
ATOM      5  C   UNL     1       2.866  -0.413   8.812  1.00  0.00     0.000 C 
BRANCH   5   6
ATOM      6  C   UNL     1       1.465   0.128   9.126  1.00  0.00     0.000 C 
BRANCH   6   7
ATOM      7  C   UNL     1       1.179   1.483   8.451  1.00  0.00     0.000 C 
BRANCH   7   8
ATOM      8  C   UNL     1       1.995   1.761   7.174  1.00  0.00     0.000 C 
BRANCH   8   9
ATOM      9  C   UNL     1       1.436   2.878   6.270  1.00  0.00     0.000 C 
BRANCH   9  10
ATOM     10  C   UNL     1       1.280   4.239   6.983  1.00  0.00     0.006 C 
BRANCH  10  11
ATOM     11  C   UNL     1      -0.020   4.958   6.599  1.00  0.00     0.053 C 
BRANCH  11  12
ATOM     12  C   UNL     1       0.182   5.780   5.364  1.00  0.00     0.041 C 
ATOM     13  O   UNL     1      -0.020   5.276   4.227  1.00  0.00    -0.550 OA
ATOM     14  O   UNL     1       0.546   7.117   5.471  1.00  0.00    -0.550 OA
ENDBRANCH  11  12
ENDBRANCH  10  11
ENDBRANCH   9  10
ENDBRANCH   8   9
ENDBRANCH   7   8
ENDBRANCH   6   7
ENDBRANCH   5   6
ENDBRANCH   4   5
ENDBRANCH   3   4
ENDBRANCH   2   3
ENDBRANCH   1   2
BRANCH   1  15
ATOM     15  C   UNL     1       2.409  -2.267   5.169  1.00  0.00     0.000 C 
BRANCH  15  16
ATOM     16  C   UNL     1       1.476  -1.042   5.184  1.00  0.00     0.000 C 
BRANCH  16  17
ATOM     17  C   UNL     1       0.022  -1.413   5.515  1.00  0.00     0.000 C 
BRANCH  17  18
ATOM     18  C   UNL     1      -0.087  -2.730   6.299  1.00  0.00    -0.000 C 
BRANCH  18  19
ATOM     19  C   UNL     1      -0.623  -2.480   7.717  1.00  0.00    -0.000 C 
BRANCH  19  20
ATOM     20  C   UNL     1      -2.139  -2.709   7.833  1.00  0.00    -0.000 C 
BRANCH  20  21
ATOM     21  C   UNL     1      -2.753  -3.265   6.536  1.00  0.00    -0.000 C 
BRANCH  21  22
ATOM     22  C   UNL     1      -3.839  -2.344   5.957  1.00  0.00    -0.000 C 
BRANCH  22  23
ATOM     23  C   UNL     1      -3.363  -1.579   4.707  1.00  0.00    -0.000 C 
BRANCH  23  24
ATOM     24  C   UNL     1      -3.621  -2.369   3.407  1.00  0.00    -0.000 C 
BRANCH  24  25
ATOM     25  C   UNL     1      -2.431  -3.240   2.966  1.00  0.00    -0.003 C 
ATOM     26  C   UNL     1      -2.693  -4.737   3.112  1.00  0.00     0.004 C 
ENDBRANCH  24  25
ENDBRANCH  23  24
ENDBRANCH  22  23
ENDBRANCH  21  22
ENDBRANCH  20  21
ENDBRANCH  19  20
ENDBRANCH  18  19
ENDBRANCH  17  18
ENDBRANCH  16  17
ENDBRANCH  15  16
ENDBRANCH   1  15
TORSDOF 22
ENDMDL
MODEL 8
REMARK VINA RESULT:    -4.099      5.205      9.511
REMARK INTER + INTRA:         -12.243
REMARK INTER:                  -9.255
REMARK INTRA:                  -2.988
REMARK UNBOUND:                -2.871
REMARK SMILES CCCCCCCCCCCCCCCCCCCCCCCC(=O)[O-]
REMARK SMILES IDX 13 1 14 2 15 3 16 4 17 5 18 6 19 7 20 8 21 9 22 10 23 11
REMARK SMILES IDX 24 12 25 13 26 14 12 15 11 16 10 17 9 18 8 19 7 20 6 21 5 22
REMARK SMILES IDX 4 23 3 24 2 25 1 26
REMARK H PARENT
REMARK Flexibility Score: inf
ROOT
ATOM      1  C   UNL     1      -4.422  -1.141   4.150  1.00  0.00     0.000 C 
ENDROOT
BRANCH   1   2
ATOM      2  C   UNL     1      -2.927  -1.504   4.103  1.00  0.00     0.000 C 
BRANCH   2   3
ATOM      3  C   UNL     1      -2.673  -2.836   3.366  1.00  0.00     0.000 C 
BRANCH   3   4
ATOM      4  C   UNL     1      -3.949  -3.659   3.119  1.00  0.00     0.000 C 
BRANCH   4   5
ATOM      5  C   UNL     1      -3.667  -5.011   2.449  1.00  0.00     0.000 C 
BRANCH   5   6
ATOM      6  C   UNL     1      -2.716  -4.845   1.256  1.00  0.00     0.000 C 
BRANCH   6   7
ATOM      7  C   UNL     1      -3.329  -5.325  -0.073  1.00  0.00     0.000 C 
BRANCH   7   8
ATOM      8  C   UNL     1      -2.384  -5.259  -1.289  1.00  0.00     0.000 C 
BRANCH   8   9
ATOM      9  C   UNL     1      -1.213  -4.265  -1.155  1.00  0.00     0.000 C 
BRANCH   9  10
ATOM     10  C   UNL     1      -0.332  -4.167  -2.419  1.00  0.00     0.006 C 
BRANCH  10  11
ATOM     11  C   UNL     1       0.695  -5.304  -2.510  1.00  0.00     0.053 C 
BRANCH  11  12
ATOM     12  C   UNL     1       0.304  -6.278  -3.577  1.00  0.00     0.041 C 
ATOM     13  O   UNL     1       0.432  -5.972  -4.793  1.00  0.00    -0.550 OA
ATOM     14  O   UNL     1      -0.157  -7.542  -3.230  1.00  0.00    -0.550 OA
ENDBRANCH  11  12
ENDBRANCH  10  11
ENDBRANCH   9  10
ENDBRANCH   8   9
ENDBRANCH   7   8
ENDBRANCH   6   7
ENDBRANCH   5   6
ENDBRANCH   4   5
ENDBRANCH   3   4
ENDBRANCH   2   3
ENDBRANCH   1   2
BRANCH   1  15
ATOM     15  C   UNL     1      -4.883  -0.720   5.555  1.00  0.00     0.000 C 
BRANCH  15  16
ATOM     16  C   UNL     1      -4.697  -1.842   6.594  1.00  0.00     0.000 C 
BRANCH  16  17
ATOM     17  C   UNL     1      -5.718  -2.977   6.425  1.00  0.00     0.000 C 
BRANCH  17  18
ATOM     18  C   UNL     1      -5.090  -4.368   6.608  1.00  0.00    -0.000 C 
BRANCH  18  19
ATOM     19  C   UNL     1      -3.629  -4.252   7.069  1.00  0.00    -0.000 C 
BRANCH  19  20
ATOM     20  C   UNL     1      -2.725  -5.343   6.472  1.00  0.00    -0.000 C 
BRANCH  20  21
ATOM     21  C   UNL     1      -1.324  -4.818   6.114  1.00  0.00    -0.000 C 
BRANCH  21  22
ATOM     22  C   UNL     1      -1.096  -3.375   6.591  1.00  0.00    -0.000 C 
BRANCH  22  23
ATOM     23  C   UNL     1       0.375  -3.094   6.950  1.00  0.00    -0.000 C 
BRANCH  23  24
ATOM     24  C   UNL     1       0.731  -1.598   6.822  1.00  0.00    -0.000 C 
BRANCH  24  25
ATOM     25  C   UNL     1       1.417  -1.237   5.491  1.00  0.00    -0.003 C 
ATOM     26  C   UNL     1       2.556  -2.184   5.125  1.00  0.00     0.004 C 
ENDBRANCH  24  25
ENDBRANCH  23  24
ENDBRANCH  22  23
ENDBRANCH  21  22
ENDBRANCH  20  21
ENDBRANCH  19  20
ENDBRANCH  18  19
ENDBRANCH  17  18
ENDBRANCH  16  17
ENDBRANCH  15  16
ENDBRANCH   1  15
TORSDOF 22
ENDMDL
MODEL 9
REMARK VINA RESULT:    -4.083      3.377      7.780
REMARK INTER + INTRA:         -12.206
REMARK INTER:                  -7.878
REMARK INTRA:                  -4.328
REMARK UNBOUND:                -2.871
REMARK SMILES CCCCCCCCCCCCCCCCCCCCCCCC(=O)[O-]
REMARK SMILES IDX 13 1 14 2 15 3 16 4 17 5 18 6 19 7 20 8 21 9 22 10 23 11
REMARK SMILES IDX 24 12 25 13 26 14 12 15 11 16 10 17 9 18 8 19 7 20 6 21 5 22
REMARK SMILES IDX 4 23 3 24 2 25 1 26
REMARK H PARENT
REMARK Flexibility Score: inf
ROOT
ATOM      1  C   UNL     1      -0.979  -3.810   7.296  1.00  0.00     0.000 C 
ENDROOT
BRANCH   1   2
ATOM      2  C   UNL     1      -1.616  -2.597   7.998  1.00  0.00     0.000 C 
BRANCH   2   3
ATOM      3  C   UNL     1      -3.154  -2.702   8.064  1.00  0.00     0.000 C 
BRANCH   3   4
ATOM      4  C   UNL     1      -3.721  -3.935   7.338  1.00  0.00     0.000 C 
BRANCH   4   5
ATOM      5  C   UNL     1      -4.937  -3.605   6.460  1.00  0.00     0.000 C 
BRANCH   5   6
ATOM      6  C   UNL     1      -5.074  -2.089   6.262  1.00  0.00     0.000 C 
BRANCH   6   7
ATOM      7  C   UNL     1      -5.434  -1.702   4.815  1.00  0.00     0.000 C 
BRANCH   7   8
ATOM      8  C   UNL     1      -4.285  -1.078   4.001  1.00  0.00     0.000 C 
BRANCH   8   9
ATOM      9  C   UNL     1      -2.871  -1.549   4.395  1.00  0.00     0.000 C 
BRANCH   9  10
ATOM     10  C   UNL     1      -2.219  -2.498   3.366  1.00  0.00     0.006 C 
BRANCH  10  11
ATOM     11  C   UNL     1      -2.683  -3.952   3.531  1.00  0.00     0.053 C 
BRANCH  11  12
ATOM     12  C   UNL     1      -3.421  -4.407   2.310  1.00  0.00     0.041 C 
ATOM     13  O   UNL     1      -4.628  -4.084   2.141  1.00  0.00    -0.550 OA
ATOM     14  O   UNL     1      -2.763  -5.147   1.335  1.00  0.00    -0.550 OA
ENDBRANCH  11  12
ENDBRANCH  10  11
ENDBRANCH   9  10
ENDBRANCH   8   9
ENDBRANCH   7   8
ENDBRANCH   6   7
ENDBRANCH   5   6
ENDBRANCH   4   5
ENDBRANCH   3   4
ENDBRANCH   2   3
ENDBRANCH   1   2
BRANCH   1  15
ATOM     15  C   UNL     1       0.209  -3.418   6.403  1.00  0.00     0.000 C 
BRANCH  15  16
ATOM     16  C   UNL     1       0.195  -1.924   6.031  1.00  0.00     0.000 C 
BRANCH  16  17
ATOM     17  C   UNL     1       1.439  -1.502   5.235  1.00  0.00     0.000 C 
BRANCH  17  18
ATOM     18  C   UNL     1       2.609  -2.484   5.404  1.00  0.00    -0.000 C 
BRANCH  18  19
ATOM     19  C   UNL     1       3.933  -1.731   5.599  1.00  0.00    -0.000 C 
BRANCH  19  20
ATOM     20  C   UNL     1       4.584  -2.009   6.964  1.00  0.00    -0.000 C 
BRANCH  20  21
ATOM     21  C   UNL     1       3.637  -2.741   7.932  1.00  0.00    -0.000 C 
BRANCH  21  22
ATOM     22  C   UNL     1       3.247  -1.876   9.141  1.00  0.00    -0.000 C 
BRANCH  22  23
ATOM     23  C   UNL     1       1.860  -1.224   8.981  1.00  0.00    -0.000 C 
BRANCH  23  24
ATOM     24  C   UNL     1       1.925   0.314   9.080  1.00  0.00    -0.000 C 
BRANCH  24  25
ATOM     25  C   UNL     1       2.566   0.987   7.852  1.00  0.00    -0.003 C 
ATOM     26  C   UNL     1       1.563   1.749   6.991  1.00  0.00     0.004 C 
ENDBRANCH  24  25
ENDBRANCH  23  24
ENDBRANCH  22  23
ENDBRANCH  21  22
ENDBRANCH  20  21
ENDBRANCH  19  20
ENDBRANCH  18  19
ENDBRANCH  17  18
ENDBRANCH  16  17
ENDBRANCH  15  16
ENDBRANCH   1  15
TORSDOF 22
ENDMDL
