MODEL 1
REMARK VINA RESULT:    -3.911      0.000      0.000
REMARK INTER + INTRA:         -12.790
REMARK INTER:                  -8.485
REMARK INTRA:                  -4.305
REMARK UNBOUND:                -4.305
REMARK SMILES CCCCCCCCCCCCCCCCCCCCCC(=O)[O-]
REMARK SMILES IDX 12 1 11 2 10 3 9 4 8 5 7 6 6 7 5 8 4 9 3 10 2 11 1 12 13 13
REMARK SMILES IDX 14 14 15 15 16 16 17 17 18 18 19 19 20 20 21 21 22 22 23 23
REMARK SMILES IDX 24 24
REMARK H PARENT
REMARK Flexibility Score: inf
ROOT
ATOM      1  C   UNL     1     174.725 175.852 182.634  1.00  0.00     0.000 C 
ENDROOT
BRANCH   1   2
ATOM      2  C   UNL     1     173.719 177.023 182.628  1.00  0.00     0.000 C 
BRANCH   2   3
ATOM      3  C   UNL     1     172.778 177.032 181.406  1.00  0.00     0.000 C 
BRANCH   3   4
ATOM      4  C   UNL     1     171.505 177.879 181.565  1.00  0.00    -0.000 C 
BRANCH   4   5
ATOM      5  C   UNL     1     170.222 177.096 181.235  1.00  0.00    -0.000 C 
BRANCH   5   6
ATOM      6  C   UNL     1     169.341 176.841 182.472  1.00  0.00    -0.000 C 
BRANCH   6   7
ATOM      7  C   UNL     1     170.059 176.177 183.662  1.00  0.00    -0.000 C 
BRANCH   7   8
ATOM      8  C   UNL     1     170.118 174.638 183.615  1.00  0.00    -0.000 C 
BRANCH   8   9
ATOM      9  C   UNL     1     171.553 174.067 183.634  1.00  0.00    -0.000 C 
BRANCH   9  10
ATOM     10  C   UNL     1     171.982 173.511 182.266  1.00  0.00    -0.000 C 
BRANCH  10  11
ATOM     11  C   UNL     1     170.797 173.341 181.302  1.00  0.00    -0.003 C 
ATOM     12  C   UNL     1     171.125 173.782 179.876  1.00  0.00     0.004 C 
ENDBRANCH  10  11
ENDBRANCH   9  10
ENDBRANCH   8   9
ENDBRANCH   7   8
ENDBRANCH   6   7
ENDBRANCH   5   6
ENDBRANCH   4   5
ENDBRANCH   3   4
ENDBRANCH   2   3
ENDBRANCH   1   2
BRANCH   1  13
ATOM     13  C   UNL     1     176.052 176.229 183.307  1.00  0.00     0.000 C 
BRANCH  13  14
ATOM     14  C   UNL     1     176.846 177.221 182.445  1.00  0.00     0.000 C 
BRANCH  14  15
ATOM     15  C   UNL     1     177.149 176.666 181.043  1.00  0.00     0.000 C 
BRANCH  15  16
ATOM     16  C   UNL     1     176.698 177.616 179.923  1.00  0.00     0.000 C 
BRANCH  16  17
ATOM     17  C   UNL     1     175.588 176.979 179.079  1.00  0.00     0.000 C 
BRANCH  17  18
ATOM     18  C   UNL     1     175.855 175.486 178.853  1.00  0.00     0.000 C 
BRANCH  18  19
ATOM     19  C   UNL     1     174.618 174.650 179.195  1.00  0.00     0.000 C 
BRANCH  19  20
ATOM     20  C   UNL     1     174.988 173.456 180.087  1.00  0.00     0.006 C 
BRANCH  20  21
ATOM     21  C   UNL     1     176.478 173.100 179.995  1.00  0.00     0.053 C 
BRANCH  21  22
ATOM     22  C   UNL     1     177.016 172.625 181.310  1.00  0.00     0.041 C 
ATOM     23  O   UNL     1     176.507 171.624 181.881  1.00  0.00    -0.550 OA
ATOM     24  O   UNL     1     178.104 173.266 181.888  1.00  0.00    -0.550 OA
ENDBRANCH  21  22
ENDBRANCH  20  21
ENDBRANCH  19  20
ENDBRANCH  18  19
ENDBRANCH  17  18
ENDBRANCH  16  17
ENDBRANCH  15  16
ENDBRANCH  14  15
ENDBRANCH  13  14
ENDBRANCH   1  13
TORSDOF 20
ENDMDL
MODEL 2
REMARK VINA RESULT:    -3.752      1.451      3.301
REMARK INTER + INTRA:         -12.444
REMARK INTER:                  -8.960
REMARK INTRA:                  -3.484
REMARK UNBOUND:                -4.305
REMARK SMILES CCCCCCCCCCCCCCCCCCCCCC(=O)[O-]
REMARK SMILES IDX 12 1 11 2 10 3 9 4 8 5 7 6 6 7 5 8 4 9 3 10 2 11 1 12 13 13
REMARK SMILES IDX 14 14 15 15 16 16 17 17 18 18 19 19 20 20 21 21 22 22 23 23
REMARK SMILES IDX 24 24
REMARK H PARENT
REMARK Flexibility Score: inf
ROOT
ATOM      1  C   UNL     1     175.125 175.008 178.498  1.00  0.00     0.000 C 
ENDROOT
BRANCH   1   2
ATOM      2  C   UNL     1     174.671 175.981 177.389  1.00  0.00     0.000 C 
BRANCH   2   3
ATOM      3  C   UNL     1     173.241 176.524 177.582  1.00  0.00     0.000 C 
BRANCH   3   4
ATOM      4  C   UNL     1     172.476 175.945 178.784  1.00  0.00    -0.000 C 
BRANCH   4   5
ATOM      5  C   UNL     1     172.300 176.960 179.926  1.00  0.00    -0.000 C 
BRANCH   5   6
ATOM      6  C   UNL     1     173.125 176.604 181.177  1.00  0.00    -0.000 C 
BRANCH   6   7
ATOM      7  C   UNL     1     172.581 177.172 182.502  1.00  0.00    -0.000 C 
BRANCH   7   8
ATOM      8  C   UNL     1     171.148 177.738 182.432  1.00  0.00    -0.000 C 
BRANCH   8   9
ATOM      9  C   UNL     1     170.127 176.959 183.290  1.00  0.00    -0.000 C 
BRANCH   9  10
ATOM     10  C   UNL     1     170.037 175.475 182.896  1.00  0.00    -0.000 C 
BRANCH  10  11
ATOM     11  C   UNL     1     170.468 174.538 184.035  1.00  0.00    -0.003 C 
ATOM     12  C   UNL     1     171.720 173.729 183.696  1.00  0.00     0.004 C 
ENDBRANCH  10  11
ENDBRANCH   9  10
ENDBRANCH   8   9
ENDBRANCH   7   8
ENDBRANCH   6   7
ENDBRANCH   5   6
ENDBRANCH   4   5
ENDBRANCH   3   4
ENDBRANCH   2   3
ENDBRANCH   1   2
BRANCH   1  13
ATOM     13  C   UNL     1     176.493 175.389 179.082  1.00  0.00     0.000 C 
BRANCH  13  14
ATOM     14  C   UNL     1     176.743 176.900 178.963  1.00  0.00     0.000 C 
BRANCH  14  15
ATOM     15  C   UNL     1     176.247 177.674 180.196  1.00  0.00     0.000 C 
BRANCH  15  16
ATOM     16  C   UNL     1     177.210 177.563 181.388  1.00  0.00     0.000 C 
BRANCH  16  17
ATOM     17  C   UNL     1     176.497 176.982 182.614  1.00  0.00     0.000 C 
BRANCH  17  18
ATOM     18  C   UNL     1     176.766 175.478 182.748  1.00  0.00     0.000 C 
BRANCH  18  19
ATOM     19  C   UNL     1     175.476 174.717 183.067  1.00  0.00     0.000 C 
BRANCH  19  20
ATOM     20  C   UNL     1     175.294 173.519 182.124  1.00  0.00     0.006 C 
BRANCH  20  21
ATOM     21  C   UNL     1     176.620 172.808 181.822  1.00  0.00     0.053 C 
BRANCH  21  22
ATOM     22  C   UNL     1     176.407 171.376 181.437  1.00  0.00     0.041 C 
ATOM     23  O   UNL     1     175.323 170.798 181.716  1.00  0.00    -0.550 OA
ATOM     24  O   UNL     1     177.392 170.690 180.739  1.00  0.00    -0.550 OA
ENDBRANCH  21  22
ENDBRANCH  20  21
ENDBRANCH  19  20
ENDBRANCH  18  19
ENDBRANCH  17  18
ENDBRANCH  16  17
ENDBRANCH  15  16
ENDBRANCH  14  15
ENDBRANCH  13  14
ENDBRANCH   1  13
TORSDOF 20
ENDMDL
MODEL 3
REMARK VINA RESULT:    -3.742      2.879      4.275
REMARK INTER + INTRA:         -12.422
REMARK INTER:                  -8.647
REMARK INTRA:                  -3.775
REMARK UNBOUND:                -4.305
REMARK SMILES CCCCCCCCCCCCCCCCCCCCCC(=O)[O-]
REMARK SMILES IDX 12 1 11 2 10 3 9 4 8 5 7 6 6 7 5 8 4 9 3 10 2 11 1 12 13 13
REMARK SMILES IDX 14 14 15 15 16 16 17 17 18 18 19 19 20 20 21 21 22 22 23 23
REMARK SMILES IDX 24 24
REMARK H PARENT
REMARK Flexibility Score: inf
ROOT
ATOM      1  C   UNL     1     174.392 173.072 181.686  1.00  0.00     0.000 C 
ENDROOT
BRANCH   1   2
ATOM      2  C   UNL     1     173.453 173.737 180.656  1.00  0.00     0.000 C 
BRANCH   2   3
ATOM      3  C   UNL     1     172.941 175.127 181.085  1.00  0.00     0.000 C 
BRANCH   3   4
ATOM      4  C   UNL     1     173.518 175.658 182.408  1.00  0.00    -0.000 C 
BRANCH   4   5
ATOM      5  C   UNL     1     173.429 177.189 182.525  1.00  0.00    -0.000 C 
BRANCH   5   6
ATOM      6  C   UNL     1     172.040 177.740 182.151  1.00  0.00    -0.000 C 
BRANCH   6   7
ATOM      7  C   UNL     1     170.984 177.666 183.270  1.00  0.00    -0.000 C 
BRANCH   7   8
ATOM      8  C   UNL     1     169.667 176.966 182.882  1.00  0.00    -0.000 C 
BRANCH   8   9
ATOM      9  C   UNL     1     169.773 175.426 182.821  1.00  0.00    -0.000 C 
BRANCH   9  10
ATOM     10  C   UNL     1     170.236 174.814 184.153  1.00  0.00    -0.000 C 
BRANCH  10  11
ATOM     11  C   UNL     1     171.112 173.567 183.954  1.00  0.00    -0.003 C 
ATOM     12  C   UNL     1     170.579 172.635 182.866  1.00  0.00     0.004 C 
ENDBRANCH  10  11
ENDBRANCH   9  10
ENDBRANCH   8   9
ENDBRANCH   7   8
ENDBRANCH   6   7
ENDBRANCH   5   6
ENDBRANCH   4   5
ENDBRANCH   3   4
ENDBRANCH   2   3
ENDBRANCH   1   2
BRANCH   1  13
ATOM     13  C   UNL     1     175.611 172.416 181.023  1.00  0.00     0.000 C 
BRANCH  13  14
ATOM     14  C   UNL     1     176.908 172.791 181.756  1.00  0.00     0.000 C 
BRANCH  14  15
ATOM     15  C   UNL     1     176.897 174.246 182.254  1.00  0.00     0.000 C 
BRANCH  15  16
ATOM     16  C   UNL     1     177.014 175.263 181.107  1.00  0.00     0.000 C 
BRANCH  16  17
ATOM     17  C   UNL     1     176.997 176.698 181.646  1.00  0.00     0.000 C 
BRANCH  17  18
ATOM     18  C   UNL     1     177.029 177.718 180.501  1.00  0.00     0.000 C 
BRANCH  18  19
ATOM     19  C   UNL     1     176.313 177.172 179.261  1.00  0.00     0.000 C 
BRANCH  19  20
ATOM     20  C   UNL     1     174.900 177.761 179.136  1.00  0.00     0.006 C 
BRANCH  20  21
ATOM     21  C   UNL     1     174.016 176.955 178.175  1.00  0.00     0.053 C 
BRANCH  21  22
ATOM     22  C   UNL     1     172.838 177.752 177.705  1.00  0.00     0.041 C 
ATOM     23  O   UNL     1     172.751 178.107 176.499  1.00  0.00    -0.550 OA
ATOM     24  O   UNL     1     171.818 178.073 178.591  1.00  0.00    -0.550 OA
ENDBRANCH  21  22
ENDBRANCH  20  21
ENDBRANCH  19  20
ENDBRANCH  18  19
ENDBRANCH  17  18
ENDBRANCH  16  17
ENDBRANCH  15  16
ENDBRANCH  14  15
ENDBRANCH  13  14
ENDBRANCH   1  13
TORSDOF 20
ENDMDL
MODEL 4
REMARK VINA RESULT:    -3.721      3.063      6.126
REMARK INTER + INTRA:         -12.377
REMARK INTER:                  -8.534
REMARK INTRA:                  -3.843
REMARK UNBOUND:                -4.305
REMARK SMILES CCCCCCCCCCCCCCCCCCCCCC(=O)[O-]
REMARK SMILES IDX 12 1 11 2 10 3 9 4 8 5 7 6 6 7 5 8 4 9 3 10 2 11 1 12 13 13
REMARK SMILES IDX 14 14 15 15 16 16 17 17 18 18 19 19 20 20 21 21 22 22 23 23
REMARK SMILES IDX 24 24
REMARK H PARENT
REMARK Flexibility Score: inf
ROOT
ATOM      1  C   UNL     1     174.540 175.045 182.803  1.00  0.00     0.000 C 
ENDROOT
BRANCH   1   2
ATOM      2  C   UNL     1     175.565 176.092 183.290  1.00  0.00     0.000 C 
BRANCH   2   3
ATOM      3  C   UNL     1     176.814 176.207 182.393  1.00  0.00     0.000 C 
BRANCH   3   4
ATOM      4  C   UNL     1     177.101 177.615 181.846  1.00  0.00    -0.000 C 
BRANCH   4   5
ATOM      5  C   UNL     1     177.112 177.667 180.308  1.00  0.00    -0.000 C 
BRANCH   5   6
ATOM      6  C   UNL     1     175.713 177.483 179.692  1.00  0.00    -0.000 C 
BRANCH   6   7
ATOM      7  C   UNL     1     175.594 176.335 178.672  1.00  0.00    -0.000 C 
BRANCH   7   8
ATOM      8  C   UNL     1     175.157 174.979 179.260  1.00  0.00    -0.000 C 
BRANCH   8   9
ATOM      9  C   UNL     1     176.333 174.045 179.617  1.00  0.00    -0.000 C 
BRANCH   9  10
ATOM     10  C   UNL     1     175.870 172.753 180.311  1.00  0.00    -0.000 C 
BRANCH  10  11
ATOM     11  C   UNL     1     176.701 172.429 181.563  1.00  0.00    -0.003 C 
ATOM     12  C   UNL     1     176.801 170.928 181.835  1.00  0.00     0.004 C 
ENDBRANCH  10  11
ENDBRANCH   9  10
ENDBRANCH   8   9
ENDBRANCH   7   8
ENDBRANCH   6   7
ENDBRANCH   5   6
ENDBRANCH   4   5
ENDBRANCH   3   4
ENDBRANCH   2   3
ENDBRANCH   1   2
BRANCH   1  13
ATOM     13  C   UNL     1     173.187 175.678 182.449  1.00  0.00     0.000 C 
BRANCH  13  14
ATOM     14  C   UNL     1     173.289 177.210 182.401  1.00  0.00     0.000 C 
BRANCH  14  15
ATOM     15  C   UNL     1     171.915 177.891 182.518  1.00  0.00     0.000 C 
BRANCH  15  16
ATOM     16  C   UNL     1     170.803 176.911 182.924  1.00  0.00     0.000 C 
BRANCH  16  17
ATOM     17  C   UNL     1     169.623 176.989 181.948  1.00  0.00     0.000 C 
BRANCH  17  18
ATOM     18  C   UNL     1     170.090 177.408 180.549  1.00  0.00     0.000 C 
BRANCH  18  19
ATOM     19  C   UNL     1     170.269 176.187 179.642  1.00  0.00     0.000 C 
BRANCH  19  20
ATOM     20  C   UNL     1     171.663 176.179 178.996  1.00  0.00     0.006 C 
BRANCH  20  21
ATOM     21  C   UNL     1     172.062 177.558 178.455  1.00  0.00     0.053 C 
BRANCH  21  22
ATOM     22  C   UNL     1     172.097 177.577 176.957  1.00  0.00     0.041 C 
ATOM     23  O   UNL     1     173.179 177.378 176.344  1.00  0.00    -0.550 OA
ATOM     24  O   UNL     1     170.926 177.778 176.237  1.00  0.00    -0.550 OA
ENDBRANCH  21  22
ENDBRANCH  20  21
ENDBRANCH  19  20
ENDBRANCH  18  19
ENDBRANCH  17  18
ENDBRANCH  16  17
ENDBRANCH  15  16
ENDBRANCH  14  15
ENDBRANCH  13  14
ENDBRANCH   1  13
TORSDOF 20
ENDMDL
MODEL 5
REMARK VINA RESULT:    -3.712      2.179      5.829
REMARK INTER + INTRA:         -12.357
REMARK INTER:                  -8.438
REMARK INTRA:                  -3.918
REMARK UNBOUND:                -4.305
REMARK SMILES CCCCCCCCCCCCCCCCCCCCCC(=O)[O-]
REMARK SMILES IDX 12 1 11 2 10 3 9 4 8 5 7 6 6 7 5 8 4 9 3 10 2 11 1 12 13 13
REMARK SMILES IDX 14 14 15 15 16 16 17 17 18 18 19 19 20 20 21 21 22 22 23 23
REMARK SMILES IDX 24 24
REMARK H PARENT
REMARK Flexibility Score: inf
ROOT
ATOM      1  C   UNL     1     174.427 174.465 179.142  1.00  0.00     0.000 C 
ENDROOT
BRANCH   1   2
ATOM      2  C   UNL     1     175.581 175.405 178.733  1.00  0.00     0.000 C 
BRANCH   2   3
ATOM      3  C   UNL     1     175.209 176.901 178.764  1.00  0.00     0.000 C 
BRANCH   3   4
ATOM      4  C   UNL     1     176.105 177.781 179.653  1.00  0.00    -0.000 C 
BRANCH   4   5
ATOM      5  C   UNL     1     177.027 176.960 180.569  1.00  0.00    -0.000 C 
BRANCH   5   6
ATOM      6  C   UNL     1     176.603 177.012 182.049  1.00  0.00    -0.000 C 
BRANCH   6   7
ATOM      7  C   UNL     1     176.973 175.769 182.880  1.00  0.00    -0.000 C 
BRANCH   7   8
ATOM      8  C   UNL     1     176.483 174.426 182.302  1.00  0.00    -0.000 C 
BRANCH   8   9
ATOM      9  C   UNL     1     177.610 173.557 181.701  1.00  0.00    -0.000 C 
BRANCH   9  10
ATOM     10  C   UNL     1     177.099 172.198 181.197  1.00  0.00    -0.000 C 
BRANCH  10  11
ATOM     11  C   UNL     1     175.638 171.935 181.594  1.00  0.00    -0.003 C 
ATOM     12  C   UNL     1     174.886 171.091 180.565  1.00  0.00     0.004 C 
ENDBRANCH  10  11
ENDBRANCH   9  10
ENDBRANCH   8   9
ENDBRANCH   7   8
ENDBRANCH   6   7
ENDBRANCH   5   6
ENDBRANCH   4   5
ENDBRANCH   3   4
ENDBRANCH   2   3
ENDBRANCH   1   2
BRANCH   1  13
ATOM     13  C   UNL     1     173.306 175.209 179.883  1.00  0.00     0.000 C 
BRANCH  13  14
ATOM     14  C   UNL     1     173.153 174.686 181.319  1.00  0.00     0.000 C 
BRANCH  14  15
ATOM     15  C   UNL     1     173.283 175.805 182.366  1.00  0.00     0.000 C 
BRANCH  15  16
ATOM     16  C   UNL     1     172.996 177.197 181.780  1.00  0.00     0.000 C 
BRANCH  16  17
ATOM     17  C   UNL     1     171.716 177.789 182.380  1.00  0.00     0.000 C 
BRANCH  17  18
ATOM     18  C   UNL     1     170.472 177.262 181.656  1.00  0.00     0.000 C 
BRANCH  18  19
ATOM     19  C   UNL     1     169.411 176.794 182.657  1.00  0.00     0.000 C 
BRANCH  19  20
ATOM     20  C   UNL     1     170.009 175.814 183.678  1.00  0.00     0.006 C 
BRANCH  20  21
ATOM     21  C   UNL     1     169.957 174.360 183.189  1.00  0.00     0.053 C 
BRANCH  21  22
ATOM     22  C   UNL     1     170.534 173.415 184.197  1.00  0.00     0.041 C 
ATOM     23  O   UNL     1     169.804 172.548 184.747  1.00  0.00    -0.550 OA
ATOM     24  O   UNL     1     171.888 173.469 184.505  1.00  0.00    -0.550 OA
ENDBRANCH  21  22
ENDBRANCH  20  21
ENDBRANCH  19  20
ENDBRANCH  18  19
ENDBRANCH  17  18
ENDBRANCH  16  17
ENDBRANCH  15  16
ENDBRANCH  14  15
ENDBRANCH  13  14
ENDBRANCH   1  13
TORSDOF 20
ENDMDL
MODEL 6
REMARK VINA RESULT:    -3.686      2.289      5.431
REMARK INTER + INTRA:         -12.300
REMARK INTER:                  -8.354
REMARK INTRA:                  -3.947
REMARK UNBOUND:                -4.305
REMARK SMILES CCCCCCCCCCCCCCCCCCCCCC(=O)[O-]
REMARK SMILES IDX 12 1 11 2 10 3 9 4 8 5 7 6 6 7 5 8 4 9 3 10 2 11 1 12 13 13
REMARK SMILES IDX 14 14 15 15 16 16 17 17 18 18 19 19 20 20 21 21 22 22 23 23
REMARK SMILES IDX 24 24
REMARK H PARENT
REMARK Flexibility Score: inf
ROOT
ATOM      1  C   UNL     1     177.001 176.229 182.297  1.00  0.00     0.000 C 
ENDROOT
BRANCH   1   2
ATOM      2  C   UNL     1     177.049 177.507 181.432  1.00  0.00     0.000 C 
BRANCH   2   3
ATOM      3  C   UNL     1     176.643 177.281 179.962  1.00  0.00     0.000 C 
BRANCH   3   4
ATOM      4  C   UNL     1     176.641 175.814 179.500  1.00  0.00    -0.000 C 
BRANCH   4   5
ATOM      5  C   UNL     1     175.271 175.357 178.970  1.00  0.00    -0.000 C 
BRANCH   5   6
ATOM      6  C   UNL     1     174.977 175.870 177.548  1.00  0.00    -0.000 C 
BRANCH   6   7
ATOM      7  C   UNL     1     173.734 176.772 177.422  1.00  0.00    -0.000 C 
BRANCH   7   8
ATOM      8  C   UNL     1     172.997 177.059 178.745  1.00  0.00    -0.000 C 
BRANCH   8   9
ATOM      9  C   UNL     1     171.462 176.918 178.648  1.00  0.00    -0.000 C 
BRANCH   9  10
ATOM     10  C   UNL     1     171.018 175.464 178.416  1.00  0.00    -0.000 C 
BRANCH  10  11
ATOM     11  C   UNL     1     170.918 174.665 179.726  1.00  0.00    -0.003 C 
ATOM     12  C   UNL     1     172.072 173.680 179.909  1.00  0.00     0.004 C 
ENDBRANCH  10  11
ENDBRANCH   9  10
ENDBRANCH   8   9
ENDBRANCH   7   8
ENDBRANCH   6   7
ENDBRANCH   5   6
ENDBRANCH   4   5
ENDBRANCH   3   4
ENDBRANCH   2   3
ENDBRANCH   1   2
BRANCH   1  13
ATOM     13  C   UNL     1     175.797 176.216 183.249  1.00  0.00     0.000 C 
BRANCH  13  14
ATOM     14  C   UNL     1     174.752 175.182 182.804  1.00  0.00     0.000 C 
BRANCH  14  15
ATOM     15  C   UNL     1     173.398 175.827 182.466  1.00  0.00     0.000 C 
BRANCH  15  16
ATOM     16  C   UNL     1     173.488 177.357 182.340  1.00  0.00     0.000 C 
BRANCH  16  17
ATOM     17  C   UNL     1     172.213 178.024 182.866  1.00  0.00     0.000 C 
BRANCH  17  18
ATOM     18  C   UNL     1     170.965 177.432 182.201  1.00  0.00     0.000 C 
BRANCH  18  19
ATOM     19  C   UNL     1     169.943 176.987 183.252  1.00  0.00     0.000 C 
BRANCH  19  20
ATOM     20  C   UNL     1     169.572 175.508 183.070  1.00  0.00     0.006 C 
BRANCH  20  21
ATOM     21  C   UNL     1     170.349 174.591 184.023  1.00  0.00     0.053 C 
BRANCH  21  22
ATOM     22  C   UNL     1     170.377 173.176 183.532  1.00  0.00     0.041 C 
ATOM     23  O   UNL     1     169.301 172.557 183.316  1.00  0.00    -0.550 OA
ATOM     24  O   UNL     1     171.591 172.552 183.278  1.00  0.00    -0.550 OA
ENDBRANCH  21  22
ENDBRANCH  20  21
ENDBRANCH  19  20
ENDBRANCH  18  19
ENDBRANCH  17  18
ENDBRANCH  16  17
ENDBRANCH  15  16
ENDBRANCH  14  15
ENDBRANCH  13  14
ENDBRANCH   1  13
TORSDOF 20
ENDMDL
MODEL 7
REMARK VINA RESULT:    -3.681      1.297      2.724
REMARK INTER + INTRA:         -12.290
REMARK INTER:                  -8.439
REMARK INTRA:                  -3.851
REMARK UNBOUND:                -4.305
REMARK SMILES CCCCCCCCCCCCCCCCCCCCCC(=O)[O-]
REMARK SMILES IDX 12 1 11 2 10 3 9 4 8 5 7 6 6 7 5 8 4 9 3 10 2 11 1 12 13 13
REMARK SMILES IDX 14 14 15 15 16 16 17 17 18 18 19 19 20 20 21 21 22 22 23 23
REMARK SMILES IDX 24 24
REMARK H PARENT
REMARK Flexibility Score: inf
ROOT
ATOM      1  C   UNL     1     174.248 176.985 179.110  1.00  0.00     0.000 C 
ENDROOT
BRANCH   1   2
ATOM      2  C   UNL     1     173.309 176.342 180.154  1.00  0.00     0.000 C 
BRANCH   2   3
ATOM      3  C   UNL     1     172.458 177.360 180.939  1.00  0.00     0.000 C 
BRANCH   3   4
ATOM      4  C   UNL     1     172.430 177.154 182.463  1.00  0.00    -0.000 C 
BRANCH   4   5
ATOM      5  C   UNL     1     171.306 177.947 183.151  1.00  0.00    -0.000 C 
BRANCH   5   6
ATOM      6  C   UNL     1     170.102 177.068 183.538  1.00  0.00    -0.000 C 
BRANCH   6   7
ATOM      7  C   UNL     1     169.121 176.760 182.391  1.00  0.00    -0.000 C 
BRANCH   7   8
ATOM      8  C   UNL     1     168.907 175.262 182.096  1.00  0.00    -0.000 C 
BRANCH   8   9
ATOM      9  C   UNL     1     169.966 174.654 181.151  1.00  0.00    -0.000 C 
BRANCH   9  10
ATOM     10  C   UNL     1     170.562 173.347 181.699  1.00  0.00    -0.000 C 
BRANCH  10  11
ATOM     11  C   UNL     1     171.983 173.536 182.253  1.00  0.00    -0.003 C 
ATOM     12  C   UNL     1     172.004 173.776 183.762  1.00  0.00     0.004 C 
ENDBRANCH  10  11
ENDBRANCH   9  10
ENDBRANCH   8   9
ENDBRANCH   7   8
ENDBRANCH   6   7
ENDBRANCH   5   6
ENDBRANCH   4   5
ENDBRANCH   3   4
ENDBRANCH   2   3
ENDBRANCH   1   2
BRANCH   1  13
ATOM     13  C   UNL     1     175.312 176.002 178.602  1.00  0.00     0.000 C 
BRANCH  13  14
ATOM     14  C   UNL     1     176.681 176.295 179.234  1.00  0.00     0.000 C 
BRANCH  14  15
ATOM     15  C   UNL     1     176.694 177.622 180.011  1.00  0.00     0.000 C 
BRANCH  15  16
ATOM     16  C   UNL     1     177.222 177.460 181.446  1.00  0.00     0.000 C 
BRANCH  16  17
ATOM     17  C   UNL     1     176.064 177.320 182.441  1.00  0.00     0.000 C 
BRANCH  17  18
ATOM     18  C   UNL     1     176.271 176.111 183.361  1.00  0.00     0.000 C 
BRANCH  18  19
ATOM     19  C   UNL     1     175.484 174.897 182.858  1.00  0.00     0.000 C 
BRANCH  19  20
ATOM     20  C   UNL     1     176.359 174.003 181.967  1.00  0.00     0.006 C 
BRANCH  20  21
ATOM     21  C   UNL     1     175.745 172.612 181.756  1.00  0.00     0.053 C 
BRANCH  21  22
ATOM     22  C   UNL     1     176.332 171.922 180.564  1.00  0.00     0.041 C 
ATOM     23  O   UNL     1     175.979 172.251 179.400  1.00  0.00    -0.550 OA
ATOM     24  O   UNL     1     177.298 170.938 180.735  1.00  0.00    -0.550 OA
ENDBRANCH  21  22
ENDBRANCH  20  21
ENDBRANCH  19  20
ENDBRANCH  18  19
ENDBRANCH  17  18
ENDBRANCH  16  17
ENDBRANCH  15  16
ENDBRANCH  14  15
ENDBRANCH  13  14
ENDBRANCH   1  13
TORSDOF 20
ENDMDL
MODEL 8
REMARK VINA RESULT:    -3.675      3.201      3.938
REMARK INTER + INTRA:         -12.277
REMARK INTER:                  -8.317
REMARK INTRA:                  -3.960
REMARK UNBOUND:                -4.305
REMARK SMILES CCCCCCCCCCCCCCCCCCCCCC(=O)[O-]
REMARK SMILES IDX 12 1 11 2 10 3 9 4 8 5 7 6 6 7 5 8 4 9 3 10 2 11 1 12 13 13
REMARK SMILES IDX 14 14 15 15 16 16 17 17 18 18 19 19 20 20 21 21 22 22 23 23
REMARK SMILES IDX 24 24
REMARK H PARENT
REMARK Flexibility Score: inf
ROOT
ATOM      1  C   UNL     1     174.439 174.488 182.790  1.00  0.00     0.000 C 
ENDROOT
BRANCH   1   2
ATOM      2  C   UNL     1     173.443 175.503 182.188  1.00  0.00     0.000 C 
BRANCH   2   3
ATOM      3  C   UNL     1     173.699 176.961 182.622  1.00  0.00     0.000 C 
BRANCH   3   4
ATOM      4  C   UNL     1     172.489 177.902 182.501  1.00  0.00    -0.000 C 
BRANCH   4   5
ATOM      5  C   UNL     1     171.476 177.440 181.440  1.00  0.00    -0.000 C 
BRANCH   5   6
ATOM      6  C   UNL     1     170.056 177.253 182.007  1.00  0.00    -0.000 C 
BRANCH   6   7
ATOM      7  C   UNL     1     169.993 176.697 183.442  1.00  0.00    -0.000 C 
BRANCH   7   8
ATOM      8  C   UNL     1     170.062 175.161 183.552  1.00  0.00    -0.000 C 
BRANCH   8   9
ATOM      9  C   UNL     1     169.367 174.420 182.389  1.00  0.00    -0.000 C 
BRANCH   9  10
ATOM     10  C   UNL     1     170.354 173.606 181.535  1.00  0.00    -0.000 C 
BRANCH  10  11
ATOM     11  C   UNL     1     170.370 174.058 180.067  1.00  0.00    -0.003 C 
ATOM     12  C   UNL     1     171.758 173.963 179.432  1.00  0.00     0.004 C 
ENDBRANCH  10  11
ENDBRANCH   9  10
ENDBRANCH   8   9
ENDBRANCH   7   8
ENDBRANCH   6   7
ENDBRANCH   5   6
ENDBRANCH   4   5
ENDBRANCH   3   4
ENDBRANCH   2   3
ENDBRANCH   1   2
BRANCH   1  13
ATOM     13  C   UNL     1     175.738 175.157 183.260  1.00  0.00     0.000 C 
BRANCH  13  14
ATOM     14  C   UNL     1     176.941 174.664 182.441  1.00  0.00     0.000 C 
BRANCH  14  15
ATOM     15  C   UNL     1     177.046 175.365 181.077  1.00  0.00     0.000 C 
BRANCH  15  16
ATOM     16  C   UNL     1     177.133 176.894 181.204  1.00  0.00     0.000 C 
BRANCH  16  17
ATOM     17  C   UNL     1     176.562 177.579 179.957  1.00  0.00     0.000 C 
BRANCH  17  18
ATOM     18  C   UNL     1     175.466 176.725 179.311  1.00  0.00     0.000 C 
BRANCH  18  19
ATOM     19  C   UNL     1     174.278 177.591 178.879  1.00  0.00     0.000 C 
BRANCH  19  20
ATOM     20  C   UNL     1     173.487 176.918 177.747  1.00  0.00     0.006 C 
BRANCH  20  21
ATOM     21  C   UNL     1     172.002 177.303 177.767  1.00  0.00     0.053 C 
BRANCH  21  22
ATOM     22  C   UNL     1     171.291 176.834 176.534  1.00  0.00     0.041 C 
ATOM     23  O   UNL     1     170.734 175.705 176.513  1.00  0.00    -0.550 OA
ATOM     24  O   UNL     1     171.214 177.659 175.420  1.00  0.00    -0.550 OA
ENDBRANCH  21  22
ENDBRANCH  20  21
ENDBRANCH  19  20
ENDBRANCH  18  19
ENDBRANCH  17  18
ENDBRANCH  16  17
ENDBRANCH  15  16
ENDBRANCH  14  15
ENDBRANCH  13  14
ENDBRANCH   1  13
TORSDOF 20
ENDMDL
MODEL 9
REMARK VINA RESULT:    -3.617      1.470      3.567
REMARK INTER + INTRA:         -12.151
REMARK INTER:                  -8.326
REMARK INTRA:                  -3.825
REMARK UNBOUND:                -4.305
REMARK SMILES CCCCCCCCCCCCCCCCCCCCCC(=O)[O-]
REMARK SMILES IDX 12 1 11 2 10 3 9 4 8 5 7 6 6 7 5 8 4 9 3 10 2 11 1 12 13 13
REMARK SMILES IDX 14 14 15 15 16 16 17 17 18 18 19 19 20 20 21 21 22 22 23 23
REMARK SMILES IDX 24 24
REMARK H PARENT
REMARK Flexibility Score: inf
ROOT
ATOM      1  C   UNL     1     176.979 177.080 180.005  1.00  0.00     0.000 C 
ENDROOT
BRANCH   1   2
ATOM      2  C   UNL     1     176.737 175.630 180.477  1.00  0.00     0.000 C 
BRANCH   2   3
ATOM      3  C   UNL     1     177.020 175.405 181.975  1.00  0.00     0.000 C 
BRANCH   3   4
ATOM      4  C   UNL     1     175.774 175.303 182.871  1.00  0.00    -0.000 C 
BRANCH   4   5
ATOM      5  C   UNL     1     174.977 176.617 182.937  1.00  0.00    -0.000 C 
BRANCH   5   6
ATOM      6  C   UNL     1     173.585 176.507 182.288  1.00  0.00    -0.000 C 
BRANCH   6   7
ATOM      7  C   UNL     1     172.639 177.691 182.565  1.00  0.00    -0.000 C 
BRANCH   7   8
ATOM      8  C   UNL     1     171.173 177.305 182.848  1.00  0.00    -0.000 C 
BRANCH   8   9
ATOM      9  C   UNL     1     170.737 175.981 182.184  1.00  0.00    -0.000 C 
BRANCH   9  10
ATOM     10  C   UNL     1     169.836 175.133 183.097  1.00  0.00    -0.000 C 
BRANCH  10  11
ATOM     11  C   UNL     1     170.637 174.356 184.154  1.00  0.00    -0.003 C 
ATOM     12  C   UNL     1     171.861 173.650 183.570  1.00  0.00     0.004 C 
ENDBRANCH  10  11
ENDBRANCH   9  10
ENDBRANCH   8   9
ENDBRANCH   7   8
ENDBRANCH   6   7
ENDBRANCH   5   6
ENDBRANCH   4   5
ENDBRANCH   3   4
ENDBRANCH   2   3
ENDBRANCH   1   2
BRANCH   1  13
ATOM     13  C   UNL     1     175.692 177.752 179.505  1.00  0.00     0.000 C 
BRANCH  13  14
ATOM     14  C   UNL     1     174.873 176.792 178.630  1.00  0.00     0.000 C 
BRANCH  14  15
ATOM     15  C   UNL     1     173.360 177.044 178.744  1.00  0.00     0.000 C 
BRANCH  15  16
ATOM     16  C   UNL     1     172.551 175.742 178.850  1.00  0.00     0.000 C 
BRANCH  16  17
ATOM     17  C   UNL     1     173.474 174.519 178.799  1.00  0.00     0.000 C 
BRANCH  17  18
ATOM     18  C   UNL     1     173.402 173.718 180.105  1.00  0.00     0.000 C 
BRANCH  18  19
ATOM     19  C   UNL     1     174.507 172.658 180.159  1.00  0.00     0.000 C 
BRANCH  19  20
ATOM     20  C   UNL     1     174.656 172.089 181.578  1.00  0.00     0.006 C 
BRANCH  20  21
ATOM     21  C   UNL     1     175.287 170.690 181.581  1.00  0.00     0.053 C 
BRANCH  21  22
ATOM     22  C   UNL     1     176.783 170.756 181.542  1.00  0.00     0.041 C 
ATOM     23  O   UNL     1     177.458 169.730 181.262  1.00  0.00    -0.550 OA
ATOM     24  O   UNL     1     177.432 171.961 181.781  1.00  0.00    -0.550 OA
ENDBRANCH  21  22
ENDBRANCH  20  21
ENDBRANCH  19  20
ENDBRANCH  18  19
ENDBRANCH  17  18
ENDBRANCH  16  17
ENDBRANCH  15  16
ENDBRANCH  14  15
ENDBRANCH  13  14
ENDBRANCH   1  13
TORSDOF 20
ENDMDL
