MODEL 1
REMARK VINA RESULT:    -7.355      0.000      0.000
REMARK INTER + INTRA:         -14.695
REMARK INTER:                 -12.084
REMARK INTRA:                  -2.611
REMARK UNBOUND:                -2.611
REMARK SMILES C[C@@H]1O[C@@H](OC[C@@H]2O[C@@H](Oc3c(-c4ccc(O)c(O)c4)oc4cc(O)cc(O)c4c3=O)[C@@H](O)[C@H](O)[C@H]2O)[C@@H](O)[C@H](O)[C@H]1O
REMARK SMILES IDX 7 1 36 2 34 3 32 4 9 5 8 6 6 7 5 8 4 9 1 10 2 11 42 12 3 13
REMARK SMILES IDX 40 14 38 15 43 16 41 18 39 20 37 22 35 24 10 26 11 27 12 28
REMARK SMILES IDX 30 29 21 30 29 31 31 32 22 33 27 34 23 35 26 36 24 37 13 38
REMARK SMILES IDX 20 39 14 40 18 41 15 42 16 43 19 44 17 46 28 48 25 50 33 52
REMARK H PARENT 43 17 41 19 39 21 37 23 35 25 19 45 17 47 28 49 25 51 33 53
REMARK Flexibility Score: inf
ROOT
ATOM      1  C   UNL     1      14.073  23.900  47.062  1.00  0.00     0.180 C 
ATOM      2  C   UNL     1      13.405  24.856  48.078  1.00  0.00     0.177 C 
ATOM      3  C   UNL     1      13.965  26.287  47.851  1.00  0.00     0.180 C 
ATOM      4  C   UNL     1      15.503  26.268  47.895  1.00  0.00     0.214 C 
ATOM      5  C   UNL     1      16.058  25.166  46.975  1.00  0.00     0.339 C 
ATOM      6  O   UNL     1      15.482  23.909  47.263  1.00  0.00    -0.332 OA
ENDROOT
BRANCH   1   7
ATOM      7  C   UNL     1      13.665  22.419  47.234  1.00  0.00     0.198 C 
BRANCH   7   8
ATOM      8  O   UNL     1      14.600  21.484  47.754  1.00  0.00    -0.347 OA
BRANCH   8   9
ATOM      9  C   UNL     1      15.339  20.640  46.881  1.00  0.00     0.281 C 
ATOM     10  C   UNL     1      15.924  17.726  45.686  1.00  0.00     0.041 C 
ATOM     11  C   UNL     1      15.474  18.204  47.075  1.00  0.00     0.150 C 
ATOM     12  C   UNL     1      16.629  18.285  48.132  1.00  0.00     0.174 C 
ATOM     13  O   UNL     1      14.673  19.374  46.957  1.00  0.00    -0.344 OA
ATOM     14  C   UNL     1      17.098  19.721  48.402  1.00  0.00     0.179 C 
ATOM     15  C   UNL     1      16.865  20.562  47.161  1.00  0.00     0.202 C 
BRANCH  12  16
ATOM     16  O   UNL     1      16.230  17.718  49.359  1.00  0.00    -0.388 OA
ATOM     17  H   UNL     1      15.963  16.781  49.170  1.00  0.00     0.211 HD
ENDBRANCH  12  16
BRANCH  14  18
ATOM     18  O   UNL     1      18.467  19.719  48.724  1.00  0.00    -0.387 OA
ATOM     19  H   UNL     1      18.663  18.835  49.137  1.00  0.00     0.211 HD
ENDBRANCH  14  18
BRANCH  15  20
ATOM     20  O   UNL     1      17.454  21.826  47.315  1.00  0.00    -0.385 OA
ATOM     21  H   UNL     1      17.278  22.340  46.484  1.00  0.00     0.211 HD
ENDBRANCH  15  20
ENDBRANCH   8   9
ENDBRANCH   7   8
ENDBRANCH   1   7
BRANCH   2  22
ATOM     22  O   UNL     1      12.000  24.843  47.955  1.00  0.00    -0.387 OA
ATOM     23  H   UNL     1      11.667  25.768  48.090  1.00  0.00     0.211 HD
ENDBRANCH   2  22
BRANCH   3  24
ATOM     24  O   UNL     1      13.469  27.156  48.843  1.00  0.00    -0.387 OA
ATOM     25  H   UNL     1      12.554  26.831  49.066  1.00  0.00     0.211 HD
ENDBRANCH   3  24
BRANCH   5  26
ATOM     26  O   UNL     1      15.851  25.520  45.605  1.00  0.00    -0.454 OA
BRANCH  26  27
ATOM     27  C   UNL     1      16.843  25.581  44.610  1.00  0.00     0.214 A 
ATOM     28  C   UNL     1      16.773  24.635  43.583  1.00  0.00     0.180 A 
ATOM     29  C   UNL     1      17.887  26.534  44.584  1.00  0.00     0.239 A 
ATOM     30  O   UNL     1      17.591  24.705  42.541  1.00  0.00    -0.452 OA
ATOM     31  C   UNL     1      18.819  26.515  43.514  1.00  0.00     0.111 A 
ATOM     32  O   UNL     1      17.958  27.393  45.496  1.00  0.00    -0.285 OA
ATOM     33  C   UNL     1      18.577  25.600  42.454  1.00  0.00     0.146 A 
ATOM     34  C   UNL     1      19.960  27.374  43.422  1.00  0.00     0.134 A 
ATOM     35  C   UNL     1      19.377  25.620  41.303  1.00  0.00     0.094 A 
ATOM     36  C   UNL     1      20.722  27.386  42.255  1.00  0.00     0.093 A 
ATOM     37  C   UNL     1      20.432  26.526  41.191  1.00  0.00     0.123 A 
BRANCH  28  38
ATOM     38  C   UNL     1      15.738  23.605  43.662  1.00  0.00     0.025 A 
ATOM     39  C   UNL     1      14.421  23.942  43.348  1.00  0.00     0.062 A 
ATOM     40  C   UNL     1      16.107  22.257  43.767  1.00  0.00     0.016 A 
ATOM     41  C   UNL     1      13.477  22.954  43.051  1.00  0.00     0.158 A 
ATOM     42  C   UNL     1      15.166  21.260  43.486  1.00  0.00     0.051 A 
ATOM     43  C   UNL     1      13.853  21.594  43.110  1.00  0.00     0.157 A 
BRANCH  41  44
ATOM     44  O   UNL     1      12.198  23.372  42.677  1.00  0.00    -0.504 OA
ATOM     45  H   UNL     1      11.509  23.719  43.331  1.00  0.00     0.293 HD
ENDBRANCH  41  44
BRANCH  43  46
ATOM     46  O   UNL     1      12.973  20.549  42.801  1.00  0.00    -0.504 OA
ATOM     47  H   UNL     1      11.964  20.634  42.851  1.00  0.00     0.293 HD
ENDBRANCH  43  46
ENDBRANCH  28  38
BRANCH  34  48
ATOM     48  O   UNL     1      20.402  28.189  44.473  1.00  0.00    -0.507 OA
ATOM     49  H   UNL     1      19.869  28.962  44.847  1.00  0.00     0.293 HD
ENDBRANCH  34  48
BRANCH  37  50
ATOM     50  O   UNL     1      21.199  26.581  40.026  1.00  0.00    -0.508 OA
ATOM     51  H   UNL     1      20.885  27.090  39.210  1.00  0.00     0.293 HD
ENDBRANCH  37  50
ENDBRANCH  26  27
ENDBRANCH   5  26
BRANCH   4  52
ATOM     52  O   UNL     1      16.014  27.506  47.486  1.00  0.00    -0.384 OA
ATOM     53  H   UNL     1      17.004  27.419  47.452  1.00  0.00     0.211 HD
ENDBRANCH   4  52
TORSDOF 16
ENDMDL
MODEL 2
REMARK VINA RESULT:    -7.255      1.787      2.752
REMARK INTER + INTRA:         -14.532
REMARK INTER:                 -11.397
REMARK INTRA:                  -3.134
REMARK UNBOUND:                -2.611
REMARK SMILES C[C@@H]1O[C@@H](OC[C@@H]2O[C@@H](Oc3c(-c4ccc(O)c(O)c4)oc4cc(O)cc(O)c4c3=O)[C@@H](O)[C@H](O)[C@H]2O)[C@@H](O)[C@H](O)[C@H]1O
REMARK SMILES IDX 7 1 36 2 34 3 32 4 9 5 8 6 6 7 5 8 4 9 1 10 2 11 42 12 3 13
REMARK SMILES IDX 40 14 38 15 43 16 41 18 39 20 37 22 35 24 10 26 11 27 12 28
REMARK SMILES IDX 30 29 21 30 29 31 31 32 22 33 27 34 23 35 26 36 24 37 13 38
REMARK SMILES IDX 20 39 14 40 18 41 15 42 16 43 19 44 17 46 28 48 25 50 33 52
REMARK H PARENT 43 17 41 19 39 21 37 23 35 25 19 45 17 47 28 49 25 51 33 53
REMARK Flexibility Score: inf
ROOT
ATOM      1  C   UNL     1      16.110  23.899  46.514  1.00  0.00     0.180 C 
ATOM      2  C   UNL     1      15.777  25.065  47.475  1.00  0.00     0.177 C 
ATOM      3  C   UNL     1      16.034  26.405  46.731  1.00  0.00     0.180 C 
ATOM      4  C   UNL     1      17.462  26.427  46.158  1.00  0.00     0.214 C 
ATOM      5  C   UNL     1      17.747  25.142  45.361  1.00  0.00     0.339 C 
ATOM      6  O   UNL     1      17.477  23.985  46.126  1.00  0.00    -0.332 OA
ENDROOT
BRANCH   1   7
ATOM      7  C   UNL     1      15.976  22.500  47.158  1.00  0.00     0.198 C 
BRANCH   7   8
ATOM      8  O   UNL     1      14.693  22.012  47.526  1.00  0.00    -0.347 OA
BRANCH   8   9
ATOM      9  C   UNL     1      14.565  20.949  48.459  1.00  0.00     0.281 C 
ATOM     10  C   UNL     1      15.671  19.352  51.007  1.00  0.00     0.041 C 
ATOM     11  C   UNL     1      16.379  20.095  49.863  1.00  0.00     0.150 C 
ATOM     12  C   UNL     1      16.912  19.160  48.723  1.00  0.00     0.174 C 
ATOM     13  O   UNL     1      15.590  21.196  49.429  1.00  0.00    -0.344 OA
ATOM     14  C   UNL     1      16.040  19.193  47.461  1.00  0.00     0.179 C 
ATOM     15  C   UNL     1      14.610  19.519  47.852  1.00  0.00     0.202 C 
BRANCH  12  16
ATOM     16  O   UNL     1      18.225  19.513  48.355  1.00  0.00    -0.388 OA
ATOM     17  H   UNL     1      18.246  19.552  47.363  1.00  0.00     0.211 HD
ENDBRANCH  12  16
BRANCH  14  18
ATOM     18  O   UNL     1      16.083  17.940  46.823  1.00  0.00    -0.387 OA
ATOM     19  H   UNL     1      15.600  18.043  45.959  1.00  0.00     0.211 HD
ENDBRANCH  14  18
BRANCH  15  20
ATOM     20  O   UNL     1      13.760  19.372  46.747  1.00  0.00    -0.385 OA
ATOM     21  H   UNL     1      13.224  20.205  46.670  1.00  0.00     0.211 HD
ENDBRANCH  15  20
ENDBRANCH   8   9
ENDBRANCH   7   8
ENDBRANCH   1   7
BRANCH   2  22
ATOM     22  O   UNL     1      14.444  24.994  47.931  1.00  0.00    -0.387 OA
ATOM     23  H   UNL     1      14.380  24.254  48.589  1.00  0.00     0.211 HD
ENDBRANCH   2  22
BRANCH   3  24
ATOM     24  O   UNL     1      15.860  27.484  47.620  1.00  0.00    -0.387 OA
ATOM     25  H   UNL     1      16.593  27.413  48.292  1.00  0.00     0.211 HD
ENDBRANCH   3  24
BRANCH   5  26
ATOM     26  O   UNL     1      16.990  25.138  44.149  1.00  0.00    -0.454 OA
BRANCH  26  27
ATOM     27  C   UNL     1      17.513  25.000  42.850  1.00  0.00     0.214 A 
ATOM     28  C   UNL     1      17.352  23.757  42.229  1.00  0.00     0.180 A 
ATOM     29  C   UNL     1      18.174  26.030  42.144  1.00  0.00     0.239 A 
ATOM     30  O   UNL     1      17.700  23.585  40.961  1.00  0.00    -0.452 OA
ATOM     31  C   UNL     1      18.639  25.783  40.826  1.00  0.00     0.111 A 
ATOM     32  O   UNL     1      18.319  27.152  42.686  1.00  0.00    -0.285 OA
ATOM     33  C   UNL     1      18.305  24.532  40.241  1.00  0.00     0.146 A 
ATOM     34  C   UNL     1      19.390  26.718  40.046  1.00  0.00     0.134 A 
ATOM     35  C   UNL     1      18.613  24.271  38.898  1.00  0.00     0.094 A 
ATOM     36  C   UNL     1      19.661  26.440  38.707  1.00  0.00     0.093 A 
ATOM     37  C   UNL     1      19.267  25.231  38.124  1.00  0.00     0.123 A 
BRANCH  28  38
ATOM     38  C   UNL     1      16.739  22.675  42.998  1.00  0.00     0.025 A 
ATOM     39  C   UNL     1      15.355  22.502  42.940  1.00  0.00     0.062 A 
ATOM     40  C   UNL     1      17.546  21.665  43.540  1.00  0.00     0.016 A 
ATOM     41  C   UNL     1      14.763  21.300  43.340  1.00  0.00     0.158 A 
ATOM     42  C   UNL     1      16.961  20.464  43.956  1.00  0.00     0.051 A 
ATOM     43  C   UNL     1      15.574  20.261  43.845  1.00  0.00     0.157 A 
BRANCH  41  44
ATOM     44  O   UNL     1      13.381  21.178  43.186  1.00  0.00    -0.504 OA
ATOM     45  H   UNL     1      12.944  20.584  42.493  1.00  0.00     0.293 HD
ENDBRANCH  41  44
BRANCH  43  46
ATOM     46  O   UNL     1      15.059  19.019  44.239  1.00  0.00    -0.504 OA
ATOM     47  H   UNL     1      14.380  18.498  43.696  1.00  0.00     0.293 HD
ENDBRANCH  43  46
ENDBRANCH  28  38
BRANCH  34  48
ATOM     48  O   UNL     1      19.928  27.903  40.565  1.00  0.00    -0.507 OA
ATOM     49  H   UNL     1      19.524  28.412  41.341  1.00  0.00     0.293 HD
ENDBRANCH  34  48
BRANCH  37  50
ATOM     50  O   UNL     1      19.531  24.994  36.774  1.00  0.00    -0.508 OA
ATOM     51  H   UNL     1      20.060  24.186  36.472  1.00  0.00     0.293 HD
ENDBRANCH  37  50
ENDBRANCH  26  27
ENDBRANCH   5  26
BRANCH   4  52
ATOM     52  O   UNL     1      17.629  27.533  45.316  1.00  0.00    -0.384 OA
ATOM     53  H   UNL     1      18.202  27.243  44.557  1.00  0.00     0.211 HD
ENDBRANCH   4  52
TORSDOF 16
ENDMDL
MODEL 3
REMARK VINA RESULT:    -7.104      1.378      1.904
REMARK INTER + INTRA:         -14.283
REMARK INTER:                 -11.931
REMARK INTRA:                  -2.352
REMARK UNBOUND:                -2.611
REMARK SMILES C[C@@H]1O[C@@H](OC[C@@H]2O[C@@H](Oc3c(-c4ccc(O)c(O)c4)oc4cc(O)cc(O)c4c3=O)[C@@H](O)[C@H](O)[C@H]2O)[C@@H](O)[C@H](O)[C@H]1O
REMARK SMILES IDX 7 1 36 2 34 3 32 4 9 5 8 6 6 7 5 8 4 9 1 10 2 11 42 12 3 13
REMARK SMILES IDX 40 14 38 15 43 16 41 18 39 20 37 22 35 24 10 26 11 27 12 28
REMARK SMILES IDX 30 29 21 30 29 31 31 32 22 33 27 34 23 35 26 36 24 37 13 38
REMARK SMILES IDX 20 39 14 40 18 41 15 42 16 43 19 44 17 46 28 48 25 50 33 52
REMARK H PARENT 43 17 41 19 39 21 37 23 35 25 19 45 17 47 28 49 25 51 33 53
REMARK Flexibility Score: inf
ROOT
ATOM      1  C   UNL     1      15.719  23.714  46.538  1.00  0.00     0.180 C 
ATOM      2  C   UNL     1      15.332  24.663  47.697  1.00  0.00     0.177 C 
ATOM      3  C   UNL     1      15.576  26.127  47.238  1.00  0.00     0.180 C 
ATOM      4  C   UNL     1      17.017  26.288  46.725  1.00  0.00     0.214 C 
ATOM      5  C   UNL     1      17.355  25.190  45.701  1.00  0.00     0.339 C 
ATOM      6  O   UNL     1      17.093  23.900  46.215  1.00  0.00    -0.332 OA
ENDROOT
BRANCH   1   7
ATOM      7  C   UNL     1      15.603  22.213  46.892  1.00  0.00     0.198 C 
BRANCH   7   8
ATOM      8  O   UNL     1      16.746  21.505  47.351  1.00  0.00    -0.347 OA
BRANCH   8   9
ATOM      9  C   UNL     1      17.099  20.255  46.776  1.00  0.00     0.281 C 
ATOM     10  C   UNL     1      16.365  17.763  44.901  1.00  0.00     0.041 C 
ATOM     11  C   UNL     1      15.511  18.663  45.808  1.00  0.00     0.150 C 
ATOM     12  C   UNL     1      15.182  18.037  47.207  1.00  0.00     0.174 C 
ATOM     13  O   UNL     1      16.049  19.980  45.841  1.00  0.00    -0.344 OA
ATOM     14  C   UNL     1      16.021  18.633  48.345  1.00  0.00     0.179 C 
ATOM     15  C   UNL     1      17.352  19.103  47.788  1.00  0.00     0.202 C 
BRANCH  12  16
ATOM     16  O   UNL     1      13.821  18.215  47.530  1.00  0.00    -0.388 OA
ATOM     17  H   UNL     1      13.597  19.159  47.323  1.00  0.00     0.211 HD
ENDBRANCH  12  16
BRANCH  14  18
ATOM     18  O   UNL     1      16.240  17.656  49.333  1.00  0.00    -0.387 OA
ATOM     19  H   UNL     1      17.163  17.796  49.675  1.00  0.00     0.211 HD
ENDBRANCH  14  18
BRANCH  15  20
ATOM     20  O   UNL     1      18.210  19.478  48.833  1.00  0.00    -0.385 OA
ATOM     21  H   UNL     1      18.659  18.654  49.159  1.00  0.00     0.211 HD
ENDBRANCH  15  20
ENDBRANCH   8   9
ENDBRANCH   7   8
ENDBRANCH   1   7
BRANCH   2  22
ATOM     22  O   UNL     1      13.990  24.478  48.090  1.00  0.00    -0.387 OA
ATOM     23  H   UNL     1      13.411  25.001  47.476  1.00  0.00     0.211 HD
ENDBRANCH   2  22
BRANCH   3  24
ATOM     24  O   UNL     1      15.352  27.007  48.316  1.00  0.00    -0.387 OA
ATOM     25  H   UNL     1      15.166  27.899  47.912  1.00  0.00     0.211 HD
ENDBRANCH   3  24
BRANCH   5  26
ATOM     26  O   UNL     1      16.629  25.410  44.488  1.00  0.00    -0.454 OA
BRANCH  26  27
ATOM     27  C   UNL     1      17.184  25.487  43.197  1.00  0.00     0.214 A 
ATOM     28  C   UNL     1      16.639  24.648  42.221  1.00  0.00     0.180 A 
ATOM     29  C   UNL     1      18.239  26.354  42.835  1.00  0.00     0.239 A 
ATOM     30  O   UNL     1      17.017  24.750  40.953  1.00  0.00    -0.452 OA
ATOM     31  C   UNL     1      18.702  26.362  41.493  1.00  0.00     0.111 A 
ATOM     32  O   UNL     1      18.733  27.117  43.699  1.00  0.00    -0.285 OA
ATOM     33  C   UNL     1      17.990  25.571  40.552  1.00  0.00     0.146 A 
ATOM     34  C   UNL     1      19.812  27.135  41.027  1.00  0.00     0.134 A 
ATOM     35  C   UNL     1      18.305  25.635  39.187  1.00  0.00     0.094 A 
ATOM     36  C   UNL     1      20.086  27.197  39.661  1.00  0.00     0.093 A 
ATOM     37  C   UNL     1      19.334  26.464  38.738  1.00  0.00     0.123 A 
BRANCH  28  38
ATOM     38  C   UNL     1      15.604  23.697  42.625  1.00  0.00     0.025 A 
ATOM     39  C   UNL     1      14.272  23.970  42.309  1.00  0.00     0.062 A 
ATOM     40  C   UNL     1      15.969  22.415  43.057  1.00  0.00     0.016 A 
ATOM     41  C   UNL     1      13.305  22.961  42.335  1.00  0.00     0.158 A 
ATOM     42  C   UNL     1      15.006  21.401  43.100  1.00  0.00     0.051 A 
ATOM     43  C   UNL     1      13.675  21.655  42.725  1.00  0.00     0.157 A 
BRANCH  41  44
ATOM     44  O   UNL     1      12.009  23.296  41.938  1.00  0.00    -0.504 OA
ATOM     45  H   UNL     1      11.732  23.411  40.972  1.00  0.00     0.293 HD
ENDBRANCH  41  44
BRANCH  43  46
ATOM     46  O   UNL     1      12.770  20.585  42.750  1.00  0.00    -0.504 OA
ATOM     47  H   UNL     1      12.239  20.283  41.941  1.00  0.00     0.293 HD
ENDBRANCH  43  46
ENDBRANCH  28  38
BRANCH  34  48
ATOM     48  O   UNL     1      20.695  27.813  41.879  1.00  0.00    -0.507 OA
ATOM     49  H   UNL     1      21.202  28.647  41.614  1.00  0.00     0.293 HD
ENDBRANCH  34  48
BRANCH  37  50
ATOM     50  O   UNL     1      19.617  26.567  37.375  1.00  0.00    -0.508 OA
ATOM     51  H   UNL     1      20.053  25.810  36.866  1.00  0.00     0.293 HD
ENDBRANCH  37  50
ENDBRANCH  26  27
ENDBRANCH   5  26
BRANCH   4  52
ATOM     52  O   UNL     1      17.179  27.541  46.120  1.00  0.00    -0.384 OA
ATOM     53  H   UNL     1      16.276  27.856  45.849  1.00  0.00     0.211 HD
ENDBRANCH   4  52
TORSDOF 16
ENDMDL
MODEL 4
REMARK VINA RESULT:    -7.081      2.853      8.194
REMARK INTER + INTRA:         -14.245
REMARK INTER:                 -12.766
REMARK INTRA:                  -1.479
REMARK UNBOUND:                -2.611
REMARK SMILES C[C@@H]1O[C@@H](OC[C@@H]2O[C@@H](Oc3c(-c4ccc(O)c(O)c4)oc4cc(O)cc(O)c4c3=O)[C@@H](O)[C@H](O)[C@H]2O)[C@@H](O)[C@H](O)[C@H]1O
REMARK SMILES IDX 7 1 36 2 34 3 32 4 9 5 8 6 6 7 5 8 4 9 1 10 2 11 42 12 3 13
REMARK SMILES IDX 40 14 38 15 43 16 41 18 39 20 37 22 35 24 10 26 11 27 12 28
REMARK SMILES IDX 30 29 21 30 29 31 31 32 22 33 27 34 23 35 26 36 24 37 13 38
REMARK SMILES IDX 20 39 14 40 18 41 15 42 16 43 19 44 17 46 28 48 25 50 33 52
REMARK H PARENT 43 17 41 19 39 21 37 23 35 25 19 45 17 47 28 49 25 51 33 53
REMARK Flexibility Score: inf
ROOT
ATOM      1  C   UNL     1      17.979  24.820  42.354  1.00  0.00     0.180 C 
ATOM      2  C   UNL     1      18.854  26.096  42.314  1.00  0.00     0.177 C 
ATOM      3  C   UNL     1      19.025  26.622  43.765  1.00  0.00     0.180 C 
ATOM      4  C   UNL     1      17.649  26.802  44.430  1.00  0.00     0.214 C 
ATOM      5  C   UNL     1      16.796  25.532  44.263  1.00  0.00     0.339 C 
ATOM      6  O   UNL     1      16.708  25.138  42.910  1.00  0.00    -0.332 OA
ENDROOT
BRANCH   1   7
ATOM      7  C   UNL     1      17.659  24.236  40.958  1.00  0.00     0.198 C 
BRANCH   7   8
ATOM      8  O   UNL     1      18.581  23.354  40.334  1.00  0.00    -0.347 OA
BRANCH   8   9
ATOM      9  C   UNL     1      19.404  23.805  39.268  1.00  0.00     0.281 C 
ATOM     10  C   UNL     1      19.712  24.799  36.238  1.00  0.00     0.041 C 
ATOM     11  C   UNL     1      18.764  23.791  36.905  1.00  0.00     0.150 C 
ATOM     12  C   UNL     1      19.191  22.293  36.729  1.00  0.00     0.174 C 
ATOM     13  O   UNL     1      18.482  24.191  38.241  1.00  0.00    -0.344 OA
ATOM     14  C   UNL     1      19.820  21.694  37.994  1.00  0.00     0.179 C 
ATOM     15  C   UNL     1      20.489  22.801  38.789  1.00  0.00     0.202 C 
BRANCH  12  16
ATOM     16  O   UNL     1      18.087  21.493  36.371  1.00  0.00    -0.388 OA
ATOM     17  H   UNL     1      17.327  21.779  36.942  1.00  0.00     0.211 HD
ENDBRANCH  12  16
BRANCH  14  18
ATOM     18  O   UNL     1      20.775  20.726  37.635  1.00  0.00    -0.387 OA
ATOM     19  H   UNL     1      21.669  21.127  37.807  1.00  0.00     0.211 HD
ENDBRANCH  14  18
BRANCH  15  20
ATOM     20  O   UNL     1      21.229  22.256  39.848  1.00  0.00    -0.385 OA
ATOM     21  H   UNL     1      22.178  22.518  39.714  1.00  0.00     0.211 HD
ENDBRANCH  15  20
ENDBRANCH   8   9
ENDBRANCH   7   8
ENDBRANCH   1   7
BRANCH   2  22
ATOM     22  O   UNL     1      20.108  25.845  41.721  1.00  0.00    -0.387 OA
ATOM     23  H   UNL     1      20.588  26.709  41.628  1.00  0.00     0.211 HD
ENDBRANCH   2  22
BRANCH   3  24
ATOM     24  O   UNL     1      19.712  27.853  43.748  1.00  0.00    -0.387 OA
ATOM     25  H   UNL     1      20.656  27.648  43.991  1.00  0.00     0.211 HD
ENDBRANCH   3  24
BRANCH   5  26
ATOM     26  O   UNL     1      17.328  24.475  45.067  1.00  0.00    -0.454 OA
BRANCH  26  27
ATOM     27  C   UNL     1      16.679  23.264  45.372  1.00  0.00     0.214 A 
ATOM     28  C   UNL     1      15.593  23.329  46.250  1.00  0.00     0.180 A 
ATOM     29  C   UNL     1      17.052  22.007  44.844  1.00  0.00     0.239 A 
ATOM     30  O   UNL     1      14.850  22.256  46.487  1.00  0.00    -0.452 OA
ATOM     31  C   UNL     1      16.307  20.854  45.205  1.00  0.00     0.111 A 
ATOM     32  O   UNL     1      18.020  21.936  44.050  1.00  0.00    -0.285 OA
ATOM     33  C   UNL     1      15.141  21.050  45.994  1.00  0.00     0.146 A 
ATOM     34  C   UNL     1      16.636  19.522  44.800  1.00  0.00     0.134 A 
ATOM     35  C   UNL     1      14.284  19.976  46.273  1.00  0.00     0.094 A 
ATOM     36  C   UNL     1      15.752  18.479  45.073  1.00  0.00     0.093 A 
ATOM     37  C   UNL     1      14.574  18.698  45.795  1.00  0.00     0.123 A 
BRANCH  28  38
ATOM     38  C   UNL     1      15.267  24.621  46.853  1.00  0.00     0.025 A 
ATOM     39  C   UNL     1      14.084  25.262  46.482  1.00  0.00     0.062 A 
ATOM     40  C   UNL     1      15.973  25.058  47.981  1.00  0.00     0.016 A 
ATOM     41  C   UNL     1      13.544  26.285  47.267  1.00  0.00     0.158 A 
ATOM     42  C   UNL     1      15.449  26.091  48.766  1.00  0.00     0.051 A 
ATOM     43  C   UNL     1      14.227  26.701  48.430  1.00  0.00     0.157 A 
BRANCH  41  44
ATOM     44  O   UNL     1      12.321  26.829  46.868  1.00  0.00    -0.504 OA
ATOM     45  H   UNL     1      11.428  26.391  47.049  1.00  0.00     0.293 HD
ENDBRANCH  41  44
BRANCH  43  46
ATOM     46  O   UNL     1      13.736  27.700  49.283  1.00  0.00    -0.504 OA
ATOM     47  H   UNL     1      13.947  28.685  49.169  1.00  0.00     0.293 HD
ENDBRANCH  43  46
ENDBRANCH  28  38
BRANCH  34  48
ATOM     48  O   UNL     1      17.842  19.179  44.174  1.00  0.00    -0.507 OA
ATOM     49  H   UNL     1      18.569  18.632  44.616  1.00  0.00     0.293 HD
ENDBRANCH  34  48
BRANCH  37  50
ATOM     50  O   UNL     1      13.697  17.638  46.029  1.00  0.00    -0.508 OA
ATOM     51  H   UNL     1      13.772  17.062  46.857  1.00  0.00     0.293 HD
ENDBRANCH  37  50
ENDBRANCH  26  27
ENDBRANCH   5  26
BRANCH   4  52
ATOM     52  O   UNL     1      17.803  27.073  45.795  1.00  0.00    -0.384 OA
ATOM     53  H   UNL     1      17.035  26.654  46.267  1.00  0.00     0.211 HD
ENDBRANCH   4  52
TORSDOF 16
ENDMDL
MODEL 5
REMARK VINA RESULT:    -7.009      3.327      9.093
REMARK INTER + INTRA:         -14.126
REMARK INTER:                 -13.370
REMARK INTRA:                  -0.756
REMARK UNBOUND:                -2.611
REMARK SMILES C[C@@H]1O[C@@H](OC[C@@H]2O[C@@H](Oc3c(-c4ccc(O)c(O)c4)oc4cc(O)cc(O)c4c3=O)[C@@H](O)[C@H](O)[C@H]2O)[C@@H](O)[C@H](O)[C@H]1O
REMARK SMILES IDX 7 1 36 2 34 3 32 4 9 5 8 6 6 7 5 8 4 9 1 10 2 11 42 12 3 13
REMARK SMILES IDX 40 14 38 15 43 16 41 18 39 20 37 22 35 24 10 26 11 27 12 28
REMARK SMILES IDX 30 29 21 30 29 31 31 32 22 33 27 34 23 35 26 36 24 37 13 38
REMARK SMILES IDX 20 39 14 40 18 41 15 42 16 43 19 44 17 46 28 48 25 50 33 52
REMARK H PARENT 43 17 41 19 39 21 37 23 35 25 19 45 17 47 28 49 25 51 33 53
REMARK Flexibility Score: inf
ROOT
ATOM      1  C   UNL     1      19.824  24.161  41.050  1.00  0.00     0.180 C 
ATOM      2  C   UNL     1      19.906  25.591  40.465  1.00  0.00     0.177 C 
ATOM      3  C   UNL     1      19.135  26.555  41.408  1.00  0.00     0.180 C 
ATOM      4  C   UNL     1      17.707  26.035  41.646  1.00  0.00     0.214 C 
ATOM      5  C   UNL     1      17.731  24.553  42.060  1.00  0.00     0.339 C 
ATOM      6  O   UNL     1      18.459  23.767  41.140  1.00  0.00    -0.332 OA
ENDROOT
BRANCH   1   7
ATOM      7  C   UNL     1      20.484  23.082  40.162  1.00  0.00     0.198 C 
BRANCH   7   8
ATOM      8  O   UNL     1      19.729  22.456  39.133  1.00  0.00    -0.347 OA
BRANCH   8   9
ATOM      9  C   UNL     1      20.085  22.631  37.769  1.00  0.00     0.281 C 
ATOM     10  C   UNL     1      20.372  24.528  35.203  1.00  0.00     0.041 C 
ATOM     11  C   UNL     1      19.368  24.504  36.366  1.00  0.00     0.150 C 
ATOM     12  C   UNL     1      18.004  23.813  36.022  1.00  0.00     0.174 C 
ATOM     13  O   UNL     1      20.002  24.045  37.554  1.00  0.00    -0.344 OA
ATOM     14  C   UNL     1      17.877  22.404  36.617  1.00  0.00     0.179 C 
ATOM     15  C   UNL     1      19.260  21.794  36.751  1.00  0.00     0.202 C 
BRANCH  12  16
ATOM     16  O   UNL     1      16.918  24.582  36.489  1.00  0.00    -0.388 OA
ATOM     17  H   UNL     1      17.289  25.451  36.792  1.00  0.00     0.211 HD
ENDBRANCH  12  16
BRANCH  14  18
ATOM     18  O   UNL     1      17.087  21.604  35.772  1.00  0.00    -0.387 OA
ATOM     19  H   UNL     1      17.595  21.494  34.924  1.00  0.00     0.211 HD
ENDBRANCH  14  18
BRANCH  15  20
ATOM     20  O   UNL     1      19.161  20.443  37.114  1.00  0.00    -0.385 OA
ATOM     21  H   UNL     1      18.957  20.410  38.086  1.00  0.00     0.211 HD
ENDBRANCH  15  20
ENDBRANCH   8   9
ENDBRANCH   7   8
ENDBRANCH   1   7
BRANCH   2  22
ATOM     22  O   UNL     1      21.243  26.009  40.307  1.00  0.00    -0.387 OA
ATOM     23  H   UNL     1      21.815  25.201  40.234  1.00  0.00     0.211 HD
ENDBRANCH   2  22
BRANCH   3  24
ATOM     24  O   UNL     1      19.085  27.843  40.837  1.00  0.00    -0.387 OA
ATOM     25  H   UNL     1      18.795  28.459  41.564  1.00  0.00     0.211 HD
ENDBRANCH   3  24
BRANCH   5  26
ATOM     26  O   UNL     1      18.269  24.421  43.379  1.00  0.00    -0.454 OA
BRANCH  26  27
ATOM     27  C   UNL     1      17.787  23.564  44.385  1.00  0.00     0.214 A 
ATOM     28  C   UNL     1      17.520  24.135  45.633  1.00  0.00     0.180 A 
ATOM     29  C   UNL     1      17.554  22.181  44.208  1.00  0.00     0.239 A 
ATOM     30  O   UNL     1      16.943  23.424  46.592  1.00  0.00    -0.452 OA
ATOM     31  C   UNL     1      17.042  21.418  45.290  1.00  0.00     0.111 A 
ATOM     32  O   UNL     1      17.783  21.657  43.092  1.00  0.00    -0.285 OA
ATOM     33  C   UNL     1      16.678  22.122  46.469  1.00  0.00     0.146 A 
ATOM     34  C   UNL     1      16.842  20.002  45.255  1.00  0.00     0.134 A 
ATOM     35  C   UNL     1      16.041  21.456  47.526  1.00  0.00     0.094 A 
ATOM     36  C   UNL     1      16.185  19.372  46.312  1.00  0.00     0.093 A 
ATOM     37  C   UNL     1      15.772  20.089  47.439  1.00  0.00     0.123 A 
BRANCH  28  38
ATOM     38  C   UNL     1      17.841  25.548  45.829  1.00  0.00     0.025 A 
ATOM     39  C   UNL     1      18.978  26.076  45.214  1.00  0.00     0.062 A 
ATOM     40  C   UNL     1      16.880  26.409  46.375  1.00  0.00     0.016 A 
ATOM     41  C   UNL     1      19.136  27.457  45.059  1.00  0.00     0.158 A 
ATOM     42  C   UNL     1      17.036  27.793  46.238  1.00  0.00     0.051 A 
ATOM     43  C   UNL     1      18.149  28.329  45.567  1.00  0.00     0.157 A 
BRANCH  41  44
ATOM     44  O   UNL     1      20.266  27.905  44.371  1.00  0.00    -0.504 OA
ATOM     45  H   UNL     1      21.202  27.879  44.755  1.00  0.00     0.293 HD
ENDBRANCH  41  44
BRANCH  43  46
ATOM     46  O   UNL     1      18.223  29.722  45.427  1.00  0.00    -0.504 OA
ATOM     47  H   UNL     1      17.637  30.251  44.791  1.00  0.00     0.293 HD
ENDBRANCH  43  46
ENDBRANCH  28  38
BRANCH  34  48
ATOM     48  O   UNL     1      17.318  19.178  44.227  1.00  0.00    -0.507 OA
ATOM     49  H   UNL     1      18.107  19.411  43.639  1.00  0.00     0.293 HD
ENDBRANCH  34  48
BRANCH  37  50
ATOM     50  O   UNL     1      15.094  19.433  48.468  1.00  0.00    -0.508 OA
ATOM     51  H   UNL     1      14.292  18.845  48.283  1.00  0.00     0.293 HD
ENDBRANCH  37  50
ENDBRANCH  26  27
ENDBRANCH   5  26
BRANCH   4  52
ATOM     52  O   UNL     1      17.080  26.780  42.652  1.00  0.00    -0.384 OA
ATOM     53  H   UNL     1      17.440  27.706  42.601  1.00  0.00     0.211 HD
ENDBRANCH   4  52
TORSDOF 16
ENDMDL
MODEL 6
REMARK VINA RESULT:    -6.952      1.837      4.453
REMARK INTER + INTRA:         -14.033
REMARK INTER:                 -11.310
REMARK INTRA:                  -2.722
REMARK UNBOUND:                -2.611
REMARK SMILES C[C@@H]1O[C@@H](OC[C@@H]2O[C@@H](Oc3c(-c4ccc(O)c(O)c4)oc4cc(O)cc(O)c4c3=O)[C@@H](O)[C@H](O)[C@H]2O)[C@@H](O)[C@H](O)[C@H]1O
REMARK SMILES IDX 7 1 36 2 34 3 32 4 9 5 8 6 6 7 5 8 4 9 1 10 2 11 42 12 3 13
REMARK SMILES IDX 40 14 38 15 43 16 41 18 39 20 37 22 35 24 10 26 11 27 12 28
REMARK SMILES IDX 30 29 21 30 29 31 31 32 22 33 27 34 23 35 26 36 24 37 13 38
REMARK SMILES IDX 20 39 14 40 18 41 15 42 16 43 19 44 17 46 28 48 25 50 33 52
REMARK H PARENT 43 17 41 19 39 21 37 23 35 25 19 45 17 47 28 49 25 51 33 53
REMARK Flexibility Score: inf
ROOT
ATOM      1  C   UNL     1      14.013  21.963  44.230  1.00  0.00     0.180 C 
ATOM      2  C   UNL     1      13.030  21.403  43.175  1.00  0.00     0.177 C 
ATOM      3  C   UNL     1      13.447  21.939  41.778  1.00  0.00     0.180 C 
ATOM      4  C   UNL     1      13.556  23.474  41.811  1.00  0.00     0.214 C 
ATOM      5  C   UNL     1      14.419  23.931  43.000  1.00  0.00     0.339 C 
ATOM      6  O   UNL     1      13.957  23.385  44.218  1.00  0.00    -0.332 OA
ENDROOT
BRANCH   1   7
ATOM      7  C   UNL     1      13.662  21.571  45.684  1.00  0.00     0.198 C 
BRANCH   7   8
ATOM      8  O   UNL     1      14.687  21.130  46.564  1.00  0.00    -0.347 OA
BRANCH   8   9
ATOM      9  C   UNL     1      14.658  19.816  47.104  1.00  0.00     0.281 C 
ATOM     10  C   UNL     1      15.312  17.794  49.501  1.00  0.00     0.041 C 
ATOM     11  C   UNL     1      16.034  19.045  48.976  1.00  0.00     0.150 C 
ATOM     12  C   UNL     1      17.254  18.738  48.041  1.00  0.00     0.174 C 
ATOM     13  O   UNL     1      15.090  19.977  48.461  1.00  0.00    -0.344 OA
ATOM     14  C   UNL     1      16.947  18.972  46.556  1.00  0.00     0.179 C 
ATOM     15  C   UNL     1      15.466  18.751  46.312  1.00  0.00     0.202 C 
BRANCH  12  16
ATOM     16  O   UNL     1      18.366  19.532  48.387  1.00  0.00    -0.388 OA
ATOM     17  H   UNL     1      18.298  19.715  49.360  1.00  0.00     0.211 HD
ENDBRANCH  12  16
BRANCH  14  18
ATOM     18  O   UNL     1      17.695  18.076  45.771  1.00  0.00    -0.387 OA
ATOM     19  H   UNL     1      18.640  18.150  46.075  1.00  0.00     0.211 HD
ENDBRANCH  14  18
BRANCH  15  20
ATOM     20  O   UNL     1      15.192  18.774  44.937  1.00  0.00    -0.385 OA
ATOM     21  H   UNL     1      14.899  19.695  44.707  1.00  0.00     0.211 HD
ENDBRANCH  15  20
ENDBRANCH   8   9
ENDBRANCH   7   8
ENDBRANCH   1   7
BRANCH   2  22
ATOM     22  O   UNL     1      13.010  19.993  43.184  1.00  0.00    -0.387 OA
ATOM     23  H   UNL     1      12.474  19.694  43.964  1.00  0.00     0.211 HD
ENDBRANCH   2  22
BRANCH   3  24
ATOM     24  O   UNL     1      12.497  21.549  40.814  1.00  0.00    -0.387 OA
ATOM     25  H   UNL     1      12.820  21.908  39.942  1.00  0.00     0.211 HD
ENDBRANCH   3  24
BRANCH   5  26
ATOM     26  O   UNL     1      15.788  23.587  42.775  1.00  0.00    -0.454 OA
BRANCH  26  27
ATOM     27  C   UNL     1      16.858  24.493  42.653  1.00  0.00     0.214 A 
ATOM     28  C   UNL     1      17.356  25.050  43.835  1.00  0.00     0.180 A 
ATOM     29  C   UNL     1      17.452  24.862  41.426  1.00  0.00     0.239 A 
ATOM     30  O   UNL     1      18.443  25.810  43.819  1.00  0.00    -0.452 OA
ATOM     31  C   UNL     1      18.544  25.769  41.427  1.00  0.00     0.111 A 
ATOM     32  O   UNL     1      17.019  24.366  40.358  1.00  0.00    -0.285 OA
ATOM     33  C   UNL     1      19.059  26.169  42.690  1.00  0.00     0.146 A 
ATOM     34  C   UNL     1      19.173  26.277  40.247  1.00  0.00     0.134 A 
ATOM     35  C   UNL     1      20.218  26.953  42.769  1.00  0.00     0.094 A 
ATOM     36  C   UNL     1      20.339  27.035  40.357  1.00  0.00     0.093 A 
ATOM     37  C   UNL     1      20.872  27.366  41.607  1.00  0.00     0.123 A 
BRANCH  28  38
ATOM     38  C   UNL     1      16.681  24.724  45.091  1.00  0.00     0.025 A 
ATOM     39  C   UNL     1      17.072  23.583  45.794  1.00  0.00     0.062 A 
ATOM     40  C   UNL     1      15.874  25.685  45.714  1.00  0.00     0.016 A 
ATOM     41  C   UNL     1      16.739  23.419  47.141  1.00  0.00     0.158 A 
ATOM     42  C   UNL     1      15.522  25.523  47.059  1.00  0.00     0.051 A 
ATOM     43  C   UNL     1      15.963  24.404  47.789  1.00  0.00     0.157 A 
BRANCH  41  44
ATOM     44  O   UNL     1      17.225  22.285  47.794  1.00  0.00    -0.504 OA
ATOM     45  H   UNL     1      18.205  22.129  47.992  1.00  0.00     0.293 HD
ENDBRANCH  41  44
BRANCH  43  46
ATOM     46  O   UNL     1      15.612  24.326  49.144  1.00  0.00    -0.504 OA
ATOM     47  H   UNL     1      15.126  23.534  49.550  1.00  0.00     0.293 HD
ENDBRANCH  43  46
ENDBRANCH  28  38
BRANCH  34  48
ATOM     48  O   UNL     1      18.656  26.100  38.957  1.00  0.00    -0.507 OA
ATOM     49  H   UNL     1      17.833  26.575  38.610  1.00  0.00     0.293 HD
ENDBRANCH  34  48
BRANCH  37  50
ATOM     50  O   UNL     1      22.054  28.104  41.683  1.00  0.00    -0.508 OA
ATOM     51  H   UNL     1      22.928  27.677  41.958  1.00  0.00     0.293 HD
ENDBRANCH  37  50
ENDBRANCH  26  27
ENDBRANCH   5  26
BRANCH   4  52
ATOM     52  O   UNL     1      14.131  23.944  40.623  1.00  0.00    -0.384 OA
ATOM     53  H   UNL     1      14.444  23.150  40.112  1.00  0.00     0.211 HD
ENDBRANCH   4  52
TORSDOF 16
ENDMDL
MODEL 7
REMARK VINA RESULT:    -6.945      2.392      8.241
REMARK INTER + INTRA:         -14.021
REMARK INTER:                 -12.155
REMARK INTRA:                  -1.866
REMARK UNBOUND:                -2.611
REMARK SMILES C[C@@H]1O[C@@H](OC[C@@H]2O[C@@H](Oc3c(-c4ccc(O)c(O)c4)oc4cc(O)cc(O)c4c3=O)[C@@H](O)[C@H](O)[C@H]2O)[C@@H](O)[C@H](O)[C@H]1O
REMARK SMILES IDX 7 1 36 2 34 3 32 4 9 5 8 6 6 7 5 8 4 9 1 10 2 11 42 12 3 13
REMARK SMILES IDX 40 14 38 15 43 16 41 18 39 20 37 22 35 24 10 26 11 27 12 28
REMARK SMILES IDX 30 29 21 30 29 31 31 32 22 33 27 34 23 35 26 36 24 37 13 38
REMARK SMILES IDX 20 39 14 40 18 41 15 42 16 43 19 44 17 46 28 48 25 50 33 52
REMARK H PARENT 43 17 41 19 39 21 37 23 35 25 19 45 17 47 28 49 25 51 33 53
REMARK Flexibility Score: inf
ROOT
ATOM      1  C   UNL     1      18.590  25.666  42.902  1.00  0.00     0.180 C 
ATOM      2  C   UNL     1      19.432  26.942  43.142  1.00  0.00     0.177 C 
ATOM      3  C   UNL     1      19.318  27.333  44.641  1.00  0.00     0.180 C 
ATOM      4  C   UNL     1      17.838  27.447  45.048  1.00  0.00     0.214 C 
ATOM      5  C   UNL     1      17.057  26.196  44.611  1.00  0.00     0.339 C 
ATOM      6  O   UNL     1      17.232  25.927  43.235  1.00  0.00    -0.332 OA
ENDROOT
BRANCH   1   7
ATOM      7  C   UNL     1      18.549  25.211  41.425  1.00  0.00     0.198 C 
BRANCH   7   8
ATOM      8  O   UNL     1      19.727  24.713  40.806  1.00  0.00    -0.347 OA
BRANCH   8   9
ATOM      9  C   UNL     1      19.980  24.962  39.430  1.00  0.00     0.281 C 
ATOM     10  C   UNL     1      19.438  26.680  36.782  1.00  0.00     0.041 C 
ATOM     11  C   UNL     1      18.535  26.279  37.959  1.00  0.00     0.150 C 
ATOM     12  C   UNL     1      17.603  25.054  37.665  1.00  0.00     0.174 C 
ATOM     13  O   UNL     1      19.298  26.192  39.156  1.00  0.00    -0.344 OA
ATOM     14  C   UNL     1      18.092  23.755  38.321  1.00  0.00     0.179 C 
ATOM     15  C   UNL     1      19.602  23.807  38.462  1.00  0.00     0.202 C 
BRANCH  12  16
ATOM     16  O   UNL     1      16.290  25.301  38.113  1.00  0.00    -0.388 OA
ATOM     17  H   UNL     1      16.190  24.834  38.983  1.00  0.00     0.211 HD
ENDBRANCH  12  16
BRANCH  14  18
ATOM     18  O   UNL     1      17.728  22.656  37.523  1.00  0.00    -0.387 OA
ATOM     19  H   UNL     1      17.033  22.154  38.028  1.00  0.00     0.211 HD
ENDBRANCH  14  18
BRANCH  15  20
ATOM     20  O   UNL     1      20.092  22.562  38.884  1.00  0.00    -0.385 OA
ATOM     21  H   UNL     1      20.539  22.139  38.105  1.00  0.00     0.211 HD
ENDBRANCH  15  20
ENDBRANCH   8   9
ENDBRANCH   7   8
ENDBRANCH   1   7
BRANCH   2  22
ATOM     22  O   UNL     1      20.780  26.749  42.776  1.00  0.00    -0.387 OA
ATOM     23  H   UNL     1      21.352  27.028  43.538  1.00  0.00     0.211 HD
ENDBRANCH   2  22
BRANCH   3  24
ATOM     24  O   UNL     1      19.971  28.561  44.864  1.00  0.00    -0.387 OA
ATOM     25  H   UNL     1      20.767  28.355  45.427  1.00  0.00     0.211 HD
ENDBRANCH   3  24
BRANCH   5  26
ATOM     26  O   UNL     1      17.449  25.071  45.402  1.00  0.00    -0.454 OA
BRANCH  26  27
ATOM     27  C   UNL     1      16.740  23.862  45.525  1.00  0.00     0.214 A 
ATOM     28  C   UNL     1      15.627  23.861  46.372  1.00  0.00     0.180 A 
ATOM     29  C   UNL     1      17.077  22.668  44.848  1.00  0.00     0.239 A 
ATOM     30  O   UNL     1      14.832  22.802  46.444  1.00  0.00    -0.452 OA
ATOM     31  C   UNL     1      16.273  21.513  45.032  1.00  0.00     0.111 A 
ATOM     32  O   UNL     1      18.069  22.656  44.081  1.00  0.00    -0.285 OA
ATOM     33  C   UNL     1      15.090  21.659  45.806  1.00  0.00     0.146 A 
ATOM     34  C   UNL     1      16.560  20.232  44.465  1.00  0.00     0.134 A 
ATOM     35  C   UNL     1      14.179  20.599  45.916  1.00  0.00     0.094 A 
ATOM     36  C   UNL     1      15.623  19.204  44.573  1.00  0.00     0.093 A 
ATOM     37  C   UNL     1      14.431  19.381  45.282  1.00  0.00     0.123 A 
BRANCH  28  38
ATOM     38  C   UNL     1      15.334  25.078  47.130  1.00  0.00     0.025 A 
ATOM     39  C   UNL     1      14.211  25.833  46.791  1.00  0.00     0.062 A 
ATOM     40  C   UNL     1      15.995  25.316  48.343  1.00  0.00     0.016 A 
ATOM     41  C   UNL     1      13.680  26.772  47.682  1.00  0.00     0.158 A 
ATOM     42  C   UNL     1      15.481  26.264  49.234  1.00  0.00     0.051 A 
ATOM     43  C   UNL     1      14.314  26.985  48.924  1.00  0.00     0.157 A 
BRANCH  41  44
ATOM     44  O   UNL     1      12.513  27.437  47.300  1.00  0.00    -0.504 OA
ATOM     45  H   UNL     1      11.629  26.972  47.143  1.00  0.00     0.293 HD
ENDBRANCH  41  44
BRANCH  43  46
ATOM     46  O   UNL     1      13.828  27.888  49.880  1.00  0.00    -0.504 OA
ATOM     47  H   UNL     1      13.746  27.667  50.866  1.00  0.00     0.293 HD
ENDBRANCH  43  46
ENDBRANCH  28  38
BRANCH  34  48
ATOM     48  O   UNL     1      17.772  19.917  43.836  1.00  0.00    -0.507 OA
ATOM     49  H   UNL     1      18.670  19.943  44.300  1.00  0.00     0.293 HD
ENDBRANCH  34  48
BRANCH  37  50
ATOM     50  O   UNL     1      13.503  18.341  45.349  1.00  0.00    -0.508 OA
ATOM     51  H   UNL     1      13.501  17.589  44.674  1.00  0.00     0.293 HD
ENDBRANCH  37  50
ENDBRANCH  26  27
ENDBRANCH   5  26
BRANCH   4  52
ATOM     52  O   UNL     1      17.728  27.592  46.437  1.00  0.00    -0.384 OA
ATOM     53  H   UNL     1      18.488  27.099  46.846  1.00  0.00     0.211 HD
ENDBRANCH   4  52
TORSDOF 16
ENDMDL
MODEL 8
REMARK VINA RESULT:    -6.894      3.005      8.555
REMARK INTER + INTRA:         -13.938
REMARK INTER:                 -12.179
REMARK INTRA:                  -1.759
REMARK UNBOUND:                -2.611
REMARK SMILES C[C@@H]1O[C@@H](OC[C@@H]2O[C@@H](Oc3c(-c4ccc(O)c(O)c4)oc4cc(O)cc(O)c4c3=O)[C@@H](O)[C@H](O)[C@H]2O)[C@@H](O)[C@H](O)[C@H]1O
REMARK SMILES IDX 7 1 36 2 34 3 32 4 9 5 8 6 6 7 5 8 4 9 1 10 2 11 42 12 3 13
REMARK SMILES IDX 40 14 38 15 43 16 41 18 39 20 37 22 35 24 10 26 11 27 12 28
REMARK SMILES IDX 30 29 21 30 29 31 31 32 22 33 27 34 23 35 26 36 24 37 13 38
REMARK SMILES IDX 20 39 14 40 18 41 15 42 16 43 19 44 17 46 28 48 25 50 33 52
REMARK H PARENT 43 17 41 19 39 21 37 23 35 25 19 45 17 47 28 49 25 51 33 53
REMARK Flexibility Score: inf
ROOT
ATOM      1  C   UNL     1      16.962  24.317  42.080  1.00  0.00     0.180 C 
ATOM      2  C   UNL     1      15.980  24.499  40.898  1.00  0.00     0.177 C 
ATOM      3  C   UNL     1      14.581  24.856  41.470  1.00  0.00     0.180 C 
ATOM      4  C   UNL     1      14.151  23.809  42.513  1.00  0.00     0.214 C 
ATOM      5  C   UNL     1      15.270  23.581  43.545  1.00  0.00     0.339 C 
ATOM      6  O   UNL     1      16.498  23.267  42.921  1.00  0.00    -0.332 OA
ENDROOT
BRANCH   1   7
ATOM      7  C   UNL     1      18.381  23.875  41.653  1.00  0.00     0.198 C 
BRANCH   7   8
ATOM      8  O   UNL     1      18.563  23.167  40.434  1.00  0.00    -0.347 OA
BRANCH   8   9
ATOM      9  C   UNL     1      19.387  23.700  39.407  1.00  0.00     0.281 C 
ATOM     10  C   UNL     1      19.702  24.899  36.453  1.00  0.00     0.041 C 
ATOM     11  C   UNL     1      18.762  23.837  37.044  1.00  0.00     0.150 C 
ATOM     12  C   UNL     1      19.210  22.360  36.770  1.00  0.00     0.174 C 
ATOM     13  O   UNL     1      18.467  24.143  38.401  1.00  0.00    -0.344 OA
ATOM     14  C   UNL     1      19.838  21.685  37.997  1.00  0.00     0.179 C 
ATOM     15  C   UNL     1      20.487  22.743  38.870  1.00  0.00     0.202 C 
BRANCH  12  16
ATOM     16  O   UNL     1      18.118  21.572  36.351  1.00  0.00    -0.388 OA
ATOM     17  H   UNL     1      17.441  22.194  35.978  1.00  0.00     0.211 HD
ENDBRANCH  12  16
BRANCH  14  18
ATOM     18  O   UNL     1      20.808  20.755  37.580  1.00  0.00    -0.387 OA
ATOM     19  H   UNL     1      20.816  20.776  36.586  1.00  0.00     0.211 HD
ENDBRANCH  14  18
BRANCH  15  20
ATOM     20  O   UNL     1      21.228  22.138  39.896  1.00  0.00    -0.385 OA
ATOM     21  H   UNL     1      21.016  22.618  40.739  1.00  0.00     0.211 HD
ENDBRANCH  15  20
ENDBRANCH   8   9
ENDBRANCH   7   8
ENDBRANCH   1   7
BRANCH   2  22
ATOM     22  O   UNL     1      16.425  25.495  40.005  1.00  0.00    -0.387 OA
ATOM     23  H   UNL     1      17.343  25.260  39.709  1.00  0.00     0.211 HD
ENDBRANCH   2  22
BRANCH   3  24
ATOM     24  O   UNL     1      13.637  24.904  40.425  1.00  0.00    -0.387 OA
ATOM     25  H   UNL     1      12.740  24.901  40.860  1.00  0.00     0.211 HD
ENDBRANCH   3  24
BRANCH   5  26
ATOM     26  O   UNL     1      15.405  24.730  44.385  1.00  0.00    -0.454 OA
BRANCH  26  27
ATOM     27  C   UNL     1      15.360  24.735  45.791  1.00  0.00     0.214 A 
ATOM     28  C   UNL     1      16.235  25.602  46.452  1.00  0.00     0.180 A 
ATOM     29  C   UNL     1      14.489  23.932  46.562  1.00  0.00     0.239 A 
ATOM     30  O   UNL     1      16.165  25.761  47.767  1.00  0.00    -0.452 OA
ATOM     31  C   UNL     1      14.515  24.039  47.977  1.00  0.00     0.111 A 
ATOM     32  O   UNL     1      13.694  23.155  45.982  1.00  0.00    -0.285 OA
ATOM     33  C   UNL     1      15.344  25.047  48.540  1.00  0.00     0.146 A 
ATOM     34  C   UNL     1      13.741  23.224  48.862  1.00  0.00     0.134 A 
ATOM     35  C   UNL     1      15.317  25.301  49.918  1.00  0.00     0.094 A 
ATOM     36  C   UNL     1      13.717  23.516  50.226  1.00  0.00     0.093 A 
ATOM     37  C   UNL     1      14.488  24.555  50.758  1.00  0.00     0.123 A 
BRANCH  28  38
ATOM     38  C   UNL     1      17.187  26.369  45.648  1.00  0.00     0.025 A 
ATOM     39  C   UNL     1      17.294  27.745  45.855  1.00  0.00     0.062 A 
ATOM     40  C   UNL     1      18.166  25.697  44.904  1.00  0.00     0.016 A 
ATOM     41  C   UNL     1      18.409  28.455  45.400  1.00  0.00     0.158 A 
ATOM     42  C   UNL     1      19.278  26.402  44.431  1.00  0.00     0.051 A 
ATOM     43  C   UNL     1      19.421  27.777  44.688  1.00  0.00     0.157 A 
BRANCH  41  44
ATOM     44  O   UNL     1      18.477  29.816  45.707  1.00  0.00    -0.504 OA
ATOM     45  H   UNL     1      17.817  30.288  46.311  1.00  0.00     0.293 HD
ENDBRANCH  41  44
BRANCH  43  46
ATOM     46  O   UNL     1      20.581  28.414  44.224  1.00  0.00    -0.504 OA
ATOM     47  H   UNL     1      21.512  28.185  44.552  1.00  0.00     0.293 HD
ENDBRANCH  43  46
ENDBRANCH  28  38
BRANCH  34  48
ATOM     48  O   UNL     1      13.027  22.093  48.447  1.00  0.00    -0.507 OA
ATOM     49  H   UNL     1      13.456  21.201  48.240  1.00  0.00     0.293 HD
ENDBRANCH  34  48
BRANCH  37  50
ATOM     50  O   UNL     1      14.422  24.838  52.123  1.00  0.00    -0.508 OA
ATOM     51  H   UNL     1      15.258  24.966  52.678  1.00  0.00     0.293 HD
ENDBRANCH  37  50
ENDBRANCH  26  27
ENDBRANCH   5  26
BRANCH   4  52
ATOM     52  O   UNL     1      12.995  24.235  43.179  1.00  0.00    -0.384 OA
ATOM     53  H   UNL     1      12.401  24.654  42.501  1.00  0.00     0.211 HD
ENDBRANCH   4  52
TORSDOF 16
ENDMDL
MODEL 9
REMARK VINA RESULT:    -6.817      3.149      8.378
REMARK INTER + INTRA:         -13.811
REMARK INTER:                 -11.948
REMARK INTRA:                  -1.863
REMARK UNBOUND:                -2.611
REMARK SMILES C[C@@H]1O[C@@H](OC[C@@H]2O[C@@H](Oc3c(-c4ccc(O)c(O)c4)oc4cc(O)cc(O)c4c3=O)[C@@H](O)[C@H](O)[C@H]2O)[C@@H](O)[C@H](O)[C@H]1O
REMARK SMILES IDX 7 1 36 2 34 3 32 4 9 5 8 6 6 7 5 8 4 9 1 10 2 11 42 12 3 13
REMARK SMILES IDX 40 14 38 15 43 16 41 18 39 20 37 22 35 24 10 26 11 27 12 28
REMARK SMILES IDX 30 29 21 30 29 31 31 32 22 33 27 34 23 35 26 36 24 37 13 38
REMARK SMILES IDX 20 39 14 40 18 41 15 42 16 43 19 44 17 46 28 48 25 50 33 52
REMARK H PARENT 43 17 41 19 39 21 37 23 35 25 19 45 17 47 28 49 25 51 33 53
REMARK Flexibility Score: inf
ROOT
ATOM      1  C   UNL     1      16.414  23.909  43.224  1.00  0.00     0.180 C 
ATOM      2  C   UNL     1      15.343  23.937  42.107  1.00  0.00     0.177 C 
ATOM      3  C   UNL     1      14.064  24.619  42.668  1.00  0.00     0.180 C 
ATOM      4  C   UNL     1      13.623  23.928  43.970  1.00  0.00     0.214 C 
ATOM      5  C   UNL     1      14.807  23.800  44.944  1.00  0.00     0.339 C 
ATOM      6  O   UNL     1      15.917  23.172  44.335  1.00  0.00    -0.332 OA
ENDROOT
BRANCH   1   7
ATOM      7  C   UNL     1      17.716  23.179  42.823  1.00  0.00     0.198 C 
BRANCH   7   8
ATOM      8  O   UNL     1      18.215  23.299  41.498  1.00  0.00    -0.347 OA
BRANCH   8   9
ATOM      9  C   UNL     1      19.310  24.158  41.214  1.00  0.00     0.281 C 
ATOM     10  C   UNL     1      20.431  27.072  40.496  1.00  0.00     0.041 C 
ATOM     11  C   UNL     1      19.129  26.344  40.129  1.00  0.00     0.150 C 
ATOM     12  C   UNL     1      19.130  25.708  38.696  1.00  0.00     0.174 C 
ATOM     13  O   UNL     1      18.739  25.471  41.183  1.00  0.00    -0.344 OA
ATOM     14  C   UNL     1      19.322  24.186  38.714  1.00  0.00     0.179 C 
ATOM     15  C   UNL     1      20.127  23.800  39.941  1.00  0.00     0.202 C 
BRANCH  12  16
ATOM     16  O   UNL     1      17.926  25.988  38.020  1.00  0.00    -0.388 OA
ATOM     17  H   UNL     1      17.704  25.184  37.482  1.00  0.00     0.211 HD
ENDBRANCH  12  16
BRANCH  14  18
ATOM     18  O   UNL     1      20.006  23.781  37.553  1.00  0.00    -0.387 OA
ATOM     19  H   UNL     1      19.801  24.456  36.851  1.00  0.00     0.211 HD
ENDBRANCH  14  18
BRANCH  15  20
ATOM     20  O   UNL     1      20.476  22.443  39.885  1.00  0.00    -0.385 OA
ATOM     21  H   UNL     1      19.633  21.920  39.827  1.00  0.00     0.211 HD
ENDBRANCH  15  20
ENDBRANCH   8   9
ENDBRANCH   7   8
ENDBRANCH   1   7
BRANCH   2  22
ATOM     22  O   UNL     1      15.809  24.613  40.961  1.00  0.00    -0.387 OA
ATOM     23  H   UNL     1      16.544  24.078  40.562  1.00  0.00     0.211 HD
ENDBRANCH   2  22
BRANCH   3  24
ATOM     24  O   UNL     1      13.029  24.546  41.714  1.00  0.00    -0.387 OA
ATOM     25  H   UNL     1      13.473  24.441  40.828  1.00  0.00     0.211 HD
ENDBRANCH   3  24
BRANCH   5  26
ATOM     26  O   UNL     1      15.167  25.087  45.452  1.00  0.00    -0.454 OA
BRANCH  26  27
ATOM     27  C   UNL     1      15.234  25.450  46.809  1.00  0.00     0.214 A 
ATOM     28  C   UNL     1      16.217  26.375  47.173  1.00  0.00     0.180 A 
ATOM     29  C   UNL     1      14.373  24.946  47.811  1.00  0.00     0.239 A 
ATOM     30  O   UNL     1      16.263  26.865  48.404  1.00  0.00    -0.452 OA
ATOM     31  C   UNL     1      14.519  25.404  49.147  1.00  0.00     0.111 A 
ATOM     32  O   UNL     1      13.483  24.121  47.498  1.00  0.00    -0.285 OA
ATOM     33  C   UNL     1      15.458  26.444  49.381  1.00  0.00     0.146 A 
ATOM     34  C   UNL     1      13.763  24.909  50.256  1.00  0.00     0.134 A 
ATOM     35  C   UNL     1      15.558  27.038  50.648  1.00  0.00     0.094 A 
ATOM     36  C   UNL     1      13.867  25.536  51.497  1.00  0.00     0.093 A 
ATOM     37  C   UNL     1      14.749  26.603  51.698  1.00  0.00     0.123 A 
BRANCH  28  38
ATOM     38  C   UNL     1      17.154  26.828  46.144  1.00  0.00     0.025 A 
ATOM     39  C   UNL     1      17.520  28.174  46.107  1.00  0.00     0.062 A 
ATOM     40  C   UNL     1      17.884  25.886  45.408  1.00  0.00     0.016 A 
ATOM     41  C   UNL     1      18.657  28.591  45.410  1.00  0.00     0.158 A 
ATOM     42  C   UNL     1      19.017  26.295  44.694  1.00  0.00     0.051 A 
ATOM     43  C   UNL     1      19.424  27.641  44.702  1.00  0.00     0.157 A 
BRANCH  41  44
ATOM     44  O   UNL     1      18.997  29.944  45.477  1.00  0.00    -0.504 OA
ATOM     45  H   UNL     1      19.848  30.328  45.087  1.00  0.00     0.293 HD
ENDBRANCH  41  44
BRANCH  43  46
ATOM     46  O   UNL     1      20.592  27.976  44.002  1.00  0.00    -0.504 OA
ATOM     47  H   UNL     1      20.969  28.916  43.963  1.00  0.00     0.293 HD
ENDBRANCH  43  46
ENDBRANCH  28  38
BRANCH  34  48
ATOM     48  O   UNL     1      12.940  23.777  50.188  1.00  0.00    -0.507 OA
ATOM     49  H   UNL     1      12.391  23.528  49.376  1.00  0.00     0.293 HD
ENDBRANCH  34  48
BRANCH  37  50
ATOM     50  O   UNL     1      14.811  27.225  52.946  1.00  0.00    -0.508 OA
ATOM     51  H   UNL     1      15.033  26.707  53.785  1.00  0.00     0.293 HD
ENDBRANCH  37  50
ENDBRANCH  26  27
ENDBRANCH   5  26
BRANCH   4  52
ATOM     52  O   UNL     1      12.602  24.664  44.586  1.00  0.00    -0.384 OA
ATOM     53  H   UNL     1      12.964  25.571  44.772  1.00  0.00     0.211 HD
ENDBRANCH   4  52
TORSDOF 16
ENDMDL
