MODEL 1
REMARK VINA RESULT:    -5.194      0.000      0.000
REMARK INTER + INTRA:         -14.614
REMARK INTER:                 -11.267
REMARK INTRA:                  -3.347
REMARK UNBOUND:                -3.347
REMARK SMILES CCCCCCCCCCCCCCCCCCCCCC(=O)[O-]
REMARK SMILES IDX 12 1 11 2 10 3 9 4 8 5 7 6 6 7 5 8 4 9 3 10 2 11 1 12 13 13
REMARK SMILES IDX 14 14 15 15 16 16 17 17 18 18 19 19 20 20 21 21 22 22 23 23
REMARK SMILES IDX 24 24
REMARK H PARENT
REMARK Flexibility Score: inf
ROOT
ATOM      1  C   UNL     1     -47.841  25.215 -17.039  1.00  0.00     0.000 C 
ENDROOT
BRANCH   1   2
ATOM      2  C   UNL     1     -48.376  24.716 -15.689  1.00  0.00     0.000 C 
BRANCH   2   3
ATOM      3  C   UNL     1     -48.119  25.748 -14.582  1.00  0.00     0.000 C 
BRANCH   3   4
ATOM      4  C   UNL     1     -46.931  25.328 -13.703  1.00  0.00    -0.000 C 
BRANCH   4   5
ATOM      5  C   UNL     1     -45.972  26.494 -13.408  1.00  0.00    -0.000 C 
BRANCH   5   6
ATOM      6  C   UNL     1     -46.013  27.581 -14.496  1.00  0.00    -0.000 C 
BRANCH   6   7
ATOM      7  C   UNL     1     -44.697  27.679 -15.286  1.00  0.00    -0.000 C 
BRANCH   7   8
ATOM      8  C   UNL     1     -44.752  28.739 -16.401  1.00  0.00    -0.000 C 
BRANCH   8   9
ATOM      9  C   UNL     1     -44.432  28.159 -17.792  1.00  0.00    -0.000 C 
BRANCH   9  10
ATOM     10  C   UNL     1     -44.550  26.627 -17.903  1.00  0.00    -0.000 C 
BRANCH  10  11
ATOM     11  C   UNL     1     -44.582  26.133 -19.356  1.00  0.00    -0.003 C 
ATOM     12  C   UNL     1     -43.740  27.029 -20.261  1.00  0.00     0.004 C 
ENDBRANCH  10  11
ENDBRANCH   9  10
ENDBRANCH   8   9
ENDBRANCH   7   8
ENDBRANCH   6   7
ENDBRANCH   5   6
ENDBRANCH   4   5
ENDBRANCH   3   4
ENDBRANCH   2   3
ENDBRANCH   1   2
BRANCH   1  13
ATOM     13  C   UNL     1     -48.822  26.157 -17.755  1.00  0.00     0.000 C 
BRANCH  13  14
ATOM     14  C   UNL     1     -48.199  27.527 -18.073  1.00  0.00     0.000 C 
BRANCH  14  15
ATOM     15  C   UNL     1     -48.507  28.578 -16.994  1.00  0.00     0.000 C 
BRANCH  15  16
ATOM     16  C   UNL     1     -50.015  28.731 -16.727  1.00  0.00     0.000 C 
BRANCH  16  17
ATOM     17  C   UNL     1     -50.362  28.656 -15.231  1.00  0.00     0.000 C 
BRANCH  17  18
ATOM     18  C   UNL     1     -51.829  28.275 -14.984  1.00  0.00     0.000 C 
BRANCH  18  19
ATOM     19  C   UNL     1     -52.210  27.015 -15.774  1.00  0.00     0.000 C 
BRANCH  19  20
ATOM     20  C   UNL     1     -51.551  25.742 -15.221  1.00  0.00     0.006 C 
BRANCH  20  21
ATOM     21  C   UNL     1     -52.551  24.805 -14.532  1.00  0.00     0.053 C 
BRANCH  21  22
ATOM     22  C   UNL     1     -51.895  23.508 -14.173  1.00  0.00     0.041 C 
ATOM     23  O   UNL     1     -51.875  23.118 -12.976  1.00  0.00    -0.550 OA
ATOM     24  O   UNL     1     -51.279  22.744 -15.157  1.00  0.00    -0.550 OA
ENDBRANCH  21  22
ENDBRANCH  20  21
ENDBRANCH  19  20
ENDBRANCH  18  19
ENDBRANCH  17  18
ENDBRANCH  16  17
ENDBRANCH  15  16
ENDBRANCH  14  15
ENDBRANCH  13  14
ENDBRANCH   1  13
TORSDOF 20
ENDMDL
MODEL 2
REMARK VINA RESULT:    -5.169      2.573      7.028
REMARK INTER + INTRA:         -14.560
REMARK INTER:                 -10.874
REMARK INTRA:                  -3.686
REMARK UNBOUND:                -3.347
REMARK SMILES CCCCCCCCCCCCCCCCCCCCCC(=O)[O-]
REMARK SMILES IDX 12 1 11 2 10 3 9 4 8 5 7 6 6 7 5 8 4 9 3 10 2 11 1 12 13 13
REMARK SMILES IDX 14 14 15 15 16 16 17 17 18 18 19 19 20 20 21 21 22 22 23 23
REMARK SMILES IDX 24 24
REMARK H PARENT
REMARK Flexibility Score: inf
ROOT
ATOM      1  C   UNL     1     -47.957  25.458 -16.843  1.00  0.00     0.000 C 
ENDROOT
BRANCH   1   2
ATOM      2  C   UNL     1     -48.767  26.434 -17.709  1.00  0.00     0.000 C 
BRANCH   2   3
ATOM      3  C   UNL     1     -48.097  27.814 -17.754  1.00  0.00     0.000 C 
BRANCH   3   4
ATOM      4  C   UNL     1     -49.011  28.892 -17.152  1.00  0.00    -0.000 C 
BRANCH   4   5
ATOM      5  C   UNL     1     -49.038  28.854 -15.614  1.00  0.00    -0.000 C 
BRANCH   5   6
ATOM      6  C   UNL     1     -50.422  28.474 -15.058  1.00  0.00    -0.000 C 
BRANCH   6   7
ATOM      7  C   UNL     1     -51.474  28.287 -16.164  1.00  0.00    -0.000 C 
BRANCH   7   8
ATOM      8  C   UNL     1     -52.054  26.862 -16.196  1.00  0.00    -0.000 C 
BRANCH   8   9
ATOM      9  C   UNL     1     -52.145  26.222 -14.798  1.00  0.00    -0.000 C 
BRANCH   9  10
ATOM     10  C   UNL     1     -52.183  24.683 -14.787  1.00  0.00    -0.000 C 
BRANCH  10  11
ATOM     11  C   UNL     1     -53.127  24.115 -13.717  1.00  0.00    -0.003 C 
ATOM     12  C   UNL     1     -52.379  23.202 -12.751  1.00  0.00     0.004 C 
ENDBRANCH  10  11
ENDBRANCH   9  10
ENDBRANCH   8   9
ENDBRANCH   7   8
ENDBRANCH   6   7
ENDBRANCH   5   6
ENDBRANCH   4   5
ENDBRANCH   3   4
ENDBRANCH   2   3
ENDBRANCH   1   2
BRANCH   1  13
ATOM     13  C   UNL     1     -48.708  25.028 -15.573  1.00  0.00     0.000 C 
BRANCH  13  14
ATOM     14  C   UNL     1     -47.974  25.441 -14.285  1.00  0.00     0.000 C 
BRANCH  14  15
ATOM     15  C   UNL     1     -46.661  26.188 -14.570  1.00  0.00     0.000 C 
BRANCH  15  16
ATOM     16  C   UNL     1     -46.113  26.919 -13.331  1.00  0.00     0.000 C 
BRANCH  16  17
ATOM     17  C   UNL     1     -45.483  28.278 -13.677  1.00  0.00     0.000 C 
BRANCH  17  18
ATOM     18  C   UNL     1     -45.630  28.637 -15.163  1.00  0.00     0.000 C 
BRANCH  18  19
ATOM     19  C   UNL     1     -44.264  28.639 -15.865  1.00  0.00     0.000 C 
BRANCH  19  20
ATOM     20  C   UNL     1     -44.335  28.112 -17.307  1.00  0.00     0.006 C 
BRANCH  20  21
ATOM     21  C   UNL     1     -44.531  26.592 -17.376  1.00  0.00     0.053 C 
BRANCH  21  22
ATOM     22  C   UNL     1     -44.686  26.146 -18.796  1.00  0.00     0.041 C 
ATOM     23  O   UNL     1     -44.235  26.853 -19.736  1.00  0.00    -0.550 OA
ATOM     24  O   UNL     1     -45.355  24.962 -19.084  1.00  0.00    -0.550 OA
ENDBRANCH  21  22
ENDBRANCH  20  21
ENDBRANCH  19  20
ENDBRANCH  18  19
ENDBRANCH  17  18
ENDBRANCH  16  17
ENDBRANCH  15  16
ENDBRANCH  14  15
ENDBRANCH  13  14
ENDBRANCH   1  13
TORSDOF 20
ENDMDL
MODEL 3
REMARK VINA RESULT:    -5.078      2.707      6.881
REMARK INTER + INTRA:         -14.363
REMARK INTER:                 -10.574
REMARK INTRA:                  -3.789
REMARK UNBOUND:                -3.347
REMARK SMILES CCCCCCCCCCCCCCCCCCCCCC(=O)[O-]
REMARK SMILES IDX 12 1 11 2 10 3 9 4 8 5 7 6 6 7 5 8 4 9 3 10 2 11 1 12 13 13
REMARK SMILES IDX 14 14 15 15 16 16 17 17 18 18 19 19 20 20 21 21 22 22 23 23
REMARK SMILES IDX 24 24
REMARK H PARENT
REMARK Flexibility Score: inf
ROOT
ATOM      1  C   UNL     1     -48.407  24.637 -15.983  1.00  0.00     0.000 C 
ENDROOT
BRANCH   1   2
ATOM      2  C   UNL     1     -48.079  25.373 -17.291  1.00  0.00     0.000 C 
BRANCH   2   3
ATOM      3  C   UNL     1     -48.322  26.881 -17.147  1.00  0.00     0.000 C 
BRANCH   3   4
ATOM      4  C   UNL     1     -49.756  27.250 -17.555  1.00  0.00    -0.000 C 
BRANCH   4   5
ATOM      5  C   UNL     1     -50.185  28.630 -17.030  1.00  0.00    -0.000 C 
BRANCH   5   6
ATOM      6  C   UNL     1     -49.671  28.905 -15.606  1.00  0.00    -0.000 C 
BRANCH   6   7
ATOM      7  C   UNL     1     -50.601  28.337 -14.520  1.00  0.00    -0.000 C 
BRANCH   7   8
ATOM      8  C   UNL     1     -52.083  28.363 -14.935  1.00  0.00    -0.000 C 
BRANCH   8   9
ATOM      9  C   UNL     1     -52.753  26.979 -14.845  1.00  0.00    -0.000 C 
BRANCH   9  10
ATOM     10  C   UNL     1     -51.783  25.782 -14.856  1.00  0.00    -0.000 C 
BRANCH  10  11
ATOM     11  C   UNL     1     -52.423  24.488 -14.335  1.00  0.00    -0.003 C 
ATOM     12  C   UNL     1     -51.605  23.266 -14.744  1.00  0.00     0.004 C 
ENDBRANCH  10  11
ENDBRANCH   9  10
ENDBRANCH   8   9
ENDBRANCH   7   8
ENDBRANCH   6   7
ENDBRANCH   5   6
ENDBRANCH   4   5
ENDBRANCH   3   4
ENDBRANCH   2   3
ENDBRANCH   1   2
BRANCH   1  13
ATOM     13  C   UNL     1     -48.206  25.518 -14.740  1.00  0.00     0.000 C 
BRANCH  13  14
ATOM     14  C   UNL     1     -46.977  25.102 -13.914  1.00  0.00     0.000 C 
BRANCH  14  15
ATOM     15  C   UNL     1     -46.058  26.291 -13.586  1.00  0.00     0.000 C 
BRANCH  15  16
ATOM     16  C   UNL     1     -46.817  27.628 -13.521  1.00  0.00     0.000 C 
BRANCH  16  17
ATOM     17  C   UNL     1     -46.208  28.700 -14.439  1.00  0.00     0.000 C 
BRANCH  17  18
ATOM     18  C   UNL     1     -44.678  28.778 -14.321  1.00  0.00     0.000 C 
BRANCH  18  19
ATOM     19  C   UNL     1     -44.017  28.724 -15.705  1.00  0.00     0.000 C 
BRANCH  19  20
ATOM     20  C   UNL     1     -44.935  28.125 -16.781  1.00  0.00     0.006 C 
BRANCH  20  21
ATOM     21  C   UNL     1     -44.643  26.644 -17.055  1.00  0.00     0.053 C 
BRANCH  21  22
ATOM     22  C   UNL     1     -44.371  26.422 -18.509  1.00  0.00     0.041 C 
ATOM     23  O   UNL     1     -45.144  25.704 -19.198  1.00  0.00    -0.550 OA
ATOM     24  O   UNL     1     -43.244  26.983 -19.100  1.00  0.00    -0.550 OA
ENDBRANCH  21  22
ENDBRANCH  20  21
ENDBRANCH  19  20
ENDBRANCH  18  19
ENDBRANCH  17  18
ENDBRANCH  16  17
ENDBRANCH  15  16
ENDBRANCH  14  15
ENDBRANCH  13  14
ENDBRANCH   1  13
TORSDOF 20
ENDMDL
MODEL 4
REMARK VINA RESULT:    -4.817      1.404      2.113
REMARK INTER + INTRA:         -13.795
REMARK INTER:                 -10.696
REMARK INTRA:                  -3.100
REMARK UNBOUND:                -3.347
REMARK SMILES CCCCCCCCCCCCCCCCCCCCCC(=O)[O-]
REMARK SMILES IDX 12 1 11 2 10 3 9 4 8 5 7 6 6 7 5 8 4 9 3 10 2 11 1 12 13 13
REMARK SMILES IDX 14 14 15 15 16 16 17 17 18 18 19 19 20 20 21 21 22 22 23 23
REMARK SMILES IDX 24 24
REMARK H PARENT
REMARK Flexibility Score: inf
ROOT
ATOM      1  C   UNL     1     -48.107  25.420 -16.166  1.00  0.00     0.000 C 
ENDROOT
BRANCH   1   2
ATOM      2  C   UNL     1     -48.210  25.991 -14.743  1.00  0.00     0.000 C 
BRANCH   2   3
ATOM      3  C   UNL     1     -47.245  25.270 -13.792  1.00  0.00     0.000 C 
BRANCH   3   4
ATOM      4  C   UNL     1     -45.850  25.910 -13.831  1.00  0.00    -0.000 C 
BRANCH   4   5
ATOM      5  C   UNL     1     -45.836  27.337 -13.257  1.00  0.00    -0.000 C 
BRANCH   5   6
ATOM      6  C   UNL     1     -45.170  28.348 -14.207  1.00  0.00    -0.000 C 
BRANCH   6   7
ATOM      7  C   UNL     1     -46.142  28.895 -15.266  1.00  0.00    -0.000 C 
BRANCH   7   8
ATOM      8  C   UNL     1     -45.595  28.763 -16.698  1.00  0.00    -0.000 C 
BRANCH   8   9
ATOM      9  C   UNL     1     -44.652  27.557 -16.869  1.00  0.00    -0.000 C 
BRANCH   9  10
ATOM     10  C   UNL     1     -45.126  26.495 -17.877  1.00  0.00    -0.000 C 
BRANCH  10  11
ATOM     11  C   UNL     1     -44.129  26.269 -19.022  1.00  0.00    -0.003 C 
ATOM     12  C   UNL     1     -43.424  27.568 -19.403  1.00  0.00     0.004 C 
ENDBRANCH  10  11
ENDBRANCH   9  10
ENDBRANCH   8   9
ENDBRANCH   7   8
ENDBRANCH   6   7
ENDBRANCH   5   6
ENDBRANCH   4   5
ENDBRANCH   3   4
ENDBRANCH   2   3
ENDBRANCH   1   2
BRANCH   1  13
ATOM     13  C   UNL     1     -48.772  26.321 -17.217  1.00  0.00     0.000 C 
BRANCH  13  14
ATOM     14  C   UNL     1     -49.438  27.561 -16.595  1.00  0.00     0.000 C 
BRANCH  14  15
ATOM     15  C   UNL     1     -50.918  27.695 -16.992  1.00  0.00     0.000 C 
BRANCH  15  16
ATOM     16  C   UNL     1     -51.839  27.926 -15.781  1.00  0.00     0.000 C 
BRANCH  16  17
ATOM     17  C   UNL     1     -51.729  26.806 -14.732  1.00  0.00     0.000 C 
BRANCH  17  18
ATOM     18  C   UNL     1     -52.273  25.464 -15.242  1.00  0.00     0.000 C 
BRANCH  18  19
ATOM     19  C   UNL     1     -51.413  24.295 -14.740  1.00  0.00     0.000 C 
BRANCH  19  20
ATOM     20  C   UNL     1     -52.175  23.359 -13.790  1.00  0.00     0.006 C 
BRANCH  20  21
ATOM     21  C   UNL     1     -53.534  23.927 -13.360  1.00  0.00     0.053 C 
BRANCH  21  22
ATOM     22  C   UNL     1     -53.850  23.525 -11.953  1.00  0.00     0.041 C 
ATOM     23  O   UNL     1     -52.930  23.426 -11.100  1.00  0.00    -0.550 OA
ATOM     24  O   UNL     1     -55.160  23.231 -11.591  1.00  0.00    -0.550 OA
ENDBRANCH  21  22
ENDBRANCH  20  21
ENDBRANCH  19  20
ENDBRANCH  18  19
ENDBRANCH  17  18
ENDBRANCH  16  17
ENDBRANCH  15  16
ENDBRANCH  14  15
ENDBRANCH  13  14
ENDBRANCH   1  13
TORSDOF 20
ENDMDL
MODEL 5
REMARK VINA RESULT:    -4.794      1.293      3.131
REMARK INTER + INTRA:         -13.747
REMARK INTER:                 -10.896
REMARK INTRA:                  -2.851
REMARK UNBOUND:                -3.347
REMARK SMILES CCCCCCCCCCCCCCCCCCCCCC(=O)[O-]
REMARK SMILES IDX 12 1 11 2 10 3 9 4 8 5 7 6 6 7 5 8 4 9 3 10 2 11 1 12 13 13
REMARK SMILES IDX 14 14 15 15 16 16 17 17 18 18 19 19 20 20 21 21 22 22 23 23
REMARK SMILES IDX 24 24
REMARK H PARENT
REMARK Flexibility Score: inf
ROOT
ATOM      1  C   UNL     1     -47.275  26.388 -13.819  1.00  0.00     0.000 C 
ENDROOT
BRANCH   1   2
ATOM      2  C   UNL     1     -45.741  26.347 -13.903  1.00  0.00     0.000 C 
BRANCH   2   3
ATOM      3  C   UNL     1     -45.244  27.040 -15.179  1.00  0.00     0.000 C 
BRANCH   3   4
ATOM      4  C   UNL     1     -44.266  28.176 -14.845  1.00  0.00    -0.000 C 
BRANCH   4   5
ATOM      5  C   UNL     1     -43.774  28.922 -16.097  1.00  0.00    -0.000 C 
BRANCH   5   6
ATOM      6  C   UNL     1     -44.566  28.539 -17.360  1.00  0.00    -0.000 C 
BRANCH   6   7
ATOM      7  C   UNL     1     -43.653  28.193 -18.548  1.00  0.00    -0.000 C 
BRANCH   7   8
ATOM      8  C   UNL     1     -43.744  26.711 -18.954  1.00  0.00    -0.000 C 
BRANCH   8   9
ATOM      9  C   UNL     1     -45.159  26.301 -19.405  1.00  0.00    -0.000 C 
BRANCH   9  10
ATOM     10  C   UNL     1     -45.910  25.371 -18.434  1.00  0.00    -0.000 C 
BRANCH  10  11
ATOM     11  C   UNL     1     -47.287  25.916 -18.028  1.00  0.00    -0.003 C 
ATOM     12  C   UNL     1     -48.079  24.877 -17.240  1.00  0.00     0.004 C 
ENDBRANCH  10  11
ENDBRANCH   9  10
ENDBRANCH   8   9
ENDBRANCH   7   8
ENDBRANCH   6   7
ENDBRANCH   5   6
ENDBRANCH   4   5
ENDBRANCH   3   4
ENDBRANCH   2   3
ENDBRANCH   1   2
BRANCH   1  13
ATOM     13  C   UNL     1     -47.893  27.441 -14.752  1.00  0.00     0.000 C 
BRANCH  13  14
ATOM     14  C   UNL     1     -48.990  28.270 -14.061  1.00  0.00     0.000 C 
BRANCH  14  15
ATOM     15  C   UNL     1     -50.065  28.760 -15.045  1.00  0.00     0.000 C 
BRANCH  15  16
ATOM     16  C   UNL     1     -50.123  27.914 -16.330  1.00  0.00     0.000 C 
BRANCH  16  17
ATOM     17  C   UNL     1     -51.470  27.194 -16.504  1.00  0.00     0.000 C 
BRANCH  17  18
ATOM     18  C   UNL     1     -51.930  26.483 -15.223  1.00  0.00     0.000 C 
BRANCH  18  19
ATOM     19  C   UNL     1     -51.075  25.237 -14.949  1.00  0.00     0.000 C 
BRANCH  19  20
ATOM     20  C   UNL     1     -51.921  23.982 -14.681  1.00  0.00     0.006 C 
BRANCH  20  21
ATOM     21  C   UNL     1     -53.182  24.279 -13.860  1.00  0.00     0.053 C 
BRANCH  21  22
ATOM     22  C   UNL     1     -53.240  23.401 -12.649  1.00  0.00     0.041 C 
ATOM     23  O   UNL     1     -52.187  22.885 -12.189  1.00  0.00    -0.550 OA
ATOM     24  O   UNL     1     -54.462  23.129 -12.045  1.00  0.00    -0.550 OA
ENDBRANCH  21  22
ENDBRANCH  20  21
ENDBRANCH  19  20
ENDBRANCH  18  19
ENDBRANCH  17  18
ENDBRANCH  16  17
ENDBRANCH  15  16
ENDBRANCH  14  15
ENDBRANCH  13  14
ENDBRANCH   1  13
TORSDOF 20
ENDMDL
MODEL 6
REMARK VINA RESULT:    -4.653      2.991      7.182
REMARK INTER + INTRA:         -13.440
REMARK INTER:                  -9.886
REMARK INTRA:                  -3.553
REMARK UNBOUND:                -3.347
REMARK SMILES CCCCCCCCCCCCCCCCCCCCCC(=O)[O-]
REMARK SMILES IDX 12 1 11 2 10 3 9 4 8 5 7 6 6 7 5 8 4 9 3 10 2 11 1 12 13 13
REMARK SMILES IDX 14 14 15 15 16 16 17 17 18 18 19 19 20 20 21 21 22 22 23 23
REMARK SMILES IDX 24 24
REMARK H PARENT
REMARK Flexibility Score: inf
ROOT
ATOM      1  C   UNL     1     -48.363  28.391 -15.890  1.00  0.00     0.000 C 
ENDROOT
BRANCH   1   2
ATOM      2  C   UNL     1     -49.205  28.369 -17.175  1.00  0.00     0.000 C 
BRANCH   2   3
ATOM      3  C   UNL     1     -48.943  27.089 -17.980  1.00  0.00     0.000 C 
BRANCH   3   4
ATOM      4  C   UNL     1     -47.894  26.206 -17.286  1.00  0.00    -0.000 C 
BRANCH   4   5
ATOM      5  C   UNL     1     -48.402  24.778 -17.023  1.00  0.00    -0.000 C 
BRANCH   5   6
ATOM      6  C   UNL     1     -48.416  24.425 -15.525  1.00  0.00    -0.000 C 
BRANCH   6   7
ATOM      7  C   UNL     1     -49.613  25.041 -14.781  1.00  0.00    -0.000 C 
BRANCH   7   8
ATOM      8  C   UNL     1     -50.912  24.243 -14.983  1.00  0.00    -0.000 C 
BRANCH   8   9
ATOM      9  C   UNL     1     -52.174  25.122 -14.896  1.00  0.00    -0.000 C 
BRANCH   9  10
ATOM     10  C   UNL     1     -52.026  26.536 -15.490  1.00  0.00    -0.000 C 
BRANCH  10  11
ATOM     11  C   UNL     1     -52.521  27.638 -14.543  1.00  0.00    -0.003 C 
ATOM     12  C   UNL     1     -53.434  28.620 -15.271  1.00  0.00     0.004 C 
ENDBRANCH  10  11
ENDBRANCH   9  10
ENDBRANCH   8   9
ENDBRANCH   7   8
ENDBRANCH   6   7
ENDBRANCH   5   6
ENDBRANCH   4   5
ENDBRANCH   3   4
ENDBRANCH   2   3
ENDBRANCH   1   2
BRANCH   1  13
ATOM     13  C   UNL     1     -49.185  28.769 -14.648  1.00  0.00     0.000 C 
BRANCH  13  14
ATOM     14  C   UNL     1     -48.322  28.875 -13.378  1.00  0.00     0.000 C 
BRANCH  14  15
ATOM     15  C   UNL     1     -46.877  28.404 -13.609  1.00  0.00     0.000 C 
BRANCH  15  16
ATOM     16  C   UNL     1     -46.679  26.912 -13.286  1.00  0.00     0.000 C 
BRANCH  16  17
ATOM     17  C   UNL     1     -45.578  26.263 -14.140  1.00  0.00     0.000 C 
BRANCH  17  18
ATOM     18  C   UNL     1     -44.744  27.295 -14.913  1.00  0.00     0.000 C 
BRANCH  18  19
ATOM     19  C   UNL     1     -44.607  26.895 -16.390  1.00  0.00     0.000 C 
BRANCH  19  20
ATOM     20  C   UNL     1     -44.871  28.065 -17.350  1.00  0.00     0.006 C 
BRANCH  20  21
ATOM     21  C   UNL     1     -43.782  28.214 -18.420  1.00  0.00     0.053 C 
BRANCH  21  22
ATOM     22  C   UNL     1     -43.991  27.227 -19.525  1.00  0.00     0.041 C 
ATOM     23  O   UNL     1     -43.067  26.988 -20.346  1.00  0.00    -0.550 OA
ATOM     24  O   UNL     1     -45.219  26.590 -19.666  1.00  0.00    -0.550 OA
ENDBRANCH  21  22
ENDBRANCH  20  21
ENDBRANCH  19  20
ENDBRANCH  18  19
ENDBRANCH  17  18
ENDBRANCH  16  17
ENDBRANCH  15  16
ENDBRANCH  14  15
ENDBRANCH  13  14
ENDBRANCH   1  13
TORSDOF 20
ENDMDL
MODEL 7
REMARK VINA RESULT:    -4.569      1.823      3.864
REMARK INTER + INTRA:         -13.258
REMARK INTER:                 -10.213
REMARK INTRA:                  -3.045
REMARK UNBOUND:                -3.347
REMARK SMILES CCCCCCCCCCCCCCCCCCCCCC(=O)[O-]
REMARK SMILES IDX 12 1 11 2 10 3 9 4 8 5 7 6 6 7 5 8 4 9 3 10 2 11 1 12 13 13
REMARK SMILES IDX 14 14 15 15 16 16 17 17 18 18 19 19 20 20 21 21 22 22 23 23
REMARK SMILES IDX 24 24
REMARK H PARENT
REMARK Flexibility Score: inf
ROOT
ATOM      1  C   UNL     1     -48.380  26.931 -17.420  1.00  0.00     0.000 C 
ENDROOT
BRANCH   1   2
ATOM      2  C   UNL     1     -47.998  25.456 -17.617  1.00  0.00     0.000 C 
BRANCH   2   3
ATOM      3  C   UNL     1     -46.559  25.328 -18.136  1.00  0.00     0.000 C 
BRANCH   3   4
ATOM      4  C   UNL     1     -45.908  26.709 -18.305  1.00  0.00    -0.000 C 
BRANCH   4   5
ATOM      5  C   UNL     1     -44.678  26.898 -17.402  1.00  0.00    -0.000 C 
BRANCH   5   6
ATOM      6  C   UNL     1     -44.362  28.381 -17.139  1.00  0.00    -0.000 C 
BRANCH   6   7
ATOM      7  C   UNL     1     -44.661  28.803 -15.691  1.00  0.00    -0.000 C 
BRANCH   7   8
ATOM      8  C   UNL     1     -46.159  29.057 -15.444  1.00  0.00    -0.000 C 
BRANCH   8   9
ATOM      9  C   UNL     1     -46.737  28.175 -14.321  1.00  0.00    -0.000 C 
BRANCH   9  10
ATOM     10  C   UNL     1     -45.723  27.237 -13.640  1.00  0.00    -0.000 C 
BRANCH  10  11
ATOM     11  C   UNL     1     -45.966  25.757 -13.964  1.00  0.00    -0.003 C 
ATOM     12  C   UNL     1     -47.458  25.438 -14.000  1.00  0.00     0.004 C 
ENDBRANCH  10  11
ENDBRANCH   9  10
ENDBRANCH   8   9
ENDBRANCH   7   8
ENDBRANCH   6   7
ENDBRANCH   5   6
ENDBRANCH   4   5
ENDBRANCH   3   4
ENDBRANCH   2   3
ENDBRANCH   1   2
BRANCH   1  13
ATOM     13  C   UNL     1     -49.802  27.247 -17.910  1.00  0.00     0.000 C 
BRANCH  13  14
ATOM     14  C   UNL     1     -50.651  27.955 -16.840  1.00  0.00     0.000 C 
BRANCH  14  15
ATOM     15  C   UNL     1     -50.357  27.442 -15.420  1.00  0.00     0.000 C 
BRANCH  15  16
ATOM     16  C   UNL     1     -51.610  26.892 -14.716  1.00  0.00     0.000 C 
BRANCH  16  17
ATOM     17  C   UNL     1     -52.022  25.506 -15.238  1.00  0.00     0.000 C 
BRANCH  17  18
ATOM     18  C   UNL     1     -51.083  24.391 -14.757  1.00  0.00     0.000 C 
BRANCH  18  19
ATOM     19  C   UNL     1     -51.760  23.526 -13.684  1.00  0.00     0.000 C 
BRANCH  19  20
ATOM     20  C   UNL     1     -53.250  23.856 -13.507  1.00  0.00     0.006 C 
BRANCH  20  21
ATOM     21  C   UNL     1     -53.902  23.069 -12.362  1.00  0.00     0.053 C 
BRANCH  21  22
ATOM     22  C   UNL     1     -54.234  23.979 -11.221  1.00  0.00     0.041 C 
ATOM     23  O   UNL     1     -55.096  24.886 -11.363  1.00  0.00    -0.550 OA
ATOM     24  O   UNL     1     -53.568  23.844 -10.008  1.00  0.00    -0.550 OA
ENDBRANCH  21  22
ENDBRANCH  20  21
ENDBRANCH  19  20
ENDBRANCH  18  19
ENDBRANCH  17  18
ENDBRANCH  16  17
ENDBRANCH  15  16
ENDBRANCH  14  15
ENDBRANCH  13  14
ENDBRANCH   1  13
TORSDOF 20
ENDMDL
MODEL 8
REMARK VINA RESULT:    -4.382      1.985      6.958
REMARK INTER + INTRA:         -12.854
REMARK INTER:                 -10.781
REMARK INTRA:                  -2.072
REMARK UNBOUND:                -3.347
REMARK SMILES CCCCCCCCCCCCCCCCCCCCCC(=O)[O-]
REMARK SMILES IDX 12 1 11 2 10 3 9 4 8 5 7 6 6 7 5 8 4 9 3 10 2 11 1 12 13 13
REMARK SMILES IDX 14 14 15 15 16 16 17 17 18 18 19 19 20 20 21 21 22 22 23 23
REMARK SMILES IDX 24 24
REMARK H PARENT
REMARK Flexibility Score: inf
ROOT
ATOM      1  C   UNL     1     -46.655  25.312 -18.143  1.00  0.00     0.000 C 
ENDROOT
BRANCH   1   2
ATOM      2  C   UNL     1     -47.294  26.698 -17.971  1.00  0.00     0.000 C 
BRANCH   2   3
ATOM      3  C   UNL     1     -48.467  26.642 -16.982  1.00  0.00     0.000 C 
BRANCH   3   4
ATOM      4  C   UNL     1     -49.603  27.579 -17.420  1.00  0.00    -0.000 C 
BRANCH   4   5
ATOM      5  C   UNL     1     -49.959  28.621 -16.346  1.00  0.00    -0.000 C 
BRANCH   5   6
ATOM      6  C   UNL     1     -51.291  28.311 -15.642  1.00  0.00    -0.000 C 
BRANCH   6   7
ATOM      7  C   UNL     1     -51.217  27.054 -14.759  1.00  0.00    -0.000 C 
BRANCH   7   8
ATOM      8  C   UNL     1     -52.123  25.918 -15.265  1.00  0.00    -0.000 C 
BRANCH   8   9
ATOM      9  C   UNL     1     -51.737  24.543 -14.689  1.00  0.00    -0.000 C 
BRANCH   9  10
ATOM     10  C   UNL     1     -52.866  23.809 -13.941  1.00  0.00    -0.000 C 
BRANCH  10  11
ATOM     11  C   UNL     1     -52.390  23.145 -12.641  1.00  0.00    -0.003 C 
ATOM     12  C   UNL     1     -53.531  23.022 -11.636  1.00  0.00     0.004 C 
ENDBRANCH  10  11
ENDBRANCH   9  10
ENDBRANCH   8   9
ENDBRANCH   7   8
ENDBRANCH   6   7
ENDBRANCH   5   6
ENDBRANCH   4   5
ENDBRANCH   3   4
ENDBRANCH   2   3
ENDBRANCH   1   2
BRANCH   1  13
ATOM     13  C   UNL     1     -45.303  25.368 -18.871  1.00  0.00     0.000 C 
BRANCH  13  14
ATOM     14  C   UNL     1     -44.956  26.784 -19.362  1.00  0.00     0.000 C 
BRANCH  14  15
ATOM     15  C   UNL     1     -43.453  27.092 -19.255  1.00  0.00     0.000 C 
BRANCH  15  16
ATOM     16  C   UNL     1     -43.167  28.395 -18.488  1.00  0.00     0.000 C 
BRANCH  16  17
ATOM     17  C   UNL     1     -44.166  28.640 -17.345  1.00  0.00     0.000 C 
BRANCH  17  18
ATOM     18  C   UNL     1     -43.473  29.013 -16.026  1.00  0.00     0.000 C 
BRANCH  18  19
ATOM     19  C   UNL     1     -44.340  28.621 -14.820  1.00  0.00     0.000 C 
BRANCH  19  20
ATOM     20  C   UNL     1     -45.397  27.561 -15.166  1.00  0.00     0.006 C 
BRANCH  20  21
ATOM     21  C   UNL     1     -45.420  26.396 -14.166  1.00  0.00     0.053 C 
BRANCH  21  22
ATOM     22  C   UNL     1     -46.804  26.183 -13.640  1.00  0.00     0.041 C 
ATOM     23  O   UNL     1     -47.282  25.020 -13.565  1.00  0.00    -0.550 OA
ATOM     24  O   UNL     1     -47.580  27.272 -13.260  1.00  0.00    -0.550 OA
ENDBRANCH  21  22
ENDBRANCH  20  21
ENDBRANCH  19  20
ENDBRANCH  18  19
ENDBRANCH  17  18
ENDBRANCH  16  17
ENDBRANCH  15  16
ENDBRANCH  14  15
ENDBRANCH  13  14
ENDBRANCH   1  13
TORSDOF 20
ENDMDL
MODEL 9
REMARK VINA RESULT:    -4.366      3.031      7.988
REMARK INTER + INTRA:         -12.819
REMARK INTER:                 -10.324
REMARK INTRA:                  -2.494
REMARK UNBOUND:                -3.347
REMARK SMILES CCCCCCCCCCCCCCCCCCCCCC(=O)[O-]
REMARK SMILES IDX 12 1 11 2 10 3 9 4 8 5 7 6 6 7 5 8 4 9 3 10 2 11 1 12 13 13
REMARK SMILES IDX 14 14 15 15 16 16 17 17 18 18 19 19 20 20 21 21 22 22 23 23
REMARK SMILES IDX 24 24
REMARK H PARENT
REMARK Flexibility Score: inf
ROOT
ATOM      1  C   UNL     1     -47.949  25.849 -16.539  1.00  0.00     0.000 C 
ENDROOT
BRANCH   1   2
ATOM      2  C   UNL     1     -49.223  26.191 -17.326  1.00  0.00     0.000 C 
BRANCH   2   3
ATOM      3  C   UNL     1     -49.584  27.674 -17.166  1.00  0.00     0.000 C 
BRANCH   3   4
ATOM      4  C   UNL     1     -50.669  27.864 -16.095  1.00  0.00    -0.000 C 
BRANCH   4   5
ATOM      5  C   UNL     1     -51.795  26.822 -16.200  1.00  0.00    -0.000 C 
BRANCH   5   6
ATOM      6  C   UNL     1     -51.980  26.020 -14.901  1.00  0.00    -0.000 C 
BRANCH   6   7
ATOM      7  C   UNL     1     -51.906  24.500 -15.127  1.00  0.00    -0.000 C 
BRANCH   7   8
ATOM      8  C   UNL     1     -52.095  23.697 -13.828  1.00  0.00    -0.000 C 
BRANCH   8   9
ATOM      9  C   UNL     1     -53.386  24.071 -13.076  1.00  0.00    -0.000 C 
BRANCH   9  10
ATOM     10  C   UNL     1     -53.957  22.964 -12.170  1.00  0.00    -0.000 C 
BRANCH  10  11
ATOM     11  C   UNL     1     -55.155  23.435 -11.332  1.00  0.00    -0.003 C 
ATOM     12  C   UNL     1     -54.724  24.455 -10.282  1.00  0.00     0.004 C 
ENDBRANCH  10  11
ENDBRANCH   9  10
ENDBRANCH   8   9
ENDBRANCH   7   8
ENDBRANCH   6   7
ENDBRANCH   5   6
ENDBRANCH   4   5
ENDBRANCH   3   4
ENDBRANCH   2   3
ENDBRANCH   1   2
BRANCH   1  13
ATOM     13  C   UNL     1     -48.241  25.072 -15.245  1.00  0.00     0.000 C 
BRANCH  13  14
ATOM     14  C   UNL     1     -47.609  25.731 -14.007  1.00  0.00     0.000 C 
BRANCH  14  15
ATOM     15  C   UNL     1     -47.864  27.246 -13.950  1.00  0.00     0.000 C 
BRANCH  15  16
ATOM     16  C   UNL     1     -46.625  28.040 -13.500  1.00  0.00     0.000 C 
BRANCH  16  17
ATOM     17  C   UNL     1     -45.325  27.517 -14.132  1.00  0.00     0.000 C 
BRANCH  17  18
ATOM     18  C   UNL     1     -44.413  28.649 -14.630  1.00  0.00     0.000 C 
BRANCH  18  19
ATOM     19  C   UNL     1     -44.224  28.572 -16.152  1.00  0.00     0.000 C 
BRANCH  19  20
ATOM     20  C   UNL     1     -44.867  27.322 -16.770  1.00  0.00     0.006 C 
BRANCH  20  21
ATOM     21  C   UNL     1     -45.289  27.530 -18.231  1.00  0.00     0.053 C 
BRANCH  21  22
ATOM     22  C   UNL     1     -44.823  26.389 -19.080  1.00  0.00     0.041 C 
ATOM     23  O   UNL     1     -45.311  25.239 -18.921  1.00  0.00    -0.550 OA
ATOM     24  O   UNL     1     -43.826  26.590 -20.029  1.00  0.00    -0.550 OA
ENDBRANCH  21  22
ENDBRANCH  20  21
ENDBRANCH  19  20
ENDBRANCH  18  19
ENDBRANCH  17  18
ENDBRANCH  16  17
ENDBRANCH  15  16
ENDBRANCH  14  15
ENDBRANCH  13  14
ENDBRANCH   1  13
TORSDOF 20
ENDMDL
