MODEL 1
REMARK VINA RESULT:    -3.986      0.000      0.000
REMARK INTER + INTRA:          -8.579
REMARK INTER:                  -7.248
REMARK INTRA:                  -1.331
REMARK UNBOUND:                -1.331
REMARK SMILES CCCCCCCCCCCCCCCC(=O)[O-]
REMARK SMILES IDX 9 1 10 2 11 3 12 4 13 5 14 6 15 7 16 8 17 9 18 10 8 11 7 12
REMARK SMILES IDX 6 13 5 14 4 15 3 16 2 17 1 18
REMARK H PARENT
REMARK Flexibility Score: inf
ROOT
ATOM      1  C   UNL     1       4.973  28.860  55.631  1.00  0.00     0.000 C 
ENDROOT
BRANCH   1   2
ATOM      2  C   UNL     1       4.062  28.344  54.507  1.00  0.00     0.000 C 
BRANCH   2   3
ATOM      3  C   UNL     1       4.271  29.092  53.181  1.00  0.00     0.000 C 
BRANCH   3   4
ATOM      4  C   UNL     1       4.560  28.143  52.006  1.00  0.00     0.000 C 
BRANCH   4   5
ATOM      5  C   UNL     1       5.754  28.596  51.149  1.00  0.00     0.000 C 
BRANCH   5   6
ATOM      6  C   UNL     1       5.451  28.789  49.648  1.00  0.00     0.006 C 
BRANCH   6   7
ATOM      7  C   UNL     1       4.040  28.358  49.221  1.00  0.00     0.053 C 
BRANCH   7   8
ATOM      8  C   UNL     1       4.075  27.262  48.200  1.00  0.00     0.041 C 
ATOM      9  O   UNL     1       3.741  27.494  47.008  1.00  0.00    -0.550 OA
ATOM     10  O   UNL     1       4.445  25.977  48.573  1.00  0.00    -0.550 OA
ENDBRANCH   7   8
ENDBRANCH   6   7
ENDBRANCH   5   6
ENDBRANCH   4   5
ENDBRANCH   3   4
ENDBRANCH   2   3
ENDBRANCH   1   2
BRANCH   1  11
ATOM     11  C   UNL     1       4.255  28.816  56.984  1.00  0.00     0.000 C 
BRANCH  11  12
ATOM     12  C   UNL     1       2.880  28.143  56.857  1.00  0.00    -0.000 C 
BRANCH  12  13
ATOM     13  C   UNL     1       1.757  28.941  57.543  1.00  0.00    -0.000 C 
BRANCH  13  14
ATOM     14  C   UNL     1       0.383  28.860  56.846  1.00  0.00    -0.000 C 
BRANCH  14  15
ATOM     15  C   UNL     1       0.436  28.743  55.310  1.00  0.00    -0.000 C 
BRANCH  15  16
ATOM     16  C   UNL     1       0.066  30.028  54.544  1.00  0.00    -0.000 C 
BRANCH  16  17
ATOM     17  C   UNL     1       1.267  30.868  54.073  1.00  0.00    -0.003 C 
ATOM     18  C   UNL     1       0.853  32.110  53.285  1.00  0.00     0.004 C 
ENDBRANCH  16  17
ENDBRANCH  15  16
ENDBRANCH  14  15
ENDBRANCH  13  14
ENDBRANCH  12  13
ENDBRANCH  11  12
ENDBRANCH   1  11
TORSDOF 14
ENDMDL
MODEL 2
REMARK VINA RESULT:    -3.911      3.250      7.013
REMARK INTER + INTRA:          -8.443
REMARK INTER:                  -7.198
REMARK INTRA:                  -1.245
REMARK UNBOUND:                -1.331
REMARK SMILES CCCCCCCCCCCCCCCC(=O)[O-]
REMARK SMILES IDX 9 1 10 2 11 3 12 4 13 5 14 6 15 7 16 8 17 9 18 10 8 11 7 12
REMARK SMILES IDX 6 13 5 14 4 15 3 16 2 17 1 18
REMARK H PARENT
REMARK Flexibility Score: inf
ROOT
ATOM      1  C   UNL     1       4.348  29.085  53.857  1.00  0.00     0.000 C 
ENDROOT
BRANCH   1   2
ATOM      2  C   UNL     1       5.420  29.594  54.832  1.00  0.00     0.000 C 
BRANCH   2   3
ATOM      3  C   UNL     1       5.370  28.884  56.194  1.00  0.00     0.000 C 
BRANCH   3   4
ATOM      4  C   UNL     1       4.316  27.763  56.237  1.00  0.00     0.000 C 
BRANCH   4   5
ATOM      5  C   UNL     1       3.447  27.807  57.506  1.00  0.00     0.000 C 
BRANCH   5   6
ATOM      6  C   UNL     1       2.072  28.485  57.339  1.00  0.00     0.006 C 
BRANCH   6   7
ATOM      7  C   UNL     1       1.471  28.372  55.929  1.00  0.00     0.053 C 
BRANCH   7   8
ATOM      8  C   UNL     1       0.488  29.467  55.650  1.00  0.00     0.041 C 
ATOM      9  O   UNL     1      -0.537  29.597  56.370  1.00  0.00    -0.550 OA
ATOM     10  O   UNL     1       0.687  30.323  54.575  1.00  0.00    -0.550 OA
ENDBRANCH   7   8
ENDBRANCH   6   7
ENDBRANCH   5   6
ENDBRANCH   4   5
ENDBRANCH   3   4
ENDBRANCH   2   3
ENDBRANCH   1   2
BRANCH   1  11
ATOM     11  C   UNL     1       4.768  29.330  52.402  1.00  0.00     0.000 C 
BRANCH  11  12
ATOM     12  C   UNL     1       4.693  28.034  51.582  1.00  0.00    -0.000 C 
BRANCH  12  13
ATOM     13  C   UNL     1       5.905  27.843  50.652  1.00  0.00    -0.000 C 
BRANCH  13  14
ATOM     14  C   UNL     1       5.726  26.765  49.564  1.00  0.00    -0.000 C 
BRANCH  14  15
ATOM     15  C   UNL     1       5.461  27.308  48.146  1.00  0.00    -0.000 C 
BRANCH  15  16
ATOM     16  C   UNL     1       3.995  27.684  47.853  1.00  0.00    -0.000 C 
BRANCH  16  17
ATOM     17  C   UNL     1       3.740  29.190  47.668  1.00  0.00    -0.003 C 
ATOM     18  C   UNL     1       2.953  29.807  48.824  1.00  0.00     0.004 C 
ENDBRANCH  16  17
ENDBRANCH  15  16
ENDBRANCH  14  15
ENDBRANCH  13  14
ENDBRANCH  12  13
ENDBRANCH  11  12
ENDBRANCH   1  11
TORSDOF 14
ENDMDL
MODEL 3
REMARK VINA RESULT:    -3.802      4.051      5.395
REMARK INTER + INTRA:          -8.245
REMARK INTER:                  -6.862
REMARK INTRA:                  -1.383
REMARK UNBOUND:                -1.331
REMARK SMILES CCCCCCCCCCCCCCCC(=O)[O-]
REMARK SMILES IDX 9 1 10 2 11 3 12 4 13 5 14 6 15 7 16 8 17 9 18 10 8 11 7 12
REMARK SMILES IDX 6 13 5 14 4 15 3 16 2 17 1 18
REMARK H PARENT
REMARK Flexibility Score: inf
ROOT
ATOM      1  C   UNL     1       3.939  28.746  53.816  1.00  0.00     0.000 C 
ENDROOT
BRANCH   1   2
ATOM      2  C   UNL     1       3.198  30.084  53.681  1.00  0.00     0.000 C 
BRANCH   2   3
ATOM      3  C   UNL     1       3.732  30.945  52.525  1.00  0.00     0.000 C 
BRANCH   3   4
ATOM      4  C   UNL     1       2.789  32.108  52.170  1.00  0.00     0.000 C 
BRANCH   4   5
ATOM      5  C   UNL     1       1.534  32.155  53.061  1.00  0.00     0.000 C 
BRANCH   5   6
ATOM      6  C   UNL     1       0.564  33.319  52.769  1.00  0.00     0.006 C 
BRANCH   6   7
ATOM      7  C   UNL     1       0.730  33.956  51.381  1.00  0.00     0.053 C 
BRANCH   7   8
ATOM      8  C   UNL     1       1.153  35.389  51.470  1.00  0.00     0.041 C 
ATOM      9  O   UNL     1       2.318  35.684  51.848  1.00  0.00    -0.550 OA
ATOM     10  O   UNL     1       0.251  36.401  51.168  1.00  0.00    -0.550 OA
ENDBRANCH   7   8
ENDBRANCH   6   7
ENDBRANCH   5   6
ENDBRANCH   4   5
ENDBRANCH   3   4
ENDBRANCH   2   3
ENDBRANCH   1   2
BRANCH   1  11
ATOM     11  C   UNL     1       3.294  27.867  54.894  1.00  0.00     0.000 C 
BRANCH  11  12
ATOM     12  C   UNL     1       4.158  27.829  56.163  1.00  0.00    -0.000 C 
BRANCH  12  13
ATOM     13  C   UNL     1       3.328  27.918  57.456  1.00  0.00    -0.000 C 
BRANCH  13  14
ATOM     14  C   UNL     1       2.154  28.917  57.408  1.00  0.00    -0.000 C 
BRANCH  14  15
ATOM     15  C   UNL     1       0.754  28.276  57.330  1.00  0.00    -0.000 C 
BRANCH  15  16
ATOM     16  C   UNL     1      -0.403  29.263  57.078  1.00  0.00    -0.000 C 
BRANCH  16  17
ATOM     17  C   UNL     1      -0.340  30.002  55.730  1.00  0.00    -0.003 C 
ATOM     18  C   UNL     1      -0.644  29.095  54.538  1.00  0.00     0.004 C 
ENDBRANCH  16  17
ENDBRANCH  15  16
ENDBRANCH  14  15
ENDBRANCH  13  14
ENDBRANCH  12  13
ENDBRANCH  11  12
ENDBRANCH   1  11
TORSDOF 14
ENDMDL
MODEL 4
REMARK VINA RESULT:    -3.776      3.687      7.481
REMARK INTER + INTRA:          -8.198
REMARK INTER:                  -7.418
REMARK INTRA:                  -0.779
REMARK UNBOUND:                -1.331
REMARK SMILES CCCCCCCCCCCCCCCC(=O)[O-]
REMARK SMILES IDX 9 1 10 2 11 3 12 4 13 5 14 6 15 7 16 8 17 9 18 10 8 11 7 12
REMARK SMILES IDX 6 13 5 14 4 15 3 16 2 17 1 18
REMARK H PARENT
REMARK Flexibility Score: inf
ROOT
ATOM      1  C   UNL     1       4.011  29.253  53.987  1.00  0.00     0.000 C 
ENDROOT
BRANCH   1   2
ATOM      2  C   UNL     1       5.379  29.414  54.667  1.00  0.00     0.000 C 
BRANCH   2   3
ATOM      3  C   UNL     1       5.309  29.239  56.192  1.00  0.00     0.000 C 
BRANCH   3   4
ATOM      4  C   UNL     1       4.810  27.843  56.604  1.00  0.00     0.000 C 
BRANCH   4   5
ATOM      5  C   UNL     1       3.553  27.894  57.490  1.00  0.00     0.000 C 
BRANCH   5   6
ATOM      6  C   UNL     1       2.234  28.181  56.744  1.00  0.00     0.006 C 
BRANCH   6   7
ATOM      7  C   UNL     1       1.295  29.165  57.459  1.00  0.00     0.053 C 
BRANCH   7   8
ATOM      8  C   UNL     1       0.052  29.430  56.667  1.00  0.00     0.041 C 
ATOM      9  O   UNL     1       0.036  29.224  55.424  1.00  0.00    -0.550 OA
ATOM     10  O   UNL     1      -1.078  29.936  57.295  1.00  0.00    -0.550 OA
ENDBRANCH   7   8
ENDBRANCH   6   7
ENDBRANCH   5   6
ENDBRANCH   4   5
ENDBRANCH   3   4
ENDBRANCH   2   3
ENDBRANCH   1   2
BRANCH   1  11
ATOM     11  C   UNL     1       3.878  30.202  52.790  1.00  0.00     0.000 C 
BRANCH  11  12
ATOM     12  C   UNL     1       4.931  29.889  51.718  1.00  0.00    -0.000 C 
BRANCH  12  13
ATOM     13  C   UNL     1       4.358  29.915  50.290  1.00  0.00    -0.000 C 
BRANCH  13  14
ATOM     14  C   UNL     1       4.747  28.709  49.411  1.00  0.00    -0.000 C 
BRANCH  14  15
ATOM     15  C   UNL     1       4.824  27.359  50.153  1.00  0.00    -0.000 C 
BRANCH  15  16
ATOM     16  C   UNL     1       5.325  26.174  49.304  1.00  0.00    -0.000 C 
BRANCH  16  17
ATOM     17  C   UNL     1       4.718  24.810  49.677  1.00  0.00    -0.003 C 
ATOM     18  C   UNL     1       5.607  23.634  49.277  1.00  0.00     0.004 C 
ENDBRANCH  16  17
ENDBRANCH  15  16
ENDBRANCH  14  15
ENDBRANCH  13  14
ENDBRANCH  12  13
ENDBRANCH  11  12
ENDBRANCH   1  11
TORSDOF 14
ENDMDL
MODEL 5
REMARK VINA RESULT:    -3.769     14.341     16.410
REMARK INTER + INTRA:          -8.185
REMARK INTER:                  -6.649
REMARK INTRA:                  -1.537
REMARK UNBOUND:                -1.331
REMARK SMILES CCCCCCCCCCCCCCCC(=O)[O-]
REMARK SMILES IDX 9 1 10 2 11 3 12 4 13 5 14 6 15 7 16 8 17 9 18 10 8 11 7 12
REMARK SMILES IDX 6 13 5 14 4 15 3 16 2 17 1 18
REMARK H PARENT
REMARK Flexibility Score: inf
ROOT
ATOM      1  C   UNL     1      -7.066  39.013  45.793  1.00  0.00     0.000 C 
ENDROOT
BRANCH   1   2
ATOM      2  C   UNL     1      -8.276  38.084  45.970  1.00  0.00     0.000 C 
BRANCH   2   3
ATOM      3  C   UNL     1      -8.077  36.715  45.298  1.00  0.00     0.000 C 
BRANCH   3   4
ATOM      4  C   UNL     1      -7.007  35.862  46.001  1.00  0.00     0.000 C 
BRANCH   4   5
ATOM      5  C   UNL     1      -6.652  34.584  45.220  1.00  0.00     0.000 C 
BRANCH   5   6
ATOM      6  C   UNL     1      -7.840  33.886  44.528  1.00  0.00     0.006 C 
BRANCH   6   7
ATOM      7  C   UNL     1      -7.659  33.662  43.019  1.00  0.00     0.053 C 
BRANCH   7   8
ATOM      8  C   UNL     1      -8.778  32.856  42.434  1.00  0.00     0.041 C 
ATOM      9  O   UNL     1      -9.654  32.350  43.183  1.00  0.00    -0.550 OA
ATOM     10  O   UNL     1      -8.833  32.636  41.064  1.00  0.00    -0.550 OA
ENDBRANCH   7   8
ENDBRANCH   6   7
ENDBRANCH   5   6
ENDBRANCH   4   5
ENDBRANCH   3   4
ENDBRANCH   2   3
ENDBRANCH   1   2
BRANCH   1  11
ATOM     11  C   UNL     1      -7.228  39.895  44.550  1.00  0.00     0.000 C 
BRANCH  11  12
ATOM     12  C   UNL     1      -6.510  39.280  43.340  1.00  0.00    -0.000 C 
BRANCH  12  13
ATOM     13  C   UNL     1      -5.236  38.508  43.728  1.00  0.00    -0.000 C 
BRANCH  13  14
ATOM     14  C   UNL     1      -5.012  37.193  42.955  1.00  0.00    -0.000 C 
BRANCH  14  15
ATOM     15  C   UNL     1      -4.016  37.287  41.782  1.00  0.00    -0.000 C 
BRANCH  15  16
ATOM     16  C   UNL     1      -3.932  36.030  40.894  1.00  0.00    -0.000 C 
BRANCH  16  17
ATOM     17  C   UNL     1      -4.361  34.722  41.583  1.00  0.00    -0.003 C 
ATOM     18  C   UNL     1      -3.243  33.682  41.633  1.00  0.00     0.004 C 
ENDBRANCH  16  17
ENDBRANCH  15  16
ENDBRANCH  14  15
ENDBRANCH  13  14
ENDBRANCH  12  13
ENDBRANCH  11  12
ENDBRANCH   1  11
TORSDOF 14
ENDMDL
MODEL 6
REMARK VINA RESULT:    -3.727      1.592      2.236
REMARK INTER + INTRA:          -8.108
REMARK INTER:                  -7.113
REMARK INTRA:                  -0.995
REMARK UNBOUND:                -1.331
REMARK SMILES CCCCCCCCCCCCCCCC(=O)[O-]
REMARK SMILES IDX 9 1 10 2 11 3 12 4 13 5 14 6 15 7 16 8 17 9 18 10 8 11 7 12
REMARK SMILES IDX 6 13 5 14 4 15 3 16 2 17 1 18
REMARK H PARENT
REMARK Flexibility Score: inf
ROOT
ATOM      1  C   UNL     1       4.344  28.698  54.322  1.00  0.00     0.000 C 
ENDROOT
BRANCH   1   2
ATOM      2  C   UNL     1       5.019  29.764  53.447  1.00  0.00     0.000 C 
BRANCH   2   3
ATOM      3  C   UNL     1       4.696  29.598  51.953  1.00  0.00     0.000 C 
BRANCH   3   4
ATOM      4  C   UNL     1       4.627  28.122  51.524  1.00  0.00     0.000 C 
BRANCH   4   5
ATOM      5  C   UNL     1       5.523  27.807  50.313  1.00  0.00     0.000 C 
BRANCH   5   6
ATOM      6  C   UNL     1       4.939  26.790  49.311  1.00  0.00     0.006 C 
BRANCH   6   7
ATOM      7  C   UNL     1       4.554  27.385  47.948  1.00  0.00     0.053 C 
BRANCH   7   8
ATOM      8  C   UNL     1       3.690  28.600  48.092  1.00  0.00     0.041 C 
ATOM      9  O   UNL     1       2.480  28.483  48.420  1.00  0.00    -0.550 OA
ATOM     10  O   UNL     1       4.214  29.860  47.831  1.00  0.00    -0.550 OA
ENDBRANCH   7   8
ENDBRANCH   6   7
ENDBRANCH   5   6
ENDBRANCH   4   5
ENDBRANCH   3   4
ENDBRANCH   2   3
ENDBRANCH   1   2
BRANCH   1  11
ATOM     11  C   UNL     1       4.878  28.749  55.759  1.00  0.00     0.000 C 
BRANCH  11  12
ATOM     12  C   UNL     1       4.516  27.469  56.527  1.00  0.00    -0.000 C 
BRANCH  12  13
ATOM     13  C   UNL     1       3.624  27.739  57.751  1.00  0.00    -0.000 C 
BRANCH  13  14
ATOM     14  C   UNL     1       2.449  28.705  57.500  1.00  0.00    -0.000 C 
BRANCH  14  15
ATOM     15  C   UNL     1       1.290  28.121  56.667  1.00  0.00    -0.000 C 
BRANCH  15  16
ATOM     16  C   UNL     1       0.845  28.986  55.471  1.00  0.00    -0.000 C 
BRANCH  16  17
ATOM     17  C   UNL     1      -0.356  29.907  55.752  1.00  0.00    -0.003 C 
ATOM     18  C   UNL     1      -0.997  29.651  57.115  1.00  0.00     0.004 C 
ENDBRANCH  16  17
ENDBRANCH  15  16
ENDBRANCH  14  15
ENDBRANCH  13  14
ENDBRANCH  12  13
ENDBRANCH  11  12
ENDBRANCH   1  11
TORSDOF 14
ENDMDL
MODEL 7
REMARK VINA RESULT:    -3.708     14.430     16.337
REMARK INTER + INTRA:          -8.074
REMARK INTER:                  -5.931
REMARK INTRA:                  -2.144
REMARK UNBOUND:                -1.331
REMARK SMILES CCCCCCCCCCCCCCCC(=O)[O-]
REMARK SMILES IDX 9 1 10 2 11 3 12 4 13 5 14 6 15 7 16 8 17 9 18 10 8 11 7 12
REMARK SMILES IDX 6 13 5 14 4 15 3 16 2 17 1 18
REMARK H PARENT
REMARK Flexibility Score: inf
ROOT
ATOM      1  C   UNL     1      -3.321  35.491  41.422  1.00  0.00     0.000 C 
ENDROOT
BRANCH   1   2
ATOM      2  C   UNL     1      -3.536  36.824  40.690  1.00  0.00     0.000 C 
BRANCH   2   3
ATOM      3  C   UNL     1      -4.351  37.831  41.518  1.00  0.00     0.000 C 
BRANCH   3   4
ATOM      4  C   UNL     1      -3.744  38.080  42.909  1.00  0.00     0.000 C 
BRANCH   4   5
ATOM      5  C   UNL     1      -4.781  38.566  43.937  1.00  0.00     0.000 C 
BRANCH   5   6
ATOM      6  C   UNL     1      -6.255  38.405  43.511  1.00  0.00     0.006 C 
BRANCH   6   7
ATOM      7  C   UNL     1      -7.243  39.300  44.274  1.00  0.00     0.053 C 
BRANCH   7   8
ATOM      8  C   UNL     1      -7.875  38.581  45.426  1.00  0.00     0.041 C 
ATOM      9  O   UNL     1      -8.917  37.896  45.251  1.00  0.00    -0.550 OA
ATOM     10  O   UNL     1      -7.331  38.695  46.699  1.00  0.00    -0.550 OA
ENDBRANCH   7   8
ENDBRANCH   6   7
ENDBRANCH   5   6
ENDBRANCH   4   5
ENDBRANCH   3   4
ENDBRANCH   2   3
ENDBRANCH   1   2
BRANCH   1  11
ATOM     11  C   UNL     1      -4.500  34.539  41.185  1.00  0.00     0.000 C 
BRANCH  11  12
ATOM     12  C   UNL     1      -4.862  33.781  42.471  1.00  0.00    -0.000 C 
BRANCH  12  13
ATOM     13  C   UNL     1      -4.539  34.578  43.747  1.00  0.00    -0.000 C 
BRANCH  13  14
ATOM     14  C   UNL     1      -5.752  34.878  44.651  1.00  0.00    -0.000 C 
BRANCH  14  15
ATOM     15  C   UNL     1      -7.107  34.956  43.919  1.00  0.00    -0.000 C 
BRANCH  15  16
ATOM     16  C   UNL     1      -8.155  33.922  44.373  1.00  0.00    -0.000 C 
BRANCH  16  17
ATOM     17  C   UNL     1      -8.280  32.687  43.462  1.00  0.00    -0.003 C 
ATOM     18  C   UNL     1      -8.532  33.050  41.999  1.00  0.00     0.004 C 
ENDBRANCH  16  17
ENDBRANCH  15  16
ENDBRANCH  14  15
ENDBRANCH  13  14
ENDBRANCH  12  13
ENDBRANCH  11  12
ENDBRANCH   1  11
TORSDOF 14
ENDMDL
MODEL 8
REMARK VINA RESULT:    -3.706      2.008      4.076
REMARK INTER + INTRA:          -8.070
REMARK INTER:                  -6.910
REMARK INTRA:                  -1.160
REMARK UNBOUND:                -1.331
REMARK SMILES CCCCCCCCCCCCCCCC(=O)[O-]
REMARK SMILES IDX 9 1 10 2 11 3 12 4 13 5 14 6 15 7 16 8 17 9 18 10 8 11 7 12
REMARK SMILES IDX 6 13 5 14 4 15 3 16 2 17 1 18
REMARK H PARENT
REMARK Flexibility Score: inf
ROOT
ATOM      1  C   UNL     1       4.957  28.124  51.871  1.00  0.00     0.000 C 
ENDROOT
BRANCH   1   2
ATOM      2  C   UNL     1       5.974  28.266  50.728  1.00  0.00     0.000 C 
BRANCH   2   3
ATOM      3  C   UNL     1       5.949  27.073  49.759  1.00  0.00     0.000 C 
BRANCH   3   4
ATOM      4  C   UNL     1       4.547  26.456  49.618  1.00  0.00     0.000 C 
BRANCH   4   5
ATOM      5  C   UNL     1       3.761  27.018  48.421  1.00  0.00     0.000 C 
BRANCH   5   6
ATOM      6  C   UNL     1       3.378  28.509  48.528  1.00  0.00     0.006 C 
BRANCH   6   7
ATOM      7  C   UNL     1       1.930  28.827  48.124  1.00  0.00     0.053 C 
BRANCH   7   8
ATOM      8  C   UNL     1       1.806  29.098  46.656  1.00  0.00     0.041 C 
ATOM      9  O   UNL     1       0.671  29.139  46.112  1.00  0.00    -0.550 OA
ATOM     10  O   UNL     1       2.946  29.271  45.882  1.00  0.00    -0.550 OA
ENDBRANCH   7   8
ENDBRANCH   6   7
ENDBRANCH   5   6
ENDBRANCH   4   5
ENDBRANCH   3   4
ENDBRANCH   2   3
ENDBRANCH   1   2
BRANCH   1  11
ATOM     11  C   UNL     1       4.287  29.468  52.179  1.00  0.00     0.000 C 
BRANCH  11  12
ATOM     12  C   UNL     1       4.075  29.644  53.690  1.00  0.00    -0.000 C 
BRANCH  12  13
ATOM     13  C   UNL     1       5.395  29.680  54.480  1.00  0.00    -0.000 C 
BRANCH  13  14
ATOM     14  C   UNL     1       5.305  29.141  55.922  1.00  0.00    -0.000 C 
BRANCH  14  15
ATOM     15  C   UNL     1       4.562  27.799  56.071  1.00  0.00    -0.000 C 
BRANCH  15  16
ATOM     16  C   UNL     1       3.664  27.684  57.318  1.00  0.00    -0.000 C 
BRANCH  16  17
ATOM     17  C   UNL     1       2.418  28.589  57.303  1.00  0.00    -0.003 C 
ATOM     18  C   UNL     1       1.519  28.342  56.092  1.00  0.00     0.004 C 
ENDBRANCH  16  17
ENDBRANCH  15  16
ENDBRANCH  14  15
ENDBRANCH  13  14
ENDBRANCH  12  13
ENDBRANCH  11  12
ENDBRANCH   1  11
TORSDOF 14
ENDMDL
MODEL 9
REMARK VINA RESULT:    -3.669     13.691     15.888
REMARK INTER + INTRA:          -8.004
REMARK INTER:                  -6.193
REMARK INTRA:                  -1.811
REMARK UNBOUND:                -1.331
REMARK SMILES CCCCCCCCCCCCCCCC(=O)[O-]
REMARK SMILES IDX 9 1 10 2 11 3 12 4 13 5 14 6 15 7 16 8 17 9 18 10 8 11 7 12
REMARK SMILES IDX 6 13 5 14 4 15 3 16 2 17 1 18
REMARK H PARENT
REMARK Flexibility Score: inf
ROOT
ATOM      1  C   UNL     1      -2.278  34.594  40.461  1.00  0.00     0.000 C 
ENDROOT
BRANCH   1   2
ATOM      2  C   UNL     1      -1.578  34.637  41.828  1.00  0.00     0.000 C 
BRANCH   2   3
ATOM      3  C   UNL     1      -2.428  34.020  42.950  1.00  0.00     0.000 C 
BRANCH   3   4
ATOM      4  C   UNL     1      -3.332  32.880  42.448  1.00  0.00     0.000 C 
BRANCH   4   5
ATOM      5  C   UNL     1      -4.732  32.899  43.087  1.00  0.00     0.000 C 
BRANCH   5   6
ATOM      6  C   UNL     1      -5.766  33.798  42.377  1.00  0.00     0.006 C 
BRANCH   6   7
ATOM      7  C   UNL     1      -6.992  34.157  43.230  1.00  0.00     0.053 C 
BRANCH   7   8
ATOM      8  C   UNL     1      -8.176  33.303  42.897  1.00  0.00     0.041 C 
ATOM      9  O   UNL     1      -8.766  32.656  43.802  1.00  0.00    -0.550 OA
ATOM     10  O   UNL     1      -8.606  33.194  41.581  1.00  0.00    -0.550 OA
ENDBRANCH   7   8
ENDBRANCH   6   7
ENDBRANCH   5   6
ENDBRANCH   4   5
ENDBRANCH   3   4
ENDBRANCH   2   3
ENDBRANCH   1   2
BRANCH   1  11
ATOM     11  C   UNL     1      -2.487  36.009  39.907  1.00  0.00     0.000 C 
BRANCH  11  12
ATOM     12  C   UNL     1      -3.921  36.494  40.164  1.00  0.00    -0.000 C 
BRANCH  12  13
ATOM     13  C   UNL     1      -3.991  37.635  41.195  1.00  0.00    -0.000 C 
BRANCH  13  14
ATOM     14  C   UNL     1      -4.143  37.179  42.660  1.00  0.00    -0.000 C 
BRANCH  14  15
ATOM     15  C   UNL     1      -5.516  37.473  43.296  1.00  0.00    -0.000 C 
BRANCH  15  16
ATOM     16  C   UNL     1      -5.959  38.948  43.243  1.00  0.00    -0.000 C 
BRANCH  16  17
ATOM     17  C   UNL     1      -7.227  39.272  44.053  1.00  0.00    -0.003 C 
ATOM     18  C   UNL     1      -7.863  38.034  44.684  1.00  0.00     0.004 C 
ENDBRANCH  16  17
ENDBRANCH  15  16
ENDBRANCH  14  15
ENDBRANCH  13  14
ENDBRANCH  12  13
ENDBRANCH  11  12
ENDBRANCH   1  11
TORSDOF 14
ENDMDL
