MODEL 1
REMARK VINA RESULT:    -5.589      0.000      0.000
REMARK INTER + INTRA:         -12.816
REMARK INTER:                 -10.490
REMARK INTRA:                  -2.327
REMARK UNBOUND:                -2.327
REMARK SMILES CCCCCCCCC=CCCCCCCCC(=O)[O-]
REMARK SMILES IDX 10 1 9 2 11 3 12 4 13 5 14 6 15 7 16 8 17 9 18 10 19 11
REMARK SMILES IDX 20 12 8 13 7 14 6 15 5 16 4 17 3 18 2 19 1 20
REMARK H PARENT
REMARK Flexibility Score: inf
ROOT
ATOM      1  C   UNL     1      18.837  23.168   6.649  1.00  0.00    -0.031 C 
ATOM      2  C   UNL     1      17.647  23.771   6.779  1.00  0.00    -0.031 C 
ENDROOT
BRANCH   1   3
ATOM      3  C   UNL     1      19.147  22.288   5.470  1.00  0.00     0.027 C 
BRANCH   3   4
ATOM      4  C   UNL     1      20.596  21.788   5.518  1.00  0.00     0.004 C 
BRANCH   4   5
ATOM      5  C   UNL     1      21.240  22.101   6.875  1.00  0.00     0.000 C 
BRANCH   5   6
ATOM      6  C   UNL     1      22.103  20.928   7.360  1.00  0.00     0.000 C 
BRANCH   6   7
ATOM      7  C   UNL     1      22.531  19.989   6.220  1.00  0.00     0.000 C 
BRANCH   7   8
ATOM      8  C   UNL     1      23.734  19.092   6.574  1.00  0.00     0.006 C 
BRANCH   8   9
ATOM      9  C   UNL     1      24.569  18.722   5.340  1.00  0.00     0.053 C 
BRANCH   9  10
ATOM     10  C   UNL     1      24.355  17.288   4.971  1.00  0.00     0.041 C 
ATOM     11  O   UNL     1      23.292  16.700   5.311  1.00  0.00    -0.550 OA
ATOM     12  O   UNL     1      25.303  16.618   4.198  1.00  0.00    -0.550 OA
ENDBRANCH   9  10
ENDBRANCH   8   9
ENDBRANCH   7   8
ENDBRANCH   6   7
ENDBRANCH   5   6
ENDBRANCH   4   5
ENDBRANCH   3   4
ENDBRANCH   1   3
BRANCH   2  13
ATOM     13  C   UNL     1      17.326  24.639   7.967  1.00  0.00     0.027 C 
BRANCH  13  14
ATOM     14  C   UNL     1      18.556  25.396   8.499  1.00  0.00     0.004 C 
BRANCH  14  15
ATOM     15  C   UNL     1      18.995  24.983   9.919  1.00  0.00     0.000 C 
BRANCH  15  16
ATOM     16  C   UNL     1      20.206  24.035   9.972  1.00  0.00     0.000 C 
BRANCH  16  17
ATOM     17  C   UNL     1      19.817  22.593  10.342  1.00  0.00    -0.000 C 
BRANCH  17  18
ATOM     18  C   UNL     1      18.405  22.499  10.944  1.00  0.00    -0.000 C 
BRANCH  18  19
ATOM     19  C   UNL     1      17.582  21.352  10.341  1.00  0.00    -0.003 C 
ATOM     20  C   UNL     1      18.334  20.678   9.196  1.00  0.00     0.004 C 
ENDBRANCH  18  19
ENDBRANCH  17  18
ENDBRANCH  16  17
ENDBRANCH  15  16
ENDBRANCH  14  15
ENDBRANCH  13  14
ENDBRANCH   2  13
TORSDOF 15
ENDMDL
MODEL 2
REMARK VINA RESULT:    -5.460      2.709      4.096
REMARK INTER + INTRA:         -12.574
REMARK INTER:                  -9.525
REMARK INTRA:                  -3.049
REMARK UNBOUND:                -2.327
REMARK SMILES CCCCCCCCC=CCCCCCCCC(=O)[O-]
REMARK SMILES IDX 10 1 9 2 11 3 12 4 13 5 14 6 15 7 16 8 17 9 18 10 19 11
REMARK SMILES IDX 20 12 8 13 7 14 6 15 5 16 4 17 3 18 2 19 1 20
REMARK H PARENT
REMARK Flexibility Score: inf
ROOT
ATOM      1  C   UNL     1      20.516  24.083   8.897  1.00  0.00    -0.031 C 
ATOM      2  C   UNL     1      19.706  24.834   9.658  1.00  0.00    -0.031 C 
ENDROOT
BRANCH   1   3
ATOM      3  C   UNL     1      21.478  23.101   9.505  1.00  0.00     0.027 C 
BRANCH   3   4
ATOM      4  C   UNL     1      21.894  22.032   8.488  1.00  0.00     0.004 C 
BRANCH   4   5
ATOM      5  C   UNL     1      21.140  22.210   7.164  1.00  0.00     0.000 C 
BRANCH   5   6
ATOM      6  C   UNL     1      21.786  21.382   6.044  1.00  0.00     0.000 C 
BRANCH   6   7
ATOM      7  C   UNL     1      20.938  21.348   4.761  1.00  0.00     0.000 C 
BRANCH   7   8
ATOM      8  C   UNL     1      19.445  21.651   4.997  1.00  0.00     0.006 C 
BRANCH   8   9
ATOM      9  C   UNL     1      18.554  20.426   4.739  1.00  0.00     0.053 C 
BRANCH   9  10
ATOM     10  C   UNL     1      18.156  19.785   6.032  1.00  0.00     0.041 C 
ATOM     11  O   UNL     1      16.938  19.691   6.341  1.00  0.00    -0.550 OA
ATOM     12  O   UNL     1      19.130  19.236   6.866  1.00  0.00    -0.550 OA
ENDBRANCH   9  10
ENDBRANCH   8   9
ENDBRANCH   7   8
ENDBRANCH   6   7
ENDBRANCH   5   6
ENDBRANCH   4   5
ENDBRANCH   3   4
ENDBRANCH   1   3
BRANCH   2  13
ATOM     13  C   UNL     1      18.754  25.831   9.054  1.00  0.00     0.027 C 
BRANCH  13  14
ATOM     14  C   UNL     1      17.353  25.242   8.810  1.00  0.00     0.004 C 
BRANCH  14  15
ATOM     15  C   UNL     1      17.190  24.521   7.457  1.00  0.00     0.000 C 
BRANCH  15  16
ATOM     16  C   UNL     1      17.255  22.985   7.530  1.00  0.00     0.000 C 
BRANCH  16  17
ATOM     17  C   UNL     1      16.968  22.444   8.942  1.00  0.00    -0.000 C 
BRANCH  17  18
ATOM     18  C   UNL     1      18.046  21.462   9.427  1.00  0.00    -0.000 C 
BRANCH  18  19
ATOM     19  C   UNL     1      18.325  21.587  10.931  1.00  0.00    -0.003 C 
ATOM     20  C   UNL     1      17.420  22.636  11.573  1.00  0.00     0.004 C 
ENDBRANCH  18  19
ENDBRANCH  17  18
ENDBRANCH  16  17
ENDBRANCH  15  16
ENDBRANCH  14  15
ENDBRANCH  13  14
ENDBRANCH   2  13
TORSDOF 15
ENDMDL
MODEL 3
REMARK VINA RESULT:    -5.198      1.834      3.774
REMARK INTER + INTRA:         -12.082
REMARK INTER:                  -9.162
REMARK INTRA:                  -2.920
REMARK UNBOUND:                -2.327
REMARK SMILES CCCCCCCCC=CCCCCCCCC(=O)[O-]
REMARK SMILES IDX 10 1 9 2 11 3 12 4 13 5 14 6 15 7 16 8 17 9 18 10 19 11
REMARK SMILES IDX 20 12 8 13 7 14 6 15 5 16 4 17 3 18 2 19 1 20
REMARK H PARENT
REMARK Flexibility Score: inf
ROOT
ATOM      1  C   UNL     1      17.257  20.772   9.961  1.00  0.00    -0.031 C 
ATOM      2  C   UNL     1      18.248  21.374  10.635  1.00  0.00    -0.031 C 
ENDROOT
BRANCH   1   3
ATOM      3  C   UNL     1      17.541  19.762   8.884  1.00  0.00     0.027 C 
BRANCH   3   4
ATOM      4  C   UNL     1      18.631  20.263   7.929  1.00  0.00     0.004 C 
BRANCH   4   5
ATOM      5  C   UNL     1      18.015  20.931   6.693  1.00  0.00     0.000 C 
BRANCH   5   6
ATOM      6  C   UNL     1      18.944  20.809   5.478  1.00  0.00     0.000 C 
BRANCH   6   7
ATOM      7  C   UNL     1      19.939  21.977   5.366  1.00  0.00     0.000 C 
BRANCH   7   8
ATOM      8  C   UNL     1      21.416  21.534   5.349  1.00  0.00     0.006 C 
BRANCH   8   9
ATOM      9  C   UNL     1      21.588  20.063   5.753  1.00  0.00     0.053 C 
BRANCH   9  10
ATOM     10  C   UNL     1      22.663  19.924   6.785  1.00  0.00     0.041 C 
ATOM     11  O   UNL     1      22.545  20.497   7.901  1.00  0.00    -0.550 OA
ATOM     12  O   UNL     1      23.767  19.110   6.535  1.00  0.00    -0.550 OA
ENDBRANCH   9  10
ENDBRANCH   8   9
ENDBRANCH   7   8
ENDBRANCH   6   7
ENDBRANCH   5   6
ENDBRANCH   4   5
ENDBRANCH   3   4
ENDBRANCH   1   3
BRANCH   2  13
ATOM     13  C   UNL     1      17.969  22.399  11.702  1.00  0.00     0.027 C 
BRANCH  13  14
ATOM     14  C   UNL     1      16.877  23.402  11.291  1.00  0.00     0.004 C 
BRANCH  14  15
ATOM     15  C   UNL     1      17.365  24.533  10.362  1.00  0.00     0.000 C 
BRANCH  15  16
ATOM     16  C   UNL     1      17.033  24.334   8.871  1.00  0.00     0.000 C 
BRANCH  16  17
ATOM     17  C   UNL     1      18.282  24.377   7.973  1.00  0.00    -0.000 C 
BRANCH  17  18
ATOM     18  C   UNL     1      19.574  24.616   8.771  1.00  0.00    -0.000 C 
BRANCH  18  19
ATOM     19  C   UNL     1      20.610  23.502   8.562  1.00  0.00    -0.003 C 
ATOM     20  C   UNL     1      21.341  23.179   9.863  1.00  0.00     0.004 C 
ENDBRANCH  18  19
ENDBRANCH  17  18
ENDBRANCH  16  17
ENDBRANCH  15  16
ENDBRANCH  14  15
ENDBRANCH  13  14
ENDBRANCH   2  13
TORSDOF 15
ENDMDL
MODEL 4
REMARK VINA RESULT:    -5.180      2.437      4.029
REMARK INTER + INTRA:         -12.050
REMARK INTER:                  -9.418
REMARK INTRA:                  -2.632
REMARK UNBOUND:                -2.327
REMARK SMILES CCCCCCCCC=CCCCCCCCC(=O)[O-]
REMARK SMILES IDX 10 1 9 2 11 3 12 4 13 5 14 6 15 7 16 8 17 9 18 10 19 11
REMARK SMILES IDX 20 12 8 13 7 14 6 15 5 16 4 17 3 18 2 19 1 20
REMARK H PARENT
REMARK Flexibility Score: inf
ROOT
ATOM      1  C   UNL     1      20.455  22.331   9.522  1.00  0.00    -0.031 C 
ATOM      2  C   UNL     1      19.267  21.778   9.237  1.00  0.00    -0.031 C 
ENDROOT
BRANCH   1   3
ATOM      3  C   UNL     1      21.360  22.850   8.440  1.00  0.00     0.027 C 
BRANCH   3   4
ATOM      4  C   UNL     1      20.857  22.436   7.052  1.00  0.00     0.004 C 
BRANCH   4   5
ATOM      5  C   UNL     1      21.926  21.639   6.294  1.00  0.00     0.000 C 
BRANCH   5   6
ATOM      6  C   UNL     1      21.369  21.079   4.978  1.00  0.00     0.000 C 
BRANCH   6   7
ATOM      7  C   UNL     1      19.898  21.460   4.741  1.00  0.00     0.000 C 
BRANCH   7   8
ATOM      8  C   UNL     1      18.919  20.280   4.899  1.00  0.00     0.006 C 
BRANCH   8   9
ATOM      9  C   UNL     1      19.645  18.933   5.027  1.00  0.00     0.053 C 
BRANCH   9  10
ATOM     10  C   UNL     1      19.345  18.297   6.348  1.00  0.00     0.041 C 
ATOM     11  O   UNL     1      19.813  17.159   6.623  1.00  0.00    -0.550 OA
ATOM     12  O   UNL     1      18.598  18.990   7.300  1.00  0.00    -0.550 OA
ENDBRANCH   9  10
ENDBRANCH   8   9
ENDBRANCH   7   8
ENDBRANCH   6   7
ENDBRANCH   5   6
ENDBRANCH   4   5
ENDBRANCH   3   4
ENDBRANCH   1   3
BRANCH   2  13
ATOM     13  C   UNL     1      18.366  21.241  10.316  1.00  0.00     0.027 C 
BRANCH  13  14
ATOM     14  C   UNL     1      17.085  22.076  10.491  1.00  0.00     0.004 C 
BRANCH  14  15
ATOM     15  C   UNL     1      17.289  23.409  11.240  1.00  0.00     0.000 C 
BRANCH  15  16
ATOM     16  C   UNL     1      16.989  24.671  10.410  1.00  0.00     0.000 C 
BRANCH  16  17
ATOM     17  C   UNL     1      18.262  25.339   9.861  1.00  0.00    -0.000 C 
BRANCH  17  18
ATOM     18  C   UNL     1      18.420  25.152   8.344  1.00  0.00    -0.000 C 
BRANCH  18  19
ATOM     19  C   UNL     1      17.164  24.559   7.689  1.00  0.00    -0.003 C 
ATOM     20  C   UNL     1      17.533  23.602   6.559  1.00  0.00     0.004 C 
ENDBRANCH  18  19
ENDBRANCH  17  18
ENDBRANCH  16  17
ENDBRANCH  15  16
ENDBRANCH  14  15
ENDBRANCH  13  14
ENDBRANCH   2  13
TORSDOF 15
ENDMDL
MODEL 5
REMARK VINA RESULT:    -5.168      2.519      4.674
REMARK INTER + INTRA:         -12.027
REMARK INTER:                  -9.384
REMARK INTRA:                  -2.643
REMARK UNBOUND:                -2.327
REMARK SMILES CCCCCCCCC=CCCCCCCCC(=O)[O-]
REMARK SMILES IDX 10 1 9 2 11 3 12 4 13 5 14 6 15 7 16 8 17 9 18 10 19 11
REMARK SMILES IDX 20 12 8 13 7 14 6 15 5 16 4 17 3 18 2 19 1 20
REMARK H PARENT
REMARK Flexibility Score: inf
ROOT
ATOM      1  C   UNL     1      21.995  21.307   8.002  1.00  0.00    -0.031 C 
ATOM      2  C   UNL     1      21.398  22.453   8.360  1.00  0.00    -0.031 C 
ENDROOT
BRANCH   1   3
ATOM      3  C   UNL     1      21.647  20.608   6.717  1.00  0.00     0.027 C 
BRANCH   3   4
ATOM      4  C   UNL     1      21.402  21.616   5.588  1.00  0.00     0.004 C 
BRANCH   4   5
ATOM      5  C   UNL     1      19.953  21.542   5.090  1.00  0.00     0.000 C 
BRANCH   5   6
ATOM      6  C   UNL     1      19.108  22.682   5.677  1.00  0.00     0.000 C 
BRANCH   6   7
ATOM      7  C   UNL     1      18.067  22.191   6.696  1.00  0.00     0.000 C 
BRANCH   7   8
ATOM      8  C   UNL     1      17.646  20.721   6.493  1.00  0.00     0.006 C 
BRANCH   8   9
ATOM      9  C   UNL     1      18.025  19.835   7.689  1.00  0.00     0.053 C 
BRANCH   9  10
ATOM     10  C   UNL     1      18.235  18.421   7.249  1.00  0.00     0.041 C 
ATOM     11  O   UNL     1      19.291  18.098   6.641  1.00  0.00    -0.550 OA
ATOM     12  O   UNL     1      17.289  17.446   7.565  1.00  0.00    -0.550 OA
ENDBRANCH   9  10
ENDBRANCH   8   9
ENDBRANCH   7   8
ENDBRANCH   6   7
ENDBRANCH   5   6
ENDBRANCH   4   5
ENDBRANCH   3   4
ENDBRANCH   1   3
BRANCH   2  13
ATOM     13  C   UNL     1      21.730  23.148   9.653  1.00  0.00     0.027 C 
BRANCH  13  14
ATOM     14  C   UNL     1      20.565  23.121  10.658  1.00  0.00     0.004 C 
BRANCH  14  15
ATOM     15  C   UNL     1      19.330  22.328  10.183  1.00  0.00     0.000 C 
BRANCH  15  16
ATOM     16  C   UNL     1      18.065  22.525  11.039  1.00  0.00     0.000 C 
BRANCH  16  17
ATOM     17  C   UNL     1      17.465  23.935  10.898  1.00  0.00    -0.000 C 
BRANCH  17  18
ATOM     18  C   UNL     1      17.211  24.324   9.433  1.00  0.00    -0.000 C 
BRANCH  18  19
ATOM     19  C   UNL     1      17.560  25.790   9.143  1.00  0.00    -0.003 C 
ATOM     20  C   UNL     1      19.037  25.945   8.790  1.00  0.00     0.004 C 
ENDBRANCH  18  19
ENDBRANCH  17  18
ENDBRANCH  16  17
ENDBRANCH  15  16
ENDBRANCH  14  15
ENDBRANCH  13  14
ENDBRANCH   2  13
TORSDOF 15
ENDMDL
MODEL 6
REMARK VINA RESULT:    -5.061      2.771      4.997
REMARK INTER + INTRA:         -11.826
REMARK INTER:                  -9.325
REMARK INTRA:                  -2.501
REMARK UNBOUND:                -2.327
REMARK SMILES CCCCCCCCC=CCCCCCCCC(=O)[O-]
REMARK SMILES IDX 10 1 9 2 11 3 12 4 13 5 14 6 15 7 16 8 17 9 18 10 19 11
REMARK SMILES IDX 20 12 8 13 7 14 6 15 5 16 4 17 3 18 2 19 1 20
REMARK H PARENT
REMARK Flexibility Score: inf
ROOT
ATOM      1  C   UNL     1      20.286  24.359   9.840  1.00  0.00    -0.031 C 
ATOM      2  C   UNL     1      19.164  25.060  10.062  1.00  0.00    -0.031 C 
ENDROOT
BRANCH   1   3
ATOM      3  C   UNL     1      20.615  23.129  10.640  1.00  0.00     0.027 C 
BRANCH   3   4
ATOM      4  C   UNL     1      19.344  22.362  11.023  1.00  0.00     0.004 C 
BRANCH   4   5
ATOM      5  C   UNL     1      18.844  21.508   9.851  1.00  0.00     0.000 C 
BRANCH   5   6
ATOM      6  C   UNL     1      17.359  21.157  10.016  1.00  0.00     0.000 C 
BRANCH   6   7
ATOM      7  C   UNL     1      16.977  19.834   9.332  1.00  0.00     0.000 C 
BRANCH   7   8
ATOM      8  C   UNL     1      17.588  19.664   7.926  1.00  0.00     0.006 C 
BRANCH   8   9
ATOM      9  C   UNL     1      17.214  18.319   7.286  1.00  0.00     0.053 C 
BRANCH   9  10
ATOM     10  C   UNL     1      18.395  17.723   6.588  1.00  0.00     0.041 C 
ATOM     11  O   UNL     1      19.542  18.219   6.751  1.00  0.00    -0.550 OA
ATOM     12  O   UNL     1      18.237  16.579   5.807  1.00  0.00    -0.550 OA
ENDBRANCH   9  10
ENDBRANCH   8   9
ENDBRANCH   7   8
ENDBRANCH   6   7
ENDBRANCH   5   6
ENDBRANCH   4   5
ENDBRANCH   3   4
ENDBRANCH   1   3
BRANCH   2  13
ATOM     13  C   UNL     1      18.839  26.301   9.275  1.00  0.00     0.027 C 
BRANCH  13  14
ATOM     14  C   UNL     1      17.720  26.074   8.242  1.00  0.00     0.004 C 
BRANCH  14  15
ATOM     15  C   UNL     1      17.115  24.655   8.258  1.00  0.00     0.000 C 
BRANCH  15  16
ATOM     16  C   UNL     1      17.342  23.840   6.972  1.00  0.00     0.000 C 
BRANCH  16  17
ATOM     17  C   UNL     1      18.821  23.476   6.751  1.00  0.00    -0.000 C 
BRANCH  17  18
ATOM     18  C   UNL     1      19.006  22.388   5.681  1.00  0.00    -0.000 C 
BRANCH  18  19
ATOM     19  C   UNL     1      20.243  21.515   5.936  1.00  0.00    -0.003 C 
ATOM     20  C   UNL     1      21.209  22.197   6.901  1.00  0.00     0.004 C 
ENDBRANCH  18  19
ENDBRANCH  17  18
ENDBRANCH  16  17
ENDBRANCH  15  16
ENDBRANCH  14  15
ENDBRANCH  13  14
ENDBRANCH   2  13
TORSDOF 15
ENDMDL
MODEL 7
REMARK VINA RESULT:    -5.033      1.402      3.102
REMARK INTER + INTRA:         -11.774
REMARK INTER:                  -9.724
REMARK INTRA:                  -2.050
REMARK UNBOUND:                -2.327
REMARK SMILES CCCCCCCCC=CCCCCCCCC(=O)[O-]
REMARK SMILES IDX 10 1 9 2 11 3 12 4 13 5 14 6 15 7 16 8 17 9 18 10 19 11
REMARK SMILES IDX 20 12 8 13 7 14 6 15 5 16 4 17 3 18 2 19 1 20
REMARK H PARENT
REMARK Flexibility Score: inf
ROOT
ATOM      1  C   UNL     1      20.965  22.750   9.527  1.00  0.00    -0.031 C 
ATOM      2  C   UNL     1      19.794  22.109   9.657  1.00  0.00    -0.031 C 
ENDROOT
BRANCH   1   3
ATOM      3  C   UNL     1      21.682  22.815   8.207  1.00  0.00     0.027 C 
BRANCH   3   4
ATOM      4  C   UNL     1      21.618  21.470   7.475  1.00  0.00     0.004 C 
BRANCH   4   5
ATOM      5  C   UNL     1      22.107  21.608   6.028  1.00  0.00     0.000 C 
BRANCH   5   6
ATOM      6  C   UNL     1      21.026  21.163   5.034  1.00  0.00     0.000 C 
BRANCH   6   7
ATOM      7  C   UNL     1      21.502  20.042   4.094  1.00  0.00     0.000 C 
BRANCH   7   8
ATOM      8  C   UNL     1      21.990  18.780   4.833  1.00  0.00     0.006 C 
BRANCH   8   9
ATOM      9  C   UNL     1      23.254  18.184   4.196  1.00  0.00     0.053 C 
BRANCH   9  10
ATOM     10  C   UNL     1      24.383  18.173   5.178  1.00  0.00     0.041 C 
ATOM     11  O   UNL     1      24.369  18.957   6.165  1.00  0.00    -0.550 OA
ATOM     12  O   UNL     1      25.421  17.254   5.035  1.00  0.00    -0.550 OA
ENDBRANCH   9  10
ENDBRANCH   8   9
ENDBRANCH   7   8
ENDBRANCH   6   7
ENDBRANCH   5   6
ENDBRANCH   4   5
ENDBRANCH   3   4
ENDBRANCH   1   3
BRANCH   2  13
ATOM     13  C   UNL     1      19.081  22.025  10.980  1.00  0.00     0.027 C 
BRANCH  13  14
ATOM     14  C   UNL     1      17.559  22.216  10.848  1.00  0.00     0.004 C 
BRANCH  14  15
ATOM     15  C   UNL     1      17.040  23.577  11.354  1.00  0.00     0.000 C 
BRANCH  15  16
ATOM     16  C   UNL     1      16.876  24.653  10.266  1.00  0.00     0.000 C 
BRANCH  16  17
ATOM     17  C   UNL     1      18.208  25.325   9.888  1.00  0.00    -0.000 C 
BRANCH  17  18
ATOM     18  C   UNL     1      18.397  25.446   8.367  1.00  0.00    -0.000 C 
BRANCH  18  19
ATOM     19  C   UNL     1      17.438  24.543   7.579  1.00  0.00    -0.003 C 
ATOM     20  C   UNL     1      18.203  23.494   6.777  1.00  0.00     0.004 C 
ENDBRANCH  18  19
ENDBRANCH  17  18
ENDBRANCH  16  17
ENDBRANCH  15  16
ENDBRANCH  14  15
ENDBRANCH  13  14
ENDBRANCH   2  13
TORSDOF 15
ENDMDL
MODEL 8
REMARK VINA RESULT:    -5.005      1.357      2.932
REMARK INTER + INTRA:         -11.721
REMARK INTER:                  -9.009
REMARK INTRA:                  -2.712
REMARK UNBOUND:                -2.327
REMARK SMILES CCCCCCCCC=CCCCCCCCC(=O)[O-]
REMARK SMILES IDX 10 1 9 2 11 3 12 4 13 5 14 6 15 7 16 8 17 9 18 10 19 11
REMARK SMILES IDX 20 12 8 13 7 14 6 15 5 16 4 17 3 18 2 19 1 20
REMARK H PARENT
REMARK Flexibility Score: inf
ROOT
ATOM      1  C   UNL     1      18.673  20.517   7.990  1.00  0.00    -0.031 C 
ATOM      2  C   UNL     1      17.774  21.068   8.819  1.00  0.00    -0.031 C 
ENDROOT
BRANCH   1   3
ATOM      3  C   UNL     1      18.500  20.569   6.498  1.00  0.00     0.027 C 
BRANCH   3   4
ATOM      4  C   UNL     1      19.087  21.861   5.917  1.00  0.00     0.004 C 
BRANCH   4   5
ATOM      5  C   UNL     1      19.728  21.606   4.547  1.00  0.00     0.000 C 
BRANCH   5   6
ATOM      6  C   UNL     1      21.205  21.214   4.692  1.00  0.00     0.000 C 
BRANCH   6   7
ATOM      7  C   UNL     1      21.788  21.576   6.068  1.00  0.00     0.000 C 
BRANCH   7   8
ATOM      8  C   UNL     1      22.255  20.355   6.885  1.00  0.00     0.006 C 
BRANCH   8   9
ATOM      9  C   UNL     1      21.993  19.030   6.153  1.00  0.00     0.053 C 
BRANCH   9  10
ATOM     10  C   UNL     1      23.282  18.330   5.856  1.00  0.00     0.041 C 
ATOM     11  O   UNL     1      24.380  18.908   6.078  1.00  0.00    -0.550 OA
ATOM     12  O   UNL     1      23.270  17.016   5.391  1.00  0.00    -0.550 OA
ENDBRANCH   9  10
ENDBRANCH   8   9
ENDBRANCH   7   8
ENDBRANCH   6   7
ENDBRANCH   5   6
ENDBRANCH   4   5
ENDBRANCH   3   4
ENDBRANCH   1   3
BRANCH   2  13
ATOM     13  C   UNL     1      17.933  21.004  10.315  1.00  0.00     0.027 C 
BRANCH  13  14
ATOM     14  C   UNL     1      17.419  22.271  11.022  1.00  0.00     0.004 C 
BRANCH  14  15
ATOM     15  C   UNL     1      17.064  23.433  10.072  1.00  0.00     0.000 C 
BRANCH  15  16
ATOM     16  C   UNL     1      17.581  24.813  10.516  1.00  0.00     0.000 C 
BRANCH  16  17
ATOM     17  C   UNL     1      19.043  25.061  10.105  1.00  0.00    -0.000 C 
BRANCH  17  18
ATOM     18  C   UNL     1      19.375  24.474   8.723  1.00  0.00    -0.000 C 
BRANCH  18  19
ATOM     19  C   UNL     1      20.669  23.647   8.729  1.00  0.00    -0.003 C 
ATOM     20  C   UNL     1      21.036  23.209  10.144  1.00  0.00     0.004 C 
ENDBRANCH  18  19
ENDBRANCH  17  18
ENDBRANCH  16  17
ENDBRANCH  15  16
ENDBRANCH  14  15
ENDBRANCH  13  14
ENDBRANCH   2  13
TORSDOF 15
ENDMDL
MODEL 9
REMARK VINA RESULT:    -3.950      3.335      6.339
REMARK INTER + INTRA:          -9.741
REMARK INTER:                  -7.151
REMARK INTRA:                  -2.590
REMARK UNBOUND:                -2.327
REMARK SMILES CCCCCCCCC=CCCCCCCCC(=O)[O-]
REMARK SMILES IDX 10 1 9 2 11 3 12 4 13 5 14 6 15 7 16 8 17 9 18 10 19 11
REMARK SMILES IDX 20 12 8 13 7 14 6 15 5 16 4 17 3 18 2 19 1 20
REMARK H PARENT
REMARK Flexibility Score: inf
ROOT
ATOM      1  C   UNL     1      17.642  22.730   6.578  1.00  0.00    -0.031 C 
ATOM      2  C   UNL     1      18.863  23.014   6.102  1.00  0.00    -0.031 C 
ENDROOT
BRANCH   1   3
ATOM      3  C   UNL     1      16.875  23.719   7.412  1.00  0.00     0.027 C 
BRANCH   3   4
ATOM      4  C   UNL     1      17.724  24.957   7.722  1.00  0.00     0.004 C 
BRANCH   4   5
ATOM      5  C   UNL     1      17.703  25.275   9.222  1.00  0.00     0.000 C 
BRANCH   5   6
ATOM      6  C   UNL     1      19.128  25.398   9.781  1.00  0.00     0.000 C 
BRANCH   6   7
ATOM      7  C   UNL     1      20.104  24.387   9.156  1.00  0.00     0.000 C 
BRANCH   7   8
ATOM      8  C   UNL     1      20.378  23.158  10.046  1.00  0.00     0.006 C 
BRANCH   8   9
ATOM      9  C   UNL     1      19.629  21.908   9.560  1.00  0.00     0.053 C 
BRANCH   9  10
ATOM     10  C   UNL     1      18.346  21.739  10.312  1.00  0.00     0.041 C 
ATOM     11  O   UNL     1      17.406  21.062   9.815  1.00  0.00    -0.550 OA
ATOM     12  O   UNL     1      18.212  22.280  11.590  1.00  0.00    -0.550 OA
ENDBRANCH   9  10
ENDBRANCH   8   9
ENDBRANCH   7   8
ENDBRANCH   6   7
ENDBRANCH   5   6
ENDBRANCH   4   5
ENDBRANCH   3   4
ENDBRANCH   1   3
BRANCH   2  13
ATOM     13  C   UNL     1      19.643  22.020   5.282  1.00  0.00     0.027 C 
BRANCH  13  14
ATOM     14  C   UNL     1      21.014  21.688   5.898  1.00  0.00     0.004 C 
BRANCH  14  15
ATOM     15  C   UNL     1      22.076  21.224   4.880  1.00  0.00     0.000 C 
BRANCH  15  16
ATOM     16  C   UNL     1      22.537  19.765   5.045  1.00  0.00     0.000 C 
BRANCH  16  17
ATOM     17  C   UNL     1      21.409  18.751   4.781  1.00  0.00    -0.000 C 
BRANCH  17  18
ATOM     18  C   UNL     1      20.886  18.101   6.072  1.00  0.00    -0.000 C 
BRANCH  18  19
ATOM     19  C   UNL     1      19.359  17.943   6.075  1.00  0.00    -0.003 C 
ATOM     20  C   UNL     1      18.703  18.949   7.018  1.00  0.00     0.004 C 
ENDBRANCH  18  19
ENDBRANCH  17  18
ENDBRANCH  16  17
ENDBRANCH  15  16
ENDBRANCH  14  15
ENDBRANCH  13  14
ENDBRANCH   2  13
TORSDOF 15
ENDMDL
