MODEL 1
REMARK VINA RESULT:    -1.093      0.000      0.000
REMARK INTER + INTRA:          -1.289
REMARK INTER:                  -1.188
REMARK INTRA:                  -0.100
REMARK UNBOUND:                -0.100
REMARK SMILES C[C@@H]1[C@H](C)CC[C@]2(C(=O)[O-])CC[C@]3(C)C(=CC[C@H]4[C@]5(C)CC[C@H](O)C(C)(C)[C@H]5CC[C@]43C)[C@H]12
REMARK SMILES IDX 7 1 6 2 11 3 33 4 5 5 12 6 15 7 2 8 3 9 13 10 16 11 1 12
REMARK SMILES IDX 4 13 14 14 31 15 17 16 18 17 30 18 32 19 19 20 29 21 28 22
REMARK SMILES IDX 21 23 20 24 25 25 22 26 23 27 26 28 27 29 8 30 9 31 10 32
REMARK SMILES IDX 24 33
REMARK H PARENT 24 34
REMARK Flexibility Score: inf
ROOT
ATOM      1  C   UNL     1       6.320  21.680  44.879  1.00  0.00     0.017 C 
ATOM      2  C   UNL     1       7.427  20.611  45.109  1.00  0.00     0.014 C 
ATOM      3  C   UNL     1       5.139  21.067  44.094  1.00  0.00     0.014 C 
ATOM      4  C   UNL     1       6.853  22.947  44.104  1.00  0.00     0.030 C 
ATOM      5  C   UNL     1       8.304  20.345  43.891  1.00  0.00     0.004 C 
ATOM      6  C   UNL     1       3.940  22.023  44.047  1.00  0.00     0.013 C 
ATOM      7  C   UNL     1       5.725  23.864  43.593  1.00  0.00    -0.063 C 
ATOM      8  C   UNL     1       7.948  22.687  42.996  1.00  0.00    -0.003 C 
ATOM      9  C   UNL     1       8.993  21.643  43.465  1.00  0.00    -0.011 C 
ATOM     10  C   UNL     1       4.250  23.430  43.414  1.00  0.00    -0.006 C 
ATOM     11  C   UNL     1       6.057  25.138  43.291  1.00  0.00    -0.027 C 
ATOM     12  C   UNL     1       7.401  22.400  41.579  1.00  0.00     0.008 C 
ATOM     13  C   UNL     1      10.098  21.363  42.434  1.00  0.00     0.008 C 
ATOM     14  C   UNL     1       4.014  23.224  41.880  1.00  0.00     0.017 C 
ATOM     15  C   UNL     1       3.318  24.590  44.054  1.00  0.00    -0.020 C 
ATOM     16  C   UNL     1       5.065  26.128  42.745  1.00  0.00     0.032 C 
ATOM     17  C   UNL     1       3.683  26.044  43.456  1.00  0.00     0.006 C 
ATOM     18  C   UNL     1       1.790  24.195  43.923  1.00  0.00     0.008 C 
ATOM     19  C   UNL     1       3.594  24.701  45.597  1.00  0.00     0.012 C 
ATOM     20  C   UNL     1       2.493  26.794  42.736  1.00  0.00    -0.025 C 
ATOM     21  C   UNL     1       0.727  25.321  43.921  1.00  0.00     0.005 C 
ATOM     22  C   UNL     1       1.296  26.743  43.761  1.00  0.00     0.003 C 
ATOM     23  C   UNL     1       2.849  28.291  42.418  1.00  0.00     0.010 C 
ATOM     24  C   UNL     1       2.167  26.115  41.372  1.00  0.00     0.012 C 
ATOM     25  C   UNL     1       0.237  27.911  43.650  1.00  0.00    -0.006 C 
ATOM     26  C   UNL     1       2.505  29.253  43.556  1.00  0.00     0.033 C 
ATOM     27  C   UNL     1       0.980  29.303  43.834  1.00  0.00     0.120 C 
ATOM     28  C   UNL     1      -0.516  27.909  42.293  1.00  0.00     0.014 C 
ATOM     29  C   UNL     1      -0.855  27.738  44.744  1.00  0.00     0.014 C 
ENDROOT
BRANCH   1  30
ATOM     30  C   UNL     1       5.839  22.049  46.286  1.00  0.00     0.048 C 
ATOM     31  O   UNL     1       6.196  23.120  46.845  1.00  0.00    -0.550 OA
ATOM     32  O   UNL     1       5.083  21.139  47.020  1.00  0.00    -0.550 OA
ENDBRANCH   1  30
BRANCH  27  33
ATOM     33  O   UNL     1       0.765  29.869  45.105  1.00  0.00    -0.393 OA
ATOM     34  H   UNL     1       0.261  30.716  44.978  1.00  0.00     0.210 HD
ENDBRANCH  27  33
TORSDOF 2
ENDMDL
MODEL 2
REMARK VINA RESULT:    -0.629      2.025      3.681
REMARK INTER + INTRA:          -0.785
REMARK INTER:                  -0.666
REMARK INTRA:                  -0.118
REMARK UNBOUND:                -0.100
REMARK SMILES C[C@@H]1[C@H](C)CC[C@]2(C(=O)[O-])CC[C@]3(C)C(=CC[C@H]4[C@]5(C)CC[C@H](O)C(C)(C)[C@H]5CC[C@]43C)[C@H]12
REMARK SMILES IDX 7 1 6 2 11 3 33 4 5 5 12 6 15 7 2 8 3 9 13 10 16 11 1 12
REMARK SMILES IDX 4 13 14 14 31 15 17 16 18 17 30 18 32 19 19 20 29 21 28 22
REMARK SMILES IDX 21 23 20 24 25 25 22 26 23 27 26 28 27 29 8 30 9 31 10 32
REMARK SMILES IDX 24 33
REMARK H PARENT 24 34
REMARK Flexibility Score: inf
ROOT
ATOM      1  C   UNL     1       7.332  22.653  43.771  1.00  0.00     0.017 C 
ATOM      2  C   UNL     1       8.458  21.608  44.019  1.00  0.00     0.014 C 
ATOM      3  C   UNL     1       7.696  24.000  44.435  1.00  0.00     0.014 C 
ATOM      4  C   UNL     1       5.930  22.173  44.314  1.00  0.00     0.030 C 
ATOM      5  C   UNL     1       8.442  20.989  45.411  1.00  0.00     0.004 C 
ATOM      6  C   UNL     1       6.722  25.110  44.021  1.00  0.00     0.013 C 
ATOM      7  C   UNL     1       4.881  23.300  44.365  1.00  0.00    -0.063 C 
ATOM      8  C   UNL     1       5.942  21.319  45.642  1.00  0.00    -0.003 C 
ATOM      9  C   UNL     1       7.102  20.290  45.645  1.00  0.00    -0.011 C 
ATOM     10  C   UNL     1       5.213  24.812  44.353  1.00  0.00    -0.006 C 
ATOM     11  C   UNL     1       3.583  22.932  44.416  1.00  0.00    -0.027 C 
ATOM     12  C   UNL     1       5.854  22.133  46.953  1.00  0.00     0.008 C 
ATOM     13  C   UNL     1       7.153  19.414  46.906  1.00  0.00     0.008 C 
ATOM     14  C   UNL     1       5.027  25.336  45.816  1.00  0.00     0.017 C 
ATOM     15  C   UNL     1       4.218  25.521  43.289  1.00  0.00    -0.020 C 
ATOM     16  C   UNL     1       2.459  23.926  44.511  1.00  0.00     0.032 C 
ATOM     17  C   UNL     1       2.673  25.159  43.585  1.00  0.00     0.006 C 
ATOM     18  C   UNL     1       4.522  27.074  43.210  1.00  0.00     0.008 C 
ATOM     19  C   UNL     1       4.499  24.964  41.846  1.00  0.00     0.012 C 
ATOM     20  C   UNL     1       1.733  26.398  43.863  1.00  0.00    -0.025 C 
ATOM     21  C   UNL     1       3.398  28.029  42.740  1.00  0.00     0.005 C 
ATOM     22  C   UNL     1       1.998  27.392  42.667  1.00  0.00     0.003 C 
ATOM     23  C   UNL     1       0.215  25.992  43.882  1.00  0.00     0.010 C 
ATOM     24  C   UNL     1       2.044  27.016  45.259  1.00  0.00     0.012 C 
ATOM     25  C   UNL     1       0.807  28.360  42.292  1.00  0.00    -0.006 C 
ATOM     26  C   UNL     1      -0.447  26.050  42.505  1.00  0.00     0.033 C 
ATOM     27  C   UNL     1      -0.473  27.491  41.933  1.00  0.00     0.120 C 
ATOM     28  C   UNL     1       0.451  29.343  43.438  1.00  0.00     0.014 C 
ATOM     29  C   UNL     1       1.210  29.247  41.080  1.00  0.00     0.014 C 
ENDROOT
BRANCH   1  30
ATOM     30  C   UNL     1       7.306  22.842  42.251  1.00  0.00     0.048 C 
ATOM     31  O   UNL     1       6.468  22.244  41.527  1.00  0.00    -0.550 OA
ATOM     32  O   UNL     1       8.297  23.599  41.631  1.00  0.00    -0.550 OA
ENDBRANCH   1  30
BRANCH  27  33
ATOM     33  O   UNL     1      -0.715  27.429  40.547  1.00  0.00    -0.393 OA
ATOM     34  H   UNL     1      -0.987  26.499  40.328  1.00  0.00     0.210 HD
ENDBRANCH  27  33
TORSDOF 2
ENDMDL
MODEL 3
REMARK VINA RESULT:    -0.453      1.892      8.095
REMARK INTER + INTRA:          -0.593
REMARK INTER:                  -0.795
REMARK INTRA:                   0.201
REMARK UNBOUND:                -0.100
REMARK SMILES C[C@@H]1[C@H](C)CC[C@]2(C(=O)[O-])CC[C@]3(C)C(=CC[C@H]4[C@]5(C)CC[C@H](O)C(C)(C)[C@H]5CC[C@]43C)[C@H]12
REMARK SMILES IDX 7 1 6 2 11 3 33 4 5 5 12 6 15 7 2 8 3 9 13 10 16 11 1 12
REMARK SMILES IDX 4 13 14 14 31 15 17 16 18 17 30 18 32 19 19 20 29 21 28 22
REMARK SMILES IDX 21 23 20 24 25 25 22 26 23 27 26 28 27 29 8 30 9 31 10 32
REMARK SMILES IDX 24 33
REMARK H PARENT 24 34
REMARK Flexibility Score: inf
ROOT
ATOM      1  C   UNL     1      -0.410  28.056  43.435  1.00  0.00     0.017 C 
ATOM      2  C   UNL     1      -1.561  29.084  43.235  1.00  0.00     0.014 C 
ATOM      3  C   UNL     1       0.641  28.615  44.419  1.00  0.00     0.014 C 
ATOM      4  C   UNL     1       0.303  27.674  42.080  1.00  0.00     0.030 C 
ATOM      5  C   UNL     1      -1.217  30.235  42.298  1.00  0.00     0.004 C 
ATOM      6  C   UNL     1       1.667  27.545  44.812  1.00  0.00     0.013 C 
ATOM      7  C   UNL     1       1.628  26.915  42.285  1.00  0.00    -0.063 C 
ATOM      8  C   UNL     1       0.444  28.825  41.008  1.00  0.00    -0.003 C 
ATOM      9  C   UNL     1      -0.846  29.681  40.922  1.00  0.00    -0.011 C 
ATOM     10  C   UNL     1       2.444  26.908  43.601  1.00  0.00    -0.006 C 
ATOM     11  C   UNL     1       2.097  26.200  41.240  1.00  0.00    -0.027 C 
ATOM     12  C   UNL     1       1.728  29.677  41.117  1.00  0.00     0.008 C 
ATOM     13  C   UNL     1      -0.776  30.806  39.878  1.00  0.00     0.008 C 
ATOM     14  C   UNL     1       3.670  27.857  43.386  1.00  0.00     0.017 C 
ATOM     15  C   UNL     1       2.868  25.374  43.905  1.00  0.00    -0.020 C 
ATOM     16  C   UNL     1       3.397  25.447  41.288  1.00  0.00     0.032 C 
ATOM     17  C   UNL     1       3.603  24.697  42.637  1.00  0.00     0.006 C 
ATOM     18  C   UNL     1       3.690  25.294  45.256  1.00  0.00     0.008 C 
ATOM     19  C   UNL     1       1.580  24.505  44.143  1.00  0.00     0.012 C 
ATOM     20  C   UNL     1       5.065  24.166  42.912  1.00  0.00    -0.025 C 
ATOM     21  C   UNL     1       4.662  24.107  45.467  1.00  0.00     0.005 C 
ATOM     22  C   UNL     1       4.941  23.270  44.204  1.00  0.00     0.003 C 
ATOM     23  C   UNL     1       5.608  23.296  41.721  1.00  0.00     0.010 C 
ATOM     24  C   UNL     1       6.055  25.357  43.079  1.00  0.00     0.012 C 
ATOM     25  C   UNL     1       6.008  22.115  44.353  1.00  0.00    -0.006 C 
ATOM     26  C   UNL     1       5.259  21.812  41.843  1.00  0.00     0.033 C 
ATOM     27  C   UNL     1       5.918  21.160  43.086  1.00  0.00     0.120 C 
ATOM     28  C   UNL     1       7.457  22.651  44.486  1.00  0.00     0.014 C 
ATOM     29  C   UNL     1       5.732  21.306  45.653  1.00  0.00     0.014 C 
ENDROOT
BRANCH   1  30
ATOM     30  C   UNL     1      -1.085  26.837  44.073  1.00  0.00     0.048 C 
ATOM     31  O   UNL     1      -1.041  25.702  43.532  1.00  0.00    -0.550 OA
ATOM     32  O   UNL     1      -1.863  26.997  45.217  1.00  0.00    -0.550 OA
ENDBRANCH   1  30
BRANCH  27  33
ATOM     33  O   UNL     1       5.263  19.946  43.367  1.00  0.00    -0.393 OA
ATOM     34  H   UNL     1       5.881  19.388  43.910  1.00  0.00     0.210 HD
ENDBRANCH  27  33
TORSDOF 2
ENDMDL
MODEL 4
REMARK VINA RESULT:    -0.371      4.211     10.536
REMARK INTER + INTRA:          -0.504
REMARK INTER:                  -0.386
REMARK INTRA:                  -0.118
REMARK UNBOUND:                -0.100
REMARK SMILES C[C@@H]1[C@H](C)CC[C@]2(C(=O)[O-])CC[C@]3(C)C(=CC[C@H]4[C@]5(C)CC[C@H](O)C(C)(C)[C@H]5CC[C@]43C)[C@H]12
REMARK SMILES IDX 7 1 6 2 11 3 33 4 5 5 12 6 15 7 2 8 3 9 13 10 16 11 1 12
REMARK SMILES IDX 4 13 14 14 31 15 17 16 18 17 30 18 32 19 19 20 29 21 28 22
REMARK SMILES IDX 21 23 20 24 25 25 22 26 23 27 26 28 27 29 8 30 9 31 10 32
REMARK SMILES IDX 24 33
REMARK H PARENT 24 34
REMARK Flexibility Score: inf
ROOT
ATOM      1  C   UNL     1       6.276  21.797  43.581  1.00  0.00     0.017 C 
ATOM      2  C   UNL     1       5.146  22.847  43.373  1.00  0.00     0.014 C 
ATOM      3  C   UNL     1       5.690  20.488  44.156  1.00  0.00     0.014 C 
ATOM      4  C   UNL     1       7.417  22.316  44.539  1.00  0.00     0.030 C 
ATOM      5  C   UNL     1       4.697  23.545  44.652  1.00  0.00     0.004 C 
ATOM      6  C   UNL     1       6.731  19.362  44.160  1.00  0.00     0.013 C 
ATOM      7  C   UNL     1       8.371  21.201  45.007  1.00  0.00    -0.063 C 
ATOM      8  C   UNL     1       6.966  23.244  45.735  1.00  0.00    -0.003 C 
ATOM      9  C   UNL     1       5.889  24.265  45.286  1.00  0.00    -0.011 C 
ATOM     10  C   UNL     1       8.043  19.688  44.967  1.00  0.00    -0.006 C 
ATOM     11  C   UNL     1       9.580  21.579  45.474  1.00  0.00    -0.027 C 
ATOM     12  C   UNL     1       6.594  22.507  47.041  1.00  0.00     0.008 C 
ATOM     13  C   UNL     1       5.425  25.211  46.405  1.00  0.00     0.008 C 
ATOM     14  C   UNL     1       7.715  19.250  46.433  1.00  0.00     0.017 C 
ATOM     15  C   UNL     1       9.330  18.926  44.345  1.00  0.00    -0.020 C 
ATOM     16  C   UNL     1      10.591  20.599  45.999  1.00  0.00     0.032 C 
ATOM     17  C   UNL     1      10.688  19.313  45.127  1.00  0.00     0.006 C 
ATOM     18  C   UNL     1       9.050  17.369  44.255  1.00  0.00     0.008 C 
ATOM     19  C   UNL     1       9.562  19.398  42.863  1.00  0.00     0.012 C 
ATOM     20  C   UNL     1      11.461  18.099  45.776  1.00  0.00    -0.025 C 
ATOM     21  C   UNL     1      10.254  16.395  44.248  1.00  0.00     0.005 C 
ATOM     22  C   UNL     1      11.604  17.037  44.618  1.00  0.00     0.003 C 
ATOM     23  C   UNL     1      12.888  18.515  46.286  1.00  0.00     0.010 C 
ATOM     24  C   UNL     1      10.687  17.560  47.016  1.00  0.00     0.012 C 
ATOM     25  C   UNL     1      12.838  16.056  44.725  1.00  0.00    -0.006 C 
ATOM     26  C   UNL     1      13.977  18.382  45.220  1.00  0.00     0.033 C 
ATOM     27  C   UNL     1      14.176  16.911  44.773  1.00  0.00     0.120 C 
ATOM     28  C   UNL     1      12.771  15.142  45.977  1.00  0.00     0.014 C 
ATOM     29  C   UNL     1      12.858  15.099  43.499  1.00  0.00     0.014 C 
ENDROOT
BRANCH   1  30
ATOM     30  C   UNL     1       6.812  21.521  42.173  1.00  0.00     0.048 C 
ATOM     31  O   UNL     1       7.835  22.109  41.731  1.00  0.00    -0.550 OA
ATOM     32  O   UNL     1       6.100  20.691  41.310  1.00  0.00    -0.550 OA
ENDBRANCH   1  30
BRANCH  27  33
ATOM     33  O   UNL     1      14.874  16.895  43.549  1.00  0.00    -0.393 OA
ATOM     34  H   UNL     1      15.576  16.194  43.611  1.00  0.00     0.210 HD
ENDBRANCH  27  33
TORSDOF 2
ENDMDL
MODEL 5
REMARK VINA RESULT:    -0.306      1.759      8.318
REMARK INTER + INTRA:          -0.433
REMARK INTER:                  -0.717
REMARK INTRA:                   0.284
REMARK UNBOUND:                -0.100
REMARK SMILES C[C@@H]1[C@H](C)CC[C@]2(C(=O)[O-])CC[C@]3(C)C(=CC[C@H]4[C@]5(C)CC[C@H](O)C(C)(C)[C@H]5CC[C@]43C)[C@H]12
REMARK SMILES IDX 7 1 6 2 11 3 33 4 5 5 12 6 15 7 2 8 3 9 13 10 16 11 1 12
REMARK SMILES IDX 4 13 14 14 31 15 17 16 18 17 30 18 32 19 19 20 29 21 28 22
REMARK SMILES IDX 21 23 20 24 25 25 22 26 23 27 26 28 27 29 8 30 9 31 10 32
REMARK SMILES IDX 24 33
REMARK H PARENT 24 34
REMARK Flexibility Score: inf
ROOT
ATOM      1  C   UNL     1       0.749  28.901  42.391  1.00  0.00     0.017 C 
ATOM      2  C   UNL     1      -0.319  30.002  42.126  1.00  0.00     0.014 C 
ATOM      3  C   UNL     1       0.429  27.636  41.565  1.00  0.00     0.014 C 
ATOM      4  C   UNL     1       0.849  28.509  43.916  1.00  0.00     0.030 C 
ATOM      5  C   UNL     1      -1.636  29.787  42.863  1.00  0.00     0.004 C 
ATOM      6  C   UNL     1       1.576  26.620  41.627  1.00  0.00     0.013 C 
ATOM      7  C   UNL     1       1.659  27.221  44.160  1.00  0.00    -0.063 C 
ATOM      8  C   UNL     1      -0.499  28.522  44.739  1.00  0.00    -0.003 C 
ATOM      9  C   UNL     1      -1.377  29.745  44.370  1.00  0.00    -0.011 C 
ATOM     10  C   UNL     1       1.957  26.153  43.080  1.00  0.00    -0.006 C 
ATOM     11  C   UNL     1       2.145  27.025  45.404  1.00  0.00    -0.027 C 
ATOM     12  C   UNL     1      -1.285  27.192  44.740  1.00  0.00     0.008 C 
ATOM     13  C   UNL     1      -2.696  29.822  45.155  1.00  0.00     0.008 C 
ATOM     14  C   UNL     1       1.007  24.940  43.358  1.00  0.00     0.017 C 
ATOM     15  C   UNL     1       3.528  25.772  43.191  1.00  0.00    -0.020 C 
ATOM     16  C   UNL     1       2.915  25.793  45.790  1.00  0.00     0.032 C 
ATOM     17  C   UNL     1       3.936  25.360  44.698  1.00  0.00     0.006 C 
ATOM     18  C   UNL     1       3.907  24.695  42.094  1.00  0.00     0.008 C 
ATOM     19  C   UNL     1       4.405  27.035  42.861  1.00  0.00     0.012 C 
ATOM     20  C   UNL     1       4.540  23.909  44.858  1.00  0.00    -0.025 C 
ATOM     21  C   UNL     1       5.128  23.776  42.342  1.00  0.00     0.005 C 
ATOM     22  C   UNL     1       5.685  23.819  43.777  1.00  0.00     0.003 C 
ATOM     23  C   UNL     1       5.149  23.680  46.289  1.00  0.00     0.010 C 
ATOM     24  C   UNL     1       3.429  22.833  44.671  1.00  0.00     0.012 C 
ATOM     25  C   UNL     1       6.866  22.818  44.099  1.00  0.00    -0.006 C 
ATOM     26  C   UNL     1       6.618  24.089  46.396  1.00  0.00     0.033 C 
ATOM     27  C   UNL     1       7.530  23.229  45.483  1.00  0.00     0.120 C 
ATOM     28  C   UNL     1       6.396  21.342  44.176  1.00  0.00     0.014 C 
ATOM     29  C   UNL     1       7.925  22.870  42.961  1.00  0.00     0.014 C 
ENDROOT
BRANCH   1  30
ATOM     30  C   UNL     1       2.062  29.505  41.882  1.00  0.00     0.048 C 
ATOM     31  O   UNL     1       3.076  29.595  42.623  1.00  0.00    -0.550 OA
ATOM     32  O   UNL     1       2.116  30.073  40.612  1.00  0.00    -0.550 OA
ENDBRANCH   1  30
BRANCH  27  33
ATOM     33  O   UNL     1       8.764  23.886  45.318  1.00  0.00    -0.393 OA
ATOM     34  H   UNL     1       9.253  23.432  44.582  1.00  0.00     0.210 HD
ENDBRANCH  27  33
TORSDOF 2
ENDMDL
MODEL 6
REMARK VINA RESULT:     0.172      3.759     10.360
REMARK INTER + INTRA:           0.087
REMARK INTER:                   0.191
REMARK INTRA:                  -0.104
REMARK UNBOUND:                -0.100
REMARK SMILES C[C@@H]1[C@H](C)CC[C@]2(C(=O)[O-])CC[C@]3(C)C(=CC[C@H]4[C@]5(C)CC[C@H](O)C(C)(C)[C@H]5CC[C@]43C)[C@H]12
REMARK SMILES IDX 7 1 6 2 11 3 33 4 5 5 12 6 15 7 2 8 3 9 13 10 16 11 1 12
REMARK SMILES IDX 4 13 14 14 31 15 17 16 18 17 30 18 32 19 19 20 29 21 28 22
REMARK SMILES IDX 21 23 20 24 25 25 22 26 23 27 26 28 27 29 8 30 9 31 10 32
REMARK SMILES IDX 24 33
REMARK H PARENT 24 34
REMARK Flexibility Score: inf
ROOT
ATOM      1  C   UNL     1       6.891  22.902  44.923  1.00  0.00     0.017 C 
ATOM      2  C   UNL     1       5.791  23.979  44.694  1.00  0.00     0.014 C 
ATOM      3  C   UNL     1       8.273  23.451  44.503  1.00  0.00     0.014 C 
ATOM      4  C   UNL     1       6.605  21.566  44.134  1.00  0.00     0.030 C 
ATOM      5  C   UNL     1       5.352  24.126  43.242  1.00  0.00     0.004 C 
ATOM      6  C   UNL     1       9.404  22.505  44.924  1.00  0.00     0.013 C 
ATOM      7  C   UNL     1       7.817  20.616  44.091  1.00  0.00    -0.063 C 
ATOM      8  C   UNL     1       5.924  21.715  42.717  1.00  0.00    -0.003 C 
ATOM      9  C   UNL     1       4.806  22.789  42.735  1.00  0.00    -0.011 C 
ATOM     10  C   UNL     1       9.281  21.044  44.352  1.00  0.00    -0.006 C 
ATOM     11  C   UNL     1       7.572  19.317  43.814  1.00  0.00    -0.027 C 
ATOM     12  C   UNL     1       6.898  21.877  41.528  1.00  0.00     0.008 C 
ATOM     13  C   UNL     1       4.092  22.965  41.386  1.00  0.00     0.008 C 
ATOM     14  C   UNL     1       9.996  21.112  42.961  1.00  0.00     0.017 C 
ATOM     15  C   UNL     1       9.938  19.955  45.356  1.00  0.00    -0.020 C 
ATOM     16  C   UNL     1       8.665  18.290  43.700  1.00  0.00     0.032 C 
ATOM     17  C   UNL     1       9.751  18.449  44.804  1.00  0.00     0.006 C 
ATOM     18  C   UNL     1      11.437  20.349  45.683  1.00  0.00     0.008 C 
ATOM     19  C   UNL     1       9.185  19.982  46.735  1.00  0.00     0.012 C 
ATOM     20  C   UNL     1      11.092  17.647  44.569  1.00  0.00    -0.025 C 
ATOM     21  C   UNL     1      12.421  19.236  46.119  1.00  0.00     0.005 C 
ATOM     22  C   UNL     1      11.903  17.801  45.913  1.00  0.00     0.003 C 
ATOM     23  C   UNL     1      10.824  16.125  44.288  1.00  0.00     0.010 C 
ATOM     24  C   UNL     1      11.848  18.202  43.325  1.00  0.00     0.012 C 
ATOM     25  C   UNL     1      12.918  16.637  46.248  1.00  0.00    -0.006 C 
ATOM     26  C   UNL     1      10.770  15.273  45.557  1.00  0.00     0.033 C 
ATOM     27  C   UNL     1      12.126  15.261  46.308  1.00  0.00     0.120 C 
ATOM     28  C   UNL     1      14.062  16.522  45.206  1.00  0.00     0.014 C 
ATOM     29  C   UNL     1      13.610  16.917  47.612  1.00  0.00     0.014 C 
ENDROOT
BRANCH   1  30
ATOM     30  C   UNL     1       6.893  22.666  46.437  1.00  0.00     0.048 C 
ATOM     31  O   UNL     1       6.344  21.654  46.946  1.00  0.00    -0.550 OA
ATOM     32  O   UNL     1       7.408  23.640  47.289  1.00  0.00    -0.550 OA
ENDBRANCH   1  30
BRANCH  27  33
ATOM     33  O   UNL     1      11.915  14.815  47.627  1.00  0.00    -0.393 OA
ATOM     34  H   UNL     1      12.235  13.875  47.683  1.00  0.00     0.210 HD
ENDBRANCH  27  33
TORSDOF 2
ENDMDL
MODEL 7
REMARK VINA RESULT:     0.388      5.290      9.137
REMARK INTER + INTRA:           0.322
REMARK INTER:                   0.237
REMARK INTRA:                   0.084
REMARK UNBOUND:                -0.100
REMARK SMILES C[C@@H]1[C@H](C)CC[C@]2(C(=O)[O-])CC[C@]3(C)C(=CC[C@H]4[C@]5(C)CC[C@H](O)C(C)(C)[C@H]5CC[C@]43C)[C@H]12
REMARK SMILES IDX 7 1 6 2 11 3 33 4 5 5 12 6 15 7 2 8 3 9 13 10 16 11 1 12
REMARK SMILES IDX 4 13 14 14 31 15 17 16 18 17 30 18 32 19 19 20 29 21 28 22
REMARK SMILES IDX 21 23 20 24 25 25 22 26 23 27 26 28 27 29 8 30 9 31 10 32
REMARK SMILES IDX 24 33
REMARK H PARENT 24 34
REMARK Flexibility Score: inf
ROOT
ATOM      1  C   UNL     1      13.612  16.510  46.229  1.00  0.00     0.017 C 
ATOM      2  C   UNL     1      14.761  15.489  46.471  1.00  0.00     0.014 C 
ATOM      3  C   UNL     1      12.285  15.970  46.809  1.00  0.00     0.014 C 
ATOM      4  C   UNL     1      13.408  16.842  44.700  1.00  0.00     0.030 C 
ATOM      5  C   UNL     1      14.760  14.305  45.511  1.00  0.00     0.004 C 
ATOM      6  C   UNL     1      11.188  17.041  46.790  1.00  0.00     0.013 C 
ATOM      7  C   UNL     1      12.094  17.593  44.412  1.00  0.00    -0.063 C 
ATOM      8  C   UNL     1      13.645  15.658  43.683  1.00  0.00    -0.003 C 
ATOM      9  C   UNL     1      14.885  14.813  44.073  1.00  0.00    -0.011 C 
ATOM     10  C   UNL     1      10.875  17.631  45.365  1.00  0.00    -0.006 C 
ATOM     11  C   UNL     1      12.014  18.269  43.246  1.00  0.00    -0.027 C 
ATOM     12  C   UNL     1      12.401  14.795  43.371  1.00  0.00     0.008 C 
ATOM     13  C   UNL     1      15.179  13.655  43.107  1.00  0.00     0.008 C 
ATOM     14  C   UNL     1       9.797  16.663  44.773  1.00  0.00     0.017 C 
ATOM     15  C   UNL     1      10.373  19.169  45.454  1.00  0.00    -0.020 C 
ATOM     16  C   UNL     1      10.777  19.010  42.820  1.00  0.00     0.032 C 
ATOM     17  C   UNL     1      10.120  19.799  43.990  1.00  0.00     0.006 C 
ATOM     18  C   UNL     1       9.136  19.282  46.437  1.00  0.00     0.008 C 
ATOM     19  C   UNL     1      11.501  20.059  46.093  1.00  0.00     0.012 C 
ATOM     20  C   UNL     1       8.652  20.322  43.727  1.00  0.00    -0.025 C 
ATOM     21  C   UNL     1       8.151  20.463  46.261  1.00  0.00     0.005 C 
ATOM     22  C   UNL     1       8.324  21.258  44.953  1.00  0.00     0.003 C 
ATOM     23  C   UNL     1       8.553  21.148  42.394  1.00  0.00     0.010 C 
ATOM     24  C   UNL     1       7.665  19.126  43.582  1.00  0.00     0.012 C 
ATOM     25  C   UNL     1       7.271  22.406  44.688  1.00  0.00    -0.006 C 
ATOM     26  C   UNL     1       8.839  22.639  42.580  1.00  0.00     0.033 C 
ATOM     27  C   UNL     1       7.793  23.322  43.499  1.00  0.00     0.120 C 
ATOM     28  C   UNL     1       5.865  21.858  44.332  1.00  0.00     0.014 C 
ATOM     29  C   UNL     1       7.084  23.257  45.976  1.00  0.00     0.014 C 
ENDROOT
BRANCH   1  30
ATOM     30  C   UNL     1      14.026  17.755  47.020  1.00  0.00     0.048 C 
ATOM     31  O   UNL     1      14.258  18.852  46.448  1.00  0.00    -0.550 OA
ATOM     32  O   UNL     1      14.265  17.658  48.389  1.00  0.00    -0.550 OA
ENDBRANCH   1  30
BRANCH  27  33
ATOM     33  O   UNL     1       8.311  24.551  43.948  1.00  0.00    -0.393 OA
ATOM     34  H   UNL     1       9.219  24.381  44.314  1.00  0.00     0.210 HD
ENDBRANCH  27  33
TORSDOF 2
ENDMDL
MODEL 8
REMARK VINA RESULT:     0.576      5.283      9.320
REMARK INTER + INTRA:           0.526
REMARK INTER:                   0.144
REMARK INTRA:                   0.383
REMARK UNBOUND:                -0.100
REMARK SMILES C[C@@H]1[C@H](C)CC[C@]2(C(=O)[O-])CC[C@]3(C)C(=CC[C@H]4[C@]5(C)CC[C@H](O)C(C)(C)[C@H]5CC[C@]43C)[C@H]12
REMARK SMILES IDX 7 1 6 2 11 3 33 4 5 5 12 6 15 7 2 8 3 9 13 10 16 11 1 12
REMARK SMILES IDX 4 13 14 14 31 15 17 16 18 17 30 18 32 19 19 20 29 21 28 22
REMARK SMILES IDX 21 23 20 24 25 25 22 26 23 27 26 28 27 29 8 30 9 31 10 32
REMARK SMILES IDX 24 33
REMARK H PARENT 24 34
REMARK Flexibility Score: inf
ROOT
ATOM      1  C   UNL     1      12.692  15.603  44.984  1.00  0.00     0.017 C 
ATOM      2  C   UNL     1      13.750  14.481  45.194  1.00  0.00     0.014 C 
ATOM      3  C   UNL     1      13.333  16.816  44.274  1.00  0.00     0.014 C 
ATOM      4  C   UNL     1      12.042  16.083  46.339  1.00  0.00     0.030 C 
ATOM      5  C   UNL     1      14.703  14.728  46.357  1.00  0.00     0.004 C 
ATOM      6  C   UNL     1      12.274  17.842  43.851  1.00  0.00     0.013 C 
ATOM      7  C   UNL     1      11.237  17.389  46.197  1.00  0.00    -0.063 C 
ATOM      8  C   UNL     1      12.986  16.109  47.605  1.00  0.00    -0.003 C 
ATOM      9  C   UNL     1      13.903  14.860  47.654  1.00  0.00    -0.011 C 
ATOM     10  C   UNL     1      11.393  18.396  45.031  1.00  0.00    -0.006 C 
ATOM     11  C   UNL     1      10.328  17.661  47.158  1.00  0.00    -0.027 C 
ATOM     12  C   UNL     1      13.753  17.431  47.832  1.00  0.00     0.008 C 
ATOM     13  C   UNL     1      14.832  14.819  48.878  1.00  0.00     0.008 C 
ATOM     14  C   UNL     1      12.205  19.615  45.581  1.00  0.00     0.017 C 
ATOM     15  C   UNL     1       9.905  18.793  44.527  1.00  0.00    -0.020 C 
ATOM     16  C   UNL     1       9.505  18.919  47.164  1.00  0.00     0.032 C 
ATOM     17  C   UNL     1       8.977  19.296  45.749  1.00  0.00     0.006 C 
ATOM     18  C   UNL     1       9.993  19.808  43.314  1.00  0.00     0.008 C 
ATOM     19  C   UNL     1       9.179  17.520  43.959  1.00  0.00     0.012 C 
ATOM     20  C   UNL     1       8.399  20.758  45.598  1.00  0.00    -0.025 C 
ATOM     21  C   UNL     1       8.794  20.748  43.041  1.00  0.00     0.005 C 
ATOM     22  C   UNL     1       7.742  20.794  44.165  1.00  0.00     0.003 C 
ATOM     23  C   UNL     1       7.308  21.074  46.684  1.00  0.00     0.010 C 
ATOM     24  C   UNL     1       9.530  21.813  45.784  1.00  0.00     0.012 C 
ATOM     25  C   UNL     1       6.555  21.820  43.970  1.00  0.00    -0.006 C 
ATOM     26  C   UNL     1       5.893  20.683  46.256  1.00  0.00     0.033 C 
ATOM     27  C   UNL     1       5.412  21.495  45.025  1.00  0.00     0.120 C 
ATOM     28  C   UNL     1       7.005  23.294  44.142  1.00  0.00     0.014 C 
ATOM     29  C   UNL     1       5.995  21.710  42.523  1.00  0.00     0.014 C 
ENDROOT
BRANCH   1  30
ATOM     30  C   UNL     1      11.647  14.981  44.053  1.00  0.00     0.048 C 
ATOM     31  O   UNL     1      10.420  14.996  44.337  1.00  0.00    -0.550 OA
ATOM     32  O   UNL     1      12.057  14.280  42.921  1.00  0.00    -0.550 OA
ENDBRANCH   1  30
BRANCH  27  33
ATOM     33  O   UNL     1       4.310  20.838  44.445  1.00  0.00    -0.393 OA
ATOM     34  H   UNL     1       4.274  19.919  44.821  1.00  0.00     0.210 HD
ENDBRANCH  27  33
TORSDOF 2
ENDMDL
MODEL 9
REMARK VINA RESULT:     0.807      1.695      2.617
REMARK INTER + INTRA:           0.777
REMARK INTER:                   0.772
REMARK INTRA:                   0.005
REMARK UNBOUND:                -0.100
REMARK SMILES C[C@@H]1[C@H](C)CC[C@]2(C(=O)[O-])CC[C@]3(C)C(=CC[C@H]4[C@]5(C)CC[C@H](O)C(C)(C)[C@H]5CC[C@]43C)[C@H]12
REMARK SMILES IDX 7 1 6 2 11 3 33 4 5 5 12 6 15 7 2 8 3 9 13 10 16 11 1 12
REMARK SMILES IDX 4 13 14 14 31 15 17 16 18 17 30 18 32 19 19 20 29 21 28 22
REMARK SMILES IDX 21 23 20 24 25 25 22 26 23 27 26 28 27 29 8 30 9 31 10 32
REMARK SMILES IDX 24 33
REMARK H PARENT 24 34
REMARK Flexibility Score: inf
ROOT
ATOM      1  C   UNL     1       8.353  22.427  45.587  1.00  0.00     0.017 C 
ATOM      2  C   UNL     1       9.615  21.561  45.870  1.00  0.00     0.014 C 
ATOM      3  C   UNL     1       7.204  22.025  46.538  1.00  0.00     0.014 C 
ATOM      4  C   UNL     1       7.855  22.303  44.094  1.00  0.00     0.030 C 
ATOM      5  C   UNL     1       9.552  20.154  45.288  1.00  0.00     0.004 C 
ATOM      6  C   UNL     1       6.027  23.004  46.441  1.00  0.00     0.013 C 
ATOM      7  C   UNL     1       6.448  22.890  43.873  1.00  0.00    -0.063 C 
ATOM      8  C   UNL     1       8.016  20.887  43.413  1.00  0.00    -0.003 C 
ATOM      9  C   UNL     1       9.377  20.236  43.770  1.00  0.00    -0.011 C 
ATOM     10  C   UNL     1       5.417  23.153  44.998  1.00  0.00    -0.006 C 
ATOM     11  C   UNL     1       6.104  23.204  42.606  1.00  0.00    -0.027 C 
ATOM     12  C   UNL     1       6.820  19.926  43.595  1.00  0.00     0.008 C 
ATOM     13  C   UNL     1       9.599  18.863  43.118  1.00  0.00     0.008 C 
ATOM     14  C   UNL     1       4.344  22.016  44.912  1.00  0.00     0.017 C 
ATOM     15  C   UNL     1       4.802  24.632  44.761  1.00  0.00    -0.020 C 
ATOM     16  C   UNL     1       4.750  23.745  42.242  1.00  0.00     0.032 C 
ATOM     17  C   UNL     1       4.239  24.809  43.258  1.00  0.00     0.006 C 
ATOM     18  C   UNL     1       3.751  24.974  45.896  1.00  0.00     0.008 C 
ATOM     19  C   UNL     1       5.939  25.709  44.901  1.00  0.00     0.012 C 
ATOM     20  C   UNL     1       2.707  25.181  43.152  1.00  0.00    -0.025 C 
ATOM     21  C   UNL     1       2.648  26.019  45.599  1.00  0.00     0.005 C 
ATOM     22  C   UNL     1       2.516  26.414  44.117  1.00  0.00     0.003 C 
ATOM     23  C   UNL     1       2.301  25.590  41.691  1.00  0.00     0.010 C 
ATOM     24  C   UNL     1       1.822  23.957  43.533  1.00  0.00     0.012 C 
ATOM     25  C   UNL     1       1.334  27.399  43.758  1.00  0.00    -0.006 C 
ATOM     26  C   UNL     1       2.479  27.081  41.404  1.00  0.00     0.033 C 
ATOM     27  C   UNL     1       1.553  27.957  42.287  1.00  0.00     0.120 C 
ATOM     28  C   UNL     1      -0.058  26.720  43.845  1.00  0.00     0.014 C 
ATOM     29  C   UNL     1       1.299  28.574  44.777  1.00  0.00     0.014 C 
ENDROOT
BRANCH   1  30
ATOM     30  C   UNL     1       8.786  23.860  45.913  1.00  0.00     0.048 C 
ATOM     31  O   UNL     1       8.695  24.326  47.079  1.00  0.00    -0.550 OA
ATOM     32  O   UNL     1       9.183  24.714  44.887  1.00  0.00    -0.550 OA
ENDBRANCH   1  30
BRANCH  27  33
ATOM     33  O   UNL     1       2.029  29.283  42.275  1.00  0.00    -0.393 OA
ATOM     34  H   UNL     1       1.720  29.707  41.431  1.00  0.00     0.210 HD
ENDBRANCH  27  33
TORSDOF 2
ENDMDL
