MODEL 1
REMARK VINA RESULT:    -6.431      0.000      0.000
REMARK INTER + INTRA:          -6.842
REMARK INTER:                  -6.994
REMARK INTRA:                   0.153
REMARK UNBOUND:                 0.153
REMARK SMILES C[C@@H]1[C@H]2C3=CC[C@@H]4[C@@]5(C)CC[C@H](O)C(C)(C)[C@H]5CC[C@@]4(C)[C@]3(C)CC[C@@]2(C(=O)[O-])CC[C@@H]1C
REMARK SMILES IDX 26 1 30 2 25 3 3 4 31 5 24 6 4 7 2 8 32 9 22 10 5 11 1 12
REMARK SMILES IDX 33 13 23 14 20 15 6 16 7 17 19 18 21 19 8 20 18 21 17 22
REMARK SMILES IDX 10 23 9 24 14 25 11 26 12 27 15 28 16 29 27 30 28 31 29 32
REMARK SMILES IDX 13 33
REMARK H PARENT 13 34
REMARK Flexibility Score: inf
ROOT
ATOM      1  C   UNL     1       1.893  -9.201  -5.093  1.00  0.00     0.017 C 
ATOM      2  C   UNL     1       2.913  -9.950  -5.997  1.00  0.00     0.014 C 
ATOM      3  C   UNL     1       0.665 -10.104  -4.803  1.00  0.00     0.014 C 
ATOM      4  C   UNL     1       1.407  -7.879  -5.770  1.00  0.00     0.030 C 
ATOM      5  C   UNL     1       2.451 -10.125  -7.447  1.00  0.00     0.004 C 
ATOM      6  C   UNL     1      -0.324  -9.445  -3.828  1.00  0.00     0.013 C 
ATOM      7  C   UNL     1       0.308  -7.204  -4.929  1.00  0.00    -0.063 C 
ATOM      8  C   UNL     1       0.989  -8.066  -7.268  1.00  0.00    -0.003 C 
ATOM      9  C   UNL     1       2.084  -8.784  -8.103  1.00  0.00    -0.011 C 
ATOM     10  C   UNL     1      -0.820  -8.014  -4.248  1.00  0.00    -0.006 C 
ATOM     11  C   UNL     1       0.317  -5.851  -4.866  1.00  0.00    -0.027 C 
ATOM     12  C   UNL     1       0.560  -6.745  -7.935  1.00  0.00     0.008 C 
ATOM     13  C   UNL     1       3.336  -7.926  -8.378  1.00  0.00     0.008 C 
ATOM     14  C   UNL     1      -1.936  -8.222  -5.322  1.00  0.00     0.017 C 
ATOM     15  C   UNL     1      -1.341  -7.203  -2.951  1.00  0.00    -0.020 C 
ATOM     16  C   UNL     1      -0.587  -5.013  -3.999  1.00  0.00     0.032 C 
ATOM     17  C   UNL     1      -1.795  -5.767  -3.371  1.00  0.00     0.006 C 
ATOM     18  C   UNL     1      -2.578  -7.891  -2.330  1.00  0.00     0.008 C 
ATOM     19  C   UNL     1      -0.187  -7.114  -1.887  1.00  0.00     0.012 C 
ATOM     20  C   UNL     1      -2.694  -4.945  -2.291  1.00  0.00    -0.025 C 
ATOM     21  C   UNL     1      -3.098  -7.233  -1.053  1.00  0.00     0.005 C 
ATOM     22  C   UNL     1      -2.862  -5.696  -0.891  1.00  0.00     0.003 C 
ATOM     23  C   UNL     1      -4.119  -4.745  -2.899  1.00  0.00     0.010 C 
ATOM     24  C   UNL     1      -2.061  -3.536  -2.070  1.00  0.00     0.012 C 
ATOM     25  C   UNL     1      -3.941  -5.062   0.113  1.00  0.00    -0.006 C 
ATOM     26  C   UNL     1      -5.138  -4.075  -1.963  1.00  0.00     0.033 C 
ATOM     27  C   UNL     1      -5.295  -4.848  -0.639  1.00  0.00     0.120 C 
ATOM     28  C   UNL     1      -3.426  -3.732   0.758  1.00  0.00     0.014 C 
ATOM     29  C   UNL     1      -4.201  -6.021   1.319  1.00  0.00     0.014 C 
ENDROOT
BRANCH   1  30
ATOM     30  C   UNL     1       2.631  -8.902  -3.789  1.00  0.00     0.048 C 
ATOM     31  O   UNL     1       3.519  -8.007  -3.753  1.00  0.00    -0.550 OA
ATOM     32  O   UNL     1       2.274  -9.537  -2.603  1.00  0.00    -0.550 OA
ENDBRANCH   1  30
BRANCH  27  33
ATOM     33  O   UNL     1      -6.262  -4.247   0.191  1.00  0.00    -0.393 OA
ATOM     34  H   UNL     1      -6.066  -3.276   0.251  1.00  0.00     0.210 HD
ENDBRANCH  27  33
TORSDOF 2
ENDMDL
MODEL 2
REMARK VINA RESULT:    -6.234      2.261      8.252
REMARK INTER + INTRA:          -6.628
REMARK INTER:                  -6.536
REMARK INTRA:                  -0.092
REMARK UNBOUND:                 0.153
REMARK SMILES C[C@@H]1[C@H]2C3=CC[C@@H]4[C@@]5(C)CC[C@H](O)C(C)(C)[C@H]5CC[C@@]4(C)[C@]3(C)CC[C@@]2(C(=O)[O-])CC[C@@H]1C
REMARK SMILES IDX 26 1 30 2 25 3 3 4 31 5 24 6 4 7 2 8 32 9 22 10 5 11 1 12
REMARK SMILES IDX 33 13 23 14 20 15 6 16 7 17 19 18 21 19 8 20 18 21 17 22
REMARK SMILES IDX 10 23 9 24 14 25 11 26 12 27 15 28 16 29 27 30 28 31 29 32
REMARK SMILES IDX 13 33
REMARK H PARENT 13 34
REMARK Flexibility Score: inf
ROOT
ATOM      1  C   UNL     1      -1.455  -7.599  -2.099  1.00  0.00     0.017 C 
ATOM      2  C   UNL     1      -2.659  -7.367  -1.143  1.00  0.00     0.014 C 
ATOM      3  C   UNL     1      -0.116  -7.451  -1.328  1.00  0.00     0.014 C 
ATOM      4  C   UNL     1      -1.475  -6.584  -3.287  1.00  0.00     0.030 C 
ATOM      5  C   UNL     1      -2.841  -5.908  -0.713  1.00  0.00     0.004 C 
ATOM      6  C   UNL     1       1.102  -7.774  -2.208  1.00  0.00     0.013 C 
ATOM      7  C   UNL     1      -0.217  -6.738  -4.162  1.00  0.00    -0.063 C 
ATOM      8  C   UNL     1      -1.716  -5.104  -2.834  1.00  0.00    -0.003 C 
ATOM      9  C   UNL     1      -2.962  -4.961  -1.918  1.00  0.00    -0.011 C 
ATOM     10  C   UNL     1       1.186  -6.964  -3.552  1.00  0.00    -0.006 C 
ATOM     11  C   UNL     1      -0.370  -6.590  -5.500  1.00  0.00    -0.027 C 
ATOM     12  C   UNL     1      -1.784  -4.123  -4.020  1.00  0.00     0.008 C 
ATOM     13  C   UNL     1      -4.310  -5.140  -2.647  1.00  0.00     0.008 C 
ATOM     14  C   UNL     1       1.753  -5.553  -3.194  1.00  0.00     0.017 C 
ATOM     15  C   UNL     1       2.103  -7.755  -4.621  1.00  0.00    -0.020 C 
ATOM     16  C   UNL     1       0.703  -6.828  -6.530  1.00  0.00     0.032 C 
ATOM     17  C   UNL     1       2.148  -6.964  -5.969  1.00  0.00     0.006 C 
ATOM     18  C   UNL     1       3.563  -7.862  -4.125  1.00  0.00     0.008 C 
ATOM     19  C   UNL     1       1.512  -9.192  -4.860  1.00  0.00     0.012 C 
ATOM     20  C   UNL     1       3.310  -7.395  -7.025  1.00  0.00    -0.025 C 
ATOM     21  C   UNL     1       4.490  -8.660  -5.041  1.00  0.00     0.005 C 
ATOM     22  C   UNL     1       4.153  -8.672  -6.567  1.00  0.00     0.003 C 
ATOM     23  C   UNL     1       4.301  -6.196  -7.171  1.00  0.00     0.010 C 
ATOM     24  C   UNL     1       2.659  -7.656  -8.420  1.00  0.00     0.012 C 
ATOM     25  C   UNL     1       5.467  -8.986  -7.432  1.00  0.00    -0.006 C 
ATOM     26  C   UNL     1       5.529  -6.471  -8.055  1.00  0.00     0.033 C 
ATOM     27  C   UNL     1       6.331  -7.689  -7.560  1.00  0.00     0.120 C 
ATOM     28  C   UNL     1       5.112  -9.580  -8.836  1.00  0.00     0.014 C 
ATOM     29  C   UNL     1       6.336 -10.082  -6.738  1.00  0.00     0.014 C 
ENDROOT
BRANCH   1  30
ATOM     30  C   UNL     1      -1.597  -9.032  -2.609  1.00  0.00     0.048 C 
ATOM     31  O   UNL     1      -1.283 -10.004  -1.868  1.00  0.00    -0.550 OA
ATOM     32  O   UNL     1      -2.164  -9.297  -3.852  1.00  0.00    -0.550 OA
ENDBRANCH   1  30
BRANCH  27  33
ATOM     33  O   UNL     1       7.475  -7.902  -8.355  1.00  0.00    -0.393 OA
ATOM     34  H   UNL     1       7.896  -7.024  -8.544  1.00  0.00     0.210 HD
ENDBRANCH  27  33
TORSDOF 2
ENDMDL
MODEL 3
REMARK VINA RESULT:    -6.030      2.688      9.026
REMARK INTER + INTRA:          -6.406
REMARK INTER:                  -6.332
REMARK INTRA:                  -0.074
REMARK UNBOUND:                 0.153
REMARK SMILES C[C@@H]1[C@H]2C3=CC[C@@H]4[C@@]5(C)CC[C@H](O)C(C)(C)[C@H]5CC[C@@]4(C)[C@]3(C)CC[C@@]2(C(=O)[O-])CC[C@@H]1C
REMARK SMILES IDX 26 1 30 2 25 3 3 4 31 5 24 6 4 7 2 8 32 9 22 10 5 11 1 12
REMARK SMILES IDX 33 13 23 14 20 15 6 16 7 17 19 18 21 19 8 20 18 21 17 22
REMARK SMILES IDX 10 23 9 24 14 25 11 26 12 27 15 28 16 29 27 30 28 31 29 32
REMARK SMILES IDX 13 33
REMARK H PARENT 13 34
REMARK Flexibility Score: inf
ROOT
ATOM      1  C   UNL     1      -6.419  -6.102   2.596  1.00  0.00     0.017 C 
ATOM      2  C   UNL     1      -7.481  -6.252   3.721  1.00  0.00     0.014 C 
ATOM      3  C   UNL     1      -7.104  -5.743   1.250  1.00  0.00     0.014 C 
ATOM      4  C   UNL     1      -5.599  -7.421   2.416  1.00  0.00     0.030 C 
ATOM      5  C   UNL     1      -8.345  -7.511   3.599  1.00  0.00     0.004 C 
ATOM      6  C   UNL     1      -6.085  -5.482   0.130  1.00  0.00     0.013 C 
ATOM      7  C   UNL     1      -4.634  -7.308   1.221  1.00  0.00    -0.063 C 
ATOM      8  C   UNL     1      -6.496  -8.704   2.347  1.00  0.00    -0.003 C 
ATOM      9  C   UNL     1      -7.497  -8.791   3.532  1.00  0.00    -0.011 C 
ATOM     10  C   UNL     1      -5.047  -6.639  -0.110  1.00  0.00    -0.006 C 
ATOM     11  C   UNL     1      -3.418  -7.892   1.349  1.00  0.00    -0.027 C 
ATOM     12  C   UNL     1      -5.672  -9.999   2.220  1.00  0.00     0.008 C 
ATOM     13  C   UNL     1      -6.843  -9.110   4.892  1.00  0.00     0.008 C 
ATOM     14  C   UNL     1      -5.778  -7.731  -0.955  1.00  0.00     0.017 C 
ATOM     15  C   UNL     1      -3.728  -6.059  -0.839  1.00  0.00    -0.020 C 
ATOM     16  C   UNL     1      -2.292  -7.785   0.354  1.00  0.00     0.032 C 
ATOM     17  C   UNL     1      -2.684  -7.206  -1.037  1.00  0.00     0.006 C 
ATOM     18  C   UNL     1      -4.066  -5.524  -2.250  1.00  0.00     0.008 C 
ATOM     19  C   UNL     1      -3.105  -4.910   0.034  1.00  0.00     0.012 C 
ATOM     20  C   UNL     1      -1.469  -6.911  -2.080  1.00  0.00    -0.025 C 
ATOM     21  C   UNL     1      -2.889  -4.889  -2.988  1.00  0.00     0.005 C 
ATOM     22  C   UNL     1      -1.458  -5.418  -2.647  1.00  0.00     0.003 C 
ATOM     23  C   UNL     1      -1.626  -7.882  -3.294  1.00  0.00     0.010 C 
ATOM     24  C   UNL     1      -0.110  -7.228  -1.380  1.00  0.00     0.012 C 
ATOM     25  C   UNL     1      -0.450  -5.143  -3.863  1.00  0.00    -0.006 C 
ATOM     26  C   UNL     1      -0.617  -7.666  -4.434  1.00  0.00     0.033 C 
ATOM     27  C   UNL     1      -0.661  -6.223  -4.974  1.00  0.00     0.120 C 
ATOM     28  C   UNL     1       1.040  -5.095  -3.386  1.00  0.00     0.014 C 
ATOM     29  C   UNL     1      -0.716  -3.739  -4.495  1.00  0.00     0.014 C 
ENDROOT
BRANCH   1  30
ATOM     30  C   UNL     1      -5.509  -4.955   3.031  1.00  0.00     0.048 C 
ATOM     31  O   UNL     1      -5.949  -3.773   3.065  1.00  0.00    -0.550 OA
ATOM     32  O   UNL     1      -4.218  -5.199   3.489  1.00  0.00    -0.550 OA
ENDBRANCH   1  30
BRANCH  27  33
ATOM     33  O   UNL     1       0.238  -6.053  -6.045  1.00  0.00    -0.393 OA
ATOM     34  H   UNL     1       0.584  -5.123  -6.021  1.00  0.00     0.210 HD
ENDBRANCH  27  33
TORSDOF 2
ENDMDL
MODEL 4
REMARK VINA RESULT:    -5.963      6.940     10.765
REMARK INTER + INTRA:          -6.333
REMARK INTER:                  -6.308
REMARK INTRA:                  -0.025
REMARK UNBOUND:                 0.153
REMARK SMILES C[C@@H]1[C@H]2C3=CC[C@@H]4[C@@]5(C)CC[C@H](O)C(C)(C)[C@H]5CC[C@@]4(C)[C@]3(C)CC[C@@]2(C(=O)[O-])CC[C@@H]1C
REMARK SMILES IDX 26 1 30 2 25 3 3 4 31 5 24 6 4 7 2 8 32 9 22 10 5 11 1 12
REMARK SMILES IDX 33 13 23 14 20 15 6 16 7 17 19 18 21 19 8 20 18 21 17 22
REMARK SMILES IDX 10 23 9 24 14 25 11 26 12 27 15 28 16 29 27 30 28 31 29 32
REMARK SMILES IDX 13 33
REMARK H PARENT 13 34
REMARK Flexibility Score: inf
ROOT
ATOM      1  C   UNL     1       0.327  -7.138   7.509  1.00  0.00     0.017 C 
ATOM      2  C   UNL     1       1.313  -7.436   8.673  1.00  0.00     0.014 C 
ATOM      3  C   UNL     1      -0.115  -5.651   7.543  1.00  0.00     0.014 C 
ATOM      4  C   UNL     1      -0.940  -8.050   7.598  1.00  0.00     0.030 C 
ATOM      5  C   UNL     1       0.657  -7.458  10.057  1.00  0.00     0.004 C 
ATOM      6  C   UNL     1      -1.011  -5.282   6.350  1.00  0.00     0.013 C 
ATOM      7  C   UNL     1      -1.968  -7.667   6.517  1.00  0.00    -0.063 C 
ATOM      8  C   UNL     1      -1.567  -8.102   9.033  1.00  0.00    -0.003 C 
ATOM      9  C   UNL     1      -0.517  -8.447  10.125  1.00  0.00    -0.011 C 
ATOM     10  C   UNL     1      -2.277  -6.195   6.161  1.00  0.00    -0.006 C 
ATOM     11  C   UNL     1      -2.660  -8.675   5.934  1.00  0.00    -0.027 C 
ATOM     12  C   UNL     1      -2.784  -9.043   9.116  1.00  0.00     0.008 C 
ATOM     13  C   UNL     1      -0.029  -9.911  10.095  1.00  0.00     0.008 C 
ATOM     14  C   UNL     1      -3.348  -5.698   7.185  1.00  0.00     0.017 C 
ATOM     15  C   UNL     1      -2.792  -6.120   4.631  1.00  0.00    -0.020 C 
ATOM     16  C   UNL     1      -3.609  -8.524   4.774  1.00  0.00     0.032 C 
ATOM     17  C   UNL     1      -4.025  -7.061   4.440  1.00  0.00     0.006 C 
ATOM     18  C   UNL     1      -3.268  -4.693   4.277  1.00  0.00     0.008 C 
ATOM     19  C   UNL     1      -1.630  -6.553   3.663  1.00  0.00     0.012 C 
ATOM     20  C   UNL     1      -4.908  -6.837   3.090  1.00  0.00    -0.025 C 
ATOM     21  C   UNL     1      -3.706  -4.511   2.824  1.00  0.00     0.005 C 
ATOM     22  C   UNL     1      -4.286  -5.762   2.087  1.00  0.00     0.003 C 
ATOM     23  C   UNL     1      -6.323  -6.331   3.515  1.00  0.00     0.010 C 
ATOM     24  C   UNL     1      -5.082  -8.208   2.364  1.00  0.00     0.012 C 
ATOM     25  C   UNL     1      -5.233  -5.313   0.873  1.00  0.00    -0.006 C 
ATOM     26  C   UNL     1      -7.259  -5.964   2.352  1.00  0.00     0.033 C 
ATOM     27  C   UNL     1      -6.635  -4.901   1.427  1.00  0.00     0.120 C 
ATOM     28  C   UNL     1      -5.352  -6.430  -0.217  1.00  0.00     0.014 C 
ATOM     29  C   UNL     1      -4.626  -4.082   0.125  1.00  0.00     0.014 C 
ENDROOT
BRANCH   1  30
ATOM     30  C   UNL     1       1.103  -7.414   6.223  1.00  0.00     0.048 C 
ATOM     31  O   UNL     1       0.991  -8.527   5.640  1.00  0.00    -0.550 OA
ATOM     32  O   UNL     1       1.865  -6.418   5.619  1.00  0.00    -0.550 OA
ENDBRANCH   1  30
BRANCH  27  33
ATOM     33  O   UNL     1      -7.521  -4.544   0.391  1.00  0.00    -0.393 OA
ATOM     34  H   UNL     1      -7.846  -3.622   0.558  1.00  0.00     0.210 HD
ENDBRANCH  27  33
TORSDOF 2
ENDMDL
MODEL 5
REMARK VINA RESULT:    -5.897      8.816     10.986
REMARK INTER + INTRA:          -6.262
REMARK INTER:                  -6.172
REMARK INTRA:                  -0.090
REMARK UNBOUND:                 0.153
REMARK SMILES C[C@@H]1[C@H]2C3=CC[C@@H]4[C@@]5(C)CC[C@H](O)C(C)(C)[C@H]5CC[C@@]4(C)[C@]3(C)CC[C@@]2(C(=O)[O-])CC[C@@H]1C
REMARK SMILES IDX 26 1 30 2 25 3 3 4 31 5 24 6 4 7 2 8 32 9 22 10 5 11 1 12
REMARK SMILES IDX 33 13 23 14 20 15 6 16 7 17 19 18 21 19 8 20 18 21 17 22
REMARK SMILES IDX 10 23 9 24 14 25 11 26 12 27 15 28 16 29 27 30 28 31 29 32
REMARK SMILES IDX 13 33
REMARK H PARENT 13 34
REMARK Flexibility Score: inf
ROOT
ATOM      1  C   UNL     1       0.427  -8.422   6.520  1.00  0.00     0.017 C 
ATOM      2  C   UNL     1       1.703  -9.181   6.982  1.00  0.00     0.014 C 
ATOM      3  C   UNL     1       0.801  -7.293   5.525  1.00  0.00     0.014 C 
ATOM      4  C   UNL     1      -0.329  -7.800   7.739  1.00  0.00     0.030 C 
ATOM      5  C   UNL     1       2.601  -8.375   7.927  1.00  0.00     0.004 C 
ATOM      6  C   UNL     1      -0.439  -6.581   4.960  1.00  0.00     0.013 C 
ATOM      7  C   UNL     1      -1.522  -6.948   7.268  1.00  0.00    -0.063 C 
ATOM      8  C   UNL     1       0.612  -7.025   8.723  1.00  0.00    -0.003 C 
ATOM      9  C   UNL     1       1.837  -7.874   9.162  1.00  0.00    -0.011 C 
ATOM     10  C   UNL     1      -1.430  -6.012   6.040  1.00  0.00    -0.006 C 
ATOM     11  C   UNL     1      -2.648  -6.988   8.020  1.00  0.00    -0.027 C 
ATOM     12  C   UNL     1      -0.139  -6.461   9.944  1.00  0.00     0.008 C 
ATOM     13  C   UNL     1       1.494  -9.030  10.125  1.00  0.00     0.008 C 
ATOM     14  C   UNL     1      -0.822  -4.665   6.546  1.00  0.00     0.017 C 
ATOM     15  C   UNL     1      -2.904  -5.835   5.403  1.00  0.00    -0.020 C 
ATOM     16  C   UNL     1      -3.957  -6.334   7.662  1.00  0.00     0.032 C 
ATOM     17  C   UNL     1      -3.893  -5.309   6.493  1.00  0.00     0.006 C 
ATOM     18  C   UNL     1      -2.894  -4.780   4.273  1.00  0.00     0.008 C 
ATOM     19  C   UNL     1      -3.405  -7.215   4.842  1.00  0.00     0.012 C 
ATOM     20  C   UNL     1      -5.311  -4.711   5.960  1.00  0.00    -0.025 C 
ATOM     21  C   UNL     1      -4.234  -4.597   3.561  1.00  0.00     0.005 C 
ATOM     22  C   UNL     1      -5.530  -4.883   4.387  1.00  0.00     0.003 C 
ATOM     23  C   UNL     1      -5.345  -3.183   6.283  1.00  0.00     0.010 C 
ATOM     24  C   UNL     1      -6.477  -5.396   6.740  1.00  0.00     0.012 C 
ATOM     25  C   UNL     1      -6.779  -4.091   3.768  1.00  0.00    -0.006 C 
ATOM     26  C   UNL     1      -6.576  -2.433   5.749  1.00  0.00     0.033 C 
ATOM     27  C   UNL     1      -6.732  -2.597   4.225  1.00  0.00     0.120 C 
ATOM     28  C   UNL     1      -8.141  -4.764   4.146  1.00  0.00     0.014 C 
ATOM     29  C   UNL     1      -6.734  -4.123   2.206  1.00  0.00     0.014 C 
ENDROOT
BRANCH   1  30
ATOM     30  C   UNL     1      -0.444  -9.461   5.816  1.00  0.00     0.048 C 
ATOM     31  O   UNL     1      -0.123  -9.890   4.674  1.00  0.00    -0.550 OA
ATOM     32  O   UNL     1      -1.546 -10.023   6.455  1.00  0.00    -0.550 OA
ENDBRANCH   1  30
BRANCH  27  33
ATOM     33  O   UNL     1      -7.839  -1.869   3.744  1.00  0.00    -0.393 OA
ATOM     34  H   UNL     1      -7.530  -1.268   3.018  1.00  0.00     0.210 HD
ENDBRANCH  27  33
TORSDOF 2
ENDMDL
MODEL 6
REMARK VINA RESULT:    -5.803      3.790      7.583
REMARK INTER + INTRA:          -6.159
REMARK INTER:                  -6.248
REMARK INTRA:                   0.089
REMARK UNBOUND:                 0.153
REMARK SMILES C[C@@H]1[C@H]2C3=CC[C@@H]4[C@@]5(C)CC[C@H](O)C(C)(C)[C@H]5CC[C@@]4(C)[C@]3(C)CC[C@@]2(C(=O)[O-])CC[C@@H]1C
REMARK SMILES IDX 26 1 30 2 25 3 3 4 31 5 24 6 4 7 2 8 32 9 22 10 5 11 1 12
REMARK SMILES IDX 33 13 23 14 20 15 6 16 7 17 19 18 21 19 8 20 18 21 17 22
REMARK SMILES IDX 10 23 9 24 14 25 11 26 12 27 15 28 16 29 27 30 28 31 29 32
REMARK SMILES IDX 13 33
REMARK H PARENT 13 34
REMARK Flexibility Score: inf
ROOT
ATOM      1  C   UNL     1      -3.175  -4.358  -1.887  1.00  0.00     0.017 C 
ATOM      2  C   UNL     1      -2.192  -4.125  -3.069  1.00  0.00     0.014 C 
ATOM      3  C   UNL     1      -2.668  -3.635  -0.612  1.00  0.00     0.014 C 
ATOM      4  C   UNL     1      -3.335  -5.883  -1.581  1.00  0.00     0.030 C 
ATOM      5  C   UNL     1      -0.863  -4.876  -2.932  1.00  0.00     0.004 C 
ATOM      6  C   UNL     1      -3.661  -3.751   0.556  1.00  0.00     0.013 C 
ATOM      7  C   UNL     1      -4.212  -6.103  -0.335  1.00  0.00    -0.063 C 
ATOM      8  C   UNL     1      -1.969  -6.645  -1.498  1.00  0.00    -0.003 C 
ATOM      9  C   UNL     1      -1.070  -6.387  -2.738  1.00  0.00    -0.011 C 
ATOM     10  C   UNL     1      -4.085  -5.218   0.927  1.00  0.00    -0.006 C 
ATOM     11  C   UNL     1      -5.058  -7.161  -0.350  1.00  0.00    -0.027 C 
ATOM     12  C   UNL     1      -2.145  -8.155  -1.246  1.00  0.00     0.008 C 
ATOM     13  C   UNL     1      -1.567  -7.062  -4.033  1.00  0.00     0.008 C 
ATOM     14  C   UNL     1      -2.925  -5.820   1.784  1.00  0.00     0.017 C 
ATOM     15  C   UNL     1      -5.501  -5.207   1.707  1.00  0.00    -0.020 C 
ATOM     16  C   UNL     1      -6.085  -7.471   0.708  1.00  0.00     0.032 C 
ATOM     17  C   UNL     1      -5.936  -6.671   2.035  1.00  0.00     0.006 C 
ATOM     18  C   UNL     1      -5.380  -4.469   3.060  1.00  0.00     0.008 C 
ATOM     19  C   UNL     1      -6.589  -4.509   0.812  1.00  0.00     0.012 C 
ATOM     20  C   UNL     1      -7.122  -6.847   3.137  1.00  0.00    -0.025 C 
ATOM     21  C   UNL     1      -6.690  -4.346   3.836  1.00  0.00     0.005 C 
ATOM     22  C   UNL     1      -7.761  -5.464   3.618  1.00  0.00     0.003 C 
ATOM     23  C   UNL     1      -6.519  -7.556   4.391  1.00  0.00     0.010 C 
ATOM     24  C   UNL     1      -8.232  -7.771   2.545  1.00  0.00     0.012 C 
ATOM     25  C   UNL     1      -8.746  -5.555   4.880  1.00  0.00    -0.006 C 
ATOM     26  C   UNL     1      -7.482  -7.706   5.580  1.00  0.00     0.033 C 
ATOM     27  C   UNL     1      -8.050  -6.348   6.034  1.00  0.00     0.120 C 
ATOM     28  C   UNL     1     -10.125  -6.190   4.498  1.00  0.00     0.014 C 
ATOM     29  C   UNL     1      -9.094  -4.128   5.413  1.00  0.00     0.014 C 
ENDROOT
BRANCH   1  30
ATOM     30  C   UNL     1      -4.507  -3.752  -2.327  1.00  0.00     0.048 C 
ATOM     31  O   UNL     1      -4.875  -2.633  -1.875  1.00  0.00    -0.550 OA
ATOM     32  O   UNL     1      -5.288  -4.369  -3.300  1.00  0.00    -0.550 OA
ENDBRANCH   1  30
BRANCH  27  33
ATOM     33  O   UNL     1      -8.897  -6.496   7.150  1.00  0.00    -0.393 OA
ATOM     34  H   UNL     1      -9.649  -7.092   6.897  1.00  0.00     0.210 HD
ENDBRANCH  27  33
TORSDOF 2
ENDMDL
MODEL 7
REMARK VINA RESULT:    -5.767      4.733     11.552
REMARK INTER + INTRA:          -6.120
REMARK INTER:                  -6.046
REMARK INTRA:                  -0.075
REMARK UNBOUND:                 0.153
REMARK SMILES C[C@@H]1[C@H]2C3=CC[C@@H]4[C@@]5(C)CC[C@H](O)C(C)(C)[C@H]5CC[C@@]4(C)[C@]3(C)CC[C@@]2(C(=O)[O-])CC[C@@H]1C
REMARK SMILES IDX 26 1 30 2 25 3 3 4 31 5 24 6 4 7 2 8 32 9 22 10 5 11 1 12
REMARK SMILES IDX 33 13 23 14 20 15 6 16 7 17 19 18 21 19 8 20 18 21 17 22
REMARK SMILES IDX 10 23 9 24 14 25 11 26 12 27 15 28 16 29 27 30 28 31 29 32
REMARK SMILES IDX 13 33
REMARK H PARENT 13 34
REMARK Flexibility Score: inf
ROOT
ATOM      1  C   UNL     1      -6.252  -2.860   6.282  1.00  0.00     0.017 C 
ATOM      2  C   UNL     1      -6.748  -2.297   7.644  1.00  0.00     0.014 C 
ATOM      3  C   UNL     1      -7.241  -2.480   5.148  1.00  0.00     0.014 C 
ATOM      4  C   UNL     1      -6.108  -4.415   6.334  1.00  0.00     0.030 C 
ATOM      5  C   UNL     1      -7.977  -3.018   8.206  1.00  0.00     0.004 C 
ATOM      6  C   UNL     1      -6.740  -2.926   3.765  1.00  0.00     0.013 C 
ATOM      7  C   UNL     1      -5.735  -4.979   4.950  1.00  0.00    -0.063 C 
ATOM      8  C   UNL     1      -7.352  -5.133   6.961  1.00  0.00    -0.003 C 
ATOM      9  C   UNL     1      -7.749  -4.532   8.338  1.00  0.00    -0.011 C 
ATOM     10  C   UNL     1      -6.378  -4.451   3.647  1.00  0.00    -0.006 C 
ATOM     11  C   UNL     1      -4.870  -6.020   4.917  1.00  0.00    -0.027 C 
ATOM     12  C   UNL     1      -7.174  -6.660   7.053  1.00  0.00     0.008 C 
ATOM     13  C   UNL     1      -6.766  -4.861   9.480  1.00  0.00     0.008 C 
ATOM     14  C   UNL     1      -7.726  -5.221   3.466  1.00  0.00     0.017 C 
ATOM     15  C   UNL     1      -5.352  -4.685   2.421  1.00  0.00    -0.020 C 
ATOM     16  C   UNL     1      -4.283  -6.626   3.669  1.00  0.00     0.032 C 
ATOM     17  C   UNL     1      -4.965  -6.197   2.337  1.00  0.00     0.006 C 
ATOM     18  C   UNL     1      -6.012  -4.324   1.071  1.00  0.00     0.008 C 
ATOM     19  C   UNL     1      -4.064  -3.811   2.639  1.00  0.00     0.012 C 
ATOM     20  C   UNL     1      -4.255  -6.689   0.956  1.00  0.00    -0.025 C 
ATOM     21  C   UNL     1      -5.090  -4.446  -0.141  1.00  0.00     0.005 C 
ATOM     22  C   UNL     1      -3.937  -5.500  -0.062  1.00  0.00     0.003 C 
ATOM     23  C   UNL     1      -5.224  -7.683   0.240  1.00  0.00     0.010 C 
ATOM     24  C   UNL     1      -2.943  -7.460   1.305  1.00  0.00     0.012 C 
ATOM     25  C   UNL     1      -3.479  -5.946  -1.532  1.00  0.00    -0.006 C 
ATOM     26  C   UNL     1      -4.756  -8.167  -1.142  1.00  0.00     0.033 C 
ATOM     27  C   UNL     1      -4.492  -6.991  -2.102  1.00  0.00     0.120 C 
ATOM     28  C   UNL     1      -2.015  -6.500  -1.544  1.00  0.00     0.014 C 
ATOM     29  C   UNL     1      -3.453  -4.718  -2.499  1.00  0.00     0.014 C 
ENDROOT
BRANCH   1  30
ATOM     30  C   UNL     1      -4.898  -2.199   6.025  1.00  0.00     0.048 C 
ATOM     31  O   UNL     1      -4.831  -0.964   5.778  1.00  0.00    -0.550 OA
ATOM     32  O   UNL     1      -3.714  -2.919   6.155  1.00  0.00    -0.550 OA
ENDBRANCH   1  30
BRANCH  27  33
ATOM     33  O   UNL     1      -4.105  -7.451  -3.377  1.00  0.00    -0.393 OA
ATOM     34  H   UNL     1      -4.565  -8.311  -3.555  1.00  0.00     0.210 HD
ENDBRANCH  27  33
TORSDOF 2
ENDMDL
MODEL 8
REMARK VINA RESULT:    -5.706      6.655     10.559
REMARK INTER + INTRA:          -6.054
REMARK INTER:                  -5.959
REMARK INTRA:                  -0.095
REMARK UNBOUND:                 0.153
REMARK SMILES C[C@@H]1[C@H]2C3=CC[C@@H]4[C@@]5(C)CC[C@H](O)C(C)(C)[C@H]5CC[C@@]4(C)[C@]3(C)CC[C@@]2(C(=O)[O-])CC[C@@H]1C
REMARK SMILES IDX 26 1 30 2 25 3 3 4 31 5 24 6 4 7 2 8 32 9 22 10 5 11 1 12
REMARK SMILES IDX 33 13 23 14 20 15 6 16 7 17 19 18 21 19 8 20 18 21 17 22
REMARK SMILES IDX 10 23 9 24 14 25 11 26 12 27 15 28 16 29 27 30 28 31 29 32
REMARK SMILES IDX 13 33
REMARK H PARENT 13 34
REMARK Flexibility Score: inf
ROOT
ATOM      1  C   UNL     1      -0.562  -6.061   7.720  1.00  0.00     0.017 C 
ATOM      2  C   UNL     1       0.384  -6.021   8.953  1.00  0.00     0.014 C 
ATOM      3  C   UNL     1      -2.027  -5.788   8.153  1.00  0.00     0.014 C 
ATOM      4  C   UNL     1      -0.492  -7.448   7.002  1.00  0.00     0.030 C 
ATOM      5  C   UNL     1       0.231  -7.219   9.896  1.00  0.00     0.004 C 
ATOM      6  C   UNL     1      -2.985  -5.715   6.953  1.00  0.00     0.013 C 
ATOM      7  C   UNL     1      -1.519  -7.525   5.857  1.00  0.00    -0.063 C 
ATOM      8  C   UNL     1      -0.596  -8.662   7.987  1.00  0.00    -0.003 C 
ATOM      9  C   UNL     1       0.413  -8.558   9.163  1.00  0.00    -0.011 C 
ATOM     10  C   UNL     1      -2.952  -6.962   5.998  1.00  0.00    -0.006 C 
ATOM     11  C   UNL     1      -1.145  -8.181   4.732  1.00  0.00    -0.027 C 
ATOM     12  C   UNL     1      -0.475 -10.021   7.271  1.00  0.00     0.008 C 
ATOM     13  C   UNL     1       1.884  -8.788   8.759  1.00  0.00     0.008 C 
ATOM     14  C   UNL     1      -3.808  -8.076   6.681  1.00  0.00     0.017 C 
ATOM     15  C   UNL     1      -3.504  -6.555   4.535  1.00  0.00    -0.020 C 
ATOM     16  C   UNL     1      -1.949  -8.256   3.460  1.00  0.00     0.032 C 
ATOM     17  C   UNL     1      -3.429  -7.790   3.579  1.00  0.00     0.006 C 
ATOM     18  C   UNL     1      -4.991  -6.140   4.601  1.00  0.00     0.008 C 
ATOM     19  C   UNL     1      -2.642  -5.374   3.956  1.00  0.00     0.012 C 
ATOM     20  C   UNL     1      -4.282  -7.690   2.195  1.00  0.00    -0.025 C 
ATOM     21  C   UNL     1      -5.580  -5.668   3.272  1.00  0.00     0.005 C 
ATOM     22  C   UNL     1      -4.966  -6.265   1.964  1.00  0.00     0.003 C 
ATOM     23  C   UNL     1      -5.418  -8.761   2.247  1.00  0.00     0.010 C 
ATOM     24  C   UNL     1      -3.346  -8.035   0.995  1.00  0.00     0.012 C 
ATOM     25  C   UNL     1      -6.021  -6.186   0.759  1.00  0.00    -0.006 C 
ATOM     26  C   UNL     1      -6.393  -8.734   1.058  1.00  0.00     0.033 C 
ATOM     27  C   UNL     1      -7.054  -7.352   0.890  1.00  0.00     0.120 C 
ATOM     28  C   UNL     1      -5.313  -6.201  -0.637  1.00  0.00     0.014 C 
ATOM     29  C   UNL     1      -6.805  -4.836   0.799  1.00  0.00     0.014 C 
ENDROOT
BRANCH   1  30
ATOM     30  C   UNL     1      -0.084  -4.946   6.791  1.00  0.00     0.048 C 
ATOM     31  O   UNL     1      -0.376  -3.744   7.039  1.00  0.00    -0.550 OA
ATOM     32  O   UNL     1       0.757  -5.221   5.717  1.00  0.00    -0.550 OA
ENDBRANCH   1  30
BRANCH  27  33
ATOM     33  O   UNL     1      -7.976  -7.355  -0.176  1.00  0.00    -0.393 OA
ATOM     34  H   UNL     1      -7.478  -7.221  -1.023  1.00  0.00     0.210 HD
ENDBRANCH  27  33
TORSDOF 2
ENDMDL
MODEL 9
REMARK VINA RESULT:    -5.574      1.857      8.138
REMARK INTER + INTRA:          -5.910
REMARK INTER:                  -5.822
REMARK INTRA:                  -0.088
REMARK UNBOUND:                 0.153
REMARK SMILES C[C@@H]1[C@H]2C3=CC[C@@H]4[C@@]5(C)CC[C@H](O)C(C)(C)[C@H]5CC[C@@]4(C)[C@]3(C)CC[C@@]2(C(=O)[O-])CC[C@@H]1C
REMARK SMILES IDX 26 1 30 2 25 3 3 4 31 5 24 6 4 7 2 8 32 9 22 10 5 11 1 12
REMARK SMILES IDX 33 13 23 14 20 15 6 16 7 17 19 18 21 19 8 20 18 21 17 22
REMARK SMILES IDX 10 23 9 24 14 25 11 26 12 27 15 28 16 29 27 30 28 31 29 32
REMARK SMILES IDX 13 33
REMARK H PARENT 13 34
REMARK Flexibility Score: inf
ROOT
ATOM      1  C   UNL     1      -3.858  -5.987  -0.833  1.00  0.00     0.017 C 
ATOM      2  C   UNL     1      -4.882  -5.644   0.285  1.00  0.00     0.014 C 
ATOM      3  C   UNL     1      -4.524  -6.868  -1.923  1.00  0.00     0.014 C 
ATOM      4  C   UNL     1      -2.621  -6.744  -0.250  1.00  0.00     0.030 C 
ATOM      5  C   UNL     1      -5.245  -6.830   1.185  1.00  0.00     0.004 C 
ATOM      6  C   UNL     1      -3.578  -7.147  -3.103  1.00  0.00     0.013 C 
ATOM      7  C   UNL     1      -1.669  -7.189  -1.376  1.00  0.00    -0.063 C 
ATOM      8  C   UNL     1      -3.009  -7.920   0.710  1.00  0.00    -0.003 C 
ATOM      9  C   UNL     1      -4.002  -7.476   1.819  1.00  0.00    -0.011 C 
ATOM     10  C   UNL     1      -2.189  -7.770  -2.711  1.00  0.00    -0.006 C 
ATOM     11  C   UNL     1      -0.339  -7.125  -1.125  1.00  0.00    -0.027 C 
ATOM     12  C   UNL     1      -1.780  -8.623   1.316  1.00  0.00     0.008 C 
ATOM     13  C   UNL     1      -3.381  -6.568   2.900  1.00  0.00     0.008 C 
ATOM     14  C   UNL     1      -2.430  -9.295  -2.474  1.00  0.00     0.017 C 
ATOM     15  C   UNL     1      -1.103  -7.478  -3.870  1.00  0.00    -0.020 C 
ATOM     16  C   UNL     1       0.750  -7.389  -2.131  1.00  0.00     0.032 C 
ATOM     17  C   UNL     1       0.285  -8.065  -3.455  1.00  0.00     0.006 C 
ATOM     18  C   UNL     1      -1.500  -8.181  -5.189  1.00  0.00     0.008 C 
ATOM     19  C   UNL     1      -0.984  -5.928  -4.104  1.00  0.00     0.012 C 
ATOM     20  C   UNL     1       1.396  -8.209  -4.637  1.00  0.00    -0.025 C 
ATOM     21  C   UNL     1      -0.565  -7.902  -6.365  1.00  0.00     0.005 C 
ATOM     22  C   UNL     1       0.931  -7.592  -6.034  1.00  0.00     0.003 C 
ATOM     23  C   UNL     1       1.676  -9.730  -4.856  1.00  0.00     0.010 C 
ATOM     24  C   UNL     1       2.725  -7.535  -4.170  1.00  0.00     0.012 C 
ATOM     25  C   UNL     1       1.868  -7.930  -7.291  1.00  0.00    -0.006 C 
ATOM     26  C   UNL     1       2.629 -10.055  -6.018  1.00  0.00     0.033 C 
ATOM     27  C   UNL     1       2.127  -9.471  -7.352  1.00  0.00     0.120 C 
ATOM     28  C   UNL     1       3.209  -7.124  -7.251  1.00  0.00     0.014 C 
ATOM     29  C   UNL     1       1.178  -7.500  -8.625  1.00  0.00     0.014 C 
ENDROOT
BRANCH   1  30
ATOM     30  C   UNL     1      -3.438  -4.649  -1.438  1.00  0.00     0.048 C 
ATOM     31  O   UNL     1      -4.240  -4.000  -2.165  1.00  0.00    -0.550 OA
ATOM     32  O   UNL     1      -2.209  -4.076  -1.125  1.00  0.00    -0.550 OA
ENDBRANCH   1  30
BRANCH  27  33
ATOM     33  O   UNL     1       2.988  -9.812  -8.414  1.00  0.00    -0.393 OA
ATOM     34  H   UNL     1       2.784 -10.741  -8.698  1.00  0.00     0.210 HD
ENDBRANCH  27  33
TORSDOF 2
ENDMDL
