MODEL 1
REMARK VINA RESULT:    -7.809      0.000      0.000
REMARK INTER + INTRA:          -8.622
REMARK INTER:                  -8.494
REMARK INTRA:                  -0.128
REMARK UNBOUND:                -0.128
REMARK SMILES CC1(C)CC[C@@]2(C(=O)[O-])CC[C@@]3(C)C(=CC[C@H]4[C@@]5(C)CC[C@@H](O)C(C)(C)[C@H]5CC[C@]43C)[C@H]2C1
REMARK SMILES IDX 6 1 5 2 10 3 32 4 4 5 11 6 14 7 33 8 2 9 12 10 15 11 1 12
REMARK SMILES IDX 3 13 13 14 30 15 16 16 17 17 29 18 31 19 18 20 28 21 27 22
REMARK SMILES IDX 20 23 19 24 24 25 21 26 22 27 25 28 26 29 7 30 8 31 9 32
REMARK SMILES IDX 23 33
REMARK H PARENT 23 34
REMARK Flexibility Score: inf
ROOT
ATOM      1  C   UNL     1     -15.551  28.976  -8.563  1.00  0.00     0.017 C 
ATOM      2  C   UNL     1     -14.803  28.659  -9.888  1.00  0.00     0.014 C 
ATOM      3  C   UNL     1     -14.674  28.618  -7.341  1.00  0.00     0.014 C 
ATOM      4  C   UNL     1     -15.922  30.485  -8.485  1.00  0.00     0.028 C 
ATOM      5  C   UNL     1     -13.638  29.612 -10.196  1.00  0.00     0.007 C 
ATOM      6  C   UNL     1     -15.425  28.822  -6.016  1.00  0.00     0.013 C 
ATOM      7  C   UNL     1     -16.514  30.868  -7.122  1.00  0.00    -0.064 C 
ATOM      8  C   UNL     1     -14.751  31.437  -8.845  1.00  0.00     0.015 C 
ATOM      9  C   UNL     1     -14.059  31.101 -10.189  1.00  0.00    -0.035 C 
ATOM     10  C   UNL     1     -16.025  30.262  -5.793  1.00  0.00    -0.006 C 
ATOM     11  C   UNL     1     -17.379  31.896  -7.108  1.00  0.00    -0.027 C 
ATOM     12  C   UNL     1     -14.983  31.426 -11.388  1.00  0.00     0.011 C 
ATOM     13  C   UNL     1     -12.790  31.970 -10.323  1.00  0.00     0.011 C 
ATOM     14  C   UNL     1     -14.858  31.170  -5.293  1.00  0.00     0.017 C 
ATOM     15  C   UNL     1     -17.231  30.230  -4.718  1.00  0.00    -0.020 C 
ATOM     16  C   UNL     1     -18.216  32.288  -5.931  1.00  0.00     0.032 C 
ATOM     17  C   UNL     1     -17.845  31.674  -4.542  1.00  0.00     0.006 C 
ATOM     18  C   UNL     1     -18.379  29.268  -5.187  1.00  0.00     0.008 C 
ATOM     19  C   UNL     1     -16.667  29.705  -3.353  1.00  0.00     0.012 C 
ATOM     20  C   UNL     1     -19.044  31.773  -3.459  1.00  0.00    -0.025 C 
ATOM     21  C   UNL     1     -19.825  29.670  -4.797  1.00  0.00     0.005 C 
ATOM     22  C   UNL     1     -19.936  30.443  -3.453  1.00  0.00     0.003 C 
ATOM     23  C   UNL     1     -19.912  33.064  -3.722  1.00  0.00     0.010 C 
ATOM     24  C   UNL     1     -18.401  31.982  -2.042  1.00  0.00     0.012 C 
ATOM     25  C   UNL     1     -21.418  30.575  -2.858  1.00  0.00    -0.006 C 
ATOM     26  C   UNL     1     -21.220  33.142  -2.937  1.00  0.00     0.033 C 
ATOM     27  C   UNL     1     -22.112  31.931  -3.211  1.00  0.00     0.120 C 
ATOM     28  C   UNL     1     -21.367  30.439  -1.307  1.00  0.00     0.014 C 
ATOM     29  C   UNL     1     -22.353  29.423  -3.323  1.00  0.00     0.014 C 
ENDROOT
BRANCH   1  30
ATOM     30  C   UNL     1     -16.807  28.106  -8.568  1.00  0.00     0.048 C 
ATOM     31  O   UNL     1     -16.717  26.862  -8.383  1.00  0.00    -0.550 OA
ATOM     32  O   UNL     1     -18.054  28.647  -8.866  1.00  0.00    -0.550 OA
ENDBRANCH   1  30
BRANCH  27  33
ATOM     33  O   UNL     1     -22.617  31.970  -4.527  1.00  0.00    -0.393 OA
ATOM     34  H   UNL     1     -23.263  31.229  -4.636  1.00  0.00     0.210 HD
ENDBRANCH  27  33
TORSDOF 2
ENDMDL
MODEL 2
REMARK VINA RESULT:    -7.612      1.917      7.804
REMARK INTER + INTRA:          -8.408
REMARK INTER:                  -8.378
REMARK INTRA:                  -0.030
REMARK UNBOUND:                -0.128
REMARK SMILES CC1(C)CC[C@@]2(C(=O)[O-])CC[C@@]3(C)C(=CC[C@H]4[C@@]5(C)CC[C@@H](O)C(C)(C)[C@H]5CC[C@]43C)[C@H]2C1
REMARK SMILES IDX 6 1 5 2 10 3 32 4 4 5 11 6 14 7 33 8 2 9 12 10 15 11 1 12
REMARK SMILES IDX 3 13 13 14 30 15 16 16 17 17 29 18 31 19 18 20 28 21 27 22
REMARK SMILES IDX 20 23 19 24 24 25 21 26 22 27 25 28 26 29 7 30 8 31 9 32
REMARK SMILES IDX 23 33
REMARK H PARENT 23 34
REMARK Flexibility Score: inf
ROOT
ATOM      1  C   UNL     1     -19.181  30.993  -2.997  1.00  0.00     0.017 C 
ATOM      2  C   UNL     1     -20.073  31.289  -1.758  1.00  0.00     0.014 C 
ATOM      3  C   UNL     1     -18.058  29.993  -2.636  1.00  0.00     0.014 C 
ATOM      4  C   UNL     1     -20.029  30.393  -4.156  1.00  0.00     0.028 C 
ATOM      5  C   UNL     1     -20.976  30.120  -1.339  1.00  0.00     0.007 C 
ATOM      6  C   UNL     1     -17.098  29.761  -3.812  1.00  0.00     0.013 C 
ATOM      7  C   UNL     1     -19.159  29.936  -5.334  1.00  0.00    -0.064 C 
ATOM      8  C   UNL     1     -20.973  29.245  -3.712  1.00  0.00     0.015 C 
ATOM      9  C   UNL     1     -21.863  29.600  -2.495  1.00  0.00    -0.035 C 
ATOM     10  C   UNL     1     -17.774  29.285  -5.153  1.00  0.00    -0.006 C 
ATOM     11  C   UNL     1     -19.727  29.967  -6.551  1.00  0.00    -0.027 C 
ATOM     12  C   UNL     1     -22.946  30.638  -2.881  1.00  0.00     0.011 C 
ATOM     13  C   UNL     1     -22.586  28.320  -2.022  1.00  0.00     0.011 C 
ATOM     14  C   UNL     1     -18.016  27.749  -5.023  1.00  0.00     0.017 C 
ATOM     15  C   UNL     1     -16.834  29.615  -6.426  1.00  0.00    -0.020 C 
ATOM     16  C   UNL     1     -18.993  29.762  -7.839  1.00  0.00     0.032 C 
ATOM     17  C   UNL     1     -17.549  29.169  -7.763  1.00  0.00     0.006 C 
ATOM     18  C   UNL     1     -16.535  31.152  -6.525  1.00  0.00     0.008 C 
ATOM     19  C   UNL     1     -15.476  28.852  -6.252  1.00  0.00     0.012 C 
ATOM     20  C   UNL     1     -16.684  29.418  -9.109  1.00  0.00    -0.025 C 
ATOM     21  C   UNL     1     -16.385  31.741  -7.951  1.00  0.00     0.005 C 
ATOM     22  C   UNL     1     -15.801  30.750  -8.998  1.00  0.00     0.003 C 
ATOM     23  C   UNL     1     -17.631  29.443 -10.369  1.00  0.00     0.010 C 
ATOM     24  C   UNL     1     -15.743  28.179  -9.316  1.00  0.00     0.012 C 
ATOM     25  C   UNL     1     -15.322  31.411 -10.376  1.00  0.00    -0.006 C 
ATOM     26  C   UNL     1     -16.982  29.922 -11.666  1.00  0.00     0.033 C 
ATOM     27  C   UNL     1     -16.392  31.325 -11.513  1.00  0.00     0.120 C 
ATOM     28  C   UNL     1     -14.025  30.701 -10.867  1.00  0.00     0.014 C 
ATOM     29  C   UNL     1     -14.916  32.903 -10.213  1.00  0.00     0.014 C 
ENDROOT
BRANCH   1  30
ATOM     30  C   UNL     1     -18.569  32.331  -3.406  1.00  0.00     0.048 C 
ATOM     31  O   UNL     1     -17.447  32.680  -2.949  1.00  0.00    -0.550 OA
ATOM     32  O   UNL     1     -19.269  33.225  -4.211  1.00  0.00    -0.550 OA
ENDBRANCH   1  30
BRANCH  27  33
ATOM     33  O   UNL     1     -17.415  32.286 -11.386  1.00  0.00    -0.393 OA
ATOM     34  H   UNL     1     -17.460  32.807 -12.225  1.00  0.00     0.210 HD
ENDBRANCH  27  33
TORSDOF 2
ENDMDL
MODEL 3
REMARK VINA RESULT:    -7.583      3.529      8.911
REMARK INTER + INTRA:          -8.376
REMARK INTER:                  -8.248
REMARK INTRA:                  -0.128
REMARK UNBOUND:                -0.128
REMARK SMILES CC1(C)CC[C@@]2(C(=O)[O-])CC[C@@]3(C)C(=CC[C@H]4[C@@]5(C)CC[C@@H](O)C(C)(C)[C@H]5CC[C@]43C)[C@H]2C1
REMARK SMILES IDX 6 1 5 2 10 3 32 4 4 5 11 6 14 7 33 8 2 9 12 10 15 11 1 12
REMARK SMILES IDX 3 13 13 14 30 15 16 16 17 17 29 18 31 19 18 20 28 21 27 22
REMARK SMILES IDX 20 23 19 24 24 25 21 26 22 27 25 28 26 29 7 30 8 31 9 32
REMARK SMILES IDX 23 33
REMARK H PARENT 23 34
REMARK Flexibility Score: inf
ROOT
ATOM      1  C   UNL     1     -24.407  26.770  -3.437  1.00  0.00     0.017 C 
ATOM      2  C   UNL     1     -25.514  25.738  -3.083  1.00  0.00     0.014 C 
ATOM      3  C   UNL     1     -24.904  27.753  -4.522  1.00  0.00     0.014 C 
ATOM      4  C   UNL     1     -23.989  27.586  -2.179  1.00  0.00     0.028 C 
ATOM      5  C   UNL     1     -26.692  26.324  -2.292  1.00  0.00     0.007 C 
ATOM      6  C   UNL     1     -23.798  28.721  -4.969  1.00  0.00     0.013 C 
ATOM      7  C   UNL     1     -23.019  28.724  -2.522  1.00  0.00    -0.064 C 
ATOM      8  C   UNL     1     -25.189  28.133  -1.361  1.00  0.00     0.015 C 
ATOM      9  C   UNL     1     -26.247  27.060  -1.005  1.00  0.00    -0.035 C 
ATOM     10  C   UNL     1     -23.121  29.554  -3.815  1.00  0.00    -0.006 C 
ATOM     11  C   UNL     1     -22.160  29.094  -1.558  1.00  0.00    -0.027 C 
ATOM     12  C   UNL     1     -25.700  26.065   0.047  1.00  0.00     0.011 C 
ATOM     13  C   UNL     1     -27.477  27.764  -0.392  1.00  0.00     0.011 C 
ATOM     14  C   UNL     1     -24.070  30.754  -3.501  1.00  0.00     0.017 C 
ATOM     15  C   UNL     1     -21.657  30.078  -4.257  1.00  0.00    -0.020 C 
ATOM     16  C   UNL     1     -21.010  30.030  -1.756  1.00  0.00     0.032 C 
ATOM     17  C   UNL     1     -20.981  30.873  -3.072  1.00  0.00     0.006 C 
ATOM     18  C   UNL     1     -20.719  28.878  -4.635  1.00  0.00     0.008 C 
ATOM     19  C   UNL     1     -21.818  31.001  -5.513  1.00  0.00     0.012 C 
ATOM     20  C   UNL     1     -19.518  31.478  -3.411  1.00  0.00    -0.025 C 
ATOM     21  C   UNL     1     -19.212  29.045  -4.311  1.00  0.00     0.005 C 
ATOM     22  C   UNL     1     -18.697  30.510  -4.388  1.00  0.00     0.003 C 
ATOM     23  C   UNL     1     -18.729  31.777  -2.078  1.00  0.00     0.010 C 
ATOM     24  C   UNL     1     -19.719  32.874  -4.100  1.00  0.00     0.012 C 
ATOM     25  C   UNL     1     -17.104  30.678  -4.394  1.00  0.00    -0.006 C 
ATOM     26  C   UNL     1     -17.248  32.108  -2.256  1.00  0.00     0.033 C 
ATOM     27  C   UNL     1     -16.506  30.986  -2.982  1.00  0.00     0.120 C 
ATOM     28  C   UNL     1     -16.709  31.837  -5.358  1.00  0.00     0.014 C 
ATOM     29  C   UNL     1     -16.374  29.429  -4.961  1.00  0.00     0.014 C 
ENDROOT
BRANCH   1  30
ATOM     30  C   UNL     1     -23.230  25.959  -3.976  1.00  0.00     0.048 C 
ATOM     31  O   UNL     1     -23.296  25.429  -5.118  1.00  0.00    -0.550 OA
ATOM     32  O   UNL     1     -22.107  25.714  -3.191  1.00  0.00    -0.550 OA
ENDBRANCH   1  30
BRANCH  27  33
ATOM     33  O   UNL     1     -16.401  29.844  -2.164  1.00  0.00    -0.393 OA
ATOM     34  H   UNL     1     -16.254  29.056  -2.743  1.00  0.00     0.210 HD
ENDBRANCH  27  33
TORSDOF 2
ENDMDL
MODEL 4
REMARK VINA RESULT:    -7.408      0.859      1.035
REMARK INTER + INTRA:          -8.186
REMARK INTER:                  -8.111
REMARK INTRA:                  -0.075
REMARK UNBOUND:                -0.128
REMARK SMILES CC1(C)CC[C@@]2(C(=O)[O-])CC[C@@]3(C)C(=CC[C@H]4[C@@]5(C)CC[C@@H](O)C(C)(C)[C@H]5CC[C@]43C)[C@H]2C1
REMARK SMILES IDX 6 1 5 2 10 3 32 4 4 5 11 6 14 7 33 8 2 9 12 10 15 11 1 12
REMARK SMILES IDX 3 13 13 14 30 15 16 16 17 17 29 18 31 19 18 20 28 21 27 22
REMARK SMILES IDX 20 23 19 24 24 25 21 26 22 27 25 28 26 29 7 30 8 31 9 32
REMARK SMILES IDX 23 33
REMARK H PARENT 23 34
REMARK Flexibility Score: inf
ROOT
ATOM      1  C   UNL     1     -15.201  29.704  -8.270  1.00  0.00     0.017 C 
ATOM      2  C   UNL     1     -14.358  29.470  -9.554  1.00  0.00     0.014 C 
ATOM      3  C   UNL     1     -14.288  29.801  -7.026  1.00  0.00     0.014 C 
ATOM      4  C   UNL     1     -16.028  31.018  -8.384  1.00  0.00     0.028 C 
ATOM      5  C   UNL     1     -13.543  30.691 -10.004  1.00  0.00     0.007 C 
ATOM      6  C   UNL     1     -15.098  29.928  -5.728  1.00  0.00     0.013 C 
ATOM      7  C   UNL     1     -16.744  31.368  -7.074  1.00  0.00    -0.064 C 
ATOM      8  C   UNL     1     -15.204  32.234  -8.885  1.00  0.00     0.015 C 
ATOM      9  C   UNL     1     -14.408  31.960 -10.185  1.00  0.00    -0.035 C 
ATOM     10  C   UNL     1     -16.124  31.124  -5.685  1.00  0.00    -0.006 C 
ATOM     11  C   UNL     1     -17.888  32.066  -7.179  1.00  0.00    -0.027 C 
ATOM     12  C   UNL     1     -15.357  31.822 -11.400  1.00  0.00     0.011 C 
ATOM     13  C   UNL     1     -13.472  33.159 -10.452  1.00  0.00     0.011 C 
ATOM     14  C   UNL     1     -15.313  32.409  -5.327  1.00  0.00     0.017 C 
ATOM     15  C   UNL     1     -17.286  30.854  -4.595  1.00  0.00    -0.020 C 
ATOM     16  C   UNL     1     -18.834  32.325  -6.050  1.00  0.00     0.032 C 
ATOM     17  C   UNL     1     -18.326  32.044  -4.600  1.00  0.00     0.006 C 
ATOM     18  C   UNL     1     -18.064  29.529  -4.915  1.00  0.00     0.008 C 
ATOM     19  C   UNL     1     -16.621  30.714  -3.183  1.00  0.00     0.012 C 
ATOM     20  C   UNL     1     -19.523  31.901  -3.519  1.00  0.00    -0.025 C 
ATOM     21  C   UNL     1     -19.572  29.504  -4.557  1.00  0.00     0.005 C 
ATOM     22  C   UNL     1     -19.954  30.371  -3.324  1.00  0.00     0.003 C 
ATOM     23  C   UNL     1     -20.744  32.809  -3.934  1.00  0.00     0.010 C 
ATOM     24  C   UNL     1     -19.014  32.482  -2.153  1.00  0.00     0.012 C 
ATOM     25  C   UNL     1     -21.417  30.107  -2.727  1.00  0.00    -0.006 C 
ATOM     26  C   UNL     1     -22.030  32.574  -3.145  1.00  0.00     0.033 C 
ATOM     27  C   UNL     1     -22.492  31.119  -3.243  1.00  0.00     0.120 C 
ATOM     28  C   UNL     1     -21.366  30.196  -1.172  1.00  0.00     0.014 C 
ATOM     29  C   UNL     1     -21.933  28.670  -3.022  1.00  0.00     0.014 C 
ENDROOT
BRANCH   1  30
ATOM     30  C   UNL     1     -16.121  28.492  -8.141  1.00  0.00     0.048 C 
ATOM     31  O   UNL     1     -17.351  28.600  -8.394  1.00  0.00    -0.550 OA
ATOM     32  O   UNL     1     -15.644  27.276  -7.659  1.00  0.00    -0.550 OA
ENDBRANCH   1  30
BRANCH  27  33
ATOM     33  O   UNL     1     -22.949  30.827  -4.544  1.00  0.00    -0.393 OA
ATOM     34  H   UNL     1     -23.450  29.975  -4.515  1.00  0.00     0.210 HD
ENDBRANCH  27  33
TORSDOF 2
ENDMDL
MODEL 5
REMARK VINA RESULT:    -7.203      2.349      7.670
REMARK INTER + INTRA:          -7.963
REMARK INTER:                  -7.838
REMARK INTRA:                  -0.125
REMARK UNBOUND:                -0.128
REMARK SMILES CC1(C)CC[C@@]2(C(=O)[O-])CC[C@@]3(C)C(=CC[C@H]4[C@@]5(C)CC[C@@H](O)C(C)(C)[C@H]5CC[C@]43C)[C@H]2C1
REMARK SMILES IDX 6 1 5 2 10 3 32 4 4 5 11 6 14 7 33 8 2 9 12 10 15 11 1 12
REMARK SMILES IDX 3 13 13 14 30 15 16 16 17 17 29 18 31 19 18 20 28 21 27 22
REMARK SMILES IDX 20 23 19 24 24 25 21 26 22 27 25 28 26 29 7 30 8 31 9 32
REMARK SMILES IDX 23 33
REMARK H PARENT 23 34
REMARK Flexibility Score: inf
ROOT
ATOM      1  C   UNL     1     -19.407  29.470  -5.112  1.00  0.00     0.017 C 
ATOM      2  C   UNL     1     -20.585  29.067  -4.183  1.00  0.00     0.014 C 
ATOM      3  C   UNL     1     -19.901  29.677  -6.563  1.00  0.00     0.014 C 
ATOM      4  C   UNL     1     -18.741  30.788  -4.620  1.00  0.00     0.028 C 
ATOM      5  C   UNL     1     -21.576  30.204  -3.893  1.00  0.00     0.007 C 
ATOM      6  C   UNL     1     -18.742  29.974  -7.526  1.00  0.00     0.013 C 
ATOM      7  C   UNL     1     -17.682  31.305  -5.603  1.00  0.00    -0.064 C 
ATOM      8  C   UNL     1     -19.755  31.914  -4.285  1.00  0.00     0.015 C 
ATOM      9  C   UNL     1     -20.891  31.472  -3.330  1.00  0.00    -0.035 C 
ATOM     10  C   UNL     1     -17.832  31.198  -7.132  1.00  0.00    -0.006 C 
ATOM     11  C   UNL     1     -16.674  32.022  -5.080  1.00  0.00    -0.027 C 
ATOM     12  C   UNL     1     -20.353  31.228  -1.899  1.00  0.00     0.011 C 
ATOM     13  C   UNL     1     -21.939  32.603  -3.253  1.00  0.00     0.011 C 
ATOM     14  C   UNL     1     -18.575  32.489  -7.599  1.00  0.00     0.017 C 
ATOM     15  C   UNL     1     -16.376  31.089  -7.827  1.00  0.00    -0.020 C 
ATOM     16  C   UNL     1     -15.446  32.435  -5.828  1.00  0.00     0.032 C 
ATOM     17  C   UNL     1     -15.467  32.302  -7.385  1.00  0.00     0.006 C 
ATOM     18  C   UNL     1     -15.651  29.761  -7.411  1.00  0.00     0.008 C 
ATOM     19  C   UNL     1     -16.567  31.087  -9.383  1.00  0.00     0.012 C 
ATOM     20  C   UNL     1     -13.990  32.319  -8.048  1.00  0.00    -0.025 C 
ATOM     21  C   UNL     1     -14.107  29.824  -7.283  1.00  0.00     0.005 C 
ATOM     22  C   UNL     1     -13.423  30.835  -8.246  1.00  0.00     0.003 C 
ATOM     23  C   UNL     1     -13.016  33.213  -7.188  1.00  0.00     0.010 C 
ATOM     24  C   UNL     1     -14.093  33.034  -9.442  1.00  0.00     0.012 C 
ATOM     25  C   UNL     1     -11.833  30.686  -8.381  1.00  0.00    -0.006 C 
ATOM     26  C   UNL     1     -11.537  33.108  -7.557  1.00  0.00     0.033 C 
ATOM     27  C   UNL     1     -11.036  31.667  -7.461  1.00  0.00     0.120 C 
ATOM     28  C   UNL     1     -11.412  30.946  -9.858  1.00  0.00     0.014 C 
ATOM     29  C   UNL     1     -11.341  29.242  -8.081  1.00  0.00     0.014 C 
ENDROOT
BRANCH   1  30
ATOM     30  C   UNL     1     -18.415  28.309  -5.065  1.00  0.00     0.048 C 
ATOM     31  O   UNL     1     -18.734  27.184  -5.539  1.00  0.00    -0.550 OA
ATOM     32  O   UNL     1     -17.187  28.439  -4.424  1.00  0.00    -0.550 OA
ENDBRANCH   1  30
BRANCH  27  33
ATOM     33  O   UNL     1     -10.980  31.246  -6.118  1.00  0.00    -0.393 OA
ATOM     34  H   UNL     1     -11.108  32.035  -5.536  1.00  0.00     0.210 HD
ENDBRANCH  27  33
TORSDOF 2
ENDMDL
MODEL 6
REMARK VINA RESULT:    -7.097      4.551      8.528
REMARK INTER + INTRA:          -7.847
REMARK INTER:                  -7.769
REMARK INTRA:                  -0.078
REMARK UNBOUND:                -0.128
REMARK SMILES CC1(C)CC[C@@]2(C(=O)[O-])CC[C@@]3(C)C(=CC[C@H]4[C@@]5(C)CC[C@@H](O)C(C)(C)[C@H]5CC[C@]43C)[C@H]2C1
REMARK SMILES IDX 6 1 5 2 10 3 32 4 4 5 11 6 14 7 33 8 2 9 12 10 15 11 1 12
REMARK SMILES IDX 3 13 13 14 30 15 16 16 17 17 29 18 31 19 18 20 28 21 27 22
REMARK SMILES IDX 20 23 19 24 24 25 21 26 22 27 25 28 26 29 7 30 8 31 9 32
REMARK SMILES IDX 23 33
REMARK H PARENT 23 34
REMARK Flexibility Score: inf
ROOT
ATOM      1  C   UNL     1     -21.325  31.896  -2.809  1.00  0.00     0.017 C 
ATOM      2  C   UNL     1     -20.102  32.838  -2.628  1.00  0.00     0.014 C 
ATOM      3  C   UNL     1     -21.913  32.032  -4.232  1.00  0.00     0.014 C 
ATOM      4  C   UNL     1     -20.917  30.411  -2.579  1.00  0.00     0.028 C 
ATOM      5  C   UNL     1     -18.850  32.401  -3.401  1.00  0.00     0.007 C 
ATOM      6  C   UNL     1     -23.186  31.190  -4.409  1.00  0.00     0.013 C 
ATOM      7  C   UNL     1     -22.056  29.439  -2.910  1.00  0.00    -0.064 C 
ATOM      8  C   UNL     1     -19.623  29.994  -3.327  1.00  0.00     0.015 C 
ATOM      9  C   UNL     1     -18.425  30.946  -3.088  1.00  0.00    -0.035 C 
ATOM     10  C   UNL     1     -23.034  29.657  -4.079  1.00  0.00    -0.006 C 
ATOM     11  C   UNL     1     -22.072  28.277  -2.235  1.00  0.00    -0.027 C 
ATOM     12  C   UNL     1     -17.892  30.818  -1.640  1.00  0.00     0.011 C 
ATOM     13  C   UNL     1     -17.282  30.551  -4.048  1.00  0.00     0.011 C 
ATOM     14  C   UNL     1     -22.391  28.981  -5.330  1.00  0.00     0.017 C 
ATOM     15  C   UNL     1     -24.467  28.992  -3.738  1.00  0.00    -0.020 C 
ATOM     16  C   UNL     1     -23.200  27.294  -2.260  1.00  0.00     0.032 C 
ATOM     17  C   UNL     1     -24.287  27.467  -3.368  1.00  0.00     0.006 C 
ATOM     18  C   UNL     1     -25.148  29.709  -2.520  1.00  0.00     0.008 C 
ATOM     19  C   UNL     1     -25.398  29.144  -4.990  1.00  0.00     0.012 C 
ATOM     20  C   UNL     1     -25.665  26.682  -3.040  1.00  0.00    -0.025 C 
ATOM     21  C   UNL     1     -26.016  28.825  -1.588  1.00  0.00     0.005 C 
ATOM     22  C   UNL     1     -26.718  27.636  -2.302  1.00  0.00     0.003 C 
ATOM     23  C   UNL     1     -25.365  25.379  -2.204  1.00  0.00     0.010 C 
ATOM     24  C   UNL     1     -26.271  26.178  -4.397  1.00  0.00     0.012 C 
ATOM     25  C   UNL     1     -27.873  26.914  -1.458  1.00  0.00    -0.006 C 
ATOM     26  C   UNL     1     -26.590  24.686  -1.611  1.00  0.00     0.033 C 
ATOM     27  C   UNL     1     -27.387  25.630  -0.710  1.00  0.00     0.120 C 
ATOM     28  C   UNL     1     -29.039  26.516  -2.412  1.00  0.00     0.014 C 
ATOM     29  C   UNL     1     -28.528  27.859  -0.411  1.00  0.00     0.014 C 
ENDROOT
BRANCH   1  30
ATOM     30  C   UNL     1     -22.359  32.343  -1.778  1.00  0.00     0.048 C 
ATOM     31  O   UNL     1     -22.805  33.522  -1.798  1.00  0.00    -0.550 OA
ATOM     32  O   UNL     1     -22.760  31.496  -0.749  1.00  0.00    -0.550 OA
ENDBRANCH   1  30
BRANCH  27  33
ATOM     33  O   UNL     1     -26.675  25.913   0.472  1.00  0.00    -0.393 OA
ATOM     34  H   UNL     1     -26.463  25.059   0.922  1.00  0.00     0.210 HD
ENDBRANCH  27  33
TORSDOF 2
ENDMDL
MODEL 7
REMARK VINA RESULT:    -7.023      3.475      8.754
REMARK INTER + INTRA:          -7.767
REMARK INTER:                  -7.645
REMARK INTRA:                  -0.122
REMARK UNBOUND:                -0.128
REMARK SMILES CC1(C)CC[C@@]2(C(=O)[O-])CC[C@@]3(C)C(=CC[C@H]4[C@@]5(C)CC[C@@H](O)C(C)(C)[C@H]5CC[C@]43C)[C@H]2C1
REMARK SMILES IDX 6 1 5 2 10 3 32 4 4 5 11 6 14 7 33 8 2 9 12 10 15 11 1 12
REMARK SMILES IDX 3 13 13 14 30 15 16 16 17 17 29 18 31 19 18 20 28 21 27 22
REMARK SMILES IDX 20 23 19 24 24 25 21 26 22 27 25 28 26 29 7 30 8 31 9 32
REMARK SMILES IDX 23 33
REMARK H PARENT 23 34
REMARK Flexibility Score: inf
ROOT
ATOM      1  C   UNL     1     -25.513  29.044  -3.275  1.00  0.00     0.017 C 
ATOM      2  C   UNL     1     -27.041  29.117  -2.998  1.00  0.00     0.014 C 
ATOM      3  C   UNL     1     -25.073  27.584  -3.532  1.00  0.00     0.014 C 
ATOM      4  C   UNL     1     -25.135  29.904  -4.516  1.00  0.00     0.028 C 
ATOM      5  C   UNL     1     -27.917  28.862  -4.232  1.00  0.00     0.007 C 
ATOM      6  C   UNL     1     -23.552  27.466  -3.706  1.00  0.00     0.013 C 
ATOM      7  C   UNL     1     -23.666  29.726  -4.920  1.00  0.00    -0.064 C 
ATOM      8  C   UNL     1     -26.058  29.672  -5.742  1.00  0.00     0.015 C 
ATOM      9  C   UNL     1     -27.568  29.787  -5.422  1.00  0.00    -0.035 C 
ATOM     10  C   UNL     1     -22.926  28.378  -4.829  1.00  0.00    -0.006 C 
ATOM     11  C   UNL     1     -23.077  30.769  -5.527  1.00  0.00    -0.027 C 
ATOM     12  C   UNL     1     -27.964  31.255  -5.123  1.00  0.00     0.011 C 
ATOM     13  C   UNL     1     -28.372  29.325  -6.656  1.00  0.00     0.011 C 
ATOM     14  C   UNL     1     -23.157  27.650  -6.190  1.00  0.00     0.017 C 
ATOM     15  C   UNL     1     -21.350  28.624  -4.567  1.00  0.00    -0.020 C 
ATOM     16  C   UNL     1     -21.611  30.874  -5.810  1.00  0.00     0.032 C 
ATOM     17  C   UNL     1     -20.754  29.574  -5.679  1.00  0.00     0.006 C 
ATOM     18  C   UNL     1     -21.108  29.298  -3.171  1.00  0.00     0.008 C 
ATOM     19  C   UNL     1     -20.621  27.236  -4.585  1.00  0.00     0.012 C 
ATOM     20  C   UNL     1     -19.167  29.866  -5.541  1.00  0.00    -0.025 C 
ATOM     21  C   UNL     1     -19.913  30.281  -3.072  1.00  0.00     0.005 C 
ATOM     22  C   UNL     1     -18.718  29.936  -4.005  1.00  0.00     0.003 C 
ATOM     23  C   UNL     1     -18.783  31.177  -6.328  1.00  0.00     0.010 C 
ATOM     24  C   UNL     1     -18.397  28.704  -6.262  1.00  0.00     0.012 C 
ATOM     25  C   UNL     1     -17.355  30.716  -3.691  1.00  0.00    -0.006 C 
ATOM     26  C   UNL     1     -17.373  31.705  -6.069  1.00  0.00     0.033 C 
ATOM     27  C   UNL     1     -17.142  31.982  -4.583  1.00  0.00     0.120 C 
ATOM     28  C   UNL     1     -16.147  29.755  -3.905  1.00  0.00     0.014 C 
ATOM     29  C   UNL     1     -17.247  31.156  -2.203  1.00  0.00     0.014 C 
ENDROOT
BRANCH   1  30
ATOM     30  C   UNL     1     -24.829  29.575  -2.017  1.00  0.00     0.048 C 
ATOM     31  O   UNL     1     -24.746  28.851  -0.988  1.00  0.00    -0.550 OA
ATOM     32  O   UNL     1     -24.369  30.887  -1.948  1.00  0.00    -0.550 OA
ENDBRANCH   1  30
BRANCH  27  33
ATOM     33  O   UNL     1     -17.897  33.093  -4.159  1.00  0.00    -0.393 OA
ATOM     34  H   UNL     1     -17.917  33.100  -3.170  1.00  0.00     0.210 HD
ENDBRANCH  27  33
TORSDOF 2
ENDMDL
MODEL 8
REMARK VINA RESULT:    -7.014      2.027      7.781
REMARK INTER + INTRA:          -7.757
REMARK INTER:                  -7.659
REMARK INTRA:                  -0.098
REMARK UNBOUND:                -0.128
REMARK SMILES CC1(C)CC[C@@]2(C(=O)[O-])CC[C@@]3(C)C(=CC[C@H]4[C@@]5(C)CC[C@@H](O)C(C)(C)[C@H]5CC[C@]43C)[C@H]2C1
REMARK SMILES IDX 6 1 5 2 10 3 32 4 4 5 11 6 14 7 33 8 2 9 12 10 15 11 1 12
REMARK SMILES IDX 3 13 13 14 30 15 16 16 17 17 29 18 31 19 18 20 28 21 27 22
REMARK SMILES IDX 20 23 19 24 24 25 21 26 22 27 25 28 26 29 7 30 8 31 9 32
REMARK SMILES IDX 23 33
REMARK H PARENT 23 34
REMARK Flexibility Score: inf
ROOT
ATOM      1  C   UNL     1     -19.447  31.596  -4.973  1.00  0.00     0.017 C 
ATOM      2  C   UNL     1     -20.802  32.277  -4.633  1.00  0.00     0.014 C 
ATOM      3  C   UNL     1     -18.269  32.381  -4.350  1.00  0.00     0.014 C 
ATOM      4  C   UNL     1     -19.413  30.136  -4.434  1.00  0.00     0.028 C 
ATOM      5  C   UNL     1     -21.226  32.137  -3.164  1.00  0.00     0.007 C 
ATOM      6  C   UNL     1     -16.910  31.791  -4.755  1.00  0.00     0.013 C 
ATOM      7  C   UNL     1     -18.033  29.487  -4.605  1.00  0.00    -0.064 C 
ATOM      8  C   UNL     1     -19.889  30.000  -2.964  1.00  0.00     0.015 C 
ATOM      9  C   UNL     1     -21.258  30.667  -2.683  1.00  0.00    -0.035 C 
ATOM     10  C   UNL     1     -16.713  30.261  -4.433  1.00  0.00    -0.006 C 
ATOM     11  C   UNL     1     -18.009  28.151  -4.748  1.00  0.00    -0.027 C 
ATOM     12  C   UNL     1     -22.409  29.882  -3.360  1.00  0.00     0.011 C 
ATOM     13  C   UNL     1     -21.512  30.653  -1.160  1.00  0.00     0.011 C 
ATOM     14  C   UNL     1     -16.329  30.158  -2.924  1.00  0.00     0.017 C 
ATOM     15  C   UNL     1     -15.563  29.614  -5.366  1.00  0.00    -0.020 C 
ATOM     16  C   UNL     1     -16.799  27.358  -5.130  1.00  0.00     0.032 C 
ATOM     17  C   UNL     1     -15.412  28.072  -5.056  1.00  0.00     0.006 C 
ATOM     18  C   UNL     1     -15.913  29.772  -6.887  1.00  0.00     0.008 C 
ATOM     19  C   UNL     1     -14.214  30.363  -5.084  1.00  0.00     0.012 C 
ATOM     20  C   UNL     1     -14.259  27.320  -5.909  1.00  0.00    -0.025 C 
ATOM     21  C   UNL     1     -15.450  28.632  -7.830  1.00  0.00     0.005 C 
ATOM     22  C   UNL     1     -14.137  27.926  -7.387  1.00  0.00     0.003 C 
ATOM     23  C   UNL     1     -14.523  25.765  -5.930  1.00  0.00     0.010 C 
ATOM     24  C   UNL     1     -12.897  27.504  -5.151  1.00  0.00     0.012 C 
ATOM     25  C   UNL     1     -13.455  26.989  -8.493  1.00  0.00    -0.006 C 
ATOM     26  C   UNL     1     -13.660  24.969  -6.908  1.00  0.00     0.033 C 
ATOM     27  C   UNL     1     -13.823  25.477  -8.341  1.00  0.00     0.120 C 
ATOM     28  C   UNL     1     -11.905  27.129  -8.406  1.00  0.00     0.014 C 
ATOM     29  C   UNL     1     -13.807  27.424  -9.944  1.00  0.00     0.014 C 
ENDROOT
BRANCH   1  30
ATOM     30  C   UNL     1     -19.334  31.617  -6.496  1.00  0.00     0.048 C 
ATOM     31  O   UNL     1     -18.905  32.646  -7.085  1.00  0.00    -0.550 OA
ATOM     32  O   UNL     1     -19.782  30.547  -7.265  1.00  0.00    -0.550 OA
ENDBRANCH   1  30
BRANCH  27  33
ATOM     33  O   UNL     1     -15.103  25.165  -8.839  1.00  0.00    -0.393 OA
ATOM     34  H   UNL     1     -15.358  25.854  -9.501  1.00  0.00     0.210 HD
ENDBRANCH  27  33
TORSDOF 2
ENDMDL
MODEL 9
REMARK VINA RESULT:    -6.986      4.975      8.824
REMARK INTER + INTRA:          -7.727
REMARK INTER:                  -7.598
REMARK INTRA:                  -0.128
REMARK UNBOUND:                -0.128
REMARK SMILES CC1(C)CC[C@@]2(C(=O)[O-])CC[C@@]3(C)C(=CC[C@H]4[C@@]5(C)CC[C@@H](O)C(C)(C)[C@H]5CC[C@]43C)[C@H]2C1
REMARK SMILES IDX 6 1 5 2 10 3 32 4 4 5 11 6 14 7 33 8 2 9 12 10 15 11 1 12
REMARK SMILES IDX 3 13 13 14 30 15 16 16 17 17 29 18 31 19 18 20 28 21 27 22
REMARK SMILES IDX 20 23 19 24 24 25 21 26 22 27 25 28 26 29 7 30 8 31 9 32
REMARK SMILES IDX 23 33
REMARK H PARENT 23 34
REMARK Flexibility Score: inf
ROOT
ATOM      1  C   UNL     1     -22.342  30.307  -3.004  1.00  0.00     0.017 C 
ATOM      2  C   UNL     1     -21.866  31.490  -2.116  1.00  0.00     0.014 C 
ATOM      3  C   UNL     1     -22.986  30.828  -4.310  1.00  0.00     0.014 C 
ATOM      4  C   UNL     1     -21.149  29.379  -3.374  1.00  0.00     0.028 C 
ATOM      5  C   UNL     1     -20.636  32.231  -2.659  1.00  0.00     0.007 C 
ATOM      6  C   UNL     1     -23.560  29.687  -5.162  1.00  0.00     0.013 C 
ATOM      7  C   UNL     1     -21.547  28.295  -4.384  1.00  0.00    -0.064 C 
ATOM      8  C   UNL     1     -19.895  30.142  -3.877  1.00  0.00     0.015 C 
ATOM      9  C   UNL     1     -19.441  31.290  -2.941  1.00  0.00    -0.035 C 
ATOM     10  C   UNL     1     -22.543  28.542  -5.533  1.00  0.00    -0.006 C 
ATOM     11  C   UNL     1     -20.858  27.143  -4.335  1.00  0.00    -0.027 C 
ATOM     12  C   UNL     1     -18.846  30.732  -1.625  1.00  0.00     0.011 C 
ATOM     13  C   UNL     1     -18.336  32.100  -3.652  1.00  0.00     0.011 C 
ATOM     14  C   UNL     1     -21.704  29.052  -6.747  1.00  0.00     0.017 C 
ATOM     15  C   UNL     1     -23.318  27.173  -5.902  1.00  0.00    -0.020 C 
ATOM     16  C   UNL     1     -21.224  25.900  -5.084  1.00  0.00     0.032 C 
ATOM     17  C   UNL     1     -22.279  26.028  -6.229  1.00  0.00     0.006 C 
ATOM     18  C   UNL     1     -24.212  26.690  -4.707  1.00  0.00     0.008 C 
ATOM     19  C   UNL     1     -24.241  27.442  -7.140  1.00  0.00     0.012 C 
ATOM     20  C   UNL     1     -22.942  24.612  -6.649  1.00  0.00    -0.025 C 
ATOM     21  C   UNL     1     -24.365  25.157  -4.527  1.00  0.00     0.005 C 
ATOM     22  C   UNL     1     -24.305  24.346  -5.853  1.00  0.00     0.003 C 
ATOM     23  C   UNL     1     -21.904  23.442  -6.446  1.00  0.00     0.010 C 
ATOM     24  C   UNL     1     -23.232  24.651  -8.191  1.00  0.00     0.012 C 
ATOM     25  C   UNL     1     -24.790  22.823  -5.747  1.00  0.00    -0.006 C 
ATOM     26  C   UNL     1     -22.478  22.032  -6.560  1.00  0.00     0.033 C 
ATOM     27  C   UNL     1     -23.616  21.807  -5.564  1.00  0.00     0.120 C 
ATOM     28  C   UNL     1     -25.575  22.439  -7.037  1.00  0.00     0.014 C 
ATOM     29  C   UNL     1     -25.804  22.597  -4.589  1.00  0.00     0.014 C 
ENDROOT
BRANCH   1  30
ATOM     30  C   UNL     1     -23.384  29.552  -2.181  1.00  0.00     0.048 C 
ATOM     31  O   UNL     1     -24.528  30.049  -1.998  1.00  0.00    -0.550 OA
ATOM     32  O   UNL     1     -23.067  28.354  -1.546  1.00  0.00    -0.550 OA
ENDBRANCH   1  30
BRANCH  27  33
ATOM     33  O   UNL     1     -23.123  21.761  -4.245  1.00  0.00    -0.393 OA
ATOM     34  H   UNL     1     -23.453  20.933  -3.816  1.00  0.00     0.210 HD
ENDBRANCH  27  33
TORSDOF 2
ENDMDL
