MODEL 1
REMARK VINA RESULT:    17.372      0.000      0.000
REMARK INTER + INTRA:          20.499
REMARK INTER:                  20.927
REMARK INTRA:                  -0.427
REMARK UNBOUND:                -0.427
REMARK SMILES O=c1c(O)c(-c2ccc(O)cc2O)oc2cc(O)cc(O)c12
REMARK SMILES IDX 5 1 3 2 2 3 1 4 22 5 20 6 19 7 17 8 16 9 15 10 14 11 6 12
REMARK SMILES IDX 8 13 7 14 9 15 11 16 12 17 10 18 13 20 4 22 21 24 18 26
REMARK H PARENT 10 19 13 21 4 23 21 25 18 27
REMARK Flexibility Score: inf
ROOT
ATOM      1  C   UNL     1      26.929  29.219   1.008  1.00  0.00     0.184 A 
ATOM      2  C   UNL     1      28.204  29.807   1.020  1.00  0.00     0.208 A 
ATOM      3  C   UNL     1      28.324  31.177   0.739  1.00  0.00     0.238 A 
ATOM      4  O   UNL     1      29.462  31.710   0.804  1.00  0.00    -0.285 OA
ATOM      5  C   UNL     1      27.168  31.937   0.437  1.00  0.00     0.111 A 
ATOM      6  C   UNL     1      27.176  33.324   0.098  1.00  0.00     0.134 A 
ATOM      7  C   UNL     1      25.961  34.003  -0.056  1.00  0.00     0.093 A 
ATOM      8  C   UNL     1      24.741  33.332   0.053  1.00  0.00     0.123 A 
ATOM      9  C   UNL     1      24.724  31.966   0.324  1.00  0.00     0.094 A 
ATOM     10  C   UNL     1      25.919  31.268   0.518  1.00  0.00     0.146 A 
ATOM     11  O   UNL     1      25.857  29.968   0.787  1.00  0.00    -0.451 OA
ENDROOT
BRANCH   1  12
ATOM     12  C   UNL     1      26.736  27.778   1.278  1.00  0.00     0.063 A 
ATOM     13  C   UNL     1      26.871  25.482   0.493  1.00  0.00     0.047 A 
ATOM     14  C   UNL     1      27.038  26.851   0.268  1.00  0.00     0.020 A 
ATOM     15  C   UNL     1      26.415  25.022   1.731  1.00  0.00     0.119 A 
ATOM     16  C   UNL     1      26.134  25.938   2.752  1.00  0.00     0.093 A 
ATOM     17  C   UNL     1      26.303  27.314   2.538  1.00  0.00     0.130 A 
BRANCH  15  18
ATOM     18  O   UNL     1      26.252  23.654   1.937  1.00  0.00    -0.508 OA
ATOM     19  H   UNL     1      25.331  23.233   1.988  1.00  0.00     0.293 HD
ENDBRANCH  15  18
BRANCH  17  20
ATOM     20  O   UNL     1      26.066  28.213   3.577  1.00  0.00    -0.507 OA
ATOM     21  H   UNL     1      25.821  27.896   4.508  1.00  0.00     0.293 HD
ENDBRANCH  17  20
ENDBRANCH   1  12
BRANCH   2  22
ATOM     22  O   UNL     1      29.326  29.037   1.340  1.00  0.00    -0.502 OA
ATOM     23  H   UNL     1      29.756  29.059   2.257  1.00  0.00     0.293 HD
ENDBRANCH   2  22
BRANCH   6  24
ATOM     24  O   UNL     1      28.340  34.066  -0.124  1.00  0.00    -0.507 OA
ATOM     25  H   UNL     1      28.669  34.361  -1.030  1.00  0.00     0.293 HD
ENDBRANCH   6  24
BRANCH   8  26
ATOM     26  O   UNL     1      23.537  34.013  -0.118  1.00  0.00    -0.508 OA
ATOM     27  H   UNL     1      23.512  34.964  -0.467  1.00  0.00     0.293 HD
ENDBRANCH   8  26
TORSDOF 6
ENDMDL
