MODEL 1
REMARK VINA RESULT:    -7.295      0.000      0.000
REMARK INTER + INTRA:         -10.683
REMARK INTER:                  -9.641
REMARK INTRA:                  -1.043
REMARK UNBOUND:                -1.043
REMARK SMILES CC[C@@H](C=C[C@H](C)[C@@H]1CC[C@@H]2[C@@H]3CC=C4C[C@@H](O)CC[C@]4(C)[C@H]3CC[C@@]21C)C(C)C
REMARK SMILES IDX 6 1 7 2 5 3 4 4 3 5 2 6 1 7 28 8 29 9 30 10 8 11 9 12 26 13
REMARK SMILES IDX 10 14 11 15 25 16 27 17 12 18 24 19 23 20 13 21 21 22 14 23
REMARK SMILES IDX 15 24 20 25 22 26 16 27 19 28 17 29 18 30
REMARK H PARENT 18 31
REMARK Flexibility Score: inf
ROOT
ATOM      1  C   UNL     1      11.893 -13.244  27.288  1.00  0.00     0.012 C 
ATOM      2  C   UNL     1      11.371 -14.501  26.562  1.00  0.00     0.012 C 
ENDROOT
BRANCH   1   3
ATOM      3  C   UNL     1      12.049 -13.542  28.760  1.00  0.00    -0.028 C 
ATOM      4  C   UNL     1      12.106 -14.802  29.219  1.00  0.00    -0.027 C 
BRANCH   4   5
ATOM      5  C   UNL     1      12.257 -15.116  30.695  1.00  0.00     0.014 C 
BRANCH   5   6
ATOM      6  C   UNL     1      13.723 -15.520  31.007  1.00  0.00     0.004 C 
ATOM      7  C   UNL     1      14.493 -16.059  29.798  1.00  0.00     0.004 C 
ENDBRANCH   5   6
BRANCH   5   8
ATOM      8  C   UNL     1      11.196 -16.174  31.150  1.00  0.00    -0.011 C 
ATOM      9  C   UNL     1      10.277 -15.598  32.244  1.00  0.00     0.008 C 
ATOM     10  C   UNL     1      11.842 -17.463  31.682  1.00  0.00     0.008 C 
ENDBRANCH   5   8
ENDBRANCH   4   5
ENDBRANCH   1   3
BRANCH   1  11
ATOM     11  C   UNL     1      13.157 -12.515  26.704  1.00  0.00     0.002 C 
ATOM     12  C   UNL     1      13.009 -12.093  25.232  1.00  0.00     0.005 C 
ATOM     13  C   UNL     1      14.594 -13.125  26.845  1.00  0.00    -0.026 C 
ATOM     14  C   UNL     1      14.405 -12.132  24.616  1.00  0.00     0.005 C 
ATOM     15  C   UNL     1      15.388 -12.328  25.778  1.00  0.00    -0.001 C 
ATOM     16  C   UNL     1      14.623 -14.641  26.509  1.00  0.00     0.007 C 
ATOM     17  C   UNL     1      15.196 -12.865  28.254  1.00  0.00     0.012 C 
ATOM     18  C   UNL     1      16.781 -12.932  25.392  1.00  0.00     0.000 C 
ATOM     19  C   UNL     1      16.036 -15.185  26.288  1.00  0.00     0.005 C 
ATOM     20  C   UNL     1      16.745 -14.457  25.120  1.00  0.00     0.003 C 
ATOM     21  C   UNL     1      17.397 -12.190  24.192  1.00  0.00     0.031 C 
ATOM     22  C   UNL     1      18.181 -15.039  24.799  1.00  0.00    -0.008 C 
ATOM     23  C   UNL     1      18.652 -12.824  23.675  1.00  0.00    -0.027 C 
ATOM     24  C   UNL     1      18.920 -14.141  23.791  1.00  0.00    -0.065 C 
ATOM     25  C   UNL     1      18.015 -16.468  24.184  1.00  0.00     0.014 C 
ATOM     26  C   UNL     1      19.059 -15.135  26.078  1.00  0.00     0.016 C 
ATOM     27  C   UNL     1      20.123 -14.698  23.048  1.00  0.00     0.063 C 
ATOM     28  C   UNL     1      19.297 -17.020  23.543  1.00  0.00     0.033 C 
ATOM     29  C   UNL     1      19.806 -16.076  22.453  1.00  0.00     0.118 C 
BRANCH  29  30
ATOM     30  O   UNL     1      20.960 -16.619  21.868  1.00  0.00    -0.393 OA
ATOM     31  H   UNL     1      21.731 -16.106  22.222  1.00  0.00     0.210 HD
ENDBRANCH  29  30
ENDBRANCH   1  11
TORSDOF 6
ENDMDL
MODEL 2
REMARK VINA RESULT:    -6.884      1.627      3.067
REMARK INTER + INTRA:         -10.140
REMARK INTER:                  -9.466
REMARK INTRA:                  -0.674
REMARK UNBOUND:                -1.043
REMARK SMILES CC[C@@H](C=C[C@H](C)[C@@H]1CC[C@@H]2[C@@H]3CC=C4C[C@@H](O)CC[C@]4(C)[C@H]3CC[C@@]21C)C(C)C
REMARK SMILES IDX 6 1 7 2 5 3 4 4 3 5 2 6 1 7 28 8 29 9 30 10 8 11 9 12 26 13
REMARK SMILES IDX 10 14 11 15 25 16 27 17 12 18 24 19 23 20 13 21 21 22 14 23
REMARK SMILES IDX 15 24 20 25 22 26 16 27 19 28 17 29 18 30
REMARK H PARENT 18 31
REMARK Flexibility Score: inf
ROOT
ATOM      1  C   UNL     1      13.416 -15.881  30.139  1.00  0.00     0.012 C 
ATOM      2  C   UNL     1      14.049 -15.274  31.408  1.00  0.00     0.012 C 
ENDROOT
BRANCH   1   3
ATOM      3  C   UNL     1      12.050 -16.433  30.473  1.00  0.00    -0.028 C 
ATOM      4  C   UNL     1      11.848 -17.199  31.556  1.00  0.00    -0.027 C 
BRANCH   4   5
ATOM      5  C   UNL     1      10.484 -17.765  31.901  1.00  0.00     0.014 C 
BRANCH   5   6
ATOM      6  C   UNL     1       9.834 -16.933  33.039  1.00  0.00     0.004 C 
ATOM      7  C   UNL     1       9.597 -15.462  32.682  1.00  0.00     0.004 C 
ENDBRANCH   5   6
BRANCH   5   8
ATOM      8  C   UNL     1      10.578 -19.296  32.206  1.00  0.00    -0.011 C 
ATOM      9  C   UNL     1       9.746 -20.112  31.198  1.00  0.00     0.008 C 
ATOM     10  C   UNL     1      10.101 -19.643  33.626  1.00  0.00     0.008 C 
ENDBRANCH   5   8
ENDBRANCH   4   5
ENDBRANCH   1   3
BRANCH   1  11
ATOM     11  C   UNL     1      13.389 -15.012  28.829  1.00  0.00     0.002 C 
ATOM     12  C   UNL     1      12.633 -15.670  27.662  1.00  0.00     0.005 C 
ATOM     13  C   UNL     1      14.698 -14.404  28.220  1.00  0.00    -0.026 C 
ATOM     14  C   UNL     1      13.289 -15.176  26.374  1.00  0.00     0.005 C 
ATOM     15  C   UNL     1      14.249 -14.050  26.779  1.00  0.00    -0.001 C 
ATOM     16  C   UNL     1      15.859 -15.435  28.178  1.00  0.00     0.007 C 
ATOM     17  C   UNL     1      15.138 -13.115  28.968  1.00  0.00     0.012 C 
ATOM     18  C   UNL     1      15.410 -13.754  25.770  1.00  0.00     0.000 C 
ATOM     19  C   UNL     1      17.020 -15.002  27.281  1.00  0.00     0.005 C 
ATOM     20  C   UNL     1      16.557 -14.794  25.818  1.00  0.00     0.003 C 
ATOM     21  C   UNL     1      14.876 -13.612  24.333  1.00  0.00     0.031 C 
ATOM     22  C   UNL     1      17.738 -14.424  24.833  1.00  0.00    -0.008 C 
ATOM     23  C   UNL     1      15.956 -13.491  23.301  1.00  0.00    -0.027 C 
ATOM     24  C   UNL     1      17.190 -14.013  23.455  1.00  0.00    -0.065 C 
ATOM     25  C   UNL     1      18.659 -15.677  24.663  1.00  0.00     0.014 C 
ATOM     26  C   UNL     1      18.587 -13.240  25.376  1.00  0.00     0.016 C 
ATOM     27  C   UNL     1      18.128 -14.003  22.259  1.00  0.00     0.063 C 
ATOM     28  C   UNL     1      19.660 -15.560  23.504  1.00  0.00     0.033 C 
ATOM     29  C   UNL     1      18.930 -15.308  22.184  1.00  0.00     0.118 C 
BRANCH  29  30
ATOM     30  O   UNL     1      19.866 -15.233  21.141  1.00  0.00    -0.393 OA
ATOM     31  H   UNL     1      20.658 -14.757  21.500  1.00  0.00     0.210 HD
ENDBRANCH  29  30
ENDBRANCH   1  11
TORSDOF 6
ENDMDL
MODEL 3
REMARK VINA RESULT:    -6.455      1.752      3.557
REMARK INTER + INTRA:          -9.573
REMARK INTER:                  -7.892
REMARK INTRA:                  -1.681
REMARK UNBOUND:                -1.043
REMARK SMILES CC[C@@H](C=C[C@H](C)[C@@H]1CC[C@@H]2[C@@H]3CC=C4C[C@@H](O)CC[C@]4(C)[C@H]3CC[C@@]21C)C(C)C
REMARK SMILES IDX 6 1 7 2 5 3 4 4 3 5 2 6 1 7 28 8 29 9 30 10 8 11 9 12 26 13
REMARK SMILES IDX 10 14 11 15 25 16 27 17 12 18 24 19 23 20 13 21 21 22 14 23
REMARK SMILES IDX 15 24 20 25 22 26 16 27 19 28 17 29 18 30
REMARK H PARENT 18 31
REMARK Flexibility Score: inf
ROOT
ATOM      1  C   UNL     1      15.541 -11.518  28.145  1.00  0.00     0.012 C 
ATOM      2  C   UNL     1      15.661 -10.147  28.842  1.00  0.00     0.012 C 
ENDROOT
BRANCH   1   3
ATOM      3  C   UNL     1      14.082 -11.876  27.987  1.00  0.00    -0.028 C 
ATOM      4  C   UNL     1      13.622 -13.099  28.291  1.00  0.00    -0.027 C 
BRANCH   4   5
ATOM      5  C   UNL     1      12.161 -13.474  28.132  1.00  0.00     0.014 C 
BRANCH   5   6
ATOM      6  C   UNL     1      11.743 -14.474  29.243  1.00  0.00     0.004 C 
ATOM      7  C   UNL     1      12.889 -14.892  30.170  1.00  0.00     0.004 C 
ENDBRANCH   5   6
BRANCH   5   8
ATOM      8  C   UNL     1      11.871 -13.979  26.679  1.00  0.00    -0.011 C 
ATOM      9  C   UNL     1      13.093 -14.715  26.097  1.00  0.00     0.008 C 
ATOM     10  C   UNL     1      11.487 -12.837  25.725  1.00  0.00     0.008 C 
ENDBRANCH   5   8
ENDBRANCH   4   5
ENDBRANCH   1   3
BRANCH   1  11
ATOM     11  C   UNL     1      16.346 -11.754  26.816  1.00  0.00     0.002 C 
ATOM     12  C   UNL     1      15.460 -11.863  25.563  1.00  0.00     0.005 C 
ATOM     13  C   UNL     1      17.420 -12.889  26.697  1.00  0.00    -0.026 C 
ATOM     14  C   UNL     1      16.184 -12.788  24.587  1.00  0.00     0.005 C 
ATOM     15  C   UNL     1      17.589 -13.012  25.160  1.00  0.00    -0.001 C 
ATOM     16  C   UNL     1      16.920 -14.234  27.288  1.00  0.00     0.007 C 
ATOM     17  C   UNL     1      18.771 -12.475  27.345  1.00  0.00     0.012 C 
ATOM     18  C   UNL     1      18.323 -14.307  24.670  1.00  0.00     0.000 C 
ATOM     19  C   UNL     1      17.778 -15.432  26.877  1.00  0.00     0.005 C 
ATOM     20  C   UNL     1      17.806 -15.605  25.339  1.00  0.00     0.003 C 
ATOM     21  C   UNL     1      18.262 -14.434  23.137  1.00  0.00     0.031 C 
ATOM     22  C   UNL     1      18.616 -16.880  24.866  1.00  0.00    -0.008 C 
ATOM     23  C   UNL     1      18.804 -15.733  22.622  1.00  0.00    -0.027 C 
ATOM     24  C   UNL     1      18.799 -16.875  23.338  1.00  0.00    -0.065 C 
ATOM     25  C   UNL     1      17.819 -18.161  25.281  1.00  0.00     0.014 C 
ATOM     26  C   UNL     1      20.030 -16.931  25.510  1.00  0.00     0.016 C 
ATOM     27  C   UNL     1      19.184 -18.166  22.635  1.00  0.00     0.063 C 
ATOM     28  C   UNL     1      18.327 -19.450  24.620  1.00  0.00     0.033 C 
ATOM     29  C   UNL     1      18.291 -19.325  23.095  1.00  0.00     0.118 C 
BRANCH  29  30
ATOM     30  O   UNL     1      18.735 -20.526  22.520  1.00  0.00    -0.393 OA
ATOM     31  H   UNL     1      19.619 -20.340  22.112  1.00  0.00     0.210 HD
ENDBRANCH  29  30
ENDBRANCH   1  11
TORSDOF 6
ENDMDL
MODEL 4
REMARK VINA RESULT:    -6.446      2.854      7.842
REMARK INTER + INTRA:          -9.562
REMARK INTER:                  -8.270
REMARK INTRA:                  -1.291
REMARK UNBOUND:                -1.043
REMARK SMILES CC[C@@H](C=C[C@H](C)[C@@H]1CC[C@@H]2[C@@H]3CC=C4C[C@@H](O)CC[C@]4(C)[C@H]3CC[C@@]21C)C(C)C
REMARK SMILES IDX 6 1 7 2 5 3 4 4 3 5 2 6 1 7 28 8 29 9 30 10 8 11 9 12 26 13
REMARK SMILES IDX 10 14 11 15 25 16 27 17 12 18 24 19 23 20 13 21 21 22 14 23
REMARK SMILES IDX 15 24 20 25 22 26 16 27 19 28 17 29 18 30
REMARK H PARENT 18 31
REMARK Flexibility Score: inf
ROOT
ATOM      1  C   UNL     1      18.706 -11.942  24.834  1.00  0.00     0.012 C 
ATOM      2  C   UNL     1      19.732 -11.879  25.984  1.00  0.00     0.012 C 
ENDROOT
BRANCH   1   3
ATOM      3  C   UNL     1      18.892 -13.227  24.063  1.00  0.00    -0.028 C 
ATOM      4  C   UNL     1      19.713 -14.195  24.499  1.00  0.00    -0.027 C 
BRANCH   4   5
ATOM      5  C   UNL     1      19.914 -15.488  23.733  1.00  0.00     0.014 C 
BRANCH   5   6
ATOM      6  C   UNL     1      19.208 -15.406  22.353  1.00  0.00     0.004 C 
ATOM      7  C   UNL     1      20.016 -16.010  21.201  1.00  0.00     0.004 C 
ENDBRANCH   5   6
BRANCH   5   8
ATOM      8  C   UNL     1      19.482 -16.719  24.597  1.00  0.00    -0.011 C 
ATOM      9  C   UNL     1      17.965 -16.967  24.484  1.00  0.00     0.008 C 
ATOM     10  C   UNL     1      19.841 -16.551  26.082  1.00  0.00     0.008 C 
ENDBRANCH   5   8
ENDBRANCH   4   5
ENDBRANCH   1   3
BRANCH   1  11
ATOM     11  C   UNL     1      17.193 -11.677  25.168  1.00  0.00     0.002 C 
ATOM     12  C   UNL     1      16.973 -10.641  26.283  1.00  0.00     0.005 C 
ATOM     13  C   UNL     1      16.198 -12.854  25.457  1.00  0.00    -0.026 C 
ATOM     14  C   UNL     1      15.677 -11.023  26.995  1.00  0.00     0.005 C 
ATOM     15  C   UNL     1      15.019 -12.117  26.145  1.00  0.00    -0.001 C 
ATOM     16  C   UNL     1      16.803 -13.909  26.422  1.00  0.00     0.007 C 
ATOM     17  C   UNL     1      15.706 -13.529  24.146  1.00  0.00     0.012 C 
ATOM     18  C   UNL     1      14.002 -13.040  26.897  1.00  0.00     0.000 C 
ATOM     19  C   UNL     1      15.760 -14.866  27.003  1.00  0.00     0.005 C 
ATOM     20  C   UNL     1      14.676 -14.101  27.802  1.00  0.00     0.003 C 
ATOM     21  C   UNL     1      12.992 -12.209  27.708  1.00  0.00     0.031 C 
ATOM     22  C   UNL     1      13.618 -15.054  28.492  1.00  0.00    -0.008 C 
ATOM     23  C   UNL     1      12.095 -13.038  28.578  1.00  0.00    -0.027 C 
ATOM     24  C   UNL     1      12.450 -14.240  29.076  1.00  0.00    -0.065 C 
ATOM     25  C   UNL     1      14.326 -15.834  29.649  1.00  0.00     0.014 C 
ATOM     26  C   UNL     1      13.022 -16.075  27.482  1.00  0.00     0.016 C 
ATOM     27  C   UNL     1      11.541 -14.886  30.109  1.00  0.00     0.063 C 
ATOM     28  C   UNL     1      13.356 -16.557  30.595  1.00  0.00     0.033 C 
ATOM     29  C   UNL     1      12.363 -15.568  31.209  1.00  0.00     0.118 C 
BRANCH  29  30
ATOM     30  O   UNL     1      11.510 -16.251  32.089  1.00  0.00    -0.393 OA
ATOM     31  H   UNL     1      11.191 -17.059  31.610  1.00  0.00     0.210 HD
ENDBRANCH  29  30
ENDBRANCH   1  11
TORSDOF 6
ENDMDL
MODEL 5
REMARK VINA RESULT:    -6.317      1.561      2.401
REMARK INTER + INTRA:          -9.391
REMARK INTER:                  -9.136
REMARK INTRA:                  -0.255
REMARK UNBOUND:                -1.043
REMARK SMILES CC[C@@H](C=C[C@H](C)[C@@H]1CC[C@@H]2[C@@H]3CC=C4C[C@@H](O)CC[C@]4(C)[C@H]3CC[C@@]21C)C(C)C
REMARK SMILES IDX 6 1 7 2 5 3 4 4 3 5 2 6 1 7 28 8 29 9 30 10 8 11 9 12 26 13
REMARK SMILES IDX 10 14 11 15 25 16 27 17 12 18 24 19 23 20 13 21 21 22 14 23
REMARK SMILES IDX 15 24 20 25 22 26 16 27 19 28 17 29 18 30
REMARK H PARENT 18 31
REMARK Flexibility Score: inf
ROOT
ATOM      1  C   UNL     1      12.323 -13.210  27.020  1.00  0.00     0.012 C 
ATOM      2  C   UNL     1      11.047 -13.180  26.152  1.00  0.00     0.012 C 
ENDROOT
BRANCH   1   3
ATOM      3  C   UNL     1      12.290 -14.424  27.919  1.00  0.00    -0.028 C 
ATOM      4  C   UNL     1      11.847 -14.350  29.183  1.00  0.00    -0.027 C 
BRANCH   4   5
ATOM      5  C   UNL     1      11.814 -15.559  30.098  1.00  0.00     0.014 C 
BRANCH   5   6
ATOM      6  C   UNL     1      11.049 -15.217  31.405  1.00  0.00     0.004 C 
ATOM      7  C   UNL     1      10.292 -16.402  32.014  1.00  0.00     0.004 C 
ENDBRANCH   5   6
BRANCH   5   8
ATOM      8  C   UNL     1      13.256 -16.118  30.333  1.00  0.00    -0.011 C 
ATOM      9  C   UNL     1      13.229 -17.338  31.274  1.00  0.00     0.008 C 
ATOM     10  C   UNL     1      14.206 -15.064  30.926  1.00  0.00     0.008 C 
ENDBRANCH   5   8
ENDBRANCH   4   5
ENDBRANCH   1   3
BRANCH   1  11
ATOM     11  C   UNL     1      13.715 -13.049  26.308  1.00  0.00     0.002 C 
ATOM     12  C   UNL     1      13.619 -12.887  24.782  1.00  0.00     0.005 C 
ATOM     13  C   UNL     1      14.892 -14.051  26.572  1.00  0.00    -0.026 C 
ATOM     14  C   UNL     1      14.891 -13.487  24.190  1.00  0.00     0.005 C 
ATOM     15  C   UNL     1      15.831 -13.767  25.370  1.00  0.00    -0.001 C 
ATOM     16  C   UNL     1      14.421 -15.530  26.542  1.00  0.00     0.007 C 
ATOM     17  C   UNL     1      15.629 -13.737  27.904  1.00  0.00     0.012 C 
ATOM     18  C   UNL     1      16.936 -14.847  25.116  1.00  0.00     0.000 C 
ATOM     19  C   UNL     1      15.574 -16.530  26.437  1.00  0.00     0.005 C 
ATOM     20  C   UNL     1      16.405 -16.302  25.151  1.00  0.00     0.003 C 
ATOM     21  C   UNL     1      17.681 -14.581  23.795  1.00  0.00     0.031 C 
ATOM     22  C   UNL     1      17.562 -17.363  24.955  1.00  0.00    -0.008 C 
ATOM     23  C   UNL     1      18.638 -15.670  23.417  1.00  0.00    -0.027 C 
ATOM     24  C   UNL     1      18.484 -16.957  23.793  1.00  0.00    -0.065 C 
ATOM     25  C   UNL     1      16.917 -18.752  24.634  1.00  0.00     0.014 C 
ATOM     26  C   UNL     1      18.441 -17.494  26.231  1.00  0.00     0.016 C 
ATOM     27  C   UNL     1      19.402 -17.999  23.178  1.00  0.00     0.063 C 
ATOM     28  C   UNL     1      17.918 -19.797  24.120  1.00  0.00     0.033 C 
ATOM     29  C   UNL     1      18.632 -19.289  22.866  1.00  0.00     0.118 C 
BRANCH  29  30
ATOM     30  O   UNL     1      19.518 -20.273  22.404  1.00  0.00    -0.393 OA
ATOM     31  H   UNL     1      19.242 -20.497  21.478  1.00  0.00     0.210 HD
ENDBRANCH  29  30
ENDBRANCH   1  11
TORSDOF 6
ENDMDL
MODEL 6
REMARK VINA RESULT:    -6.305      2.427      4.944
REMARK INTER + INTRA:          -9.374
REMARK INTER:                  -8.846
REMARK INTRA:                  -0.529
REMARK UNBOUND:                -1.043
REMARK SMILES CC[C@@H](C=C[C@H](C)[C@@H]1CC[C@@H]2[C@@H]3CC=C4C[C@@H](O)CC[C@]4(C)[C@H]3CC[C@@]21C)C(C)C
REMARK SMILES IDX 6 1 7 2 5 3 4 4 3 5 2 6 1 7 28 8 29 9 30 10 8 11 9 12 26 13
REMARK SMILES IDX 10 14 11 15 25 16 27 17 12 18 24 19 23 20 13 21 21 22 14 23
REMARK SMILES IDX 15 24 20 25 22 26 16 27 19 28 17 29 18 30
REMARK H PARENT 18 31
REMARK Flexibility Score: inf
ROOT
ATOM      1  C   UNL     1      11.247 -16.459  32.344  1.00  0.00     0.012 C 
ATOM      2  C   UNL     1       9.938 -16.133  33.092  1.00  0.00     0.012 C 
ENDROOT
BRANCH   1   3
ATOM      3  C   UNL     1      11.107 -17.790  31.644  1.00  0.00    -0.028 C 
ATOM      4  C   UNL     1      10.316 -18.759  32.128  1.00  0.00    -0.027 C 
BRANCH   4   5
ATOM      5  C   UNL     1      10.170 -20.102  31.440  1.00  0.00     0.014 C 
BRANCH   5   6
ATOM      6  C   UNL     1       8.859 -20.136  30.610  1.00  0.00     0.004 C 
ATOM      7  C   UNL     1       9.049 -20.586  29.158  1.00  0.00     0.004 C 
ENDBRANCH   5   6
BRANCH   5   8
ATOM      8  C   UNL     1      10.302 -21.272  32.470  1.00  0.00    -0.011 C 
ATOM      9  C   UNL     1       9.572 -22.533  31.969  1.00  0.00     0.008 C 
ATOM     10  C   UNL     1       9.745 -20.902  33.854  1.00  0.00     0.008 C 
ENDBRANCH   5   8
ENDBRANCH   4   5
ENDBRANCH   1   3
BRANCH   1  11
ATOM     11  C   UNL     1      11.858 -15.363  31.396  1.00  0.00     0.002 C 
ATOM     12  C   UNL     1      11.016 -15.089  30.138  1.00  0.00     0.005 C 
ATOM     13  C   UNL     1      13.351 -15.428  30.922  1.00  0.00    -0.026 C 
ATOM     14  C   UNL     1      11.987 -14.669  29.037  1.00  0.00     0.005 C 
ATOM     15  C   UNL     1      13.347 -14.456  29.714  1.00  0.00    -0.001 C 
ATOM     16  C   UNL     1      13.757 -16.853  30.458  1.00  0.00     0.007 C 
ATOM     17  C   UNL     1      14.326 -14.909  32.015  1.00  0.00     0.012 C 
ATOM     18  C   UNL     1      14.596 -14.554  28.773  1.00  0.00     0.000 C 
ATOM     19  C   UNL     1      15.067 -16.881  29.667  1.00  0.00     0.005 C 
ATOM     20  C   UNL     1      14.974 -16.007  28.392  1.00  0.00     0.003 C 
ATOM     21  C   UNL     1      14.406 -13.701  27.506  1.00  0.00     0.031 C 
ATOM     22  C   UNL     1      16.277 -16.067  27.495  1.00  0.00    -0.008 C 
ATOM     23  C   UNL     1      15.495 -13.883  26.492  1.00  0.00    -0.027 C 
ATOM     24  C   UNL     1      16.216 -15.016  26.373  1.00  0.00    -0.065 C 
ATOM     25  C   UNL     1      16.380 -17.491  26.857  1.00  0.00     0.014 C 
ATOM     26  C   UNL     1      17.560 -15.791  28.330  1.00  0.00     0.016 C 
ATOM     27  C   UNL     1      17.146 -15.154  25.179  1.00  0.00     0.063 C 
ATOM     28  C   UNL     1      17.416 -17.593  25.728  1.00  0.00     0.033 C 
ATOM     29  C   UNL     1      17.109 -16.582  24.621  1.00  0.00     0.118 C 
BRANCH  29  30
ATOM     30  O   UNL     1      18.055 -16.717  23.593  1.00  0.00    -0.393 OA
ATOM     31  H   UNL     1      18.862 -16.216  23.877  1.00  0.00     0.210 HD
ENDBRANCH  29  30
ENDBRANCH   1  11
TORSDOF 6
ENDMDL
MODEL 7
REMARK VINA RESULT:    -6.237      3.577      8.762
REMARK INTER + INTRA:          -9.286
REMARK INTER:                  -8.099
REMARK INTRA:                  -1.187
REMARK UNBOUND:                -1.043
REMARK SMILES CC[C@@H](C=C[C@H](C)[C@@H]1CC[C@@H]2[C@@H]3CC=C4C[C@@H](O)CC[C@]4(C)[C@H]3CC[C@@]21C)C(C)C
REMARK SMILES IDX 6 1 7 2 5 3 4 4 3 5 2 6 1 7 28 8 29 9 30 10 8 11 9 12 26 13
REMARK SMILES IDX 10 14 11 15 25 16 27 17 12 18 24 19 23 20 13 21 21 22 14 23
REMARK SMILES IDX 15 24 20 25 22 26 16 27 19 28 17 29 18 30
REMARK H PARENT 18 31
REMARK Flexibility Score: inf
ROOT
ATOM      1  C   UNL     1      18.752 -18.209  24.683  1.00  0.00     0.012 C 
ATOM      2  C   UNL     1      20.020 -18.662  25.437  1.00  0.00     0.012 C 
ENDROOT
BRANCH   1   3
ATOM      3  C   UNL     1      18.552 -19.081  23.466  1.00  0.00    -0.028 C 
ATOM      4  C   UNL     1      19.592 -19.587  22.786  1.00  0.00    -0.027 C 
BRANCH   4   5
ATOM      5  C   UNL     1      19.407 -20.459  21.559  1.00  0.00     0.014 C 
BRANCH   5   6
ATOM      6  C   UNL     1      17.897 -20.599  21.228  1.00  0.00     0.004 C 
ATOM      7  C   UNL     1      17.518 -20.116  19.825  1.00  0.00     0.004 C 
ENDBRANCH   5   6
BRANCH   5   8
ATOM      8  C   UNL     1      20.151 -21.825  21.731  1.00  0.00    -0.011 C 
ATOM      9  C   UNL     1      19.158 -23.003  21.687  1.00  0.00     0.008 C 
ATOM     10  C   UNL     1      20.943 -21.902  23.046  1.00  0.00     0.008 C 
ENDBRANCH   5   8
ENDBRANCH   4   5
ENDBRANCH   1   3
BRANCH   1  11
ATOM     11  C   UNL     1      17.420 -18.036  25.500  1.00  0.00     0.002 C 
ATOM     12  C   UNL     1      16.204 -18.730  24.863  1.00  0.00     0.005 C 
ATOM     13  C   UNL     1      16.925 -16.625  25.972  1.00  0.00    -0.026 C 
ATOM     14  C   UNL     1      14.973 -17.914  25.250  1.00  0.00     0.005 C 
ATOM     15  C   UNL     1      15.436 -16.903  26.307  1.00  0.00    -0.001 C 
ATOM     16  C   UNL     1      17.028 -15.560  24.847  1.00  0.00     0.007 C 
ATOM     17  C   UNL     1      17.672 -16.148  27.249  1.00  0.00     0.012 C 
ATOM     18  C   UNL     1      14.538 -15.629  26.466  1.00  0.00     0.000 C 
ATOM     19  C   UNL     1      16.237 -14.285  25.146  1.00  0.00     0.005 C 
ATOM     20  C   UNL     1      14.730 -14.587  25.335  1.00  0.00     0.003 C 
ATOM     21  C   UNL     1      13.052 -16.009  26.595  1.00  0.00     0.031 C 
ATOM     22  C   UNL     1      13.855 -13.289  25.567  1.00  0.00    -0.008 C 
ATOM     23  C   UNL     1      12.128 -14.828  26.586  1.00  0.00    -0.027 C 
ATOM     24  C   UNL     1      12.418 -13.664  25.969  1.00  0.00    -0.065 C 
ATOM     25  C   UNL     1      13.816 -12.469  24.236  1.00  0.00     0.014 C 
ATOM     26  C   UNL     1      14.443 -12.396  26.696  1.00  0.00     0.016 C 
ATOM     27  C   UNL     1      11.321 -12.619  25.854  1.00  0.00     0.063 C 
ATOM     28  C   UNL     1      12.758 -11.355  24.223  1.00  0.00     0.033 C 
ATOM     29  C   UNL     1      11.365 -11.931  24.484  1.00  0.00     0.118 C 
BRANCH  29  30
ATOM     30  O   UNL     1      10.419 -10.896  24.440  1.00  0.00    -0.393 OA
ATOM     31  H   UNL     1       9.581 -11.287  24.082  1.00  0.00     0.210 HD
ENDBRANCH  29  30
ENDBRANCH   1  11
TORSDOF 6
ENDMDL
MODEL 8
REMARK VINA RESULT:    -6.043      7.210     10.266
REMARK INTER + INTRA:          -9.029
REMARK INTER:                  -7.836
REMARK INTRA:                  -1.193
REMARK UNBOUND:                -1.043
REMARK SMILES CC[C@@H](C=C[C@H](C)[C@@H]1CC[C@@H]2[C@@H]3CC=C4C[C@@H](O)CC[C@]4(C)[C@H]3CC[C@@]21C)C(C)C
REMARK SMILES IDX 6 1 7 2 5 3 4 4 3 5 2 6 1 7 28 8 29 9 30 10 8 11 9 12 26 13
REMARK SMILES IDX 10 14 11 15 25 16 27 17 12 18 24 19 23 20 13 21 21 22 14 23
REMARK SMILES IDX 15 24 20 25 22 26 16 27 19 28 17 29 18 30
REMARK H PARENT 18 31
REMARK Flexibility Score: inf
ROOT
ATOM      1  C   UNL     1      16.461 -25.917  23.066  1.00  0.00     0.012 C 
ATOM      2  C   UNL     1      16.688 -27.244  22.312  1.00  0.00     0.012 C 
ENDROOT
BRANCH   1   3
ATOM      3  C   UNL     1      15.224 -26.032  23.925  1.00  0.00    -0.028 C 
ATOM      4  C   UNL     1      14.012 -25.690  23.461  1.00  0.00    -0.027 C 
BRANCH   4   5
ATOM      5  C   UNL     1      12.762 -25.795  24.313  1.00  0.00     0.014 C 
BRANCH   5   6
ATOM      6  C   UNL     1      11.599 -25.007  23.653  1.00  0.00     0.004 C 
ATOM      7  C   UNL     1      12.003 -24.237  22.391  1.00  0.00     0.004 C 
ENDBRANCH   5   6
BRANCH   5   8
ATOM      8  C   UNL     1      13.059 -25.372  25.790  1.00  0.00    -0.011 C 
ATOM      9  C   UNL     1      12.876 -26.561  26.752  1.00  0.00     0.008 C 
ATOM     10  C   UNL     1      12.160 -24.218  26.263  1.00  0.00     0.008 C 
ENDBRANCH   5   8
ENDBRANCH   4   5
ENDBRANCH   1   3
BRANCH   1  11
ATOM     11  C   UNL     1      17.666 -25.294  23.861  1.00  0.00     0.002 C 
ATOM     12  C   UNL     1      17.293 -24.798  25.268  1.00  0.00     0.005 C 
ATOM     13  C   UNL     1      18.580 -24.187  23.231  1.00  0.00    -0.026 C 
ATOM     14  C   UNL     1      18.219 -23.626  25.585  1.00  0.00     0.005 C 
ATOM     15  C   UNL     1      19.284 -23.601  24.482  1.00  0.00    -0.001 C 
ATOM     16  C   UNL     1      17.756 -23.082  22.517  1.00  0.00     0.007 C 
ATOM     17  C   UNL     1      19.637 -24.792  22.265  1.00  0.00     0.012 C 
ATOM     18  C   UNL     1      20.002 -22.226  24.263  1.00  0.00     0.000 C 
ATOM     19  C   UNL     1      18.570 -21.824  22.208  1.00  0.00     0.005 C 
ATOM     20  C   UNL     1      19.140 -21.189  23.500  1.00  0.00     0.003 C 
ATOM     21  C   UNL     1      20.493 -21.636  25.597  1.00  0.00     0.031 C 
ATOM     22  C   UNL     1      19.923 -19.839  23.242  1.00  0.00    -0.008 C 
ATOM     23  C   UNL     1      21.042 -20.247  25.472  1.00  0.00    -0.027 C 
ATOM     24  C   UNL     1      20.651 -19.378  24.517  1.00  0.00    -0.065 C 
ATOM     25  C   UNL     1      18.896 -18.739  22.815  1.00  0.00     0.014 C 
ATOM     26  C   UNL     1      20.990 -20.001  22.122  1.00  0.00     0.016 C 
ATOM     27  C   UNL     1      21.125 -17.938  24.619  1.00  0.00     0.063 C 
ATOM     28  C   UNL     1      19.468 -17.314  22.833  1.00  0.00     0.033 C 
ATOM     29  C   UNL     1      20.006 -16.966  24.223  1.00  0.00     0.118 C 
BRANCH  29  30
ATOM     30  O   UNL     1      20.497 -15.652  24.216  1.00  0.00    -0.393 OA
ATOM     31  H   UNL     1      20.413 -15.318  23.287  1.00  0.00     0.210 HD
ENDBRANCH  29  30
ENDBRANCH   1  11
TORSDOF 6
ENDMDL
MODEL 9
REMARK VINA RESULT:    -6.026      2.660      4.934
REMARK INTER + INTRA:          -9.006
REMARK INTER:                  -7.722
REMARK INTRA:                  -1.284
REMARK UNBOUND:                -1.043
REMARK SMILES CC[C@@H](C=C[C@H](C)[C@@H]1CC[C@@H]2[C@@H]3CC=C4C[C@@H](O)CC[C@]4(C)[C@H]3CC[C@@]21C)C(C)C
REMARK SMILES IDX 6 1 7 2 5 3 4 4 3 5 2 6 1 7 28 8 29 9 30 10 8 11 9 12 26 13
REMARK SMILES IDX 10 14 11 15 25 16 27 17 12 18 24 19 23 20 13 21 21 22 14 23
REMARK SMILES IDX 15 24 20 25 22 26 16 27 19 28 17 29 18 30
REMARK H PARENT 18 31
REMARK Flexibility Score: inf
ROOT
ATOM      1  C   UNL     1      16.537 -12.111  26.225  1.00  0.00     0.012 C 
ATOM      2  C   UNL     1      16.896 -10.787  26.930  1.00  0.00     0.012 C 
ENDROOT
BRANCH   1   3
ATOM      3  C   UNL     1      15.138 -12.018  25.662  1.00  0.00    -0.028 C 
ATOM      4  C   UNL     1      14.204 -12.937  25.948  1.00  0.00    -0.027 C 
BRANCH   4   5
ATOM      5  C   UNL     1      12.797 -12.860  25.387  1.00  0.00     0.014 C 
BRANCH   5   6
ATOM      6  C   UNL     1      12.506 -11.424  24.875  1.00  0.00     0.004 C 
ATOM      7  C   UNL     1      11.046 -11.187  24.474  1.00  0.00     0.004 C 
ENDBRANCH   5   6
BRANCH   5   8
ATOM      8  C   UNL     1      11.753 -13.389  26.426  1.00  0.00    -0.011 C 
ATOM      9  C   UNL     1      12.104 -12.917  27.850  1.00  0.00     0.008 C 
ATOM     10  C   UNL     1      11.653 -14.923  26.429  1.00  0.00     0.008 C 
ENDBRANCH   5   8
ENDBRANCH   4   5
ENDBRANCH   1   3
BRANCH   1  11
ATOM     11  C   UNL     1      17.549 -12.696  25.174  1.00  0.00     0.002 C 
ATOM     12  C   UNL     1      17.054 -12.616  23.720  1.00  0.00     0.005 C 
ATOM     13  C   UNL     1      18.180 -14.121  25.347  1.00  0.00    -0.026 C 
ATOM     14  C   UNL     1      17.669 -13.798  22.976  1.00  0.00     0.005 C 
ATOM     15  C   UNL     1      18.710 -14.413  23.920  1.00  0.00    -0.001 C 
ATOM     16  C   UNL     1      17.123 -15.184  25.751  1.00  0.00     0.007 C 
ATOM     17  C   UNL     1      19.361 -14.111  26.358  1.00  0.00     0.012 C 
ATOM     18  C   UNL     1      19.081 -15.909  23.638  1.00  0.00     0.000 C 
ATOM     19  C   UNL     1      17.616 -16.623  25.582  1.00  0.00     0.005 C 
ATOM     20  C   UNL     1      18.005 -16.917  24.112  1.00  0.00     0.003 C 
ATOM     21  C   UNL     1      19.402 -16.131  22.149  1.00  0.00     0.031 C 
ATOM     22  C   UNL     1      18.445 -18.417  23.869  1.00  0.00    -0.008 C 
ATOM     23  C   UNL     1      19.605 -17.572  21.788  1.00  0.00    -0.027 C 
ATOM     24  C   UNL     1      19.029 -18.592  22.455  1.00  0.00    -0.065 C 
ATOM     25  C   UNL     1      17.190 -19.338  24.021  1.00  0.00     0.014 C 
ATOM     26  C   UNL     1      19.532 -18.867  24.886  1.00  0.00     0.016 C 
ATOM     27  C   UNL     1      19.144 -19.990  21.870  1.00  0.00     0.063 C 
ATOM     28  C   UNL     1      17.405 -20.771  23.511  1.00  0.00     0.033 C 
ATOM     29  C   UNL     1      17.830 -20.762  22.041  1.00  0.00     0.118 C 
BRANCH  29  30
ATOM     30  O   UNL     1      17.992 -22.083  21.596  1.00  0.00    -0.393 OA
ATOM     31  H   UNL     1      18.718 -22.072  20.921  1.00  0.00     0.210 HD
ENDBRANCH  29  30
ENDBRANCH   1  11
TORSDOF 6
ENDMDL
