MODEL 1
REMARK VINA RESULT:    -4.419      0.000      0.000
REMARK INTER + INTRA:          -5.183
REMARK INTER:                  -5.323
REMARK INTRA:                   0.140
REMARK UNBOUND:                 0.140
REMARK SMILES O=c1c(O)c(-c2ccc(O)c(O)c2)oc2cc(O)cc(O)c12
REMARK SMILES IDX 5 1 3 2 2 3 1 4 22 5 20 6 19 7 17 8 16 9 15 10 14 11 6 12
REMARK SMILES IDX 7 13 8 14 9 15 13 16 11 17 10 18 12 20 4 22 21 24 18 26
REMARK H PARENT 10 19 12 21 4 23 21 25 18 27
REMARK Flexibility Score: inf
ROOT
ATOM      1  C   UNL     1     -22.991  -8.726  -4.792  1.00  0.00     0.180 A 
ATOM      2  C   UNL     1     -21.596  -8.611  -4.628  1.00  0.00     0.208 A 
ATOM      3  C   UNL     1     -20.798  -8.371  -5.758  1.00  0.00     0.238 A 
ATOM      4  O   UNL     1     -19.550  -8.255  -5.622  1.00  0.00    -0.285 OA
ATOM      5  C   UNL     1     -21.401  -8.270  -7.028  1.00  0.00     0.111 A 
ATOM      6  C   UNL     1     -20.668  -8.033  -8.216  1.00  0.00     0.134 A 
ATOM      7  C   UNL     1     -21.340  -7.955  -9.444  1.00  0.00     0.093 A 
ATOM      8  C   UNL     1     -22.726  -8.109  -9.509  1.00  0.00     0.123 A 
ATOM      9  C   UNL     1     -23.456  -8.342  -8.339  1.00  0.00     0.094 A 
ATOM     10  C   UNL     1     -22.805  -8.422  -7.105  1.00  0.00     0.146 A 
ATOM     11  O   UNL     1     -23.522  -8.640  -6.009  1.00  0.00    -0.452 OA
ENDROOT
BRANCH   1  12
ATOM     12  C   UNL     1     -23.901  -8.959  -3.648  1.00  0.00     0.025 A 
ATOM     13  C   UNL     1     -23.554  -9.907  -2.673  1.00  0.00     0.016 A 
ATOM     14  C   UNL     1     -24.407 -10.158  -1.595  1.00  0.00     0.051 A 
ATOM     15  C   UNL     1     -25.625  -9.479  -1.483  1.00  0.00     0.157 A 
ATOM     16  C   UNL     1     -25.135  -8.292  -3.546  1.00  0.00     0.062 A 
ATOM     17  C   UNL     1     -25.994  -8.545  -2.465  1.00  0.00     0.158 A 
BRANCH  15  18
ATOM     18  O   UNL     1     -26.455  -9.749  -0.396  1.00  0.00    -0.504 OA
ATOM     19  H   UNL     1     -26.954  -9.018   0.095  1.00  0.00     0.293 HD
ENDBRANCH  15  18
BRANCH  17  20
ATOM     20  O   UNL     1     -27.213  -7.875  -2.369  1.00  0.00    -0.504 OA
ATOM     21  H   UNL     1     -27.871  -7.856  -3.139  1.00  0.00     0.293 HD
ENDBRANCH  17  20
ENDBRANCH   1  12
BRANCH   2  22
ATOM     22  O   UNL     1     -21.019  -8.764  -3.364  1.00  0.00    -0.502 OA
ATOM     23  H   UNL     1     -21.239  -9.545  -2.759  1.00  0.00     0.293 HD
ENDBRANCH   2  22
BRANCH   6  24
ATOM     24  O   UNL     1     -19.281  -7.876  -8.185  1.00  0.00    -0.507 OA
ATOM     25  H   UNL     1     -18.720  -7.929  -9.027  1.00  0.00     0.293 HD
ENDBRANCH   6  24
BRANCH   8  26
ATOM     26  O   UNL     1     -23.370  -8.028 -10.742  1.00  0.00    -0.508 OA
ATOM     27  H   UNL     1     -22.852  -8.046 -11.613  1.00  0.00     0.293 HD
ENDBRANCH   8  26
TORSDOF 6
ENDMDL
MODEL 2
REMARK VINA RESULT:    -4.252      4.313      7.883
REMARK INTER + INTRA:          -4.983
REMARK INTER:                  -5.026
REMARK INTRA:                   0.043
REMARK UNBOUND:                 0.140
REMARK SMILES O=c1c(O)c(-c2ccc(O)c(O)c2)oc2cc(O)cc(O)c12
REMARK SMILES IDX 5 1 3 2 2 3 1 4 22 5 20 6 19 7 17 8 16 9 15 10 14 11 6 12
REMARK SMILES IDX 7 13 8 14 9 15 13 16 11 17 10 18 12 20 4 22 21 24 18 26
REMARK H PARENT 10 19 12 21 4 23 21 25 18 27
REMARK Flexibility Score: inf
ROOT
ATOM      1  C   UNL     1     -20.901  -8.840  -9.829  1.00  0.00     0.180 A 
ATOM      2  C   UNL     1     -21.460  -8.871  -8.537  1.00  0.00     0.208 A 
ATOM      3  C   UNL     1     -22.854  -8.779  -8.398  1.00  0.00     0.238 A 
ATOM      4  O   UNL     1     -23.367  -8.816  -7.247  1.00  0.00    -0.285 OA
ATOM      5  C   UNL     1     -23.660  -8.637  -9.546  1.00  0.00     0.111 A 
ATOM      6  C   UNL     1     -25.071  -8.534  -9.493  1.00  0.00     0.134 A 
ATOM      7  C   UNL     1     -25.803  -8.386 -10.681  1.00  0.00     0.093 A 
ATOM      8  C   UNL     1     -25.155  -8.340 -11.917  1.00  0.00     0.123 A 
ATOM      9  C   UNL     1     -23.760  -8.442 -11.975  1.00  0.00     0.094 A 
ATOM     10  C   UNL     1     -23.013  -8.591 -10.803  1.00  0.00     0.146 A 
ATOM     11  O   UNL     1     -21.692  -8.691 -10.888  1.00  0.00    -0.452 OA
ENDROOT
BRANCH   1  12
ATOM     12  C   UNL     1     -19.442  -8.952 -10.058  1.00  0.00     0.025 A 
ATOM     13  C   UNL     1     -18.566  -8.123  -9.342  1.00  0.00     0.016 A 
ATOM     14  C   UNL     1     -17.187  -8.197  -9.555  1.00  0.00     0.051 A 
ATOM     15  C   UNL     1     -16.665  -9.087 -10.499  1.00  0.00     0.157 A 
ATOM     16  C   UNL     1     -18.917  -9.832 -11.022  1.00  0.00     0.062 A 
ATOM     17  C   UNL     1     -17.533  -9.906 -11.240  1.00  0.00     0.158 A 
BRANCH  15  18
ATOM     18  O   UNL     1     -15.284  -9.140 -10.690  1.00  0.00    -0.504 OA
ATOM     19  H   UNL     1     -14.865  -9.073 -11.609  1.00  0.00     0.293 HD
ENDBRANCH  15  18
BRANCH  17  20
ATOM     20  O   UNL     1     -17.021 -10.785 -12.193  1.00  0.00    -0.504 OA
ATOM     21  H   UNL     1     -16.044 -11.054 -12.198  1.00  0.00     0.293 HD
ENDBRANCH  17  20
ENDBRANCH   1  12
BRANCH   2  22
ATOM     22  O   UNL     1     -20.635  -8.963  -7.413  1.00  0.00    -0.502 OA
ATOM     23  H   UNL     1     -19.626  -8.899  -7.474  1.00  0.00     0.293 HD
ENDBRANCH   2  22
BRANCH   6  24
ATOM     24  O   UNL     1     -25.749  -8.576  -8.274  1.00  0.00    -0.507 OA
ATOM     25  H   UNL     1     -25.347  -8.192  -7.427  1.00  0.00     0.293 HD
ENDBRANCH   6  24
BRANCH   8  26
ATOM     26  O   UNL     1     -25.904  -8.191 -13.081  1.00  0.00    -0.508 OA
ATOM     27  H   UNL     1     -26.648  -8.837 -13.319  1.00  0.00     0.293 HD
ENDBRANCH   8  26
TORSDOF 6
ENDMDL
MODEL 3
REMARK VINA RESULT:    -4.197      4.962      6.382
REMARK INTER + INTRA:          -4.916
REMARK INTER:                  -4.642
REMARK INTRA:                  -0.274
REMARK UNBOUND:                 0.140
REMARK SMILES O=c1c(O)c(-c2ccc(O)c(O)c2)oc2cc(O)cc(O)c12
REMARK SMILES IDX 5 1 3 2 2 3 1 4 22 5 20 6 19 7 17 8 16 9 15 10 14 11 6 12
REMARK SMILES IDX 7 13 8 14 9 15 13 16 11 17 10 18 12 20 4 22 21 24 18 26
REMARK H PARENT 10 19 12 21 4 23 21 25 18 27
REMARK Flexibility Score: inf
ROOT
ATOM      1  C   UNL     1     -21.618  -8.969  -9.969  1.00  0.00     0.180 A 
ATOM      2  C   UNL     1     -21.119  -8.687  -8.682  1.00  0.00     0.208 A 
ATOM      3  C   UNL     1     -19.750  -8.415  -8.529  1.00  0.00     0.238 A 
ATOM      4  O   UNL     1     -19.294  -8.151  -7.384  1.00  0.00    -0.285 OA
ATOM      5  C   UNL     1     -18.903  -8.450  -9.656  1.00  0.00     0.111 A 
ATOM      6  C   UNL     1     -17.512  -8.191  -9.588  1.00  0.00     0.134 A 
ATOM      7  C   UNL     1     -16.735  -8.254 -10.753  1.00  0.00     0.093 A 
ATOM      8  C   UNL     1     -17.318  -8.569 -11.983  1.00  0.00     0.123 A 
ATOM      9  C   UNL     1     -18.691  -8.824 -12.057  1.00  0.00     0.094 A 
ATOM     10  C   UNL     1     -19.484  -8.765 -10.907  1.00  0.00     0.146 A 
ATOM     11  O   UNL     1     -20.785  -9.007 -11.006  1.00  0.00    -0.452 OA
ENDROOT
BRANCH   1  12
ATOM     12  C   UNL     1     -23.051  -9.246 -10.214  1.00  0.00     0.025 A 
ATOM     13  C   UNL     1     -23.870  -8.233 -10.736  1.00  0.00     0.016 A 
ATOM     14  C   UNL     1     -25.230  -8.466 -10.957  1.00  0.00     0.051 A 
ATOM     15  C   UNL     1     -25.795  -9.707 -10.645  1.00  0.00     0.157 A 
ATOM     16  C   UNL     1     -23.625 -10.487  -9.882  1.00  0.00     0.062 A 
ATOM     17  C   UNL     1     -24.991 -10.722 -10.100  1.00  0.00     0.158 A 
BRANCH  15  18
ATOM     18  O   UNL     1     -27.155  -9.910 -10.878  1.00  0.00    -0.504 OA
ATOM     19  H   UNL     1     -27.812  -9.142 -10.937  1.00  0.00     0.293 HD
ENDBRANCH  15  18
BRANCH  17  20
ATOM     20  O   UNL     1     -25.550 -11.956  -9.773  1.00  0.00    -0.504 OA
ATOM     21  H   UNL     1     -25.418 -12.374  -8.860  1.00  0.00     0.293 HD
ENDBRANCH  17  20
ENDBRANCH   1  12
BRANCH   2  22
ATOM     22  O   UNL     1     -21.971  -8.708  -7.575  1.00  0.00    -0.502 OA
ATOM     23  H   UNL     1     -21.911  -9.419  -6.857  1.00  0.00     0.293 HD
ENDBRANCH   2  22
BRANCH   6  24
ATOM     24  O   UNL     1     -16.900  -7.875  -8.374  1.00  0.00    -0.507 OA
ATOM     25  H   UNL     1     -16.859  -8.538  -7.609  1.00  0.00     0.293 HD
ENDBRANCH   6  24
BRANCH   8  26
ATOM     26  O   UNL     1     -16.523  -8.626 -13.125  1.00  0.00    -0.508 OA
ATOM     27  H   UNL     1     -15.740  -7.996 -13.259  1.00  0.00     0.293 HD
ENDBRANCH   8  26
TORSDOF 6
ENDMDL
MODEL 4
REMARK VINA RESULT:    -4.090      2.650      8.352
REMARK INTER + INTRA:          -4.788
REMARK INTER:                  -4.875
REMARK INTRA:                   0.087
REMARK UNBOUND:                 0.140
REMARK SMILES O=c1c(O)c(-c2ccc(O)c(O)c2)oc2cc(O)cc(O)c12
REMARK SMILES IDX 5 1 3 2 2 3 1 4 22 5 20 6 19 7 17 8 16 9 15 10 14 11 6 12
REMARK SMILES IDX 7 13 8 14 9 15 13 16 11 17 10 18 12 20 4 22 21 24 18 26
REMARK H PARENT 10 19 12 21 4 23 21 25 18 27
REMARK Flexibility Score: inf
ROOT
ATOM      1  C   UNL     1     -20.187  -8.585  -8.777  1.00  0.00     0.180 A 
ATOM      2  C   UNL     1     -21.565  -8.782  -8.996  1.00  0.00     0.208 A 
ATOM      3  C   UNL     1     -22.438  -8.748  -7.897  1.00  0.00     0.238 A 
ATOM      4  O   UNL     1     -23.674  -8.912  -8.082  1.00  0.00    -0.285 OA
ATOM      5  C   UNL     1     -21.920  -8.540  -6.603  1.00  0.00     0.111 A 
ATOM      6  C   UNL     1     -22.731  -8.496  -5.442  1.00  0.00     0.134 A 
ATOM      7  C   UNL     1     -22.139  -8.294  -4.188  1.00  0.00     0.093 A 
ATOM      8  C   UNL     1     -20.757  -8.134  -4.068  1.00  0.00     0.123 A 
ATOM      9  C   UNL     1     -19.951  -8.176  -5.211  1.00  0.00     0.094 A 
ATOM     10  C   UNL     1     -20.522  -8.375  -6.471  1.00  0.00     0.146 A 
ATOM     11  O   UNL     1     -19.734  -8.406  -7.540  1.00  0.00    -0.452 OA
ENDROOT
BRANCH   1  12
ATOM     12  C   UNL     1     -19.206  -8.586  -9.886  1.00  0.00     0.025 A 
ATOM     13  C   UNL     1     -19.495  -7.879 -11.063  1.00  0.00     0.016 A 
ATOM     14  C   UNL     1     -18.593  -7.882 -12.130  1.00  0.00     0.051 A 
ATOM     15  C   UNL     1     -17.398  -8.605 -12.045  1.00  0.00     0.157 A 
ATOM     16  C   UNL     1     -18.014  -9.329  -9.809  1.00  0.00     0.062 A 
ATOM     17  C   UNL     1     -17.108  -9.336 -10.880  1.00  0.00     0.158 A 
BRANCH  15  18
ATOM     18  O   UNL     1     -16.516  -8.589 -13.125  1.00  0.00    -0.504 OA
ATOM     19  H   UNL     1     -15.567  -8.247 -13.040  1.00  0.00     0.293 HD
ENDBRANCH  15  18
BRANCH  17  20
ATOM     20  O   UNL     1     -15.927 -10.070 -10.793  1.00  0.00    -0.504 OA
ATOM     21  H   UNL     1     -15.231  -9.876 -10.083  1.00  0.00     0.293 HD
ENDBRANCH  17  20
ENDBRANCH   1  12
BRANCH   2  22
ATOM     22  O   UNL     1     -22.046  -9.035 -10.284  1.00  0.00    -0.502 OA
ATOM     23  H   UNL     1     -22.963  -9.429 -10.452  1.00  0.00     0.293 HD
ENDBRANCH   2  22
BRANCH   6  24
ATOM     24  O   UNL     1     -24.116  -8.652  -5.528  1.00  0.00    -0.507 OA
ATOM     25  H   UNL     1     -24.553  -9.565  -5.479  1.00  0.00     0.293 HD
ENDBRANCH   6  24
BRANCH   8  26
ATOM     26  O   UNL     1     -20.194  -7.936  -2.810  1.00  0.00    -0.508 OA
ATOM     27  H   UNL     1     -20.750  -7.621  -2.023  1.00  0.00     0.293 HD
ENDBRANCH   8  26
TORSDOF 6
ENDMDL
MODEL 5
REMARK VINA RESULT:    -4.084      4.893      9.413
REMARK INTER + INTRA:          -4.780
REMARK INTER:                  -4.890
REMARK INTRA:                   0.109
REMARK UNBOUND:                 0.140
REMARK SMILES O=c1c(O)c(-c2ccc(O)c(O)c2)oc2cc(O)cc(O)c12
REMARK SMILES IDX 5 1 3 2 2 3 1 4 22 5 20 6 19 7 17 8 16 9 15 10 14 11 6 12
REMARK SMILES IDX 7 13 8 14 9 15 13 16 11 17 10 18 12 20 4 22 21 24 18 26
REMARK H PARENT 10 19 12 21 4 23 21 25 18 27
REMARK Flexibility Score: inf
ROOT
ATOM      1  C   UNL     1     -16.969  -8.509  -9.905  1.00  0.00     0.180 A 
ATOM      2  C   UNL     1     -17.247  -8.284 -11.268  1.00  0.00     0.208 A 
ATOM      3  C   UNL     1     -18.584  -8.144 -11.674  1.00  0.00     0.238 A 
ATOM      4  O   UNL     1     -18.844  -7.931 -12.889  1.00  0.00    -0.285 OA
ATOM      5  C   UNL     1     -19.616  -8.252 -10.720  1.00  0.00     0.111 A 
ATOM      6  C   UNL     1     -20.989  -8.127 -11.047  1.00  0.00     0.134 A 
ATOM      7  C   UNL     1     -21.957  -8.256 -10.041  1.00  0.00     0.093 A 
ATOM      8  C   UNL     1     -21.584  -8.506  -8.719  1.00  0.00     0.123 A 
ATOM      9  C   UNL     1     -20.230  -8.630  -8.390  1.00  0.00     0.094 A 
ATOM     10  C   UNL     1     -19.249  -8.503  -9.377  1.00  0.00     0.146 A 
ATOM     11  O   UNL     1     -17.971  -8.620  -9.037  1.00  0.00    -0.452 OA
ENDROOT
BRANCH   1  12
ATOM     12  C   UNL     1     -15.586  -8.648  -9.397  1.00  0.00     0.025 A 
ATOM     13  C   UNL     1     -15.207  -7.962  -8.233  1.00  0.00     0.016 A 
ATOM     14  C   UNL     1     -13.901  -8.062  -7.746  1.00  0.00     0.051 A 
ATOM     15  C   UNL     1     -12.951  -8.835  -8.421  1.00  0.00     0.157 A 
ATOM     16  C   UNL     1     -14.624  -9.408 -10.087  1.00  0.00     0.062 A 
ATOM     17  C   UNL     1     -13.312  -9.508  -9.601  1.00  0.00     0.158 A 
BRANCH  15  18
ATOM     18  O   UNL     1     -11.656  -8.917  -7.911  1.00  0.00    -0.504 OA
ATOM     19  H   UNL     1     -11.404  -8.516  -7.016  1.00  0.00     0.293 HD
ENDBRANCH  15  18
BRANCH  17  20
ATOM     20  O   UNL     1     -12.367 -10.268 -10.288  1.00  0.00    -0.504 OA
ATOM     21  H   UNL     1     -12.621 -10.838 -11.086  1.00  0.00     0.293 HD
ENDBRANCH  17  20
ENDBRANCH   1  12
BRANCH   2  22
ATOM     22  O   UNL     1     -16.208  -8.230 -12.201  1.00  0.00    -0.502 OA
ATOM     23  H   UNL     1     -15.242  -8.089 -11.930  1.00  0.00     0.293 HD
ENDBRANCH   2  22
BRANCH   6  24
ATOM     24  O   UNL     1     -21.394  -7.877 -12.359  1.00  0.00    -0.507 OA
ATOM     25  H   UNL     1     -21.829  -8.594 -12.928  1.00  0.00     0.293 HD
ENDBRANCH   6  24
BRANCH   8  26
ATOM     26  O   UNL     1     -22.566  -8.631  -7.740  1.00  0.00    -0.508 OA
ATOM     27  H   UNL     1     -22.747  -9.516  -7.279  1.00  0.00     0.293 HD
ENDBRANCH   8  26
TORSDOF 6
ENDMDL
MODEL 6
REMARK VINA RESULT:    -4.061      1.848      6.459
REMARK INTER + INTRA:          -4.753
REMARK INTER:                  -4.456
REMARK INTRA:                  -0.296
REMARK UNBOUND:                 0.140
REMARK SMILES O=c1c(O)c(-c2ccc(O)c(O)c2)oc2cc(O)cc(O)c12
REMARK SMILES IDX 5 1 3 2 2 3 1 4 22 5 20 6 19 7 17 8 16 9 15 10 14 11 6 12
REMARK SMILES IDX 7 13 8 14 9 15 13 16 11 17 10 18 12 20 4 22 21 24 18 26
REMARK H PARENT 10 19 12 21 4 23 21 25 18 27
REMARK Flexibility Score: inf
ROOT
ATOM      1  C   UNL     1     -22.963  -8.772  -7.571  1.00  0.00     0.180 A 
ATOM      2  C   UNL     1     -21.570  -8.753  -7.361  1.00  0.00     0.208 A 
ATOM      3  C   UNL     1     -21.084  -8.581  -6.054  1.00  0.00     0.238 A 
ATOM      4  O   UNL     1     -19.839  -8.573  -5.852  1.00  0.00    -0.285 OA
ATOM      5  C   UNL     1     -21.992  -8.411  -4.990  1.00  0.00     0.111 A 
ATOM      6  C   UNL     1     -21.584  -8.229  -3.646  1.00  0.00     0.134 A 
ATOM      7  C   UNL     1     -22.550  -8.058  -2.643  1.00  0.00     0.093 A 
ATOM      8  C   UNL     1     -23.911  -8.066  -2.955  1.00  0.00     0.123 A 
ATOM      9  C   UNL     1     -24.320  -8.246  -4.281  1.00  0.00     0.094 A 
ATOM     10  C   UNL     1     -23.373  -8.420  -5.295  1.00  0.00     0.146 A 
ATOM     11  O   UNL     1     -23.789  -8.594  -6.543  1.00  0.00    -0.452 OA
ENDROOT
BRANCH   1  12
ATOM     12  C   UNL     1     -23.553  -8.968  -8.914  1.00  0.00     0.025 A 
ATOM     13  C   UNL     1     -23.657  -7.876  -9.788  1.00  0.00     0.016 A 
ATOM     14  C   UNL     1     -24.228  -8.033 -11.054  1.00  0.00     0.051 A 
ATOM     15  C   UNL     1     -24.718  -9.279 -11.459  1.00  0.00     0.157 A 
ATOM     16  C   UNL     1     -24.065 -10.216  -9.315  1.00  0.00     0.062 A 
ATOM     17  C   UNL     1     -24.641 -10.376 -10.584  1.00  0.00     0.158 A 
BRANCH  15  18
ATOM     18  O   UNL     1     -25.281  -9.406 -12.728  1.00  0.00    -0.504 OA
ATOM     19  H   UNL     1     -25.696  -8.621 -13.214  1.00  0.00     0.293 HD
ENDBRANCH  15  18
BRANCH  17  20
ATOM     20  O   UNL     1     -25.141 -11.617 -10.975  1.00  0.00    -0.504 OA
ATOM     21  H   UNL     1     -24.843 -12.063 -11.834  1.00  0.00     0.293 HD
ENDBRANCH  17  20
ENDBRANCH   1  12
BRANCH   2  22
ATOM     22  O   UNL     1     -20.691  -8.874  -8.440  1.00  0.00    -0.502 OA
ATOM     23  H   UNL     1     -19.840  -9.421  -8.388  1.00  0.00     0.293 HD
ENDBRANCH   2  22
BRANCH   6  24
ATOM     24  O   UNL     1     -20.231  -8.216  -3.301  1.00  0.00    -0.507 OA
ATOM     25  H   UNL     1     -19.533  -8.686  -3.866  1.00  0.00     0.293 HD
ENDBRANCH   6  24
BRANCH   8  26
ATOM     26  O   UNL     1     -24.849  -7.892  -1.941  1.00  0.00    -0.508 OA
ATOM     27  H   UNL     1     -24.604  -7.455  -1.060  1.00  0.00     0.293 HD
ENDBRANCH   8  26
TORSDOF 6
ENDMDL
MODEL 7
REMARK VINA RESULT:    -3.844      1.598      6.665
REMARK INTER + INTRA:          -4.491
REMARK INTER:                  -4.876
REMARK INTRA:                   0.384
REMARK UNBOUND:                 0.140
REMARK SMILES O=c1c(O)c(-c2ccc(O)c(O)c2)oc2cc(O)cc(O)c12
REMARK SMILES IDX 5 1 3 2 2 3 1 4 22 5 20 6 19 7 17 8 16 9 15 10 14 11 6 12
REMARK SMILES IDX 7 13 8 14 9 15 13 16 11 17 10 18 12 20 4 22 21 24 18 26
REMARK H PARENT 10 19 12 21 4 23 21 25 18 27
REMARK Flexibility Score: inf
ROOT
ATOM      1  C   UNL     1     -21.578  -8.478  -5.801  1.00  0.00     0.180 A 
ATOM      2  C   UNL     1     -20.705  -8.241  -4.721  1.00  0.00     0.208 A 
ATOM      3  C   UNL     1     -21.243  -8.115  -3.429  1.00  0.00     0.238 A 
ATOM      4  O   UNL     1     -20.470  -7.915  -2.453  1.00  0.00    -0.285 OA
ATOM      5  C   UNL     1     -22.637  -8.206  -3.243  1.00  0.00     0.111 A 
ATOM      6  C   UNL     1     -23.258  -8.087  -1.976  1.00  0.00     0.134 A 
ATOM      7  C   UNL     1     -24.654  -8.180  -1.875  1.00  0.00     0.093 A 
ATOM      8  C   UNL     1     -25.439  -8.390  -3.010  1.00  0.00     0.123 A 
ATOM      9  C   UNL     1     -24.831  -8.510  -4.264  1.00  0.00     0.094 A 
ATOM     10  C   UNL     1     -23.442  -8.421  -4.386  1.00  0.00     0.146 A 
ATOM     11  O   UNL     1     -22.890  -8.543  -5.588  1.00  0.00    -0.452 OA
ENDROOT
BRANCH   1  12
ATOM     12  C   UNL     1     -21.087  -8.642  -7.187  1.00  0.00     0.025 A 
ATOM     13  C   UNL     1     -19.867  -8.059  -7.560  1.00  0.00     0.016 A 
ATOM     14  C   UNL     1     -19.393  -8.183  -8.869  1.00  0.00     0.051 A 
ATOM     15  C   UNL     1     -20.138  -8.878  -9.828  1.00  0.00     0.157 A 
ATOM     16  C   UNL     1     -21.845  -9.322  -8.158  1.00  0.00     0.062 A 
ATOM     17  C   UNL     1     -21.373  -9.446  -9.473  1.00  0.00     0.158 A 
BRANCH  15  18
ATOM     18  O   UNL     1     -19.639  -8.987 -11.126  1.00  0.00    -0.504 OA
ATOM     19  H   UNL     1     -19.651  -9.862 -11.635  1.00  0.00     0.293 HD
ENDBRANCH  15  18
BRANCH  17  20
ATOM     20  O   UNL     1     -22.128 -10.127 -10.427  1.00  0.00    -0.504 OA
ATOM     21  H   UNL     1     -21.740 -10.386 -11.326  1.00  0.00     0.293 HD
ENDBRANCH  17  20
ENDBRANCH   1  12
BRANCH   2  22
ATOM     22  O   UNL     1     -19.332  -8.107  -4.939  1.00  0.00    -0.502 OA
ATOM     23  H   UNL     1     -18.672  -7.974  -4.182  1.00  0.00     0.293 HD
ENDBRANCH   2  22
BRANCH   6  24
ATOM     24  O   UNL     1     -22.502  -7.877  -0.822  1.00  0.00    -0.507 OA
ATOM     25  H   UNL     1     -22.926  -7.860   0.098  1.00  0.00     0.293 HD
ENDBRANCH   6  24
BRANCH   8  26
ATOM     26  O   UNL     1     -26.823  -8.478  -2.882  1.00  0.00    -0.508 OA
ATOM     27  H   UNL     1     -27.381  -9.039  -3.515  1.00  0.00     0.293 HD
ENDBRANCH   8  26
TORSDOF 6
ENDMDL
MODEL 8
REMARK VINA RESULT:    -3.775      1.911      3.392
REMARK INTER + INTRA:          -4.408
REMARK INTER:                  -4.606
REMARK INTRA:                   0.198
REMARK UNBOUND:                 0.140
REMARK SMILES O=c1c(O)c(-c2ccc(O)c(O)c2)oc2cc(O)cc(O)c12
REMARK SMILES IDX 5 1 3 2 2 3 1 4 22 5 20 6 19 7 17 8 16 9 15 10 14 11 6 12
REMARK SMILES IDX 7 13 8 14 9 15 13 16 11 17 10 18 12 20 4 22 21 24 18 26
REMARK H PARENT 10 19 12 21 4 23 21 25 18 27
REMARK Flexibility Score: inf
ROOT
ATOM      1  C   UNL     1     -23.855  -8.409  -5.677  1.00  0.00     0.180 A 
ATOM      2  C   UNL     1     -25.088  -8.210  -6.329  1.00  0.00     0.208 A 
ATOM      3  C   UNL     1     -25.136  -8.295  -7.730  1.00  0.00     0.238 A 
ATOM      4  O   UNL     1     -26.236  -8.129  -8.324  1.00  0.00    -0.285 OA
ATOM      5  C   UNL     1     -23.954  -8.555  -8.453  1.00  0.00     0.111 A 
ATOM      6  C   UNL     1     -23.916  -8.653  -9.865  1.00  0.00     0.134 A 
ATOM      7  C   UNL     1     -22.698  -8.905 -10.512  1.00  0.00     0.093 A 
ATOM      8  C   UNL     1     -21.520  -9.062  -9.779  1.00  0.00     0.123 A 
ATOM      9  C   UNL     1     -21.551  -8.968  -8.383  1.00  0.00     0.094 A 
ATOM     10  C   UNL     1     -22.756  -8.718  -7.719  1.00  0.00     0.146 A 
ATOM     11  O   UNL     1     -22.758  -8.638  -6.394  1.00  0.00    -0.452 OA
ENDROOT
BRANCH   1  12
ATOM     12  C   UNL     1     -23.727  -8.355  -4.204  1.00  0.00     0.025 A 
ATOM     13  C   UNL     1     -22.524  -7.916  -3.631  1.00  0.00     0.016 A 
ATOM     14  C   UNL     1     -22.373  -7.875  -2.243  1.00  0.00     0.051 A 
ATOM     15  C   UNL     1     -23.415  -8.288  -1.406  1.00  0.00     0.157 A 
ATOM     16  C   UNL     1     -24.767  -8.789  -3.361  1.00  0.00     0.062 A 
ATOM     17  C   UNL     1     -24.617  -8.751  -1.967  1.00  0.00     0.158 A 
BRANCH  15  18
ATOM     18  O   UNL     1     -23.237  -8.235  -0.024  1.00  0.00    -0.504 OA
ATOM     19  H   UNL     1     -23.339  -7.374   0.500  1.00  0.00     0.293 HD
ENDBRANCH  15  18
BRANCH  17  20
ATOM     20  O   UNL     1     -25.655  -9.178  -1.140  1.00  0.00    -0.504 OA
ATOM     21  H   UNL     1     -26.410  -8.558  -0.871  1.00  0.00     0.293 HD
ENDBRANCH  17  20
ENDBRANCH   1  12
BRANCH   2  22
ATOM     22  O   UNL     1     -26.235  -7.904  -5.592  1.00  0.00    -0.502 OA
ATOM     23  H   UNL     1     -26.278  -7.118  -4.955  1.00  0.00     0.293 HD
ENDBRANCH   2  22
BRANCH   6  24
ATOM     24  O   UNL     1     -25.075  -8.500 -10.627  1.00  0.00    -0.507 OA
ATOM     25  H   UNL     1     -25.996  -8.500 -10.203  1.00  0.00     0.293 HD
ENDBRANCH   6  24
BRANCH   8  26
ATOM     26  O   UNL     1     -20.323  -9.311 -10.446  1.00  0.00    -0.508 OA
ATOM     27  H   UNL     1     -20.292  -9.873 -11.289  1.00  0.00     0.293 HD
ENDBRANCH   8  26
TORSDOF 6
ENDMDL
MODEL 9
REMARK VINA RESULT:    -3.741      1.794      7.288
REMARK INTER + INTRA:          -4.366
REMARK INTER:                  -4.546
REMARK INTRA:                   0.180
REMARK UNBOUND:                 0.140
REMARK SMILES O=c1c(O)c(-c2ccc(O)c(O)c2)oc2cc(O)cc(O)c12
REMARK SMILES IDX 5 1 3 2 2 3 1 4 22 5 20 6 19 7 17 8 16 9 15 10 14 11 6 12
REMARK SMILES IDX 7 13 8 14 9 15 13 16 11 17 10 18 12 20 4 22 21 24 18 26
REMARK H PARENT 10 19 12 21 4 23 21 25 18 27
REMARK Flexibility Score: inf
ROOT
ATOM      1  C   UNL     1     -23.469  -8.629  -6.793  1.00  0.00     0.180 A 
ATOM      2  C   UNL     1     -24.826  -8.405  -7.096  1.00  0.00     0.208 A 
ATOM      3  C   UNL     1     -25.736  -8.226  -6.041  1.00  0.00     0.238 A 
ATOM      4  O   UNL     1     -26.951  -8.013  -6.300  1.00  0.00    -0.285 OA
ATOM      5  C   UNL     1     -25.280  -8.294  -4.709  1.00  0.00     0.111 A 
ATOM      6  C   UNL     1     -26.131  -8.128  -3.589  1.00  0.00     0.134 A 
ATOM      7  C   UNL     1     -25.602  -8.220  -2.294  1.00  0.00     0.093 A 
ATOM      8  C   UNL     1     -24.244  -8.472  -2.094  1.00  0.00     0.123 A 
ATOM      9  C   UNL     1     -23.397  -8.636  -3.196  1.00  0.00     0.094 A 
ATOM     10  C   UNL     1     -23.904  -8.547  -4.496  1.00  0.00     0.146 A 
ATOM     11  O   UNL     1     -23.078  -8.701  -5.523  1.00  0.00    -0.452 OA
ENDROOT
BRANCH   1  12
ATOM     12  C   UNL     1     -22.446  -8.807  -7.849  1.00  0.00     0.025 A 
ATOM     13  C   UNL     1     -22.751  -9.576  -8.981  1.00  0.00     0.016 A 
ATOM     14  C   UNL     1     -21.796  -9.775  -9.981  1.00  0.00     0.051 A 
ATOM     15  C   UNL     1     -20.517  -9.221  -9.858  1.00  0.00     0.157 A 
ATOM     16  C   UNL     1     -21.154  -8.268  -7.716  1.00  0.00     0.062 A 
ATOM     17  C   UNL     1     -20.192  -8.467  -8.717  1.00  0.00     0.158 A 
BRANCH  15  18
ATOM     18  O   UNL     1     -19.584  -9.434 -10.872  1.00  0.00    -0.504 OA
ATOM     19  H   UNL     1     -19.767  -9.176 -11.834  1.00  0.00     0.293 HD
ENDBRANCH  15  18
BRANCH  17  20
ATOM     20  O   UNL     1     -18.915  -7.925  -8.580  1.00  0.00    -0.504 OA
ATOM     21  H   UNL     1     -18.253  -8.289  -7.905  1.00  0.00     0.293 HD
ENDBRANCH  17  20
ENDBRANCH   1  12
BRANCH   2  22
ATOM     22  O   UNL     1     -25.260  -8.390  -8.424  1.00  0.00    -0.502 OA
ATOM     23  H   UNL     1     -24.619  -8.453  -9.205  1.00  0.00     0.293 HD
ENDBRANCH   2  22
BRANCH   6  24
ATOM     24  O   UNL     1     -27.494  -7.876  -3.755  1.00  0.00    -0.507 OA
ATOM     25  H   UNL     1     -27.972  -8.080  -4.625  1.00  0.00     0.293 HD
ENDBRANCH   6  24
BRANCH   8  26
ATOM     26  O   UNL     1     -23.744  -8.559  -0.797  1.00  0.00    -0.508 OA
ATOM     27  H   UNL     1     -24.345  -8.452   0.012  1.00  0.00     0.293 HD
ENDBRANCH   8  26
TORSDOF 6
ENDMDL
