MODEL 1
REMARK VINA RESULT:    -4.952      0.000      0.000
REMARK INTER + INTRA:          -5.924
REMARK INTER:                  -5.821
REMARK INTRA:                  -0.104
REMARK UNBOUND:                -0.104
REMARK SMILES O=c1c(O)c(-c2ccc(O)cc2)oc2cc(O)cc(O)c12
REMARK SMILES IDX 5 1 3 2 2 3 1 4 21 5 19 6 18 7 16 8 15 9 14 10 13 11 6 12
REMARK SMILES IDX 7 13 8 14 9 15 12 16 11 17 10 18 4 20 20 22 17 24
REMARK H PARENT 10 19 4 21 20 23 17 25
REMARK Flexibility Score: inf
ROOT
ATOM      1  C   UNL     1      19.070  25.286  53.111  1.00  0.00     0.180 A 
ATOM      2  C   UNL     1      17.702  25.249  53.433  1.00  0.00     0.208 A 
ATOM      3  C   UNL     1      17.108  26.383  54.009  1.00  0.00     0.238 A 
ATOM      4  O   UNL     1      15.896  26.326  54.345  1.00  0.00    -0.285 OA
ATOM      5  C   UNL     1      17.883  27.545  54.241  1.00  0.00     0.111 A 
ATOM      6  C   UNL     1      17.376  28.764  54.782  1.00  0.00     0.134 A 
ATOM      7  C   UNL     1      18.262  29.804  55.090  1.00  0.00     0.093 A 
ATOM      8  C   UNL     1      19.624  29.696  54.816  1.00  0.00     0.123 A 
ATOM      9  C   UNL     1      20.122  28.530  54.232  1.00  0.00     0.094 A 
ATOM     10  C   UNL     1      19.270  27.461  53.947  1.00  0.00     0.146 A 
ATOM     11  O   UNL     1      19.786  26.366  53.402  1.00  0.00    -0.452 OA
ENDROOT
BRANCH   1  12
ATOM     12  C   UNL     1      19.761  24.139  52.479  1.00  0.00     0.021 A 
ATOM     13  C   UNL     1      20.350  24.248  51.205  1.00  0.00     0.016 A 
ATOM     14  C   UNL     1      21.018  23.158  50.640  1.00  0.00     0.047 A 
ATOM     15  C   UNL     1      21.120  21.953  51.341  1.00  0.00     0.115 A 
ATOM     16  C   UNL     1      19.885  22.931  53.187  1.00  0.00     0.016 A 
ATOM     17  C   UNL     1      20.554  21.843  52.618  1.00  0.00     0.047 A 
BRANCH  15  18
ATOM     18  O   UNL     1      21.787  20.875  50.764  1.00  0.00    -0.508 OA
ATOM     19  H   UNL     1      22.691  20.988  50.320  1.00  0.00     0.293 HD
ENDBRANCH  15  18
ENDBRANCH   1  12
BRANCH   2  20
ATOM     20  O   UNL     1      16.960  24.085  53.216  1.00  0.00    -0.502 OA
ATOM     21  H   UNL     1      17.185  23.426  52.480  1.00  0.00     0.293 HD
ENDBRANCH   2  20
BRANCH   6  22
ATOM     22  O   UNL     1      16.019  29.013  55.008  1.00  0.00    -0.507 OA
ATOM     23  H   UNL     1      15.656  29.581  55.758  1.00  0.00     0.293 HD
ENDBRANCH   6  22
BRANCH   8  24
ATOM     24  O   UNL     1      20.473  30.757  55.121  1.00  0.00    -0.508 OA
ATOM     25  H   UNL     1      20.744  30.961  56.077  1.00  0.00     0.293 HD
ENDBRANCH   8  24
TORSDOF 5
ENDMDL
MODEL 2
REMARK VINA RESULT:    -4.482      1.320      6.467
REMARK INTER + INTRA:          -5.372
REMARK INTER:                  -5.820
REMARK INTRA:                   0.448
REMARK UNBOUND:                -0.104
REMARK SMILES O=c1c(O)c(-c2ccc(O)cc2)oc2cc(O)cc(O)c12
REMARK SMILES IDX 5 1 3 2 2 3 1 4 21 5 19 6 18 7 16 8 15 9 14 10 13 11 6 12
REMARK SMILES IDX 7 13 8 14 9 15 12 16 11 17 10 18 4 20 20 22 17 24
REMARK H PARENT 10 19 4 21 20 23 17 25
REMARK Flexibility Score: inf
ROOT
ATOM      1  C   UNL     1      18.781  25.653  53.358  1.00  0.00     0.180 A 
ATOM      2  C   UNL     1      17.457  25.182  53.400  1.00  0.00     0.208 A 
ATOM      3  C   UNL     1      17.189  23.869  52.982  1.00  0.00     0.238 A 
ATOM      4  O   UNL     1      15.995  23.470  52.971  1.00  0.00    -0.285 OA
ATOM      5  C   UNL     1      18.248  23.037  52.544  1.00  0.00     0.111 A 
ATOM      6  C   UNL     1      18.096  21.678  52.138  1.00  0.00     0.134 A 
ATOM      7  C   UNL     1      19.192  20.993  51.599  1.00  0.00     0.093 A 
ATOM      8  C   UNL     1      20.447  21.593  51.514  1.00  0.00     0.123 A 
ATOM      9  C   UNL     1      20.620  22.903  51.964  1.00  0.00     0.094 A 
ATOM     10  C   UNL     1      19.538  23.625  52.472  1.00  0.00     0.146 A 
ATOM     11  O   UNL     1      19.742  24.872  52.880  1.00  0.00    -0.452 OA
ENDROOT
BRANCH   1  12
ATOM     12  C   UNL     1      19.146  27.017  53.805  1.00  0.00     0.021 A 
ATOM     13  C   UNL     1      18.247  27.815  54.535  1.00  0.00     0.016 A 
ATOM     14  C   UNL     1      18.623  29.090  54.968  1.00  0.00     0.047 A 
ATOM     15  C   UNL     1      19.903  29.579  54.689  1.00  0.00     0.115 A 
ATOM     16  C   UNL     1      20.439  27.506  53.547  1.00  0.00     0.016 A 
ATOM     17  C   UNL     1      20.811  28.782  53.980  1.00  0.00     0.047 A 
BRANCH  15  18
ATOM     18  O   UNL     1      20.264  30.852  55.125  1.00  0.00    -0.508 OA
ATOM     19  H   UNL     1      20.807  30.989  55.969  1.00  0.00     0.293 HD
ENDBRANCH  15  18
ENDBRANCH   1  12
BRANCH   2  20
ATOM     20  O   UNL     1      16.424  26.026  53.815  1.00  0.00    -0.502 OA
ATOM     21  H   UNL     1      16.492  27.036  53.763  1.00  0.00     0.293 HD
ENDBRANCH   2  20
BRANCH   6  22
ATOM     22  O   UNL     1      16.908  20.952  52.266  1.00  0.00    -0.507 OA
ATOM     23  H   UNL     1      16.006  21.357  52.467  1.00  0.00     0.293 HD
ENDBRANCH   6  22
BRANCH   8  24
ATOM     24  O   UNL     1      21.519  20.875  50.987  1.00  0.00    -0.508 OA
ATOM     25  H   UNL     1      21.467  20.442  50.072  1.00  0.00     0.293 HD
ENDBRANCH   8  24
TORSDOF 5
ENDMDL
MODEL 3
REMARK VINA RESULT:    -4.322      1.816      6.911
REMARK INTER + INTRA:          -5.184
REMARK INTER:                  -4.931
REMARK INTRA:                  -0.253
REMARK UNBOUND:                -0.104
REMARK SMILES O=c1c(O)c(-c2ccc(O)cc2)oc2cc(O)cc(O)c12
REMARK SMILES IDX 5 1 3 2 2 3 1 4 21 5 19 6 18 7 16 8 15 9 14 10 13 11 6 12
REMARK SMILES IDX 7 13 8 14 9 15 12 16 11 17 10 18 4 20 20 22 17 24
REMARK H PARENT 10 19 4 21 20 23 17 25
REMARK Flexibility Score: inf
ROOT
ATOM      1  C   UNL     1      18.903  26.545  53.380  1.00  0.00     0.180 A 
ATOM      2  C   UNL     1      19.702  26.587  52.224  1.00  0.00     0.208 A 
ATOM      3  C   UNL     1      20.370  25.422  51.815  1.00  0.00     0.238 A 
ATOM      4  O   UNL     1      21.126  25.479  50.810  1.00  0.00    -0.285 OA
ATOM      5  C   UNL     1      20.217  24.225  52.556  1.00  0.00     0.111 A 
ATOM      6  C   UNL     1      20.814  22.976  52.211  1.00  0.00     0.134 A 
ATOM      7  C   UNL     1      20.702  21.891  53.089  1.00  0.00     0.093 A 
ATOM      8  C   UNL     1      19.961  21.989  54.265  1.00  0.00     0.123 A 
ATOM      9  C   UNL     1      19.323  23.189  54.584  1.00  0.00     0.094 A 
ATOM     10  C   UNL     1      19.447  24.300  53.746  1.00  0.00     0.146 A 
ATOM     11  O   UNL     1      18.834  25.426  54.091  1.00  0.00    -0.452 OA
ENDROOT
BRANCH   1  12
ATOM     12  C   UNL     1      18.150  27.726  53.860  1.00  0.00     0.021 A 
ATOM     13  C   UNL     1      18.784  28.763  54.569  1.00  0.00     0.016 A 
ATOM     14  C   UNL     1      18.056  29.880  54.990  1.00  0.00     0.047 A 
ATOM     15  C   UNL     1      16.692  29.983  54.698  1.00  0.00     0.115 A 
ATOM     16  C   UNL     1      16.783  27.846  53.551  1.00  0.00     0.016 A 
ATOM     17  C   UNL     1      16.058  28.964  53.974  1.00  0.00     0.047 A 
BRANCH  15  18
ATOM     18  O   UNL     1      15.980  31.101  55.125  1.00  0.00    -0.508 OA
ATOM     19  H   UNL     1      15.077  31.336  54.730  1.00  0.00     0.293 HD
ENDBRANCH  15  18
ENDBRANCH   1  12
BRANCH   2  20
ATOM     20  O   UNL     1      19.856  27.784  51.519  1.00  0.00    -0.502 OA
ATOM     21  H   UNL     1      20.766  28.172  51.299  1.00  0.00     0.293 HD
ENDBRANCH   2  20
BRANCH   6  22
ATOM     22  O   UNL     1      21.498  22.742  51.014  1.00  0.00    -0.507 OA
ATOM     23  H   UNL     1      22.498  22.819  50.899  1.00  0.00     0.293 HD
ENDBRANCH   6  22
BRANCH   8  24
ATOM     24  O   UNL     1      19.857  20.884  55.107  1.00  0.00    -0.508 OA
ATOM     25  H   UNL     1      19.396  20.033  54.809  1.00  0.00     0.293 HD
ENDBRANCH   8  24
TORSDOF 5
ENDMDL
MODEL 4
REMARK VINA RESULT:    -4.036      1.976      6.761
REMARK INTER + INTRA:          -4.847
REMARK INTER:                  -5.197
REMARK INTRA:                   0.350
REMARK UNBOUND:                -0.104
REMARK SMILES O=c1c(O)c(-c2ccc(O)cc2)oc2cc(O)cc(O)c12
REMARK SMILES IDX 5 1 3 2 2 3 1 4 21 5 19 6 18 7 16 8 15 9 14 10 13 11 6 12
REMARK SMILES IDX 7 13 8 14 9 15 12 16 11 17 10 18 4 20 20 22 17 24
REMARK H PARENT 10 19 4 21 20 23 17 25
REMARK Flexibility Score: inf
ROOT
ATOM      1  C   UNL     1      19.530  25.513  53.102  1.00  0.00     0.180 A 
ATOM      2  C   UNL     1      20.301  24.981  52.054  1.00  0.00     0.208 A 
ATOM      3  C   UNL     1      20.002  23.696  51.574  1.00  0.00     0.238 A 
ATOM      4  O   UNL     1      20.730  23.203  50.672  1.00  0.00    -0.285 OA
ATOM      5  C   UNL     1      18.927  22.965  52.135  1.00  0.00     0.111 A 
ATOM      6  C   UNL     1      18.510  21.673  51.698  1.00  0.00     0.134 A 
ATOM      7  C   UNL     1      17.518  20.990  52.413  1.00  0.00     0.093 A 
ATOM      8  C   UNL     1      16.882  21.578  53.505  1.00  0.00     0.123 A 
ATOM      9  C   UNL     1      17.241  22.866  53.904  1.00  0.00     0.094 A 
ATOM     10  C   UNL     1      18.252  23.558  53.234  1.00  0.00     0.146 A 
ATOM     11  O   UNL     1      18.572  24.778  53.652  1.00  0.00    -0.452 OA
ENDROOT
BRANCH   1  12
ATOM     12  C   UNL     1      19.769  26.870  53.645  1.00  0.00     0.021 A 
ATOM     13  C   UNL     1      21.037  27.476  53.573  1.00  0.00     0.016 A 
ATOM     14  C   UNL     1      21.232  28.768  54.071  1.00  0.00     0.047 A 
ATOM     15  C   UNL     1      20.164  29.475  54.632  1.00  0.00     0.115 A 
ATOM     16  C   UNL     1      18.696  27.595  54.192  1.00  0.00     0.016 A 
ATOM     17  C   UNL     1      18.894  28.886  54.688  1.00  0.00     0.047 A 
BRANCH  15  18
ATOM     18  O   UNL     1      20.374  30.761  55.125  1.00  0.00    -0.508 OA
ATOM     19  H   UNL     1      20.002  31.577  54.652  1.00  0.00     0.293 HD
ENDBRANCH  15  18
ENDBRANCH   1  12
BRANCH   2  20
ATOM     20  O   UNL     1      21.372  25.709  51.529  1.00  0.00    -0.502 OA
ATOM     21  H   UNL     1      22.000  25.327  50.832  1.00  0.00     0.293 HD
ENDBRANCH   2  20
BRANCH   6  22
ATOM     22  O   UNL     1      19.013  21.032  50.562  1.00  0.00    -0.507 OA
ATOM     23  H   UNL     1      18.970  21.404  49.626  1.00  0.00     0.293 HD
ENDBRANCH   6  22
BRANCH   8  24
ATOM     24  O   UNL     1      15.888  20.875  54.183  1.00  0.00    -0.508 OA
ATOM     25  H   UNL     1      15.710  19.895  53.994  1.00  0.00     0.293 HD
ENDBRANCH   8  24
TORSDOF 5
ENDMDL
MODEL 5
REMARK VINA RESULT:    -3.733      1.270      3.089
REMARK INTER + INTRA:          -4.491
REMARK INTER:                  -4.243
REMARK INTRA:                  -0.249
REMARK UNBOUND:                -0.104
REMARK SMILES O=c1c(O)c(-c2ccc(O)cc2)oc2cc(O)cc(O)c12
REMARK SMILES IDX 5 1 3 2 2 3 1 4 21 5 19 6 18 7 16 8 15 9 14 10 13 11 6 12
REMARK SMILES IDX 7 13 8 14 9 15 12 16 11 17 10 18 4 20 20 22 17 24
REMARK H PARENT 10 19 4 21 20 23 17 25
REMARK Flexibility Score: inf
ROOT
ATOM      1  C   UNL     1      20.401  25.983  52.755  1.00  0.00     0.180 A 
ATOM      2  C   UNL     1      21.446  26.913  52.897  1.00  0.00     0.208 A 
ATOM      3  C   UNL     1      21.183  28.139  53.528  1.00  0.00     0.238 A 
ATOM      4  O   UNL     1      22.108  28.990  53.605  1.00  0.00    -0.285 OA
ATOM      5  C   UNL     1      19.886  28.415  54.024  1.00  0.00     0.111 A 
ATOM      6  C   UNL     1      19.519  29.607  54.716  1.00  0.00     0.134 A 
ATOM      7  C   UNL     1      18.176  29.828  55.045  1.00  0.00     0.093 A 
ATOM      8  C   UNL     1      17.199  28.873  54.768  1.00  0.00     0.123 A 
ATOM      9  C   UNL     1      17.557  27.677  54.145  1.00  0.00     0.094 A 
ATOM     10  C   UNL     1      18.882  27.443  53.771  1.00  0.00     0.146 A 
ATOM     11  O   UNL     1      19.180  26.297  53.170  1.00  0.00    -0.452 OA
ENDROOT
BRANCH   1  12
ATOM     12  C   UNL     1      20.606  24.659  52.123  1.00  0.00     0.021 A 
ATOM     13  C   UNL     1      20.686  24.518  50.725  1.00  0.00     0.016 A 
ATOM     14  C   UNL     1      20.904  23.261  50.153  1.00  0.00     0.047 A 
ATOM     15  C   UNL     1      21.059  22.134  50.966  1.00  0.00     0.115 A 
ATOM     16  C   UNL     1      20.783  23.526  52.935  1.00  0.00     0.016 A 
ATOM     17  C   UNL     1      21.001  22.271  52.360  1.00  0.00     0.047 A 
BRANCH  15  18
ATOM     18  O   UNL     1      21.275  20.889  50.382  1.00  0.00    -0.508 OA
ATOM     19  H   UNL     1      20.508  20.330  50.027  1.00  0.00     0.293 HD
ENDBRANCH  15  18
ENDBRANCH   1  12
BRANCH   2  20
ATOM     20  O   UNL     1      22.713  26.631  52.381  1.00  0.00    -0.502 OA
ATOM     21  H   UNL     1      23.273  25.852  52.709  1.00  0.00     0.293 HD
ENDBRANCH   2  20
BRANCH   6  22
ATOM     22  O   UNL     1      20.430  30.585  55.125  1.00  0.00    -0.507 OA
ATOM     23  H   UNL     1      21.263  30.843  54.617  1.00  0.00     0.293 HD
ENDBRANCH   6  22
BRANCH   8  24
ATOM     24  O   UNL     1      15.875  29.120  55.125  1.00  0.00    -0.508 OA
ATOM     25  H   UNL     1      15.594  29.201  56.095  1.00  0.00     0.293 HD
ENDBRANCH   8  24
TORSDOF 5
ENDMDL
MODEL 6
REMARK VINA RESULT:    -3.185      1.539      6.594
REMARK INTER + INTRA:          -3.847
REMARK INTER:                  -3.846
REMARK INTRA:                  -0.002
REMARK UNBOUND:                -0.104
REMARK SMILES O=c1c(O)c(-c2ccc(O)cc2)oc2cc(O)cc(O)c12
REMARK SMILES IDX 5 1 3 2 2 3 1 4 21 5 19 6 18 7 16 8 15 9 14 10 13 11 6 12
REMARK SMILES IDX 7 13 8 14 9 15 12 16 11 17 10 18 4 20 20 22 17 24
REMARK H PARENT 10 19 4 21 20 23 17 25
REMARK Flexibility Score: inf
ROOT
ATOM      1  C   UNL     1      17.856  25.967  53.876  1.00  0.00     0.180 A 
ATOM      2  C   UNL     1      17.088  24.888  54.348  1.00  0.00     0.208 A 
ATOM      3  C   UNL     1      17.461  23.581  53.994  1.00  0.00     0.238 A 
ATOM      4  O   UNL     1      16.740  22.623  54.375  1.00  0.00    -0.285 OA
ATOM      5  C   UNL     1      18.605  23.368  53.187  1.00  0.00     0.111 A 
ATOM      6  C   UNL     1      19.098  22.086  52.801  1.00  0.00     0.134 A 
ATOM      7  C   UNL     1      20.160  22.000  51.893  1.00  0.00     0.093 A 
ATOM      8  C   UNL     1      20.790  23.145  51.409  1.00  0.00     0.123 A 
ATOM      9  C   UNL     1      20.354  24.404  51.827  1.00  0.00     0.094 A 
ATOM     10  C   UNL     1      19.274  24.523  52.703  1.00  0.00     0.146 A 
ATOM     11  O   UNL     1      18.883  25.740  53.066  1.00  0.00    -0.452 OA
ENDROOT
BRANCH   1  12
ATOM     12  C   UNL     1      17.540  27.371  54.227  1.00  0.00     0.021 A 
ATOM     13  C   UNL     1      18.507  28.221  54.794  1.00  0.00     0.016 A 
ATOM     14  C   UNL     1      18.192  29.550  55.094  1.00  0.00     0.047 A 
ATOM     15  C   UNL     1      16.915  30.050  54.819  1.00  0.00     0.115 A 
ATOM     16  C   UNL     1      16.265  27.886  53.934  1.00  0.00     0.016 A 
ATOM     17  C   UNL     1      15.953  29.215  54.235  1.00  0.00     0.047 A 
BRANCH  15  18
ATOM     18  O   UNL     1      16.615  31.375  55.124  1.00  0.00    -0.508 OA
ATOM     19  H   UNL     1      15.822  31.848  54.708  1.00  0.00     0.293 HD
ENDBRANCH  15  18
ENDBRANCH   1  12
BRANCH   2  20
ATOM     20  O   UNL     1      15.951  25.121  55.125  1.00  0.00    -0.502 OA
ATOM     21  H   UNL     1      15.014  24.921  54.792  1.00  0.00     0.293 HD
ENDBRANCH   2  20
BRANCH   6  22
ATOM     22  O   UNL     1      18.602  20.877  53.298  1.00  0.00    -0.507 OA
ATOM     23  H   UNL     1      17.753  20.782  53.835  1.00  0.00     0.293 HD
ENDBRANCH   6  22
BRANCH   8  24
ATOM     24  O   UNL     1      21.855  23.020  50.519  1.00  0.00    -0.508 OA
ATOM     25  H   UNL     1      21.770  22.484  49.664  1.00  0.00     0.293 HD
ENDBRANCH   8  24
TORSDOF 5
ENDMDL
MODEL 7
REMARK VINA RESULT:    -3.057     18.380     21.781
REMARK INTER + INTRA:          -3.697
REMARK INTER:                  -3.598
REMARK INTRA:                  -0.099
REMARK UNBOUND:                -0.104
REMARK SMILES O=c1c(O)c(-c2ccc(O)cc2)oc2cc(O)cc(O)c12
REMARK SMILES IDX 5 1 3 2 2 3 1 4 21 5 19 6 18 7 16 8 15 9 14 10 13 11 6 12
REMARK SMILES IDX 7 13 8 14 9 15 12 16 11 17 10 18 4 20 20 22 17 24
REMARK H PARENT 10 19 4 21 20 23 17 25
REMARK Flexibility Score: inf
ROOT
ATOM      1  C   UNL     1      33.168  24.616  37.860  1.00  0.00     0.180 A 
ATOM      2  C   UNL     1      34.452  24.410  37.325  1.00  0.00     0.208 A 
ATOM      3  C   UNL     1      34.998  25.383  36.474  1.00  0.00     0.238 A 
ATOM      4  O   UNL     1      36.125  25.168  35.955  1.00  0.00    -0.285 OA
ATOM      5  C   UNL     1      34.263  26.557  36.181  1.00  0.00     0.111 A 
ATOM      6  C   UNL     1      34.736  27.627  35.363  1.00  0.00     0.134 A 
ATOM      7  C   UNL     1      33.872  28.679  35.035  1.00  0.00     0.093 A 
ATOM      8  C   UNL     1      32.577  28.734  35.547  1.00  0.00     0.123 A 
ATOM      9  C   UNL     1      32.124  27.723  36.396  1.00  0.00     0.094 A 
ATOM     10  C   UNL     1      32.950  26.642  36.712  1.00  0.00     0.146 A 
ATOM     11  O   UNL     1      32.477  25.695  37.514  1.00  0.00    -0.452 OA
ENDROOT
BRANCH   1  12
ATOM     12  C   UNL     1      32.536  23.647  38.785  1.00  0.00     0.021 A 
ATOM     13  C   UNL     1      32.254  22.328  38.385  1.00  0.00     0.016 A 
ATOM     14  C   UNL     1      31.679  21.424  39.284  1.00  0.00     0.047 A 
ATOM     15  C   UNL     1      31.391  21.821  40.593  1.00  0.00     0.115 A 
ATOM     16  C   UNL     1      32.262  24.033  40.109  1.00  0.00     0.016 A 
ATOM     17  C   UNL     1      31.687  23.127  41.005  1.00  0.00     0.047 A 
BRANCH  15  18
ATOM     18  O   UNL     1      30.817  20.910  41.477  1.00  0.00    -0.508 OA
ATOM     19  H   UNL     1      31.296  20.060  41.747  1.00  0.00     0.293 HD
ENDBRANCH  15  18
ENDBRANCH   1  12
BRANCH   2  20
ATOM     20  O   UNL     1      35.151  23.234  37.610  1.00  0.00    -0.502 OA
ATOM     21  H   UNL     1      35.843  23.178  38.348  1.00  0.00     0.293 HD
ENDBRANCH   2  20
BRANCH   6  22
ATOM     22  O   UNL     1      36.043  27.718  34.875  1.00  0.00    -0.507 OA
ATOM     23  H   UNL     1      36.666  26.934  34.751  1.00  0.00     0.293 HD
ENDBRANCH   6  22
BRANCH   8  24
ATOM     24  O   UNL     1      31.750  29.804  35.212  1.00  0.00    -0.508 OA
ATOM     25  H   UNL     1      32.117  30.743  35.102  1.00  0.00     0.293 HD
ENDBRANCH   8  24
TORSDOF 5
ENDMDL
MODEL 8
REMARK VINA RESULT:    -2.997     18.373     21.745
REMARK INTER + INTRA:          -3.626
REMARK INTER:                  -4.130
REMARK INTRA:                   0.504
REMARK UNBOUND:                -0.104
REMARK SMILES O=c1c(O)c(-c2ccc(O)cc2)oc2cc(O)cc(O)c12
REMARK SMILES IDX 5 1 3 2 2 3 1 4 21 5 19 6 18 7 16 8 15 9 14 10 13 11 6 12
REMARK SMILES IDX 7 13 8 14 9 15 12 16 11 17 10 18 4 20 20 22 17 24
REMARK H PARENT 10 19 4 21 20 23 17 25
REMARK Flexibility Score: inf
ROOT
ATOM      1  C   UNL     1      33.391  25.255  37.782  1.00  0.00     0.180 A 
ATOM      2  C   UNL     1      34.662  24.675  37.625  1.00  0.00     0.208 A 
ATOM      3  C   UNL     1      34.968  23.504  38.337  1.00  0.00     0.238 A 
ATOM      4  O   UNL     1      36.125  23.019  38.234  1.00  0.00    -0.285 OA
ATOM      5  C   UNL     1      33.995  22.918  39.183  1.00  0.00     0.111 A 
ATOM      6  C   UNL     1      34.184  21.711  39.920  1.00  0.00     0.134 A 
ATOM      7  C   UNL     1      33.201  21.296  40.827  1.00  0.00     0.093 A 
ATOM      8  C   UNL     1      32.010  22.006  40.976  1.00  0.00     0.123 A 
ATOM      9  C   UNL     1      31.791  23.156  40.215  1.00  0.00     0.094 A 
ATOM     10  C   UNL     1      32.767  23.615  39.330  1.00  0.00     0.146 A 
ATOM     11  O   UNL     1      32.524  24.720  38.633  1.00  0.00    -0.452 OA
ENDROOT
BRANCH   1  12
ATOM     12  C   UNL     1      32.986  26.474  37.046  1.00  0.00     0.021 A 
ATOM     13  C   UNL     1      33.879  27.146  36.190  1.00  0.00     0.016 A 
ATOM     14  C   UNL     1      33.466  28.281  35.487  1.00  0.00     0.047 A 
ATOM     15  C   UNL     1      32.156  28.753  35.618  1.00  0.00     0.115 A 
ATOM     16  C   UNL     1      31.665  26.942  37.156  1.00  0.00     0.016 A 
ATOM     17  C   UNL     1      31.255  28.078  36.452  1.00  0.00     0.047 A 
BRANCH  15  18
ATOM     18  O   UNL     1      31.759  29.886  34.913  1.00  0.00    -0.508 OA
ATOM     19  H   UNL     1      30.985  29.860  34.259  1.00  0.00     0.293 HD
ENDBRANCH  15  18
ENDBRANCH   1  12
BRANCH   2  20
ATOM     20  O   UNL     1      35.614  25.281  36.802  1.00  0.00    -0.502 OA
ATOM     21  H   UNL     1      36.039  24.800  36.017  1.00  0.00     0.293 HD
ENDBRANCH   2  20
BRANCH   6  22
ATOM     22  O   UNL     1      35.295  20.875  39.779  1.00  0.00    -0.507 OA
ATOM     23  H   UNL     1      36.255  21.185  39.807  1.00  0.00     0.293 HD
ENDBRANCH   6  22
BRANCH   8  24
ATOM     24  O   UNL     1      31.047  21.555  41.876  1.00  0.00    -0.508 OA
ATOM     25  H   UNL     1      30.859  20.566  41.997  1.00  0.00     0.293 HD
ENDBRANCH   8  24
TORSDOF 5
ENDMDL
