MODEL 1
REMARK VINA RESULT:    -2.899      0.000      0.000
REMARK INTER + INTRA:          -3.678
REMARK INTER:                  -3.407
REMARK INTRA:                  -0.271
REMARK UNBOUND:                -0.271
REMARK SMILES O=c1cc(-c2ccc(O)c(O)c2)oc2cc(O)cc(O)c12
REMARK SMILES IDX 4 1 3 2 2 3 1 4 21 5 19 6 18 7 16 8 15 9 14 10 13 11 5 12
REMARK SMILES IDX 6 13 7 14 8 15 12 16 10 17 9 18 11 20 20 22 17 24
REMARK H PARENT 9 19 11 21 20 23 17 25
REMARK Flexibility Score: inf
ROOT
ATOM      1  C   UNL     1      54.922  67.950  57.884  1.00  0.00     0.138 A 
ATOM      2  C   UNL     1      55.832  68.532  56.990  1.00  0.00     0.100 A 
ATOM      3  C   UNL     1      56.656  67.713  56.216  1.00  0.00     0.197 A 
ATOM      4  O   UNL     1      57.506  68.265  55.468  1.00  0.00    -0.289 OA
ATOM      5  C   UNL     1      56.546  66.307  56.315  1.00  0.00     0.107 A 
ATOM      6  C   UNL     1      57.306  65.375  55.546  1.00  0.00     0.134 A 
ATOM      7  C   UNL     1      57.193  64.005  55.815  1.00  0.00     0.093 A 
ATOM      8  C   UNL     1      56.305  63.530  56.782  1.00  0.00     0.123 A 
ATOM      9  C   UNL     1      55.519  64.429  57.501  1.00  0.00     0.094 A 
ATOM     10  C   UNL     1      55.633  65.804  57.281  1.00  0.00     0.146 A 
ATOM     11  O   UNL     1      54.877  66.627  57.998  1.00  0.00    -0.456 OA
ENDROOT
BRANCH   1  12
ATOM     12  C   UNL     1      54.021  68.772  58.730  1.00  0.00     0.021 A 
ATOM     13  C   UNL     1      54.569  69.574  59.747  1.00  0.00     0.016 A 
ATOM     14  C   UNL     1      53.743  70.351  60.562  1.00  0.00     0.051 A 
ATOM     15  C   UNL     1      52.357  70.336  60.384  1.00  0.00     0.157 A 
ATOM     16  C   UNL     1      52.623  68.751  58.563  1.00  0.00     0.062 A 
ATOM     17  C   UNL     1      51.792  69.530  59.382  1.00  0.00     0.158 A 
BRANCH  15  18
ATOM     18  O   UNL     1      51.558  71.124  61.212  1.00  0.00    -0.504 OA
ATOM     19  H   UNL     1      51.839  71.374  62.152  1.00  0.00     0.293 HD
ENDBRANCH  15  18
BRANCH  17  20
ATOM     20  O   UNL     1      50.409  69.502  59.207  1.00  0.00    -0.504 OA
ATOM     21  H   UNL     1      49.923  70.232  58.699  1.00  0.00     0.293 HD
ENDBRANCH  17  20
ENDBRANCH   1  12
BRANCH   6  22
ATOM     22  O   UNL     1      58.157  65.738  54.499  1.00  0.00    -0.507 OA
ATOM     23  H   UNL     1      58.955  65.203  54.192  1.00  0.00     0.293 HD
ENDBRANCH   6  22
BRANCH   8  24
ATOM     24  O   UNL     1      56.190  62.164  57.032  1.00  0.00    -0.508 OA
ATOM     25  H   UNL     1      56.128  61.491  56.277  1.00  0.00     0.293 HD
ENDBRANCH   8  24
TORSDOF 5
ENDMDL
MODEL 2
REMARK VINA RESULT:    -2.516      2.946      6.335
REMARK INTER + INTRA:          -3.229
REMARK INTER:                  -2.964
REMARK INTRA:                  -0.265
REMARK UNBOUND:                -0.271
REMARK SMILES O=c1cc(-c2ccc(O)c(O)c2)oc2cc(O)cc(O)c12
REMARK SMILES IDX 4 1 3 2 2 3 1 4 21 5 19 6 18 7 16 8 15 9 14 10 13 11 5 12
REMARK SMILES IDX 6 13 7 14 8 15 12 16 10 17 9 18 11 20 20 22 17 24
REMARK H PARENT 9 19 11 21 20 23 17 25
REMARK Flexibility Score: inf
ROOT
ATOM      1  C   UNL     1      57.421  67.748  55.480  1.00  0.00     0.138 A 
ATOM      2  C   UNL     1      56.481  68.253  56.390  1.00  0.00     0.100 A 
ATOM      3  C   UNL     1      55.695  67.368  57.130  1.00  0.00     0.197 A 
ATOM      4  O   UNL     1      54.818  67.851  57.893  1.00  0.00    -0.289 OA
ATOM      5  C   UNL     1      55.873  65.973  56.980  1.00  0.00     0.107 A 
ATOM      6  C   UNL     1      55.157  64.978  57.711  1.00  0.00     0.134 A 
ATOM      7  C   UNL     1      55.336  63.626  57.394  1.00  0.00     0.093 A 
ATOM      8  C   UNL     1      56.249  63.230  56.415  1.00  0.00     0.123 A 
ATOM      9  C   UNL     1      56.993  64.191  55.733  1.00  0.00     0.094 A 
ATOM     10  C   UNL     1      56.813  65.550  56.002  1.00  0.00     0.146 A 
ATOM     11  O   UNL     1      57.530  66.434  55.318  1.00  0.00    -0.456 OA
ENDROOT
BRANCH   1  12
ATOM     12  C   UNL     1      58.284  68.643  54.669  1.00  0.00     0.021 A 
ATOM     13  C   UNL     1      58.098  68.706  53.276  1.00  0.00     0.016 A 
ATOM     14  C   UNL     1      58.902  69.535  52.490  1.00  0.00     0.051 A 
ATOM     15  C   UNL     1      59.910  70.306  53.074  1.00  0.00     0.157 A 
ATOM     16  C   UNL     1      59.310  69.412  55.251  1.00  0.00     0.062 A 
ATOM     17  C   UNL     1      60.118  70.243  54.462  1.00  0.00     0.158 A 
BRANCH  15  18
ATOM     18  O   UNL     1      60.695  71.125  52.263  1.00  0.00    -0.504 OA
ATOM     19  H   UNL     1      61.152  71.955  52.618  1.00  0.00     0.293 HD
ENDBRANCH  15  18
BRANCH  17  20
ATOM     20  O   UNL     1      61.130  71.002  55.050  1.00  0.00    -0.504 OA
ATOM     21  H   UNL     1      61.279  71.972  54.800  1.00  0.00     0.293 HD
ENDBRANCH  17  20
ENDBRANCH   1  12
BRANCH   6  22
ATOM     22  O   UNL     1      54.285  65.262  58.767  1.00  0.00    -0.507 OA
ATOM     23  H   UNL     1      53.503  64.688  59.039  1.00  0.00     0.293 HD
ENDBRANCH   6  22
BRANCH   8  24
ATOM     24  O   UNL     1      56.431  61.881  56.117  1.00  0.00    -0.508 OA
ATOM     25  H   UNL     1      55.706  61.335  55.666  1.00  0.00     0.293 HD
ENDBRANCH   8  24
TORSDOF 5
ENDMDL
MODEL 3
REMARK VINA RESULT:    -2.131      2.345      8.049
REMARK INTER + INTRA:          -2.775
REMARK INTER:                  -2.511
REMARK INTRA:                  -0.264
REMARK UNBOUND:                -0.271
REMARK SMILES O=c1cc(-c2ccc(O)c(O)c2)oc2cc(O)cc(O)c12
REMARK SMILES IDX 4 1 3 2 2 3 1 4 21 5 19 6 18 7 16 8 15 9 14 10 13 11 5 12
REMARK SMILES IDX 6 13 7 14 8 15 12 16 10 17 9 18 11 20 20 22 17 24
REMARK H PARENT 9 19 11 21 20 23 17 25
REMARK Flexibility Score: inf
ROOT
ATOM      1  C   UNL     1      53.352  69.694  60.106  1.00  0.00     0.138 A 
ATOM      2  C   UNL     1      53.913  70.009  61.352  1.00  0.00     0.100 A 
ATOM      3  C   UNL     1      53.086  70.439  62.391  1.00  0.00     0.197 A 
ATOM      4  O   UNL     1      53.625  70.773  63.479  1.00  0.00    -0.289 OA
ATOM      5  C   UNL     1      51.689  70.526  62.190  1.00  0.00     0.107 A 
ATOM      6  C   UNL     1      50.746  70.913  63.188  1.00  0.00     0.134 A 
ATOM      7  C   UNL     1      49.399  71.075  62.840  1.00  0.00     0.093 A 
ATOM      8  C   UNL     1      48.952  70.804  61.544  1.00  0.00     0.123 A 
ATOM      9  C   UNL     1      49.856  70.373  60.576  1.00  0.00     0.094 A 
ATOM     10  C   UNL     1      51.212  70.235  60.883  1.00  0.00     0.146 A 
ATOM     11  O   UNL     1      52.043  69.837  59.927  1.00  0.00    -0.456 OA
ENDROOT
BRANCH   1  12
ATOM     12  C   UNL     1      54.184  69.230  58.968  1.00  0.00     0.021 A 
ATOM     13  C   UNL     1      54.395  70.086  57.872  1.00  0.00     0.016 A 
ATOM     14  C   UNL     1      55.168  69.671  56.785  1.00  0.00     0.051 A 
ATOM     15  C   UNL     1      55.734  68.394  56.766  1.00  0.00     0.157 A 
ATOM     16  C   UNL     1      54.746  67.940  58.938  1.00  0.00     0.062 A 
ATOM     17  C   UNL     1      55.521  67.521  57.846  1.00  0.00     0.158 A 
BRANCH  15  18
ATOM     18  O   UNL     1      56.503  68.008  55.668  1.00  0.00    -0.504 OA
ATOM     19  H   UNL     1      57.480  68.259  55.580  1.00  0.00     0.293 HD
ENDBRANCH  15  18
BRANCH  17  20
ATOM     20  O   UNL     1      56.075  66.242  57.828  1.00  0.00    -0.504 OA
ATOM     21  H   UNL     1      55.655  65.490  57.294  1.00  0.00     0.293 HD
ENDBRANCH  17  20
ENDBRANCH   1  12
BRANCH   6  22
ATOM     22  O   UNL     1      51.072  71.124  64.531  1.00  0.00    -0.507 OA
ATOM     23  H   UNL     1      52.011  71.207  64.890  1.00  0.00     0.293 HD
ENDBRANCH   6  22
BRANCH   8  24
ATOM     24  O   UNL     1      47.608  70.954  61.211  1.00  0.00    -0.508 OA
ATOM     25  H   UNL     1      47.230  71.846  60.915  1.00  0.00     0.293 HD
ENDBRANCH   8  24
TORSDOF 5
ENDMDL
MODEL 4
REMARK VINA RESULT:    -1.611      1.852      7.676
REMARK INTER + INTRA:          -2.164
REMARK INTER:                  -1.898
REMARK INTRA:                  -0.266
REMARK UNBOUND:                -0.271
REMARK SMILES O=c1cc(-c2ccc(O)c(O)c2)oc2cc(O)cc(O)c12
REMARK SMILES IDX 4 1 3 2 2 3 1 4 21 5 19 6 18 7 16 8 15 9 14 10 13 11 5 12
REMARK SMILES IDX 6 13 7 14 8 15 12 16 10 17 9 18 11 20 20 22 17 24
REMARK H PARENT 9 19 11 21 20 23 17 25
REMARK Flexibility Score: inf
ROOT
ATOM      1  C   UNL     1      53.560  69.191  59.187  1.00  0.00     0.138 A 
ATOM      2  C   UNL     1      52.209  69.304  58.828  1.00  0.00     0.100 A 
ATOM      3  C   UNL     1      51.290  69.806  59.752  1.00  0.00     0.197 A 
ATOM      4  O   UNL     1      50.076  69.838  59.422  1.00  0.00    -0.289 OA
ATOM      5  C   UNL     1      51.733  70.224  61.028  1.00  0.00     0.107 A 
ATOM      6  C   UNL     1      50.893  70.788  62.035  1.00  0.00     0.134 A 
ATOM      7  C   UNL     1      51.421  71.058  63.304  1.00  0.00     0.093 A 
ATOM      8  C   UNL     1      52.773  70.840  63.583  1.00  0.00     0.123 A 
ATOM      9  C   UNL     1      53.612  70.340  62.590  1.00  0.00     0.094 A 
ATOM     10  C   UNL     1      53.108  70.029  61.325  1.00  0.00     0.146 A 
ATOM     11  O   UNL     1      53.940  69.540  60.412  1.00  0.00    -0.456 OA
ENDROOT
BRANCH   1  12
ATOM     12  C   UNL     1      54.579  68.666  58.244  1.00  0.00     0.021 A 
ATOM     13  C   UNL     1      55.129  69.522  57.274  1.00  0.00     0.016 A 
ATOM     14  C   UNL     1      56.084  69.051  56.370  1.00  0.00     0.051 A 
ATOM     15  C   UNL     1      56.500  67.717  56.411  1.00  0.00     0.157 A 
ATOM     16  C   UNL     1      54.992  67.320  58.273  1.00  0.00     0.062 A 
ATOM     17  C   UNL     1      55.950  66.845  57.364  1.00  0.00     0.158 A 
BRANCH  15  18
ATOM     18  O   UNL     1      57.456  67.276  55.496  1.00  0.00    -0.504 OA
ATOM     19  H   UNL     1      57.286  67.276  54.498  1.00  0.00     0.293 HD
ENDBRANCH  15  18
BRANCH  17  20
ATOM     20  O   UNL     1      56.352  65.511  57.403  1.00  0.00    -0.504 OA
ATOM     21  H   UNL     1      55.679  64.754  57.435  1.00  0.00     0.293 HD
ENDBRANCH  17  20
ENDBRANCH   1  12
BRANCH   6  22
ATOM     22  O   UNL     1      49.551  71.125  61.834  1.00  0.00    -0.507 OA
ATOM     23  H   UNL     1      48.866  71.229  62.567  1.00  0.00     0.293 HD
ENDBRANCH   6  22
BRANCH   8  24
ATOM     24  O   UNL     1      53.292  71.125  64.844  1.00  0.00    -0.508 OA
ATOM     25  H   UNL     1      52.689  71.316  65.635  1.00  0.00     0.293 HD
ENDBRANCH   8  24
TORSDOF 5
ENDMDL
MODEL 5
REMARK VINA RESULT:    -1.443     14.348     17.498
REMARK INTER + INTRA:          -1.967
REMARK INTER:                  -1.703
REMARK INTRA:                  -0.264
REMARK UNBOUND:                -0.271
REMARK SMILES O=c1cc(-c2ccc(O)c(O)c2)oc2cc(O)cc(O)c12
REMARK SMILES IDX 4 1 3 2 2 3 1 4 21 5 19 6 18 7 16 8 15 9 14 10 13 11 5 12
REMARK SMILES IDX 6 13 7 14 8 15 12 16 10 17 9 18 11 20 20 22 17 24
REMARK H PARENT 9 19 11 21 20 23 17 25
REMARK Flexibility Score: inf
ROOT
ATOM      1  C   UNL     1      60.687  51.650  59.116  1.00  0.00     0.138 A 
ATOM      2  C   UNL     1      60.622  51.406  60.496  1.00  0.00     0.100 A 
ATOM      3  C   UNL     1      61.797  51.157  61.207  1.00  0.00     0.197 A 
ATOM      4  O   UNL     1      61.702  50.881  62.432  1.00  0.00    -0.289 OA
ATOM      5  C   UNL     1      63.044  51.184  60.540  1.00  0.00     0.107 A 
ATOM      6  C   UNL     1      64.309  50.985  61.170  1.00  0.00     0.134 A 
ATOM      7  C   UNL     1      65.468  50.919  60.387  1.00  0.00     0.093 A 
ATOM      8  C   UNL     1      65.414  51.104  59.004  1.00  0.00     0.123 A 
ATOM      9  C   UNL     1      64.191  51.352  58.385  1.00  0.00     0.094 A 
ATOM     10  C   UNL     1      63.012  51.391  59.134  1.00  0.00     0.146 A 
ATOM     11  O   UNL     1      61.865  51.615  58.504  1.00  0.00    -0.456 OA
ENDROOT
BRANCH   1  12
ATOM     12  C   UNL     1      59.469  51.922  58.312  1.00  0.00     0.021 A 
ATOM     13  C   UNL     1      58.997  50.942  57.421  1.00  0.00     0.016 A 
ATOM     14  C   UNL     1      57.858  51.175  56.647  1.00  0.00     0.051 A 
ATOM     15  C   UNL     1      57.177  52.392  56.739  1.00  0.00     0.157 A 
ATOM     16  C   UNL     1      58.787  53.150  58.392  1.00  0.00     0.062 A 
ATOM     17  C   UNL     1      57.643  53.386  57.613  1.00  0.00     0.158 A 
BRANCH  15  18
ATOM     18  O   UNL     1      56.041  52.595  55.955  1.00  0.00    -0.504 OA
ATOM     19  H   UNL     1      55.431  53.391  56.087  1.00  0.00     0.293 HD
ENDBRANCH  15  18
BRANCH  17  20
ATOM     20  O   UNL     1      56.974  54.606  57.702  1.00  0.00    -0.504 OA
ATOM     21  H   UNL     1      56.395  54.950  56.945  1.00  0.00     0.293 HD
ENDBRANCH  17  20
ENDBRANCH   1  12
BRANCH   6  22
ATOM     22  O   UNL     1      64.483  50.875  62.553  1.00  0.00    -0.507 OA
ATOM     23  H   UNL     1      65.109  51.443  63.103  1.00  0.00     0.293 HD
ENDBRANCH   6  22
BRANCH   8  24
ATOM     24  O   UNL     1      66.575  51.051  58.235  1.00  0.00    -0.508 OA
ATOM     25  H   UNL     1      67.141  50.211  58.186  1.00  0.00     0.293 HD
ENDBRANCH   8  24
TORSDOF 5
ENDMDL
MODEL 6
REMARK VINA RESULT:    -1.235     13.187     16.608
REMARK INTER + INTRA:          -1.722
REMARK INTER:                  -1.448
REMARK INTRA:                  -0.274
REMARK UNBOUND:                -0.271
REMARK SMILES O=c1cc(-c2ccc(O)c(O)c2)oc2cc(O)cc(O)c12
REMARK SMILES IDX 4 1 3 2 2 3 1 4 21 5 19 6 18 7 16 8 15 9 14 10 13 11 5 12
REMARK SMILES IDX 6 13 7 14 8 15 12 16 10 17 9 18 11 20 20 22 17 24
REMARK H PARENT 9 19 11 21 20 23 17 25
REMARK Flexibility Score: inf
ROOT
ATOM      1  C   UNL     1      52.440  52.642  53.273  1.00  0.00     0.138 A 
ATOM      2  C   UNL     1      51.100  52.550  53.679  1.00  0.00     0.100 A 
ATOM      3  C   UNL     1      50.137  52.095  52.776  1.00  0.00     0.197 A 
ATOM      4  O   UNL     1      48.935  52.081  53.149  1.00  0.00    -0.289 OA
ATOM      5  C   UNL     1      50.523  51.703  51.473  1.00  0.00     0.107 A 
ATOM      6  C   UNL     1      49.634  51.187  50.483  1.00  0.00     0.134 A 
ATOM      7  C   UNL     1      50.110  50.941  49.189  1.00  0.00     0.093 A 
ATOM      8  C   UNL     1      51.455  51.137  48.866  1.00  0.00     0.123 A 
ATOM      9  C   UNL     1      52.342  51.589  49.841  1.00  0.00     0.094 A 
ATOM     10  C   UNL     1      51.891  51.876  51.132  1.00  0.00     0.146 A 
ATOM     11  O   UNL     1      52.766  52.320  52.027  1.00  0.00    -0.456 OA
ENDROOT
BRANCH   1  12
ATOM     12  C   UNL     1      53.504  53.117  54.192  1.00  0.00     0.021 A 
ATOM     13  C   UNL     1      53.800  52.375  55.350  1.00  0.00     0.016 A 
ATOM     14  C   UNL     1      54.792  52.805  56.234  1.00  0.00     0.051 A 
ATOM     15  C   UNL     1      55.498  53.985  55.987  1.00  0.00     0.157 A 
ATOM     16  C   UNL     1      54.210  54.312  53.954  1.00  0.00     0.062 A 
ATOM     17  C   UNL     1      55.205  54.745  54.843  1.00  0.00     0.158 A 
BRANCH  15  18
ATOM     18  O   UNL     1      56.484  54.387  56.888  1.00  0.00    -0.504 OA
ATOM     19  H   UNL     1      56.276  54.594  57.857  1.00  0.00     0.293 HD
ENDBRANCH  15  18
BRANCH  17  20
ATOM     20  O   UNL     1      55.899  55.930  54.597  1.00  0.00    -0.504 OA
ATOM     21  H   UNL     1      56.263  56.498  55.352  1.00  0.00     0.293 HD
ENDBRANCH  17  20
ENDBRANCH   1  12
BRANCH   6  22
ATOM     22  O   UNL     1      48.293  50.875  50.724  1.00  0.00    -0.507 OA
ATOM     23  H   UNL     1      47.963  50.000  51.100  1.00  0.00     0.293 HD
ENDBRANCH   6  22
BRANCH   8  24
ATOM     24  O   UNL     1      51.922  50.875  47.580  1.00  0.00    -0.508 OA
ATOM     25  H   UNL     1      51.717  50.003  47.108  1.00  0.00     0.293 HD
ENDBRANCH   8  24
TORSDOF 5
ENDMDL
MODEL 7
REMARK VINA RESULT:    -1.098      9.029     14.199
REMARK INTER + INTRA:          -1.562
REMARK INTER:                  -1.297
REMARK INTRA:                  -0.265
REMARK UNBOUND:                -0.271
REMARK SMILES O=c1cc(-c2ccc(O)c(O)c2)oc2cc(O)cc(O)c12
REMARK SMILES IDX 4 1 3 2 2 3 1 4 21 5 19 6 18 7 16 8 15 9 14 10 13 11 5 12
REMARK SMILES IDX 6 13 7 14 8 15 12 16 10 17 9 18 11 20 20 22 17 24
REMARK H PARENT 9 19 11 21 20 23 17 25
REMARK Flexibility Score: inf
ROOT
ATOM      1  C   UNL     1      57.579  54.508  56.969  1.00  0.00     0.138 A 
ATOM      2  C   UNL     1      56.549  54.067  56.124  1.00  0.00     0.100 A 
ATOM      3  C   UNL     1      55.761  55.004  55.453  1.00  0.00     0.197 A 
ATOM      4  O   UNL     1      54.806  54.580  54.751  1.00  0.00    -0.289 OA
ATOM      5  C   UNL     1      56.024  56.385  55.606  1.00  0.00     0.107 A 
ATOM      6  C   UNL     1      55.312  57.427  54.940  1.00  0.00     0.134 A 
ATOM      7  C   UNL     1      55.586  58.763  55.259  1.00  0.00     0.093 A 
ATOM      8  C   UNL     1      56.587  59.095  56.174  1.00  0.00     0.123 A 
ATOM      9  C   UNL     1      57.325  58.086  56.789  1.00  0.00     0.094 A 
ATOM     10  C   UNL     1      57.053  56.743  56.518  1.00  0.00     0.146 A 
ATOM     11  O   UNL     1      57.770  55.812  57.137  1.00  0.00    -0.456 OA
ENDROOT
BRANCH   1  12
ATOM     12  C   UNL     1      58.448  53.556  57.705  1.00  0.00     0.021 A 
ATOM     13  C   UNL     1      58.039  53.076  58.962  1.00  0.00     0.016 A 
ATOM     14  C   UNL     1      58.843  52.186  59.678  1.00  0.00     0.051 A 
ATOM     15  C   UNL     1      60.071  51.766  59.159  1.00  0.00     0.157 A 
ATOM     16  C   UNL     1      59.693  53.141  57.193  1.00  0.00     0.062 A 
ATOM     17  C   UNL     1      60.501  52.248  57.912  1.00  0.00     0.158 A 
BRANCH  15  18
ATOM     18  O   UNL     1      60.850  50.875  59.897  1.00  0.00    -0.504 OA
ATOM     19  H   UNL     1      61.679  50.439  59.513  1.00  0.00     0.293 HD
ENDBRANCH  15  18
BRANCH  17  20
ATOM     20  O   UNL     1      61.730  51.842  57.395  1.00  0.00    -0.504 OA
ATOM     21  H   UNL     1      62.279  52.446  56.794  1.00  0.00     0.293 HD
ENDBRANCH  17  20
ENDBRANCH   1  12
BRANCH   6  22
ATOM     22  O   UNL     1      54.352  57.206  53.947  1.00  0.00    -0.507 OA
ATOM     23  H   UNL     1      53.359  57.142  54.109  1.00  0.00     0.293 HD
ENDBRANCH   6  22
BRANCH   8  24
ATOM     24  O   UNL     1      56.862  60.428  56.473  1.00  0.00    -0.508 OA
ATOM     25  H   UNL     1      57.748  60.709  56.877  1.00  0.00     0.293 HD
ENDBRANCH   8  24
TORSDOF 5
ENDMDL
MODEL 8
REMARK VINA RESULT:    -0.902     12.272     15.621
REMARK INTER + INTRA:          -1.331
REMARK INTER:                  -1.066
REMARK INTRA:                  -0.266
REMARK UNBOUND:                -0.271
REMARK SMILES O=c1cc(-c2ccc(O)c(O)c2)oc2cc(O)cc(O)c12
REMARK SMILES IDX 4 1 3 2 2 3 1 4 21 5 19 6 18 7 16 8 15 9 14 10 13 11 5 12
REMARK SMILES IDX 6 13 7 14 8 15 12 16 10 17 9 18 11 20 20 22 17 24
REMARK H PARENT 9 19 11 21 20 23 17 25
REMARK Flexibility Score: inf
ROOT
ATOM      1  C   UNL     1      53.635  53.141  53.914  1.00  0.00     0.138 A 
ATOM      2  C   UNL     1      53.998  52.285  52.863  1.00  0.00     0.100 A 
ATOM      3  C   UNL     1      53.008  51.747  52.040  1.00  0.00     0.197 A 
ATOM      4  O   UNL     1      53.359  50.935  51.144  1.00  0.00    -0.289 OA
ATOM      5  C   UNL     1      51.653  52.092  52.250  1.00  0.00     0.107 A 
ATOM      6  C   UNL     1      50.564  51.636  51.448  1.00  0.00     0.134 A 
ATOM      7  C   UNL     1      49.251  51.951  51.823  1.00  0.00     0.093 A 
ATOM      8  C   UNL     1      48.992  52.754  52.935  1.00  0.00     0.123 A 
ATOM      9  C   UNL     1      50.051  53.249  53.693  1.00  0.00     0.094 A 
ATOM     10  C   UNL     1      51.370  52.925  53.366  1.00  0.00     0.146 A 
ATOM     11  O   UNL     1      52.350  53.404  54.124  1.00  0.00    -0.456 OA
ENDROOT
BRANCH   1  12
ATOM     12  C   UNL     1      54.646  53.742  54.819  1.00  0.00     0.021 A 
ATOM     13  C   UNL     1      55.123  52.998  55.913  1.00  0.00     0.016 A 
ATOM     14  C   UNL     1      56.069  53.544  56.784  1.00  0.00     0.051 A 
ATOM     15  C   UNL     1      56.548  54.842  56.586  1.00  0.00     0.157 A 
ATOM     16  C   UNL     1      55.122  55.054  54.631  1.00  0.00     0.062 A 
ATOM     17  C   UNL     1      56.071  55.603  55.507  1.00  0.00     0.158 A 
BRANCH  15  18
ATOM     18  O   UNL     1      57.494  55.358  57.472  1.00  0.00    -0.504 OA
ATOM     19  H   UNL     1      57.927  54.790  58.189  1.00  0.00     0.293 HD
ENDBRANCH  15  18
BRANCH  17  20
ATOM     20  O   UNL     1      56.537  56.902  55.310  1.00  0.00    -0.504 OA
ATOM     21  H   UNL     1      56.349  57.640  55.979  1.00  0.00     0.293 HD
ENDBRANCH  17  20
ENDBRANCH   1  12
BRANCH   6  22
ATOM     22  O   UNL     1      50.717  50.900  50.269  1.00  0.00    -0.507 OA
ATOM     23  H   UNL     1      50.528  51.249  49.343  1.00  0.00     0.293 HD
ENDBRANCH   6  22
BRANCH   8  24
ATOM     24  O   UNL     1      47.684  53.074  53.291  1.00  0.00    -0.508 OA
ATOM     25  H   UNL     1      47.081  53.606  52.675  1.00  0.00     0.293 HD
ENDBRANCH   8  24
TORSDOF 5
ENDMDL
MODEL 9
REMARK VINA RESULT:    -0.245      6.662      8.912
REMARK INTER + INTRA:          -0.559
REMARK INTER:                  -0.293
REMARK INTRA:                  -0.266
REMARK UNBOUND:                -0.271
REMARK SMILES O=c1cc(-c2ccc(O)c(O)c2)oc2cc(O)cc(O)c12
REMARK SMILES IDX 4 1 3 2 2 3 1 4 21 5 19 6 18 7 16 8 15 9 14 10 13 11 5 12
REMARK SMILES IDX 6 13 7 14 8 15 12 16 10 17 9 18 11 20 20 22 17 24
REMARK H PARENT 9 19 11 21 20 23 17 25
REMARK Flexibility Score: inf
ROOT
ATOM      1  C   UNL     1      60.694  70.024  53.362  1.00  0.00     0.138 A 
ATOM      2  C   UNL     1      60.510  70.331  52.006  1.00  0.00     0.100 A 
ATOM      3  C   UNL     1      61.613  70.664  51.219  1.00  0.00     0.197 A 
ATOM      4  O   UNL     1      61.410  70.994  50.021  1.00  0.00    -0.289 OA
ATOM      5  C   UNL     1      62.909  70.658  51.785  1.00  0.00     0.107 A 
ATOM      6  C   UNL     1      64.111  70.941  51.069  1.00  0.00     0.134 A 
ATOM      7  C   UNL     1      65.326  71.019  51.762  1.00  0.00     0.093 A 
ATOM      8  C   UNL     1      65.390  70.766  53.135  1.00  0.00     0.123 A 
ATOM      9  C   UNL     1      64.231  70.436  53.833  1.00  0.00     0.094 A 
ATOM     10  C   UNL     1      62.998  70.383  53.176  1.00  0.00     0.146 A 
ATOM     11  O   UNL     1      61.915  70.080  53.882  1.00  0.00    -0.456 OA
ENDROOT
BRANCH   1  12
ATOM     12  C   UNL     1      59.556  69.663  54.244  1.00  0.00     0.021 A 
ATOM     13  C   UNL     1      59.233  70.495  55.331  1.00  0.00     0.016 A 
ATOM     14  C   UNL     1      58.171  70.173  56.180  1.00  0.00     0.051 A 
ATOM     15  C   UNL     1      57.421  69.014  55.968  1.00  0.00     0.157 A 
ATOM     16  C   UNL     1      58.805  68.489  54.042  1.00  0.00     0.062 A 
ATOM     17  C   UNL     1      57.740  68.165  54.895  1.00  0.00     0.158 A 
BRANCH  15  18
ATOM     18  O   UNL     1      56.366  68.721  56.832  1.00  0.00    -0.504 OA
ATOM     19  H   UNL     1      55.537  68.229  56.522  1.00  0.00     0.293 HD
ENDBRANCH  15  18
BRANCH  17  20
ATOM     20  O   UNL     1      57.002  67.001  54.685  1.00  0.00    -0.504 OA
ATOM     21  H   UNL     1      57.249  66.127  55.134  1.00  0.00     0.293 HD
ENDBRANCH  17  20
ENDBRANCH   1  12
BRANCH   6  22
ATOM     22  O   UNL     1      64.170  71.124  49.684  1.00  0.00    -0.507 OA
ATOM     23  H   UNL     1      64.745  70.586  49.055  1.00  0.00     0.293 HD
ENDBRANCH   6  22
BRANCH   8  24
ATOM     24  O   UNL     1      66.605  70.832  53.812  1.00  0.00    -0.508 OA
ATOM     25  H   UNL     1      67.250  71.601  53.672  1.00  0.00     0.293 HD
ENDBRANCH   8  24
TORSDOF 5
ENDMDL
