MODEL 1
REMARK VINA RESULT:    -3.422      0.000      0.000
REMARK INTER + INTRA:          -6.545
REMARK INTER:                  -5.422
REMARK INTRA:                  -1.123
REMARK UNBOUND:                -1.123
REMARK SMILES CCCCCCCCCCCC(=O)[O-]
REMARK SMILES IDX 7 1 8 2 9 3 10 4 11 5 12 6 13 7 14 8 6 9 5 10 4 11 3 12 2 13
REMARK SMILES IDX 1 14
REMARK H PARENT
REMARK Flexibility Score: inf
ROOT
ATOM      1  C   UNL     1      58.712  29.600  50.835  1.00  0.00     0.000 C 
ENDROOT
BRANCH   1   2
ATOM      2  C   UNL     1      58.848  28.994  49.433  1.00  0.00     0.000 C 
BRANCH   2   3
ATOM      3  C   UNL     1      59.900  27.879  49.414  1.00  0.00     0.000 C 
BRANCH   3   4
ATOM      4  C   UNL     1      59.239  26.496  49.494  1.00  0.00     0.006 C 
BRANCH   4   5
ATOM      5  C   UNL     1      59.343  25.881  50.896  1.00  0.00     0.053 C 
BRANCH   5   6
ATOM      6  C   UNL     1      60.058  24.565  50.874  1.00  0.00     0.041 C 
ATOM      7  O   UNL     1      59.609  23.589  51.532  1.00  0.00    -0.550 OA
ATOM      8  O   UNL     1      61.202  24.407  50.102  1.00  0.00    -0.550 OA
ENDBRANCH   5   6
ENDBRANCH   4   5
ENDBRANCH   3   4
ENDBRANCH   2   3
ENDBRANCH   1   2
BRANCH   1   9
ATOM      9  C   UNL     1      57.385  29.192  51.486  1.00  0.00     0.000 C 
BRANCH   9  10
ATOM     10  C   UNL     1      56.357  28.773  50.424  1.00  0.00    -0.000 C 
BRANCH  10  11
ATOM     11  C   UNL     1      55.527  27.553  50.854  1.00  0.00    -0.000 C 
BRANCH  11  12
ATOM     12  C   UNL     1      55.658  26.373  49.875  1.00  0.00    -0.000 C 
BRANCH  12  13
ATOM     13  C   UNL     1      54.299  25.916  49.321  1.00  0.00    -0.003 C 
ATOM     14  C   UNL     1      53.224  26.996  49.429  1.00  0.00     0.004 C 
ENDBRANCH  12  13
ENDBRANCH  11  12
ENDBRANCH  10  11
ENDBRANCH   9  10
ENDBRANCH   1   9
TORSDOF 10
ENDMDL
MODEL 2
REMARK VINA RESULT:    -3.407      1.670      2.725
REMARK INTER + INTRA:          -6.522
REMARK INTER:                  -5.797
REMARK INTRA:                  -0.725
REMARK UNBOUND:                -1.123
REMARK SMILES CCCCCCCCCCCC(=O)[O-]
REMARK SMILES IDX 7 1 8 2 9 3 10 4 11 5 12 6 13 7 14 8 6 9 5 10 4 11 3 12 2 13
REMARK SMILES IDX 1 14
REMARK H PARENT
REMARK Flexibility Score: inf
ROOT
ATOM      1  C   UNL     1      60.653  28.024  49.998  1.00  0.00     0.000 C 
ENDROOT
BRANCH   1   2
ATOM      2  C   UNL     1      60.988  26.540  50.196  1.00  0.00     0.000 C 
BRANCH   2   3
ATOM      3  C   UNL     1      59.770  25.656  49.903  1.00  0.00     0.000 C 
BRANCH   3   4
ATOM      4  C   UNL     1      59.984  24.232  50.436  1.00  0.00     0.006 C 
BRANCH   4   5
ATOM      5  C   UNL     1      61.434  23.757  50.263  1.00  0.00     0.053 C 
BRANCH   5   6
ATOM      6  C   UNL     1      61.501  22.352  49.748  1.00  0.00     0.041 C 
ATOM      7  O   UNL     1      60.681  21.956  48.877  1.00  0.00    -0.550 OA
ATOM      8  O   UNL     1      62.489  21.489  50.204  1.00  0.00    -0.550 OA
ENDBRANCH   5   6
ENDBRANCH   4   5
ENDBRANCH   3   4
ENDBRANCH   2   3
ENDBRANCH   1   2
BRANCH   1   9
ATOM      9  C   UNL     1      59.380  28.194  49.160  1.00  0.00     0.000 C 
BRANCH   9  10
ATOM     10  C   UNL     1      58.629  29.474  49.556  1.00  0.00    -0.000 C 
BRANCH  10  11
ATOM     11  C   UNL     1      57.472  29.202  50.531  1.00  0.00    -0.000 C 
BRANCH  11  12
ATOM     12  C   UNL     1      56.885  27.789  50.373  1.00  0.00    -0.000 C 
BRANCH  12  13
ATOM     13  C   UNL     1      55.348  27.791  50.337  1.00  0.00    -0.003 C 
ATOM     14  C   UNL     1      54.772  26.544  49.666  1.00  0.00     0.004 C 
ENDBRANCH  12  13
ENDBRANCH  11  12
ENDBRANCH  10  11
ENDBRANCH   9  10
ENDBRANCH   1   9
TORSDOF 10
ENDMDL
MODEL 3
REMARK VINA RESULT:    -3.405      2.663      4.777
REMARK INTER + INTRA:          -6.519
REMARK INTER:                  -5.154
REMARK INTRA:                  -1.365
REMARK UNBOUND:                -1.123
REMARK SMILES CCCCCCCCCCCC(=O)[O-]
REMARK SMILES IDX 7 1 8 2 9 3 10 4 11 5 12 6 13 7 14 8 6 9 5 10 4 11 3 12 2 13
REMARK SMILES IDX 1 14
REMARK H PARENT
REMARK Flexibility Score: inf
ROOT
ATOM      1  C   UNL     1      58.188  29.427  51.288  1.00  0.00     0.000 C 
ENDROOT
BRANCH   1   2
ATOM      2  C   UNL     1      56.718  29.176  51.646  1.00  0.00     0.000 C 
BRANCH   2   3
ATOM      3  C   UNL     1      55.917  28.740  50.414  1.00  0.00     0.000 C 
BRANCH   3   4
ATOM      4  C   UNL     1      54.413  28.704  50.721  1.00  0.00     0.006 C 
BRANCH   4   5
ATOM      5  C   UNL     1      53.642  27.804  49.746  1.00  0.00     0.053 C 
BRANCH   5   6
ATOM      6  C   UNL     1      54.015  26.362  49.907  1.00  0.00     0.041 C 
ATOM      7  O   UNL     1      54.380  25.687  48.909  1.00  0.00    -0.550 OA
ATOM      8  O   UNL     1      53.992  25.773  51.165  1.00  0.00    -0.550 OA
ENDBRANCH   5   6
ENDBRANCH   4   5
ENDBRANCH   3   4
ENDBRANCH   2   3
ENDBRANCH   1   2
BRANCH   1   9
ATOM      9  C   UNL     1      58.370  29.558  49.771  1.00  0.00     0.000 C 
BRANCH   9  10
ATOM     10  C   UNL     1      59.423  28.565  49.256  1.00  0.00    -0.000 C 
BRANCH  10  11
ATOM     11  C   UNL     1      59.931  27.619  50.356  1.00  0.00    -0.000 C 
BRANCH  11  12
ATOM     12  C   UNL     1      59.599  26.145  50.066  1.00  0.00    -0.000 C 
BRANCH  12  13
ATOM     13  C   UNL     1      58.088  25.866  50.093  1.00  0.00    -0.003 C 
ATOM     14  C   UNL     1      57.571  25.549  51.496  1.00  0.00     0.004 C 
ENDBRANCH  12  13
ENDBRANCH  11  12
ENDBRANCH  10  11
ENDBRANCH   9  10
ENDBRANCH   1   9
TORSDOF 10
ENDMDL
MODEL 4
REMARK VINA RESULT:    -3.383     12.290     13.932
REMARK INTER + INTRA:          -6.484
REMARK INTER:                  -4.986
REMARK INTRA:                  -1.499
REMARK UNBOUND:                -1.123
REMARK SMILES CCCCCCCCCCCC(=O)[O-]
REMARK SMILES IDX 7 1 8 2 9 3 10 4 11 5 12 6 13 7 14 8 6 9 5 10 4 11 3 12 2 13
REMARK SMILES IDX 1 14
REMARK H PARENT
REMARK Flexibility Score: inf
ROOT
ATOM      1  C   UNL     1      60.783  31.609  59.714  1.00  0.00     0.000 C 
ENDROOT
BRANCH   1   2
ATOM      2  C   UNL     1      61.296  32.963  59.208  1.00  0.00     0.000 C 
BRANCH   2   3
ATOM      3  C   UNL     1      61.887  33.791  60.354  1.00  0.00     0.000 C 
BRANCH   3   4
ATOM      4  C   UNL     1      63.278  34.327  59.985  1.00  0.00     0.006 C 
BRANCH   4   5
ATOM      5  C   UNL     1      64.175  34.515  61.216  1.00  0.00     0.053 C 
BRANCH   5   6
ATOM      6  C   UNL     1      64.437  35.963  61.497  1.00  0.00     0.041 C 
ATOM      7  O   UNL     1      65.620  36.389  61.577  1.00  0.00    -0.550 OA
ATOM      8  O   UNL     1      63.376  36.848  61.637  1.00  0.00    -0.550 OA
ENDBRANCH   5   6
ENDBRANCH   4   5
ENDBRANCH   3   4
ENDBRANCH   2   3
ENDBRANCH   1   2
BRANCH   1   9
ATOM      9  C   UNL     1      60.907  31.507  61.239  1.00  0.00     0.000 C 
BRANCH   9  10
ATOM     10  C   UNL     1      61.458  30.135  61.656  1.00  0.00    -0.000 C 
BRANCH  10  11
ATOM     11  C   UNL     1      62.490  29.584  60.658  1.00  0.00    -0.000 C 
BRANCH  11  12
ATOM     12  C   UNL     1      63.939  29.802  61.127  1.00  0.00    -0.000 C 
BRANCH  12  13
ATOM     13  C   UNL     1      64.630  30.957  60.384  1.00  0.00    -0.003 C 
ATOM     14  C   UNL     1      64.427  30.891  58.871  1.00  0.00     0.004 C 
ENDBRANCH  12  13
ENDBRANCH  11  12
ENDBRANCH  10  11
ENDBRANCH   9  10
ENDBRANCH   1   9
TORSDOF 10
ENDMDL
MODEL 5
REMARK VINA RESULT:    -3.370     11.480     13.386
REMARK INTER + INTRA:          -6.463
REMARK INTER:                  -5.656
REMARK INTRA:                  -0.807
REMARK UNBOUND:                -1.123
REMARK SMILES CCCCCCCCCCCC(=O)[O-]
REMARK SMILES IDX 7 1 8 2 9 3 10 4 11 5 12 6 13 7 14 8 6 9 5 10 4 11 3 12 2 13
REMARK SMILES IDX 1 14
REMARK H PARENT
REMARK Flexibility Score: inf
ROOT
ATOM      1  C   UNL     1      60.549  31.597  59.769  1.00  0.00     0.000 C 
ENDROOT
BRANCH   1   2
ATOM      2  C   UNL     1      61.100  31.399  61.186  1.00  0.00     0.000 C 
BRANCH   2   3
ATOM      3  C   UNL     1      61.831  30.057  61.311  1.00  0.00     0.000 C 
BRANCH   3   4
ATOM      4  C   UNL     1      63.336  30.269  61.529  1.00  0.00     0.006 C 
BRANCH   4   5
ATOM      5  C   UNL     1      64.038  30.794  60.269  1.00  0.00     0.053 C 
BRANCH   5   6
ATOM      6  C   UNL     1      65.338  30.089  60.023  1.00  0.00     0.041 C 
ATOM      7  O   UNL     1      65.701  29.149  60.778  1.00  0.00    -0.550 OA
ATOM      8  O   UNL     1      66.132  30.449  58.941  1.00  0.00    -0.550 OA
ENDBRANCH   5   6
ENDBRANCH   4   5
ENDBRANCH   3   4
ENDBRANCH   2   3
ENDBRANCH   1   2
BRANCH   1   9
ATOM      9  C   UNL     1      60.918  32.981  59.223  1.00  0.00     0.000 C 
BRANCH   9  10
ATOM     10  C   UNL     1      61.887  33.705  60.170  1.00  0.00    -0.000 C 
BRANCH  10  11
ATOM     11  C   UNL     1      61.513  35.181  60.382  1.00  0.00    -0.000 C 
BRANCH  11  12
ATOM     12  C   UNL     1      62.687  36.017  60.920  1.00  0.00    -0.000 C 
BRANCH  12  13
ATOM     13  C   UNL     1      63.930  35.163  61.215  1.00  0.00    -0.003 C 
ATOM     14  C   UNL     1      65.130  35.999  61.656  1.00  0.00     0.004 C 
ENDBRANCH  12  13
ENDBRANCH  11  12
ENDBRANCH  10  11
ENDBRANCH   9  10
ENDBRANCH   1   9
TORSDOF 10
ENDMDL
MODEL 6
REMARK VINA RESULT:    -3.266     11.808     13.170
REMARK INTER + INTRA:          -6.299
REMARK INTER:                  -5.716
REMARK INTRA:                  -0.583
REMARK UNBOUND:                -1.123
REMARK SMILES CCCCCCCCCCCC(=O)[O-]
REMARK SMILES IDX 7 1 8 2 9 3 10 4 11 5 12 6 13 7 14 8 6 9 5 10 4 11 3 12 2 13
REMARK SMILES IDX 1 14
REMARK H PARENT
REMARK Flexibility Score: inf
ROOT
ATOM      1  C   UNL     1      61.571  30.454  61.675  1.00  0.00     0.000 C 
ENDROOT
BRANCH   1   2
ATOM      2  C   UNL     1      63.017  30.130  61.279  1.00  0.00     0.000 C 
BRANCH   2   3
ATOM      3  C   UNL     1      63.065  28.997  60.247  1.00  0.00     0.000 C 
BRANCH   3   4
ATOM      4  C   UNL     1      63.451  27.666  60.909  1.00  0.00     0.006 C 
BRANCH   4   5
ATOM      5  C   UNL     1      64.682  27.026  60.252  1.00  0.00     0.053 C 
BRANCH   5   6
ATOM      6  C   UNL     1      65.789  28.018  60.063  1.00  0.00     0.041 C 
ATOM      7  O   UNL     1      66.089  28.419  58.908  1.00  0.00    -0.550 OA
ATOM      8  O   UNL     1      66.468  28.523  61.165  1.00  0.00    -0.550 OA
ENDBRANCH   5   6
ENDBRANCH   4   5
ENDBRANCH   3   4
ENDBRANCH   2   3
ENDBRANCH   1   2
BRANCH   1   9
ATOM      9  C   UNL     1      61.025  31.628  60.855  1.00  0.00     0.000 C 
BRANCH   9  10
ATOM     10  C   UNL     1      62.135  32.642  60.539  1.00  0.00    -0.000 C 
BRANCH  10  11
ATOM     11  C   UNL     1      61.584  34.043  60.229  1.00  0.00    -0.000 C 
BRANCH  11  12
ATOM     12  C   UNL     1      62.553  35.164  60.644  1.00  0.00    -0.000 C 
BRANCH  12  13
ATOM     13  C   UNL     1      63.950  34.631  61.002  1.00  0.00    -0.003 C 
ATOM     14  C   UNL     1      64.794  35.653  61.762  1.00  0.00     0.004 C 
ENDBRANCH  12  13
ENDBRANCH  11  12
ENDBRANCH  10  11
ENDBRANCH   9  10
ENDBRANCH   1   9
TORSDOF 10
ENDMDL
MODEL 7
REMARK VINA RESULT:    -3.251     11.123     13.201
REMARK INTER + INTRA:          -6.274
REMARK INTER:                  -5.227
REMARK INTRA:                  -1.047
REMARK UNBOUND:                -1.123
REMARK SMILES CCCCCCCCCCCC(=O)[O-]
REMARK SMILES IDX 7 1 8 2 9 3 10 4 11 5 12 6 13 7 14 8 6 9 5 10 4 11 3 12 2 13
REMARK SMILES IDX 1 14
REMARK H PARENT
REMARK Flexibility Score: inf
ROOT
ATOM      1  C   UNL     1      62.180  33.325  58.477  1.00  0.00     0.000 C 
ENDROOT
BRANCH   1   2
ATOM      2  C   UNL     1      60.822  32.673  58.190  1.00  0.00     0.000 C 
BRANCH   2   3
ATOM      3  C   UNL     1      60.439  31.687  59.300  1.00  0.00     0.000 C 
BRANCH   3   4
ATOM      4  C   UNL     1      61.167  32.024  60.610  1.00  0.00     0.006 C 
BRANCH   4   5
ATOM      5  C   UNL     1      61.060  30.893  61.642  1.00  0.00     0.053 C 
BRANCH   5   6
ATOM      6  C   UNL     1      62.210  29.938  61.541  1.00  0.00     0.041 C 
ATOM      7  O   UNL     1      63.392  30.371  61.505  1.00  0.00    -0.550 OA
ATOM      8  O   UNL     1      61.978  28.569  61.521  1.00  0.00    -0.550 OA
ENDBRANCH   5   6
ENDBRANCH   4   5
ENDBRANCH   3   4
ENDBRANCH   2   3
ENDBRANCH   1   2
BRANCH   1   9
ATOM      9  C   UNL     1      62.155  34.821  58.141  1.00  0.00     0.000 C 
BRANCH   9  10
ATOM     10  C   UNL     1      61.279  35.594  59.139  1.00  0.00    -0.000 C 
BRANCH  10  11
ATOM     11  C   UNL     1      61.800  35.496  60.582  1.00  0.00    -0.000 C 
BRANCH  11  12
ATOM     12  C   UNL     1      62.763  36.642  60.941  1.00  0.00    -0.000 C 
BRANCH  12  13
ATOM     13  C   UNL     1      64.082  36.133  61.545  1.00  0.00    -0.003 C 
ATOM     14  C   UNL     1      64.337  34.657  61.246  1.00  0.00     0.004 C 
ENDBRANCH  12  13
ENDBRANCH  11  12
ENDBRANCH  10  11
ENDBRANCH   9  10
ENDBRANCH   1   9
TORSDOF 10
ENDMDL
MODEL 8
REMARK VINA RESULT:    -3.230     11.201     13.136
REMARK INTER + INTRA:          -6.241
REMARK INTER:                  -4.927
REMARK INTRA:                  -1.314
REMARK UNBOUND:                -1.123
REMARK SMILES CCCCCCCCCCCC(=O)[O-]
REMARK SMILES IDX 7 1 8 2 9 3 10 4 11 5 12 6 13 7 14 8 6 9 5 10 4 11 3 12 2 13
REMARK SMILES IDX 1 14
REMARK H PARENT
REMARK Flexibility Score: inf
ROOT
ATOM      1  C   UNL     1      61.674  32.272  58.393  1.00  0.00     0.000 C 
ENDROOT
BRANCH   1   2
ATOM      2  C   UNL     1      63.159  32.630  58.530  1.00  0.00     0.000 C 
BRANCH   2   3
ATOM      3  C   UNL     1      63.950  31.472  59.149  1.00  0.00     0.000 C 
BRANCH   3   4
ATOM      4  C   UNL     1      64.052  31.628  60.673  1.00  0.00     0.006 C 
BRANCH   4   5
ATOM      5  C   UNL     1      63.670  30.341  61.417  1.00  0.00     0.053 C 
BRANCH   5   6
ATOM      6  C   UNL     1      62.210  30.033  61.280  1.00  0.00     0.041 C 
ATOM      7  O   UNL     1      61.835  28.997  60.670  1.00  0.00    -0.550 OA
ATOM      8  O   UNL     1      61.265  30.873  61.855  1.00  0.00    -0.550 OA
ENDBRANCH   5   6
ENDBRANCH   4   5
ENDBRANCH   3   4
ENDBRANCH   2   3
ENDBRANCH   1   2
BRANCH   1   9
ATOM      9  C   UNL     1      60.783  33.422  58.877  1.00  0.00     0.000 C 
BRANCH   9  10
ATOM     10  C   UNL     1      61.306  34.005  60.198  1.00  0.00    -0.000 C 
BRANCH  10  11
ATOM     11  C   UNL     1      61.207  35.539  60.247  1.00  0.00    -0.000 C 
BRANCH  11  12
ATOM     12  C   UNL     1      62.375  36.182  61.016  1.00  0.00    -0.000 C 
BRANCH  12  13
ATOM     13  C   UNL     1      63.745  35.685  60.528  1.00  0.00    -0.003 C 
ATOM     14  C   UNL     1      64.653  35.239  61.673  1.00  0.00     0.004 C 
ENDBRANCH  12  13
ENDBRANCH  11  12
ENDBRANCH  10  11
ENDBRANCH   9  10
ENDBRANCH   1   9
TORSDOF 10
ENDMDL
MODEL 9
REMARK VINA RESULT:    -3.177     11.767     13.344
REMARK INTER + INTRA:          -6.157
REMARK INTER:                  -4.589
REMARK INTRA:                  -1.568
REMARK UNBOUND:                -1.123
REMARK SMILES CCCCCCCCCCCC(=O)[O-]
REMARK SMILES IDX 7 1 8 2 9 3 10 4 11 5 12 6 13 7 14 8 6 9 5 10 4 11 3 12 2 13
REMARK SMILES IDX 1 14
REMARK H PARENT
REMARK Flexibility Score: inf
ROOT
ATOM      1  C   UNL     1      64.470  31.414  59.161  1.00  0.00     0.000 C 
ENDROOT
BRANCH   1   2
ATOM      2  C   UNL     1      64.125  32.904  59.276  1.00  0.00     0.000 C 
BRANCH   2   3
ATOM      3  C   UNL     1      64.050  33.340  60.744  1.00  0.00     0.000 C 
BRANCH   3   4
ATOM      4  C   UNL     1      63.470  34.757  60.868  1.00  0.00     0.006 C 
BRANCH   4   5
ATOM      5  C   UNL     1      62.005  34.827  60.414  1.00  0.00     0.053 C 
BRANCH   5   6
ATOM      6  C   UNL     1      61.793  35.898  59.387  1.00  0.00     0.041 C 
ATOM      7  O   UNL     1      60.680  36.481  59.300  1.00  0.00    -0.550 OA
ATOM      8  O   UNL     1      62.834  36.274  58.548  1.00  0.00    -0.550 OA
ENDBRANCH   5   6
ENDBRANCH   4   5
ENDBRANCH   3   4
ENDBRANCH   2   3
ENDBRANCH   1   2
BRANCH   1   9
ATOM      9  C   UNL     1      64.583  30.766  60.546  1.00  0.00     0.000 C 
BRANCH   9  10
ATOM     10  C   UNL     1      63.934  29.374  60.556  1.00  0.00    -0.000 C 
BRANCH  10  11
ATOM     11  C   UNL     1      62.400  29.437  60.609  1.00  0.00    -0.000 C 
BRANCH  11  12
ATOM     12  C   UNL     1      61.885  30.371  61.719  1.00  0.00    -0.000 C 
BRANCH  12  13
ATOM     13  C   UNL     1      60.813  31.350  61.213  1.00  0.00    -0.003 C 
ATOM     14  C   UNL     1      60.720  31.386  59.688  1.00  0.00     0.004 C 
ENDBRANCH  12  13
ENDBRANCH  11  12
ENDBRANCH  10  11
ENDBRANCH   9  10
ENDBRANCH   1   9
TORSDOF 10
ENDMDL
