MODEL 1
REMARK VINA RESULT:    -7.621      0.000      0.000
REMARK INTER + INTRA:          -9.504
REMARK INTER:                  -9.180
REMARK INTRA:                  -0.324
REMARK UNBOUND:                -0.324
REMARK SMILES O=c1c(O)c(-c2ccc(O)c(O)c2)oc2cc(O)cc(O)c12
REMARK SMILES IDX 5 1 3 2 2 3 1 4 22 5 20 6 19 7 17 8 16 9 15 10 14 11 6 12
REMARK SMILES IDX 7 13 8 14 9 15 13 16 11 17 10 18 12 20 4 22 21 24 18 26
REMARK H PARENT 10 19 12 21 4 23 21 25 18 27
REMARK Flexibility Score: inf
ROOT
ATOM      1  C   UNL     1      25.603   6.155  22.646  1.00  0.00     0.180 A 
ATOM      2  C   UNL     1      24.750   5.860  23.723  1.00  0.00     0.208 A 
ATOM      3  C   UNL     1      23.759   4.879  23.558  1.00  0.00     0.238 A 
ATOM      4  O   UNL     1      23.034   4.581  24.543  1.00  0.00    -0.285 OA
ATOM      5  C   UNL     1      23.621   4.219  22.313  1.00  0.00     0.111 A 
ATOM      6  C   UNL     1      22.626   3.238  22.022  1.00  0.00     0.134 A 
ATOM      7  C   UNL     1      22.666   2.556  20.800  1.00  0.00     0.093 A 
ATOM      8  C   UNL     1      23.625   2.867  19.833  1.00  0.00     0.123 A 
ATOM      9  C   UNL     1      24.564   3.864  20.085  1.00  0.00     0.094 A 
ATOM     10  C   UNL     1      24.573   4.535  21.309  1.00  0.00     0.146 A 
ATOM     11  O   UNL     1      25.491   5.472  21.512  1.00  0.00    -0.452 OA
ENDROOT
BRANCH   1  12
ATOM     12  C   UNL     1      26.656   7.193  22.735  1.00  0.00     0.025 A 
ATOM     13  C   UNL     1      27.948   6.886  23.194  1.00  0.00     0.016 A 
ATOM     14  C   UNL     1      28.919   7.886  23.293  1.00  0.00     0.051 A 
ATOM     15  C   UNL     1      28.610   9.208  22.948  1.00  0.00     0.157 A 
ATOM     16  C   UNL     1      26.345   8.524  22.409  1.00  0.00     0.062 A 
ATOM     17  C   UNL     1      27.315   9.528  22.507  1.00  0.00     0.158 A 
BRANCH  15  18
ATOM     18  O   UNL     1      29.582  10.203  23.046  1.00  0.00    -0.504 OA
ATOM     19  H   UNL     1      29.366  11.120  23.418  1.00  0.00     0.293 HD
ENDBRANCH  15  18
BRANCH  17  20
ATOM     20  O   UNL     1      26.973  10.835  22.162  1.00  0.00    -0.504 OA
ATOM     21  H   UNL     1      26.403  11.046  21.352  1.00  0.00     0.293 HD
ENDBRANCH  17  20
ENDBRANCH   1  12
BRANCH   2  22
ATOM     22  O   UNL     1      24.918   6.507  24.950  1.00  0.00    -0.502 OA
ATOM     23  H   UNL     1      24.790   7.506  25.060  1.00  0.00     0.293 HD
ENDBRANCH   2  22
BRANCH   6  24
ATOM     24  O   UNL     1      21.570   2.919  22.880  1.00  0.00    -0.507 OA
ATOM     25  H   UNL     1      21.581   3.054  23.880  1.00  0.00     0.293 HD
ENDBRANCH   6  24
BRANCH   8  26
ATOM     26  O   UNL     1      23.648   2.194  18.612  1.00  0.00    -0.508 OA
ATOM     27  H   UNL     1      22.960   1.484  18.385  1.00  0.00     0.293 HD
ENDBRANCH   8  26
TORSDOF 6
ENDMDL
MODEL 2
REMARK VINA RESULT:    -7.545      3.078      6.817
REMARK INTER + INTRA:          -9.413
REMARK INTER:                  -9.089
REMARK INTRA:                  -0.324
REMARK UNBOUND:                -0.324
REMARK SMILES O=c1c(O)c(-c2ccc(O)c(O)c2)oc2cc(O)cc(O)c12
REMARK SMILES IDX 5 1 3 2 2 3 1 4 22 5 20 6 19 7 17 8 16 9 15 10 14 11 6 12
REMARK SMILES IDX 7 13 8 14 9 15 13 16 11 17 10 18 12 20 4 22 21 24 18 26
REMARK H PARENT 10 19 12 21 4 23 21 25 18 27
REMARK Flexibility Score: inf
ROOT
ATOM      1  C   UNL     1      26.350   6.549  20.539  1.00  0.00     0.180 A 
ATOM      2  C   UNL     1      27.685   6.504  20.102  1.00  0.00     0.208 A 
ATOM      3  C   UNL     1      28.715   6.647  21.046  1.00  0.00     0.238 A 
ATOM      4  O   UNL     1      29.909   6.552  20.656  1.00  0.00    -0.285 OA
ATOM      5  C   UNL     1      28.399   6.849  22.411  1.00  0.00     0.111 A 
ATOM      6  C   UNL     1      29.361   7.045  23.446  1.00  0.00     0.134 A 
ATOM      7  C   UNL     1      28.939   7.105  24.779  1.00  0.00     0.093 A 
ATOM      8  C   UNL     1      27.583   7.041  25.108  1.00  0.00     0.123 A 
ATOM      9  C   UNL     1      26.632   6.908  24.100  1.00  0.00     0.094 A 
ATOM     10  C   UNL     1      27.025   6.809  22.764  1.00  0.00     0.146 A 
ATOM     11  O   UNL     1      26.087   6.674  21.835  1.00  0.00    -0.452 OA
ENDROOT
BRANCH   1  12
ATOM     12  C   UNL     1      25.210   6.431  19.602  1.00  0.00     0.025 A 
ATOM     13  C   UNL     1      24.667   5.179  19.265  1.00  0.00     0.016 A 
ATOM     14  C   UNL     1      23.606   5.090  18.359  1.00  0.00     0.051 A 
ATOM     15  C   UNL     1      23.081   6.246  17.769  1.00  0.00     0.157 A 
ATOM     16  C   UNL     1      24.693   7.586  18.992  1.00  0.00     0.062 A 
ATOM     17  C   UNL     1      23.631   7.500  18.085  1.00  0.00     0.158 A 
BRANCH  15  18
ATOM     18  O   UNL     1      22.021   6.154  16.868  1.00  0.00    -0.504 OA
ATOM     19  H   UNL     1      22.157   6.292  15.873  1.00  0.00     0.293 HD
ENDBRANCH  15  18
BRANCH  17  20
ATOM     20  O   UNL     1      23.136   8.670  17.509  1.00  0.00    -0.504 OA
ATOM     21  H   UNL     1      22.185   8.985  17.665  1.00  0.00     0.293 HD
ENDBRANCH  17  20
ENDBRANCH   1  12
BRANCH   2  22
ATOM     22  O   UNL     1      27.977   6.282  18.753  1.00  0.00    -0.502 OA
ATOM     23  H   UNL     1      28.207   7.034  18.115  1.00  0.00     0.293 HD
ENDBRANCH   2  22
BRANCH   6  24
ATOM     24  O   UNL     1      30.730   7.215  23.216  1.00  0.00    -0.507 OA
ATOM     25  H   UNL     1      31.209   6.947  22.370  1.00  0.00     0.293 HD
ENDBRANCH   6  24
BRANCH   8  26
ATOM     26  O   UNL     1      27.170   7.117  26.437  1.00  0.00    -0.508 OA
ATOM     27  H   UNL     1      27.101   6.289  27.019  1.00  0.00     0.293 HD
ENDBRANCH   8  26
TORSDOF 6
ENDMDL
MODEL 3
REMARK VINA RESULT:    -7.488      2.637      3.794
REMARK INTER + INTRA:          -9.343
REMARK INTER:                  -9.024
REMARK INTRA:                  -0.319
REMARK UNBOUND:                -0.324
REMARK SMILES O=c1c(O)c(-c2ccc(O)c(O)c2)oc2cc(O)cc(O)c12
REMARK SMILES IDX 5 1 3 2 2 3 1 4 22 5 20 6 19 7 17 8 16 9 15 10 14 11 6 12
REMARK SMILES IDX 7 13 8 14 9 15 13 16 11 17 10 18 12 20 4 22 21 24 18 26
REMARK H PARENT 10 19 12 21 4 23 21 25 18 27
REMARK Flexibility Score: inf
ROOT
ATOM      1  C   UNL     1      25.980   6.181  21.869  1.00  0.00     0.180 A 
ATOM      2  C   UNL     1      25.846   4.819  21.552  1.00  0.00     0.208 A 
ATOM      3  C   UNL     1      25.084   4.453  20.431  1.00  0.00     0.238 A 
ATOM      4  O   UNL     1      25.012   3.235  20.120  1.00  0.00    -0.285 OA
ATOM      5  C   UNL     1      24.451   5.452  19.651  1.00  0.00     0.111 A 
ATOM      6  C   UNL     1      23.623   5.193  18.519  1.00  0.00     0.134 A 
ATOM      7  C   UNL     1      23.156   6.263  17.745  1.00  0.00     0.093 A 
ATOM      8  C   UNL     1      23.435   7.584  18.102  1.00  0.00     0.123 A 
ATOM      9  C   UNL     1      24.193   7.849  19.240  1.00  0.00     0.094 A 
ATOM     10  C   UNL     1      24.704   6.802  20.010  1.00  0.00     0.146 A 
ATOM     11  O   UNL     1      25.430   7.097  21.081  1.00  0.00    -0.452 OA
ENDROOT
BRANCH   1  12
ATOM     12  C   UNL     1      26.748   6.644  23.049  1.00  0.00     0.025 A 
ATOM     13  C   UNL     1      28.107   6.986  22.948  1.00  0.00     0.016 A 
ATOM     14  C   UNL     1      28.817   7.397  24.080  1.00  0.00     0.051 A 
ATOM     15  C   UNL     1      28.185   7.460  25.327  1.00  0.00     0.157 A 
ATOM     16  C   UNL     1      26.124   6.690  24.306  1.00  0.00     0.062 A 
ATOM     17  C   UNL     1      26.832   7.101  25.440  1.00  0.00     0.158 A 
BRANCH  15  18
ATOM     18  O   UNL     1      28.896   7.873  26.454  1.00  0.00    -0.504 OA
ATOM     19  H   UNL     1      29.019   8.854  26.673  1.00  0.00     0.293 HD
ENDBRANCH  15  18
BRANCH  17  20
ATOM     20  O   UNL     1      26.174   7.146  26.670  1.00  0.00    -0.504 OA
ATOM     21  H   UNL     1      25.355   6.581  26.863  1.00  0.00     0.293 HD
ENDBRANCH  17  20
ENDBRANCH   1  12
BRANCH   2  22
ATOM     22  O   UNL     1      26.497   3.850  22.321  1.00  0.00    -0.502 OA
ATOM     23  H   UNL     1      26.308   2.860  22.221  1.00  0.00     0.293 HD
ENDBRANCH   2  22
BRANCH   6  24
ATOM     24  O   UNL     1      23.210   3.915  18.131  1.00  0.00    -0.507 OA
ATOM     25  H   UNL     1      23.519   3.439  17.297  1.00  0.00     0.293 HD
ENDBRANCH   6  24
BRANCH   8  26
ATOM     26  O   UNL     1      22.953   8.644  17.336  1.00  0.00    -0.508 OA
ATOM     27  H   UNL     1      23.057   8.659  16.328  1.00  0.00     0.293 HD
ENDBRANCH   8  26
TORSDOF 6
ENDMDL
MODEL 4
REMARK VINA RESULT:    -7.441      2.770      6.547
REMARK INTER + INTRA:          -9.287
REMARK INTER:                  -8.969
REMARK INTRA:                  -0.318
REMARK UNBOUND:                -0.324
REMARK SMILES O=c1c(O)c(-c2ccc(O)c(O)c2)oc2cc(O)cc(O)c12
REMARK SMILES IDX 5 1 3 2 2 3 1 4 22 5 20 6 19 7 17 8 16 9 15 10 14 11 6 12
REMARK SMILES IDX 7 13 8 14 9 15 13 16 11 17 10 18 12 20 4 22 21 24 18 26
REMARK H PARENT 10 19 12 21 4 23 21 25 18 27
REMARK Flexibility Score: inf
ROOT
ATOM      1  C   UNL     1      25.152   6.277  23.866  1.00  0.00     0.180 A 
ATOM      2  C   UNL     1      25.720   6.652  25.096  1.00  0.00     0.208 A 
ATOM      3  C   UNL     1      27.096   6.928  25.153  1.00  0.00     0.238 A 
ATOM      4  O   UNL     1      27.589   7.315  26.245  1.00  0.00    -0.285 OA
ATOM      5  C   UNL     1      27.889   6.810  23.986  1.00  0.00     0.111 A 
ATOM      6  C   UNL     1      29.298   7.028  23.938  1.00  0.00     0.134 A 
ATOM      7  C   UNL     1      29.958   7.011  22.704  1.00  0.00     0.093 A 
ATOM      8  C   UNL     1      29.270   6.720  21.523  1.00  0.00     0.123 A 
ATOM      9  C   UNL     1      27.904   6.449  21.567  1.00  0.00     0.094 A 
ATOM     10  C   UNL     1      27.212   6.495  22.779  1.00  0.00     0.146 A 
ATOM     11  O   UNL     1      25.909   6.239  22.776  1.00  0.00    -0.452 OA
ENDROOT
BRANCH   1  12
ATOM     12  C   UNL     1      23.715   5.946  23.730  1.00  0.00     0.025 A 
ATOM     13  C   UNL     1      22.751   6.946  23.514  1.00  0.00     0.016 A 
ATOM     14  C   UNL     1      21.398   6.613  23.413  1.00  0.00     0.051 A 
ATOM     15  C   UNL     1      20.986   5.281  23.539  1.00  0.00     0.157 A 
ATOM     16  C   UNL     1      23.294   4.614  23.876  1.00  0.00     0.062 A 
ATOM     17  C   UNL     1      21.940   4.277  23.775  1.00  0.00     0.158 A 
BRANCH  15  18
ATOM     18  O   UNL     1      19.635   4.952  23.436  1.00  0.00    -0.504 OA
ATOM     19  H   UNL     1      18.918   5.665  23.379  1.00  0.00     0.293 HD
ENDBRANCH  15  18
BRANCH  17  20
ATOM     20  O   UNL     1      21.562   2.941  23.912  1.00  0.00    -0.504 OA
ATOM     21  H   UNL     1      20.890   2.641  24.608  1.00  0.00     0.293 HD
ENDBRANCH  17  20
ENDBRANCH   1  12
BRANCH   2  22
ATOM     22  O   UNL     1      24.916   6.783  26.231  1.00  0.00    -0.502 OA
ATOM     23  H   UNL     1      24.100   7.383  26.253  1.00  0.00     0.293 HD
ENDBRANCH   2  22
BRANCH   6  24
ATOM     24  O   UNL     1      30.094   7.234  25.069  1.00  0.00    -0.507 OA
ATOM     25  H   UNL     1      30.400   8.136  25.400  1.00  0.00     0.293 HD
ENDBRANCH   6  24
BRANCH   8  26
ATOM     26  O   UNL     1      29.937   6.690  20.301  1.00  0.00    -0.508 OA
ATOM     27  H   UNL     1      29.994   5.842  19.748  1.00  0.00     0.293 HD
ENDBRANCH   8  26
TORSDOF 6
ENDMDL
MODEL 5
REMARK VINA RESULT:    -7.369      2.667      3.709
REMARK INTER + INTRA:          -9.200
REMARK INTER:                  -8.867
REMARK INTRA:                  -0.333
REMARK UNBOUND:                -0.324
REMARK SMILES O=c1c(O)c(-c2ccc(O)c(O)c2)oc2cc(O)cc(O)c12
REMARK SMILES IDX 5 1 3 2 2 3 1 4 22 5 20 6 19 7 17 8 16 9 15 10 14 11 6 12
REMARK SMILES IDX 7 13 8 14 9 15 13 16 11 17 10 18 12 20 4 22 21 24 18 26
REMARK H PARENT 10 19 12 21 4 23 21 25 18 27
REMARK Flexibility Score: inf
ROOT
ATOM      1  C   UNL     1      25.071   7.124  21.815  1.00  0.00     0.180 A 
ATOM      2  C   UNL     1      24.371   8.224  21.291  1.00  0.00     0.208 A 
ATOM      3  C   UNL     1      23.580   8.045  20.145  1.00  0.00     0.238 A 
ATOM      4  O   UNL     1      22.913   9.021  19.713  1.00  0.00    -0.285 OA
ATOM      5  C   UNL     1      23.512   6.773  19.527  1.00  0.00     0.111 A 
ATOM      6  C   UNL     1      22.774   6.487  18.339  1.00  0.00     0.134 A 
ATOM      7  C   UNL     1      22.672   5.165  17.891  1.00  0.00     0.093 A 
ATOM      8  C   UNL     1      23.336   4.128  18.551  1.00  0.00     0.123 A 
ATOM      9  C   UNL     1      24.107   4.405  19.677  1.00  0.00     0.094 A 
ATOM     10  C   UNL     1      24.197   5.709  20.170  1.00  0.00     0.146 A 
ATOM     11  O   UNL     1      24.934   5.929  21.251  1.00  0.00    -0.452 OA
ENDROOT
BRANCH   1  12
ATOM     12  C   UNL     1      25.944   7.239  23.005  1.00  0.00     0.025 A 
ATOM     13  C   UNL     1      27.294   7.615  22.889  1.00  0.00     0.016 A 
ATOM     14  C   UNL     1      28.105   7.694  24.024  1.00  0.00     0.051 A 
ATOM     15  C   UNL     1      27.586   7.386  25.287  1.00  0.00     0.157 A 
ATOM     16  C   UNL     1      25.434   6.911  24.272  1.00  0.00     0.062 A 
ATOM     17  C   UNL     1      26.245   6.989  25.410  1.00  0.00     0.158 A 
BRANCH  15  18
ATOM     18  O   UNL     1      28.398   7.467  26.418  1.00  0.00    -0.504 OA
ATOM     19  H   UNL     1      28.031   7.303  27.347  1.00  0.00     0.293 HD
ENDBRANCH  15  18
BRANCH  17  20
ATOM     20  O   UNL     1      25.698   6.669  26.653  1.00  0.00    -0.504 OA
ATOM     21  H   UNL     1      25.824   7.263  27.465  1.00  0.00     0.293 HD
ENDBRANCH  17  20
ENDBRANCH   1  12
BRANCH   2  22
ATOM     22  O   UNL     1      24.434   9.466  21.929  1.00  0.00    -0.502 OA
ATOM     23  H   UNL     1      24.061  10.311  21.514  1.00  0.00     0.293 HD
ENDBRANCH   2  22
BRANCH   6  24
ATOM     24  O   UNL     1      22.152   7.462  17.554  1.00  0.00    -0.507 OA
ATOM     25  H   UNL     1      22.270   7.560  16.557  1.00  0.00     0.293 HD
ENDBRANCH   6  24
BRANCH   8  26
ATOM     26  O   UNL     1      23.242   2.816  18.089  1.00  0.00    -0.508 OA
ATOM     27  H   UNL     1      22.516   2.189  18.417  1.00  0.00     0.293 HD
ENDBRANCH   8  26
TORSDOF 6
ENDMDL
MODEL 6
REMARK VINA RESULT:    -7.317      1.803      7.042
REMARK INTER + INTRA:          -9.137
REMARK INTER:                  -8.817
REMARK INTRA:                  -0.320
REMARK UNBOUND:                -0.324
REMARK SMILES O=c1c(O)c(-c2ccc(O)c(O)c2)oc2cc(O)cc(O)c12
REMARK SMILES IDX 5 1 3 2 2 3 1 4 22 5 20 6 19 7 17 8 16 9 15 10 14 11 6 12
REMARK SMILES IDX 7 13 8 14 9 15 13 16 11 17 10 18 12 20 4 22 21 24 18 26
REMARK H PARENT 10 19 12 21 4 23 21 25 18 27
REMARK Flexibility Score: inf
ROOT
ATOM      1  C   UNL     1      25.896   4.745  21.932  1.00  0.00     0.180 A 
ATOM      2  C   UNL     1      26.973   4.036  22.493  1.00  0.00     0.208 A 
ATOM      3  C   UNL     1      28.095   4.749  22.945  1.00  0.00     0.238 A 
ATOM      4  O   UNL     1      29.032   4.113  23.495  1.00  0.00    -0.285 OA
ATOM      5  C   UNL     1      28.135   6.158  22.816  1.00  0.00     0.111 A 
ATOM      6  C   UNL     1      29.237   6.977  23.204  1.00  0.00     0.134 A 
ATOM      7  C   UNL     1      29.115   8.371  23.152  1.00  0.00     0.093 A 
ATOM      8  C   UNL     1      27.953   8.973  22.663  1.00  0.00     0.123 A 
ATOM      9  C   UNL     1      26.893   8.182  22.228  1.00  0.00     0.094 A 
ATOM     10  C   UNL     1      26.972   6.789  22.302  1.00  0.00     0.146 A 
ATOM     11  O   UNL     1      25.936   6.072  21.885  1.00  0.00    -0.452 OA
ENDROOT
BRANCH   1  12
ATOM     12  C   UNL     1      24.689   4.063  21.411  1.00  0.00     0.025 A 
ATOM     13  C   UNL     1      23.611   3.741  22.252  1.00  0.00     0.016 A 
ATOM     14  C   UNL     1      22.492   3.076  21.743  1.00  0.00     0.051 A 
ATOM     15  C   UNL     1      22.440   2.712  20.392  1.00  0.00     0.157 A 
ATOM     16  C   UNL     1      24.641   3.678  20.061  1.00  0.00     0.062 A 
ATOM     17  C   UNL     1      23.522   3.012  19.548  1.00  0.00     0.158 A 
BRANCH  15  18
ATOM     18  O   UNL     1      21.321   2.050  19.887  1.00  0.00    -0.504 OA
ATOM     19  H   UNL     1      21.190   1.054  20.019  1.00  0.00     0.293 HD
ENDBRANCH  15  18
BRANCH  17  20
ATOM     20  O   UNL     1      23.505   2.657  18.200  1.00  0.00    -0.504 OA
ATOM     21  H   UNL     1      23.164   3.286  17.482  1.00  0.00     0.293 HD
ENDBRANCH  17  20
ENDBRANCH   1  12
BRANCH   2  22
ATOM     22  O   UNL     1      26.904   2.647  22.631  1.00  0.00    -0.502 OA
ATOM     23  H   UNL     1      26.966   2.187  23.531  1.00  0.00     0.293 HD
ENDBRANCH   2  22
BRANCH   6  24
ATOM     24  O   UNL     1      30.474   6.474  23.617  1.00  0.00    -0.507 OA
ATOM     25  H   UNL     1      31.349   6.635  23.140  1.00  0.00     0.293 HD
ENDBRANCH   6  24
BRANCH   8  26
ATOM     26  O   UNL     1      27.845  10.361  22.600  1.00  0.00    -0.508 OA
ATOM     27  H   UNL     1      27.213  10.814  21.949  1.00  0.00     0.293 HD
ENDBRANCH   8  26
TORSDOF 6
ENDMDL
MODEL 7
REMARK VINA RESULT:    -7.276      3.491      6.315
REMARK INTER + INTRA:          -9.088
REMARK INTER:                  -8.764
REMARK INTRA:                  -0.324
REMARK UNBOUND:                -0.324
REMARK SMILES O=c1c(O)c(-c2ccc(O)c(O)c2)oc2cc(O)cc(O)c12
REMARK SMILES IDX 5 1 3 2 2 3 1 4 22 5 20 6 19 7 17 8 16 9 15 10 14 11 6 12
REMARK SMILES IDX 7 13 8 14 9 15 13 16 11 17 10 18 12 20 4 22 21 24 18 26
REMARK H PARENT 10 19 12 21 4 23 21 25 18 27
REMARK Flexibility Score: inf
ROOT
ATOM      1  C   UNL     1      25.345   8.294  22.039  1.00  0.00     0.180 A 
ATOM      2  C   UNL     1      26.244   9.360  22.211  1.00  0.00     0.208 A 
ATOM      3  C   UNL     1      27.554   9.084  22.635  1.00  0.00     0.238 A 
ATOM      4  O   UNL     1      28.370  10.038  22.736  1.00  0.00    -0.285 OA
ATOM      5  C   UNL     1      27.943   7.748  22.898  1.00  0.00     0.111 A 
ATOM      6  C   UNL     1      29.232   7.358  23.370  1.00  0.00     0.134 A 
ATOM      7  C   UNL     1      29.548   5.997  23.471  1.00  0.00     0.093 A 
ATOM      8  C   UNL     1      28.599   5.015  23.178  1.00  0.00     0.123 A 
ATOM      9  C   UNL     1      27.320   5.387  22.772  1.00  0.00     0.094 A 
ATOM     10  C   UNL     1      26.987   6.735  22.627  1.00  0.00     0.146 A 
ATOM     11  O   UNL     1      25.759   7.047  22.229  1.00  0.00    -0.452 OA
ENDROOT
BRANCH   1  12
ATOM     12  C   UNL     1      23.941   8.507  21.618  1.00  0.00     0.025 A 
ATOM     13  C   UNL     1      23.584   8.552  20.259  1.00  0.00     0.016 A 
ATOM     14  C   UNL     1      22.257   8.778  19.884  1.00  0.00     0.051 A 
ATOM     15  C   UNL     1      21.271   8.975  20.859  1.00  0.00     0.157 A 
ATOM     16  C   UNL     1      22.952   8.726  22.591  1.00  0.00     0.062 A 
ATOM     17  C   UNL     1      21.622   8.952  22.219  1.00  0.00     0.158 A 
BRANCH  15  18
ATOM     18  O   UNL     1      19.947   9.199  20.482  1.00  0.00    -0.504 OA
ATOM     19  H   UNL     1      19.194   8.607  20.814  1.00  0.00     0.293 HD
ENDBRANCH  15  18
BRANCH  17  20
ATOM     20  O   UNL     1      20.666   9.152  23.214  1.00  0.00    -0.504 OA
ATOM     21  H   UNL     1      19.738   8.749  23.157  1.00  0.00     0.293 HD
ENDBRANCH  17  20
ENDBRANCH   1  12
BRANCH   2  22
ATOM     22  O   UNL     1      25.846  10.669  21.925  1.00  0.00    -0.502 OA
ATOM     23  H   UNL     1      26.500  11.441  21.890  1.00  0.00     0.293 HD
ENDBRANCH   2  22
BRANCH   6  24
ATOM     24  O   UNL     1      30.219   8.259  23.778  1.00  0.00    -0.507 OA
ATOM     25  H   UNL     1      30.093   9.258  23.847  1.00  0.00     0.293 HD
ENDBRANCH   6  24
BRANCH   8  26
ATOM     26  O   UNL     1      28.916   3.663  23.295  1.00  0.00    -0.508 OA
ATOM     27  H   UNL     1      29.878   3.348  23.354  1.00  0.00     0.293 HD
ENDBRANCH   8  26
TORSDOF 6
ENDMDL
MODEL 8
REMARK VINA RESULT:    -7.100      1.280      2.941
REMARK INTER + INTRA:          -8.876
REMARK INTER:                  -8.558
REMARK INTRA:                  -0.318
REMARK UNBOUND:                -0.324
REMARK SMILES O=c1c(O)c(-c2ccc(O)c(O)c2)oc2cc(O)cc(O)c12
REMARK SMILES IDX 5 1 3 2 2 3 1 4 22 5 20 6 19 7 17 8 16 9 15 10 14 11 6 12
REMARK SMILES IDX 7 13 8 14 9 15 13 16 11 17 10 18 12 20 4 22 21 24 18 26
REMARK H PARENT 10 19 12 21 4 23 21 25 18 27
REMARK Flexibility Score: inf
ROOT
ATOM      1  C   UNL     1      25.495   6.303  21.326  1.00  0.00     0.180 A 
ATOM      2  C   UNL     1      25.356   5.972  19.967  1.00  0.00     0.208 A 
ATOM      3  C   UNL     1      24.419   4.993  19.597  1.00  0.00     0.238 A 
ATOM      4  O   UNL     1      24.261   4.740  18.374  1.00  0.00    -0.285 OA
ATOM      5  C   UNL     1      23.646   4.346  20.591  1.00  0.00     0.111 A 
ATOM      6  C   UNL     1      22.696   3.313  20.333  1.00  0.00     0.134 A 
ATOM      7  C   UNL     1      21.894   2.836  21.377  1.00  0.00     0.093 A 
ATOM      8  C   UNL     1      22.054   3.310  22.682  1.00  0.00     0.123 A 
ATOM      9  C   UNL     1      23.018   4.277  22.954  1.00  0.00     0.094 A 
ATOM     10  C   UNL     1      23.808   4.798  21.927  1.00  0.00     0.146 A 
ATOM     11  O   UNL     1      24.709   5.725  22.227  1.00  0.00    -0.452 OA
ENDROOT
BRANCH   1  12
ATOM     12  C   UNL     1      26.478   7.306  21.796  1.00  0.00     0.025 A 
ATOM     13  C   UNL     1      27.747   6.923  22.263  1.00  0.00     0.016 A 
ATOM     14  C   UNL     1      28.649   7.885  22.725  1.00  0.00     0.051 A 
ATOM     15  C   UNL     1      28.293   9.240  22.740  1.00  0.00     0.157 A 
ATOM     16  C   UNL     1      26.118   8.663  21.832  1.00  0.00     0.062 A 
ATOM     17  C   UNL     1      27.020   9.629  22.294  1.00  0.00     0.158 A 
BRANCH  15  18
ATOM     18  O   UNL     1      29.196  10.197  23.199  1.00  0.00    -0.504 OA
ATOM     19  H   UNL     1      30.190  10.007  23.251  1.00  0.00     0.293 HD
ENDBRANCH  15  18
BRANCH  17  20
ATOM     20  O   UNL     1      26.631  10.968  22.301  1.00  0.00    -0.504 OA
ATOM     21  H   UNL     1      27.295  11.720  22.447  1.00  0.00     0.293 HD
ENDBRANCH  17  20
ENDBRANCH   1  12
BRANCH   2  22
ATOM     22  O   UNL     1      26.114   6.638  19.000  1.00  0.00    -0.502 OA
ATOM     23  H   UNL     1      26.820   6.171  18.446  1.00  0.00     0.293 HD
ENDBRANCH   2  22
BRANCH   6  24
ATOM     24  O   UNL     1      22.523   2.705  19.086  1.00  0.00    -0.507 OA
ATOM     25  H   UNL     1      21.646   2.355  18.734  1.00  0.00     0.293 HD
ENDBRANCH   6  24
BRANCH   8  26
ATOM     26  O   UNL     1      21.262   2.819  23.718  1.00  0.00    -0.508 OA
ATOM     27  H   UNL     1      21.509   1.973  24.219  1.00  0.00     0.293 HD
ENDBRANCH   8  26
TORSDOF 6
ENDMDL
MODEL 9
REMARK VINA RESULT:    -7.040      2.659      3.533
REMARK INTER + INTRA:          -8.804
REMARK INTER:                  -8.507
REMARK INTRA:                  -0.297
REMARK UNBOUND:                -0.324
REMARK SMILES O=c1c(O)c(-c2ccc(O)c(O)c2)oc2cc(O)cc(O)c12
REMARK SMILES IDX 5 1 3 2 2 3 1 4 22 5 20 6 19 7 17 8 16 9 15 10 14 11 6 12
REMARK SMILES IDX 7 13 8 14 9 15 13 16 11 17 10 18 12 20 4 22 21 24 18 26
REMARK H PARENT 10 19 12 21 4 23 21 25 18 27
REMARK Flexibility Score: inf
ROOT
ATOM      1  C   UNL     1      25.121   7.094  21.840  1.00  0.00     0.180 A 
ATOM      2  C   UNL     1      24.425   8.202  21.329  1.00  0.00     0.208 A 
ATOM      3  C   UNL     1      23.626   8.036  20.186  1.00  0.00     0.238 A 
ATOM      4  O   UNL     1      22.963   9.020  19.764  1.00  0.00    -0.285 OA
ATOM      5  C   UNL     1      23.546   6.769  19.560  1.00  0.00     0.111 A 
ATOM      6  C   UNL     1      22.799   6.496  18.375  1.00  0.00     0.134 A 
ATOM      7  C   UNL     1      22.686   5.177  17.918  1.00  0.00     0.093 A 
ATOM      8  C   UNL     1      23.347   4.131  18.567  1.00  0.00     0.123 A 
ATOM      9  C   UNL     1      24.126   4.396  19.690  1.00  0.00     0.094 A 
ATOM     10  C   UNL     1      24.228   5.696  20.191  1.00  0.00     0.146 A 
ATOM     11  O   UNL     1      24.973   5.904  21.270  1.00  0.00    -0.452 OA
ENDROOT
BRANCH   1  12
ATOM     12  C   UNL     1      26.002   7.195  23.026  1.00  0.00     0.025 A 
ATOM     13  C   UNL     1      25.551   6.828  24.306  1.00  0.00     0.016 A 
ATOM     14  C   UNL     1      26.392   6.955  25.415  1.00  0.00     0.051 A 
ATOM     15  C   UNL     1      27.689   7.462  25.264  1.00  0.00     0.157 A 
ATOM     16  C   UNL     1      27.297   7.721  22.884  1.00  0.00     0.062 A 
ATOM     17  C   UNL     1      28.141   7.850  23.993  1.00  0.00     0.158 A 
BRANCH  15  18
ATOM     18  O   UNL     1      28.527   7.585  26.372  1.00  0.00    -0.504 OA
ATOM     19  H   UNL     1      29.439   7.145  26.399  1.00  0.00     0.293 HD
ENDBRANCH  15  18
BRANCH  17  20
ATOM     20  O   UNL     1      29.425   8.364  23.809  1.00  0.00    -0.504 OA
ATOM     21  H   UNL     1      29.714   9.246  24.216  1.00  0.00     0.293 HD
ENDBRANCH  17  20
ENDBRANCH   1  12
BRANCH   2  22
ATOM     22  O   UNL     1      24.500   9.439  21.974  1.00  0.00    -0.502 OA
ATOM     23  H   UNL     1      25.380   9.851  22.260  1.00  0.00     0.293 HD
ENDBRANCH   2  22
BRANCH   6  24
ATOM     24  O   UNL     1      22.178   7.480  17.600  1.00  0.00    -0.507 OA
ATOM     25  H   UNL     1      21.208   7.743  17.675  1.00  0.00     0.293 HD
ENDBRANCH   6  24
BRANCH   8  26
ATOM     26  O   UNL     1      23.242   2.824  18.097  1.00  0.00    -0.508 OA
ATOM     27  H   UNL     1      23.954   2.130  18.295  1.00  0.00     0.293 HD
ENDBRANCH   8  26
TORSDOF 6
ENDMDL
