MODEL 1
REMARK VINA RESULT:    12.497      0.000      0.000
REMARK INTER + INTRA:          29.305
REMARK INTER:                  28.569
REMARK INTRA:                   0.736
REMARK UNBOUND:                 0.736
REMARK SMILES CCCCCCCCCCCCCCCCCCCCCCCC(=O)[O-]
REMARK SMILES IDX 13 1 14 2 15 3 16 4 17 5 18 6 19 7 20 8 21 9 22 10 23 11
REMARK SMILES IDX 24 12 25 13 26 14 12 15 11 16 10 17 9 18 8 19 7 20 6 21 5 22
REMARK SMILES IDX 4 23 3 24 2 25 1 26
REMARK H PARENT
REMARK Flexibility Score: inf
ROOT
ATOM      1  C   UNL     1      80.246  65.714 102.513  1.00  0.00     0.000 C 
ENDROOT
BRANCH   1   2
ATOM      2  C   UNL     1      81.417  64.729 102.646  1.00  0.00     0.000 C 
BRANCH   2   3
ATOM      3  C   UNL     1      82.458  65.187 103.686  1.00  0.00     0.000 C 
BRANCH   3   4
ATOM      4  C   UNL     1      82.268  66.633 104.188  1.00  0.00     0.000 C 
BRANCH   4   5
ATOM      5  C   UNL     1      83.549  67.329 104.704  1.00  0.00     0.000 C 
BRANCH   5   6
ATOM      6  C   UNL     1      83.832  67.159 106.210  1.00  0.00     0.000 C 
BRANCH   6   7
ATOM      7  C   UNL     1      84.604  65.869 106.538  1.00  0.00     0.000 C 
BRANCH   7   8
ATOM      8  C   UNL     1      84.965  65.754 108.029  1.00  0.00     0.000 C 
BRANCH   8   9
ATOM      9  C   UNL     1      86.440  65.382 108.264  1.00  0.00     0.000 C 
BRANCH   9  10
ATOM     10  C   UNL     1      86.712  64.950 109.714  1.00  0.00     0.006 C 
BRANCH  10  11
ATOM     11  C   UNL     1      87.683  65.893 110.440  1.00  0.00     0.053 C 
BRANCH  11  12
ATOM     12  C   UNL     1      87.028  67.216 110.692  1.00  0.00     0.041 C 
ATOM     13  O   UNL     1      85.799  67.275 110.965  1.00  0.00    -0.550 OA
ATOM     14  O   UNL     1      87.766  68.389 110.588  1.00  0.00    -0.550 OA
ENDBRANCH  11  12
ENDBRANCH  10  11
ENDBRANCH   9  10
ENDBRANCH   8   9
ENDBRANCH   7   8
ENDBRANCH   6   7
ENDBRANCH   5   6
ENDBRANCH   4   5
ENDBRANCH   3   4
ENDBRANCH   2   3
ENDBRANCH   1   2
BRANCH   1  15
ATOM     15  C   UNL     1      79.058  65.113 101.739  1.00  0.00     0.000 C 
BRANCH  15  16
ATOM     16  C   UNL     1      78.118  64.225 102.583  1.00  0.00     0.000 C 
BRANCH  16  17
ATOM     17  C   UNL     1      76.931  63.612 101.817  1.00  0.00     0.000 C 
BRANCH  17  18
ATOM     18  C   UNL     1      77.081  63.722 100.291  1.00  0.00    -0.000 C 
BRANCH  18  19
ATOM     19  C   UNL     1      75.821  63.215  99.572  1.00  0.00    -0.000 C 
BRANCH  19  20
ATOM     20  C   UNL     1      74.812  64.342  99.295  1.00  0.00    -0.000 C 
BRANCH  20  21
ATOM     21  C   UNL     1      74.924  64.895  97.866  1.00  0.00    -0.000 C 
BRANCH  21  22
ATOM     22  C   UNL     1      74.282  63.933  96.853  1.00  0.00    -0.000 C 
BRANCH  22  23
ATOM     23  C   UNL     1      75.173  62.718  96.538  1.00  0.00    -0.000 C 
BRANCH  23  24
ATOM     24  C   UNL     1      75.189  61.639  97.638  1.00  0.00    -0.000 C 
BRANCH  24  25
ATOM     25  C   UNL     1      76.211  60.524  97.360  1.00  0.00    -0.003 C 
ATOM     26  C   UNL     1      76.387  60.300  95.862  1.00  0.00     0.004 C 
ENDBRANCH  24  25
ENDBRANCH  23  24
ENDBRANCH  22  23
ENDBRANCH  21  22
ENDBRANCH  20  21
ENDBRANCH  19  20
ENDBRANCH  18  19
ENDBRANCH  17  18
ENDBRANCH  16  17
ENDBRANCH  15  16
ENDBRANCH   1  15
TORSDOF 22
ENDMDL
MODEL 2
REMARK VINA RESULT:    12.667      1.739      1.949
REMARK INTER + INTRA:          29.693
REMARK INTER:                  29.711
REMARK INTRA:                  -0.018
REMARK UNBOUND:                 0.736
REMARK SMILES CCCCCCCCCCCCCCCCCCCCCCCC(=O)[O-]
REMARK SMILES IDX 13 1 14 2 15 3 16 4 17 5 18 6 19 7 20 8 21 9 22 10 23 11
REMARK SMILES IDX 24 12 25 13 26 14 12 15 11 16 10 17 9 18 8 19 7 20 6 21 5 22
REMARK SMILES IDX 4 23 3 24 2 25 1 26
REMARK H PARENT
REMARK Flexibility Score: inf
ROOT
ATOM      1  C   UNL     1      80.034  65.564 102.157  1.00  0.00     0.000 C 
ENDROOT
BRANCH   1   2
ATOM      2  C   UNL     1      81.298  65.080 102.884  1.00  0.00     0.000 C 
BRANCH   2   3
ATOM      3  C   UNL     1      81.688  65.995 104.061  1.00  0.00     0.000 C 
BRANCH   3   4
ATOM      4  C   UNL     1      83.188  65.972 104.421  1.00  0.00     0.000 C 
BRANCH   4   5
ATOM      5  C   UNL     1      83.710  67.226 105.160  1.00  0.00     0.000 C 
BRANCH   5   6
ATOM      6  C   UNL     1      83.892  67.069 106.682  1.00  0.00     0.000 C 
BRANCH   6   7
ATOM      7  C   UNL     1      85.141  66.255 107.061  1.00  0.00     0.000 C 
BRANCH   7   8
ATOM      8  C   UNL     1      85.337  66.138 108.583  1.00  0.00     0.000 C 
BRANCH   8   9
ATOM      9  C   UNL     1      86.788  65.815 108.980  1.00  0.00     0.000 C 
BRANCH   9  10
ATOM     10  C   UNL     1      86.928  65.483 110.474  1.00  0.00     0.006 C 
BRANCH  10  11
ATOM     11  C   UNL     1      88.116  64.555 110.765  1.00  0.00     0.053 C 
BRANCH  11  12
ATOM     12  C   UNL     1      87.848  63.184 110.225  1.00  0.00     0.041 C 
ATOM     13  O   UNL     1      87.658  62.218 111.012  1.00  0.00    -0.550 OA
ATOM     14  O   UNL     1      87.847  62.964 108.853  1.00  0.00    -0.550 OA
ENDBRANCH  11  12
ENDBRANCH  10  11
ENDBRANCH   9  10
ENDBRANCH   8   9
ENDBRANCH   7   8
ENDBRANCH   6   7
ENDBRANCH   5   6
ENDBRANCH   4   5
ENDBRANCH   3   4
ENDBRANCH   2   3
ENDBRANCH   1   2
BRANCH   1  15
ATOM     15  C   UNL     1      79.169  64.400 101.643  1.00  0.00     0.000 C 
BRANCH  15  16
ATOM     16  C   UNL     1      77.972  64.034 102.548  1.00  0.00     0.000 C 
BRANCH  16  17
ATOM     17  C   UNL     1      76.583  64.236 101.912  1.00  0.00     0.000 C 
BRANCH  17  18
ATOM     18  C   UNL     1      76.538  63.835 100.429  1.00  0.00    -0.000 C 
BRANCH  18  19
ATOM     19  C   UNL     1      75.174  64.167  99.807  1.00  0.00    -0.000 C 
BRANCH  19  20
ATOM     20  C   UNL     1      74.695  63.081  98.829  1.00  0.00    -0.000 C 
BRANCH  20  21
ATOM     21  C   UNL     1      74.212  63.664  97.492  1.00  0.00    -0.000 C 
BRANCH  21  22
ATOM     22  C   UNL     1      75.356  63.706  96.467  1.00  0.00    -0.000 C 
BRANCH  22  23
ATOM     23  C   UNL     1      75.701  62.316  95.902  1.00  0.00    -0.000 C 
BRANCH  23  24
ATOM     24  C   UNL     1      75.436  61.151  96.875  1.00  0.00    -0.000 C 
BRANCH  24  25
ATOM     25  C   UNL     1      76.591  60.138  96.917  1.00  0.00    -0.003 C 
ATOM     26  C   UNL     1      77.334  60.096  95.585  1.00  0.00     0.004 C 
ENDBRANCH  24  25
ENDBRANCH  23  24
ENDBRANCH  22  23
ENDBRANCH  21  22
ENDBRANCH  20  21
ENDBRANCH  19  20
ENDBRANCH  18  19
ENDBRANCH  17  18
ENDBRANCH  16  17
ENDBRANCH  15  16
ENDBRANCH   1  15
TORSDOF 22
ENDMDL
MODEL 3
REMARK VINA RESULT:    13.418      5.219     14.075
REMARK INTER + INTRA:          31.412
REMARK INTER:                  32.354
REMARK INTRA:                  -0.942
REMARK UNBOUND:                 0.736
REMARK SMILES CCCCCCCCCCCCCCCCCCCCCCCC(=O)[O-]
REMARK SMILES IDX 13 1 14 2 15 3 16 4 17 5 18 6 19 7 20 8 21 9 22 10 23 11
REMARK SMILES IDX 24 12 25 13 26 14 12 15 11 16 10 17 9 18 8 19 7 20 6 21 5 22
REMARK SMILES IDX 4 23 3 24 2 25 1 26
REMARK H PARENT
REMARK Flexibility Score: inf
ROOT
ATOM      1  C   UNL     1      80.955  65.850 103.465  1.00  0.00     0.000 C 
ENDROOT
BRANCH   1   2
ATOM      2  C   UNL     1      80.693  64.764 102.409  1.00  0.00     0.000 C 
BRANCH   2   3
ATOM      3  C   UNL     1      79.267  64.838 101.830  1.00  0.00     0.000 C 
BRANCH   3   4
ATOM      4  C   UNL     1      78.259  63.872 102.485  1.00  0.00     0.000 C 
BRANCH   4   5
ATOM      5  C   UNL     1      76.859  63.832 101.830  1.00  0.00     0.000 C 
BRANCH   5   6
ATOM      6  C   UNL     1      76.847  63.893 100.290  1.00  0.00     0.000 C 
BRANCH   6   7
ATOM      7  C   UNL     1      75.543  63.358  99.673  1.00  0.00     0.000 C 
BRANCH   7   8
ATOM      8  C   UNL     1      74.752  64.442  98.921  1.00  0.00     0.000 C 
BRANCH   8   9
ATOM      9  C   UNL     1      74.517  64.097  97.440  1.00  0.00     0.000 C 
BRANCH   9  10
ATOM     10  C   UNL     1      75.658  63.256  96.845  1.00  0.00     0.006 C 
BRANCH  10  11
ATOM     11  C   UNL     1      75.172  61.910  96.287  1.00  0.00     0.053 C 
BRANCH  11  12
ATOM     12  C   UNL     1      75.701  60.782  97.118  1.00  0.00     0.041 C 
ATOM     13  O   UNL     1      76.874  60.358  96.939  1.00  0.00    -0.550 OA
ATOM     14  O   UNL     1      74.886  60.171  98.063  1.00  0.00    -0.550 OA
ENDBRANCH  11  12
ENDBRANCH  10  11
ENDBRANCH   9  10
ENDBRANCH   8   9
ENDBRANCH   7   8
ENDBRANCH   6   7
ENDBRANCH   5   6
ENDBRANCH   4   5
ENDBRANCH   3   4
ENDBRANCH   2   3
ENDBRANCH   1   2
BRANCH   1  15
ATOM     15  C   UNL     1      82.360  65.739 104.085  1.00  0.00     0.000 C 
BRANCH  15  16
ATOM     16  C   UNL     1      82.941  67.068 104.612  1.00  0.00     0.000 C 
BRANCH  16  17
ATOM     17  C   UNL     1      84.016  66.926 105.707  1.00  0.00     0.000 C 
BRANCH  17  18
ATOM     18  C   UNL     1      83.457  66.368 107.026  1.00  0.00    -0.000 C 
BRANCH  18  19
ATOM     19  C   UNL     1      84.590  65.926 107.965  1.00  0.00    -0.000 C 
BRANCH  19  20
ATOM     20  C   UNL     1      85.911  65.685 107.216  1.00  0.00    -0.000 C 
BRANCH  20  21
ATOM     21  C   UNL     1      87.109  65.538 108.168  1.00  0.00    -0.000 C 
BRANCH  21  22
ATOM     22  C   UNL     1      86.673  64.923 109.507  1.00  0.00    -0.000 C 
BRANCH  22  23
ATOM     23  C   UNL     1      86.376  65.986 110.582  1.00  0.00    -0.000 C 
BRANCH  23  24
ATOM     24  C   UNL     1      87.502  67.018 110.782  1.00  0.00    -0.000 C 
BRANCH  24  25
ATOM     25  C   UNL     1      86.977  68.462 110.849  1.00  0.00    -0.003 C 
ATOM     26  C   UNL     1      88.125  69.458 110.987  1.00  0.00     0.004 C 
ENDBRANCH  24  25
ENDBRANCH  23  24
ENDBRANCH  22  23
ENDBRANCH  21  22
ENDBRANCH  20  21
ENDBRANCH  19  20
ENDBRANCH  18  19
ENDBRANCH  17  18
ENDBRANCH  16  17
ENDBRANCH  15  16
ENDBRANCH   1  15
TORSDOF 22
ENDMDL
MODEL 4
REMARK VINA RESULT:    13.550      5.320     14.158
REMARK INTER + INTRA:          31.713
REMARK INTER:                  31.396
REMARK INTRA:                   0.317
REMARK UNBOUND:                 0.736
REMARK SMILES CCCCCCCCCCCCCCCCCCCCCCCC(=O)[O-]
REMARK SMILES IDX 13 1 14 2 15 3 16 4 17 5 18 6 19 7 20 8 21 9 22 10 23 11
REMARK SMILES IDX 24 12 25 13 26 14 12 15 11 16 10 17 9 18 8 19 7 20 6 21 5 22
REMARK SMILES IDX 4 23 3 24 2 25 1 26
REMARK H PARENT
REMARK Flexibility Score: inf
ROOT
ATOM      1  C   UNL     1      82.349  66.628 103.861  1.00  0.00     0.000 C 
ENDROOT
BRANCH   1   2
ATOM      2  C   UNL     1      81.601  65.286 103.827  1.00  0.00     0.000 C 
BRANCH   2   3
ATOM      3  C   UNL     1      81.189  64.877 102.400  1.00  0.00     0.000 C 
BRANCH   3   4
ATOM      4  C   UNL     1      79.699  65.106 102.072  1.00  0.00     0.000 C 
BRANCH   4   5
ATOM      5  C   UNL     1      78.779  63.881 102.279  1.00  0.00     0.000 C 
BRANCH   5   6
ATOM      6  C   UNL     1      77.349  64.201 102.756  1.00  0.00     0.000 C 
BRANCH   6   7
ATOM      7  C   UNL     1      76.365  64.445 101.598  1.00  0.00     0.000 C 
BRANCH   7   8
ATOM      8  C   UNL     1      76.521  63.422 100.459  1.00  0.00     0.000 C 
BRANCH   8   9
ATOM      9  C   UNL     1      75.608  63.718  99.256  1.00  0.00     0.000 C 
BRANCH   9  10
ATOM     10  C   UNL     1      75.174  62.439  98.521  1.00  0.00     0.006 C 
BRANCH  10  11
ATOM     11  C   UNL     1      75.320  62.555  96.996  1.00  0.00     0.053 C 
BRANCH  11  12
ATOM     12  C   UNL     1      74.707  63.833  96.512  1.00  0.00     0.041 C 
ATOM     13  O   UNL     1      74.819  64.173  95.304  1.00  0.00    -0.550 OA
ATOM     14  O   UNL     1      74.046  64.670  97.404  1.00  0.00    -0.550 OA
ENDBRANCH  11  12
ENDBRANCH  10  11
ENDBRANCH   9  10
ENDBRANCH   8   9
ENDBRANCH   7   8
ENDBRANCH   6   7
ENDBRANCH   5   6
ENDBRANCH   4   5
ENDBRANCH   3   4
ENDBRANCH   2   3
ENDBRANCH   1   2
BRANCH   1  15
ATOM     15  C   UNL     1      82.740  67.047 105.290  1.00  0.00     0.000 C 
BRANCH  15  16
ATOM     16  C   UNL     1      84.237  66.883 105.626  1.00  0.00     0.000 C 
BRANCH  16  17
ATOM     17  C   UNL     1      84.542  66.450 107.073  1.00  0.00     0.000 C 
BRANCH  17  18
ATOM     18  C   UNL     1      85.872  65.691 107.204  1.00  0.00    -0.000 C 
BRANCH  18  19
ATOM     19  C   UNL     1      85.866  64.772 108.435  1.00  0.00    -0.000 C 
BRANCH  19  20
ATOM     20  C   UNL     1      87.157  63.944 108.555  1.00  0.00    -0.000 C 
BRANCH  20  21
ATOM     21  C   UNL     1      87.560  63.691 110.017  1.00  0.00    -0.000 C 
BRANCH  21  22
ATOM     22  C   UNL     1      88.116  64.970 110.662  1.00  0.00    -0.000 C 
BRANCH  22  23
ATOM     23  C   UNL     1      87.018  65.999 110.989  1.00  0.00    -0.000 C 
BRANCH  23  24
ATOM     24  C   UNL     1      87.151  67.332 110.229  1.00  0.00    -0.000 C 
BRANCH  24  25
ATOM     25  C   UNL     1      87.671  68.473 111.119  1.00  0.00    -0.003 C 
ATOM     26  C   UNL     1      88.066  69.687 110.283  1.00  0.00     0.004 C 
ENDBRANCH  24  25
ENDBRANCH  23  24
ENDBRANCH  22  23
ENDBRANCH  21  22
ENDBRANCH  20  21
ENDBRANCH  19  20
ENDBRANCH  18  19
ENDBRANCH  17  18
ENDBRANCH  16  17
ENDBRANCH  15  16
ENDBRANCH   1  15
TORSDOF 22
ENDMDL
MODEL 5
REMARK VINA RESULT:    13.889      5.253     13.724
REMARK INTER + INTRA:          32.488
REMARK INTER:                  33.630
REMARK INTRA:                  -1.142
REMARK UNBOUND:                 0.736
REMARK SMILES CCCCCCCCCCCCCCCCCCCCCCCC(=O)[O-]
REMARK SMILES IDX 13 1 14 2 15 3 16 4 17 5 18 6 19 7 20 8 21 9 22 10 23 11
REMARK SMILES IDX 24 12 25 13 26 14 12 15 11 16 10 17 9 18 8 19 7 20 6 21 5 22
REMARK SMILES IDX 4 23 3 24 2 25 1 26
REMARK H PARENT
REMARK Flexibility Score: inf
ROOT
ATOM      1  C   UNL     1      80.348  65.986 102.454  1.00  0.00     0.000 C 
ENDROOT
BRANCH   1   2
ATOM      2  C   UNL     1      79.435  64.799 102.797  1.00  0.00     0.000 C 
BRANCH   2   3
ATOM      3  C   UNL     1      78.651  64.286 101.574  1.00  0.00     0.000 C 
BRANCH   3   4
ATOM      4  C   UNL     1      77.131  64.147 101.799  1.00  0.00     0.000 C 
BRANCH   4   5
ATOM      5  C   UNL     1      76.382  63.295 100.749  1.00  0.00     0.000 C 
BRANCH   5   6
ATOM      6  C   UNL     1      76.010  64.029  99.445  1.00  0.00     0.000 C 
BRANCH   6   7
ATOM      7  C   UNL     1      74.558  64.540  99.432  1.00  0.00     0.000 C 
BRANCH   7   8
ATOM      8  C   UNL     1      73.845  64.272  98.096  1.00  0.00     0.000 C 
BRANCH   8   9
ATOM      9  C   UNL     1      74.814  64.184  96.903  1.00  0.00     0.000 C 
BRANCH   9  10
ATOM     10  C   UNL     1      74.693  62.853  96.145  1.00  0.00     0.006 C 
BRANCH  10  11
ATOM     11  C   UNL     1      75.994  62.038  96.168  1.00  0.00     0.053 C 
BRANCH  11  12
ATOM     12  C   UNL     1      75.900  60.940  97.182  1.00  0.00     0.041 C 
ATOM     13  O   UNL     1      76.759  60.017  97.201  1.00  0.00    -0.550 OA
ATOM     14  O   UNL     1      74.841  60.912  98.083  1.00  0.00    -0.550 OA
ENDBRANCH  11  12
ENDBRANCH  10  11
ENDBRANCH   9  10
ENDBRANCH   8   9
ENDBRANCH   7   8
ENDBRANCH   6   7
ENDBRANCH   5   6
ENDBRANCH   4   5
ENDBRANCH   3   4
ENDBRANCH   2   3
ENDBRANCH   1   2
BRANCH   1  15
ATOM     15  C   UNL     1      81.767  65.821 103.028  1.00  0.00     0.000 C 
BRANCH  15  16
ATOM     16  C   UNL     1      81.875  66.025 104.555  1.00  0.00     0.000 C 
BRANCH  16  17
ATOM     17  C   UNL     1      82.259  67.448 105.002  1.00  0.00     0.000 C 
BRANCH  17  18
ATOM     18  C   UNL     1      83.767  67.726 104.888  1.00  0.00    -0.000 C 
BRANCH  18  19
ATOM     19  C   UNL     1      84.590  66.551 105.438  1.00  0.00    -0.000 C 
BRANCH  19  20
ATOM     20  C   UNL     1      84.388  66.351 106.949  1.00  0.00    -0.000 C 
BRANCH  20  21
ATOM     21  C   UNL     1      85.508  65.513 107.586  1.00  0.00    -0.000 C 
BRANCH  21  22
ATOM     22  C   UNL     1      85.854  66.036 108.989  1.00  0.00    -0.000 C 
BRANCH  22  23
ATOM     23  C   UNL     1      87.369  66.045 109.265  1.00  0.00    -0.000 C 
BRANCH  23  24
ATOM     24  C   UNL     1      87.759  65.596 110.686  1.00  0.00    -0.000 C 
BRANCH  24  25
ATOM     25  C   UNL     1      87.582  64.084 110.900  1.00  0.00    -0.003 C 
ATOM     26  C   UNL     1      87.814  63.314 109.604  1.00  0.00     0.004 C 
ENDBRANCH  24  25
ENDBRANCH  23  24
ENDBRANCH  22  23
ENDBRANCH  21  22
ENDBRANCH  20  21
ENDBRANCH  19  20
ENDBRANCH  18  19
ENDBRANCH  17  18
ENDBRANCH  16  17
ENDBRANCH  15  16
ENDBRANCH   1  15
TORSDOF 22
ENDMDL
MODEL 6
REMARK VINA RESULT:    14.069      5.411     13.700
REMARK INTER + INTRA:          32.900
REMARK INTER:                  33.937
REMARK INTRA:                  -1.037
REMARK UNBOUND:                 0.736
REMARK SMILES CCCCCCCCCCCCCCCCCCCCCCCC(=O)[O-]
REMARK SMILES IDX 13 1 14 2 15 3 16 4 17 5 18 6 19 7 20 8 21 9 22 10 23 11
REMARK SMILES IDX 24 12 25 13 26 14 12 15 11 16 10 17 9 18 8 19 7 20 6 21 5 22
REMARK SMILES IDX 4 23 3 24 2 25 1 26
REMARK H PARENT
REMARK Flexibility Score: inf
ROOT
ATOM      1  C   UNL     1      80.989  63.575 102.070  1.00  0.00     0.000 C 
ENDROOT
BRANCH   1   2
ATOM      2  C   UNL     1      80.153  64.745 101.527  1.00  0.00     0.000 C 
BRANCH   2   3
ATOM      3  C   UNL     1      78.850  64.957 102.321  1.00  0.00     0.000 C 
BRANCH   3   4
ATOM      4  C   UNL     1      77.790  63.855 102.121  1.00  0.00     0.000 C 
BRANCH   4   5
ATOM      5  C   UNL     1      77.249  63.710 100.680  1.00  0.00     0.000 C 
BRANCH   5   6
ATOM      6  C   UNL     1      75.716  63.609 100.556  1.00  0.00     0.000 C 
BRANCH   6   7
ATOM      7  C   UNL     1      75.158  64.354  99.330  1.00  0.00     0.000 C 
BRANCH   7   8
ATOM      8  C   UNL     1      74.709  63.402  98.209  1.00  0.00     0.000 C 
BRANCH   8   9
ATOM      9  C   UNL     1      75.148  63.871  96.810  1.00  0.00     0.000 C 
BRANCH   9  10
ATOM     10  C   UNL     1      75.755  62.733  95.973  1.00  0.00     0.006 C 
BRANCH  10  11
ATOM     11  C   UNL     1      75.015  61.400  96.163  1.00  0.00     0.053 C 
BRANCH  11  12
ATOM     12  C   UNL     1      75.862  60.445  96.945  1.00  0.00     0.041 C 
ATOM     13  O   UNL     1      75.397  59.879  97.971  1.00  0.00    -0.550 OA
ATOM     14  O   UNL     1      77.178  60.208  96.566  1.00  0.00    -0.550 OA
ENDBRANCH  11  12
ENDBRANCH  10  11
ENDBRANCH   9  10
ENDBRANCH   8   9
ENDBRANCH   7   8
ENDBRANCH   6   7
ENDBRANCH   5   6
ENDBRANCH   4   5
ENDBRANCH   3   4
ENDBRANCH   2   3
ENDBRANCH   1   2
BRANCH   1  15
ATOM     15  C   UNL     1      82.195  64.050 102.901  1.00  0.00     0.000 C 
BRANCH  15  16
ATOM     16  C   UNL     1      83.439  63.142 102.813  1.00  0.00     0.000 C 
BRANCH  16  17
ATOM     17  C   UNL     1      84.037  62.714 104.167  1.00  0.00     0.000 C 
BRANCH  17  18
ATOM     18  C   UNL     1      83.693  63.685 105.308  1.00  0.00    -0.000 C 
BRANCH  18  19
ATOM     19  C   UNL     1      84.834  63.762 106.333  1.00  0.00    -0.000 C 
BRANCH  19  20
ATOM     20  C   UNL     1      84.741  65.014 107.222  1.00  0.00    -0.000 C 
BRANCH  20  21
ATOM     21  C   UNL     1      86.010  65.878 107.157  1.00  0.00    -0.000 C 
BRANCH  21  22
ATOM     22  C   UNL     1      86.840  65.730 108.442  1.00  0.00    -0.000 C 
BRANCH  22  23
ATOM     23  C   UNL     1      85.988  65.849 109.719  1.00  0.00    -0.000 C 
BRANCH  23  24
ATOM     24  C   UNL     1      86.565  65.107 110.939  1.00  0.00    -0.000 C 
BRANCH  24  25
ATOM     25  C   UNL     1      87.920  64.442 110.644  1.00  0.00    -0.003 C 
ATOM     26  C   UNL     1      87.816  62.922 110.724  1.00  0.00     0.004 C 
ENDBRANCH  24  25
ENDBRANCH  23  24
ENDBRANCH  22  23
ENDBRANCH  21  22
ENDBRANCH  20  21
ENDBRANCH  19  20
ENDBRANCH  18  19
ENDBRANCH  17  18
ENDBRANCH  16  17
ENDBRANCH  15  16
ENDBRANCH   1  15
TORSDOF 22
ENDMDL
MODEL 7
REMARK VINA RESULT:    14.261      1.045      2.864
REMARK INTER + INTRA:          33.337
REMARK INTER:                  31.637
REMARK INTRA:                   1.701
REMARK UNBOUND:                 0.736
REMARK SMILES CCCCCCCCCCCCCCCCCCCCCCCC(=O)[O-]
REMARK SMILES IDX 13 1 14 2 15 3 16 4 17 5 18 6 19 7 20 8 21 9 22 10 23 11
REMARK SMILES IDX 24 12 25 13 26 14 12 15 11 16 10 17 9 18 8 19 7 20 6 21 5 22
REMARK SMILES IDX 4 23 3 24 2 25 1 26
REMARK H PARENT
REMARK Flexibility Score: inf
ROOT
ATOM      1  C   UNL     1      81.894  66.325 104.565  1.00  0.00     0.000 C 
ENDROOT
BRANCH   1   2
ATOM      2  C   UNL     1      82.790  67.546 104.822  1.00  0.00     0.000 C 
BRANCH   2   3
ATOM      3  C   UNL     1      84.240  67.152 105.164  1.00  0.00     0.000 C 
BRANCH   3   4
ATOM      4  C   UNL     1      84.369  65.922 106.085  1.00  0.00     0.000 C 
BRANCH   4   5
ATOM      5  C   UNL     1      84.812  66.224 107.535  1.00  0.00     0.000 C 
BRANCH   5   6
ATOM      6  C   UNL     1      86.177  65.639 107.945  1.00  0.00     0.000 C 
BRANCH   6   7
ATOM      7  C   UNL     1      86.182  64.101 108.009  1.00  0.00     0.000 C 
BRANCH   7   8
ATOM      8  C   UNL     1      87.555  63.525 108.394  1.00  0.00     0.000 C 
BRANCH   8   9
ATOM      9  C   UNL     1      87.922  63.777 109.867  1.00  0.00     0.000 C 
BRANCH   9  10
ATOM     10  C   UNL     1      88.017  65.275 110.199  1.00  0.00     0.006 C 
BRANCH  10  11
ATOM     11  C   UNL     1      86.812  65.778 111.009  1.00  0.00     0.053 C 
BRANCH  11  12
ATOM     12  C   UNL     1      86.651  67.257 110.833  1.00  0.00     0.041 C 
ATOM     13  O   UNL     1      87.625  67.962 110.456  1.00  0.00    -0.550 OA
ATOM     14  O   UNL     1      85.435  67.864 111.124  1.00  0.00    -0.550 OA
ENDBRANCH  11  12
ENDBRANCH  10  11
ENDBRANCH   9  10
ENDBRANCH   8   9
ENDBRANCH   7   8
ENDBRANCH   6   7
ENDBRANCH   5   6
ENDBRANCH   4   5
ENDBRANCH   3   4
ENDBRANCH   2   3
ENDBRANCH   1   2
BRANCH   1  15
ATOM     15  C   UNL     1      81.430  66.233 103.100  1.00  0.00     0.000 C 
BRANCH  15  16
ATOM     16  C   UNL     1      81.210  64.797 102.580  1.00  0.00     0.000 C 
BRANCH  16  17
ATOM     17  C   UNL     1      79.931  64.589 101.746  1.00  0.00     0.000 C 
BRANCH  17  18
ATOM     18  C   UNL     1      78.661  65.073 102.466  1.00  0.00    -0.000 C 
BRANCH  18  19
ATOM     19  C   UNL     1      77.488  64.111 102.225  1.00  0.00    -0.000 C 
BRANCH  19  20
ATOM     20  C   UNL     1      77.188  63.915 100.730  1.00  0.00    -0.000 C 
BRANCH  20  21
ATOM     21  C   UNL     1      75.863  63.175 100.487  1.00  0.00    -0.000 C 
BRANCH  21  22
ATOM     22  C   UNL     1      75.500  63.175  98.994  1.00  0.00    -0.000 C 
BRANCH  22  23
ATOM     23  C   UNL     1      74.514  64.296  98.620  1.00  0.00    -0.000 C 
BRANCH  23  24
ATOM     24  C   UNL     1      74.690  64.846  97.191  1.00  0.00    -0.000 C 
BRANCH  24  25
ATOM     25  C   UNL     1      74.867  63.733  96.145  1.00  0.00    -0.003 C 
ATOM     26  C   UNL     1      75.285  62.421  96.803  1.00  0.00     0.004 C 
ENDBRANCH  24  25
ENDBRANCH  23  24
ENDBRANCH  22  23
ENDBRANCH  21  22
ENDBRANCH  20  21
ENDBRANCH  19  20
ENDBRANCH  18  19
ENDBRANCH  17  18
ENDBRANCH  16  17
ENDBRANCH  15  16
ENDBRANCH   1  15
TORSDOF 22
ENDMDL
MODEL 8
REMARK VINA RESULT:    14.369      4.493      5.754
REMARK INTER + INTRA:          33.586
REMARK INTER:                  34.217
REMARK INTRA:                  -0.631
REMARK UNBOUND:                 0.736
REMARK SMILES CCCCCCCCCCCCCCCCCCCCCCCC(=O)[O-]
REMARK SMILES IDX 13 1 14 2 15 3 16 4 17 5 18 6 19 7 20 8 21 9 22 10 23 11
REMARK SMILES IDX 24 12 25 13 26 14 12 15 11 16 10 17 9 18 8 19 7 20 6 21 5 22
REMARK SMILES IDX 4 23 3 24 2 25 1 26
REMARK H PARENT
REMARK Flexibility Score: inf
ROOT
ATOM      1  C   UNL     1      80.079  65.795 102.120  1.00  0.00     0.000 C 
ENDROOT
BRANCH   1   2
ATOM      2  C   UNL     1      80.764  65.844 103.494  1.00  0.00     0.000 C 
BRANCH   2   3
ATOM      3  C   UNL     1      81.793  66.986 103.599  1.00  0.00     0.000 C 
BRANCH   3   4
ATOM      4  C   UNL     1      82.984  66.693 104.534  1.00  0.00     0.000 C 
BRANCH   4   5
ATOM      5  C   UNL     1      82.851  65.415 105.394  1.00  0.00     0.000 C 
BRANCH   5   6
ATOM      6  C   UNL     1      83.624  64.186 104.876  1.00  0.00     0.000 C 
BRANCH   6   7
ATOM      7  C   UNL     1      83.285  63.829 103.418  1.00  0.00     0.000 C 
BRANCH   7   8
ATOM      8  C   UNL     1      83.850  62.463 102.992  1.00  0.00     0.000 C 
BRANCH   8   9
ATOM      9  C   UNL     1      83.217  61.927 101.696  1.00  0.00     0.000 C 
BRANCH   9  10
ATOM     10  C   UNL     1      84.215  61.888 100.528  1.00  0.00     0.006 C 
BRANCH  10  11
ATOM     11  C   UNL     1      85.078  63.155 100.445  1.00  0.00     0.053 C 
BRANCH  11  12
ATOM     12  C   UNL     1      85.813  63.197  99.141  1.00  0.00     0.041 C 
ATOM     13  O   UNL     1      85.669  64.177  98.362  1.00  0.00    -0.550 OA
ATOM     14  O   UNL     1      86.629  62.136  98.766  1.00  0.00    -0.550 OA
ENDBRANCH  11  12
ENDBRANCH  10  11
ENDBRANCH   9  10
ENDBRANCH   8   9
ENDBRANCH   7   8
ENDBRANCH   6   7
ENDBRANCH   5   6
ENDBRANCH   4   5
ENDBRANCH   3   4
ENDBRANCH   2   3
ENDBRANCH   1   2
BRANCH   1  15
ATOM     15  C   UNL     1      79.565  64.387 101.769  1.00  0.00     0.000 C 
BRANCH  15  16
ATOM     16  C   UNL     1      78.222  64.005 102.427  1.00  0.00     0.000 C 
BRANCH  16  17
ATOM     17  C   UNL     1      76.964  64.455 101.659  1.00  0.00     0.000 C 
BRANCH  17  18
ATOM     18  C   UNL     1      76.323  63.322 100.841  1.00  0.00    -0.000 C 
BRANCH  18  19
ATOM     19  C   UNL     1      75.984  63.790  99.418  1.00  0.00    -0.000 C 
BRANCH  19  20
ATOM     20  C   UNL     1      74.483  64.070  99.235  1.00  0.00    -0.000 C 
BRANCH  20  21
ATOM     21  C   UNL     1      74.089  64.227  97.758  1.00  0.00    -0.000 C 
BRANCH  21  22
ATOM     22  C   UNL     1      75.272  63.893  96.837  1.00  0.00    -0.000 C 
BRANCH  22  23
ATOM     23  C   UNL     1      75.251  62.434  96.344  1.00  0.00    -0.000 C 
BRANCH  23  24
ATOM     24  C   UNL     1      75.261  61.383  97.469  1.00  0.00    -0.000 C 
BRANCH  24  25
ATOM     25  C   UNL     1      75.981  60.086  97.064  1.00  0.00    -0.003 C 
ATOM     26  C   UNL     1      76.864  60.307  95.840  1.00  0.00     0.004 C 
ENDBRANCH  24  25
ENDBRANCH  23  24
ENDBRANCH  22  23
ENDBRANCH  21  22
ENDBRANCH  20  21
ENDBRANCH  19  20
ENDBRANCH  18  19
ENDBRANCH  17  18
ENDBRANCH  16  17
ENDBRANCH  15  16
ENDBRANCH   1  15
TORSDOF 22
ENDMDL
MODEL 9
REMARK VINA RESULT:    14.737      6.154     11.891
REMARK INTER + INTRA:          34.426
REMARK INTER:                  33.423
REMARK INTRA:                   1.003
REMARK UNBOUND:                 0.736
REMARK SMILES CCCCCCCCCCCCCCCCCCCCCCCC(=O)[O-]
REMARK SMILES IDX 13 1 14 2 15 3 16 4 17 5 18 6 19 7 20 8 21 9 22 10 23 11
REMARK SMILES IDX 24 12 25 13 26 14 12 15 11 16 10 17 9 18 8 19 7 20 6 21 5 22
REMARK SMILES IDX 4 23 3 24 2 25 1 26
REMARK H PARENT
REMARK Flexibility Score: inf
ROOT
ATOM      1  C   UNL     1      80.487  64.892 102.520  1.00  0.00     0.000 C 
ENDROOT
BRANCH   1   2
ATOM      2  C   UNL     1      79.224  64.721 101.663  1.00  0.00     0.000 C 
BRANCH   2   3
ATOM      3  C   UNL     1      78.096  63.988 102.415  1.00  0.00     0.000 C 
BRANCH   3   4
ATOM      4  C   UNL     1      76.703  64.117 101.766  1.00  0.00     0.000 C 
BRANCH   4   5
ATOM      5  C   UNL     1      76.614  63.658 100.293  1.00  0.00     0.000 C 
BRANCH   5   6
ATOM      6  C   UNL     1      75.186  63.480  99.741  1.00  0.00     0.000 C 
BRANCH   6   7
ATOM      7  C   UNL     1      74.802  64.548  98.702  1.00  0.00     0.000 C 
BRANCH   7   8
ATOM      8  C   UNL     1      73.784  64.036  97.669  1.00  0.00     0.000 C 
BRANCH   8   9
ATOM      9  C   UNL     1      74.374  63.908  96.254  1.00  0.00     0.000 C 
BRANCH   9  10
ATOM     10  C   UNL     1      75.772  63.269  96.256  1.00  0.00     0.006 C 
BRANCH  10  11
ATOM     11  C   UNL     1      75.918  62.170  97.318  1.00  0.00     0.053 C 
BRANCH  11  12
ATOM     12  C   UNL     1      75.735  60.820  96.695  1.00  0.00     0.041 C 
ATOM     13  O   UNL     1      76.299  60.542  95.603  1.00  0.00    -0.550 OA
ATOM     14  O   UNL     1      74.908  59.880  97.299  1.00  0.00    -0.550 OA
ENDBRANCH  11  12
ENDBRANCH  10  11
ENDBRANCH   9  10
ENDBRANCH   8   9
ENDBRANCH   7   8
ENDBRANCH   6   7
ENDBRANCH   5   6
ENDBRANCH   4   5
ENDBRANCH   3   4
ENDBRANCH   2   3
ENDBRANCH   1   2
BRANCH   1  15
ATOM     15  C   UNL     1      80.785  66.369 102.840  1.00  0.00     0.000 C 
BRANCH  15  16
ATOM     16  C   UNL     1      81.330  66.626 104.262  1.00  0.00     0.000 C 
BRANCH  16  17
ATOM     17  C   UNL     1      82.841  66.383 104.440  1.00  0.00     0.000 C 
BRANCH  17  18
ATOM     18  C   UNL     1      83.186  64.903 104.676  1.00  0.00    -0.000 C 
BRANCH  18  19
ATOM     19  C   UNL     1      83.211  64.122 103.354  1.00  0.00    -0.000 C 
BRANCH  19  20
ATOM     20  C   UNL     1      83.933  62.771 103.485  1.00  0.00    -0.000 C 
BRANCH  20  21
ATOM     21  C   UNL     1      83.273  61.667 102.644  1.00  0.00    -0.000 C 
BRANCH  21  22
ATOM     22  C   UNL     1      83.003  62.155 101.212  1.00  0.00    -0.000 C 
BRANCH  22  23
ATOM     23  C   UNL     1      84.236  62.031 100.298  1.00  0.00    -0.000 C 
BRANCH  23  24
ATOM     24  C   UNL     1      85.451  62.860 100.753  1.00  0.00    -0.000 C 
BRANCH  24  25
ATOM     25  C   UNL     1      86.083  63.666  99.605  1.00  0.00    -0.003 C 
ATOM     26  C   UNL     1      85.425  63.330  98.271  1.00  0.00     0.004 C 
ENDBRANCH  24  25
ENDBRANCH  23  24
ENDBRANCH  22  23
ENDBRANCH  21  22
ENDBRANCH  20  21
ENDBRANCH  19  20
ENDBRANCH  18  19
ENDBRANCH  17  18
ENDBRANCH  16  17
ENDBRANCH  15  16
ENDBRANCH   1  15
TORSDOF 22
ENDMDL
