MODEL 1
REMARK VINA RESULT:    -5.941      0.000      0.000
REMARK INTER + INTRA:          -7.177
REMARK INTER:                  -6.983
REMARK INTRA:                  -0.194
REMARK UNBOUND:                -0.194
REMARK SMILES O=c1c(O)c(-c2ccc(O)cc2)oc2cc(O)cc(O)c12
REMARK SMILES IDX 5 1 3 2 2 3 1 4 21 5 19 6 18 7 16 8 15 9 14 10 13 11 6 12
REMARK SMILES IDX 7 13 8 14 9 15 12 16 11 17 10 18 4 20 20 22 17 24
REMARK H PARENT 10 19 4 21 20 23 17 25
REMARK Flexibility Score: inf
ROOT
ATOM      1  C   UNL     1      18.507  -1.056 -16.696  1.00  0.00     0.180 A 
ATOM      2  C   UNL     1      17.900  -0.230 -15.735  1.00  0.00     0.208 A 
ATOM      3  C   UNL     1      17.199  -0.823 -14.673  1.00  0.00     0.238 A 
ATOM      4  O   UNL     1      16.722  -0.079 -13.777  1.00  0.00    -0.285 OA
ATOM      5  C   UNL     1      17.066  -2.231 -14.614  1.00  0.00     0.111 A 
ATOM      6  C   UNL     1      16.341  -2.937 -13.607  1.00  0.00     0.134 A 
ATOM      7  C   UNL     1      16.367  -4.337 -13.590  1.00  0.00     0.093 A 
ATOM      8  C   UNL     1      17.037  -5.057 -14.577  1.00  0.00     0.123 A 
ATOM      9  C   UNL     1      17.705  -4.377 -15.598  1.00  0.00     0.094 A 
ATOM     10  C   UNL     1      17.729  -2.981 -15.620  1.00  0.00     0.146 A 
ATOM     11  O   UNL     1      18.394  -2.375 -16.597  1.00  0.00    -0.452 OA
ENDROOT
BRANCH   1  12
ATOM     12  C   UNL     1      19.275  -0.507 -17.837  1.00  0.00     0.021 A 
ATOM     13  C   UNL     1      18.792  -0.685 -19.144  1.00  0.00     0.016 A 
ATOM     14  C   UNL     1      19.512  -0.195 -20.238  1.00  0.00     0.047 A 
ATOM     15  C   UNL     1      20.731   0.466 -20.039  1.00  0.00     0.115 A 
ATOM     16  C   UNL     1      20.510   0.139 -17.647  1.00  0.00     0.016 A 
ATOM     17  C   UNL     1      21.228   0.628 -18.743  1.00  0.00     0.047 A 
BRANCH  15  18
ATOM     18  O   UNL     1      21.456   0.959 -21.121  1.00  0.00    -0.508 OA
ATOM     19  H   UNL     1      22.336   0.542 -21.403  1.00  0.00     0.293 HD
ENDBRANCH  15  18
ENDBRANCH   1  12
BRANCH   2  20
ATOM     20  O   UNL     1      17.977   1.161 -15.854  1.00  0.00    -0.502 OA
ATOM     21  H   UNL     1      18.288   1.755 -15.095  1.00  0.00     0.293 HD
ENDBRANCH   2  20
BRANCH   6  22
ATOM     22  O   UNL     1      15.563  -2.319 -12.623  1.00  0.00    -0.507 OA
ATOM     23  H   UNL     1      14.568  -2.166 -12.684  1.00  0.00     0.293 HD
ENDBRANCH   6  22
BRANCH   8  24
ATOM     24  O   UNL     1      17.028  -6.450 -14.539  1.00  0.00    -0.508 OA
ATOM     25  H   UNL     1      16.546  -6.996 -15.243  1.00  0.00     0.293 HD
ENDBRANCH   8  24
TORSDOF 5
ENDMDL
MODEL 2
REMARK VINA RESULT:    -5.918     11.759     14.624
REMARK INTER + INTRA:          -7.150
REMARK INTER:                  -7.087
REMARK INTRA:                  -0.063
REMARK UNBOUND:                -0.194
REMARK SMILES O=c1c(O)c(-c2ccc(O)cc2)oc2cc(O)cc(O)c12
REMARK SMILES IDX 5 1 3 2 2 3 1 4 21 5 19 6 18 7 16 8 15 9 14 10 13 11 6 12
REMARK SMILES IDX 7 13 8 14 9 15 12 16 11 17 10 18 4 20 20 22 17 24
REMARK H PARENT 10 19 4 21 20 23 17 25
REMARK Flexibility Score: inf
ROOT
ATOM      1  C   UNL     1       9.040  -7.077  -8.203  1.00  0.00     0.180 A 
ATOM      2  C   UNL     1      10.297  -6.939  -8.817  1.00  0.00     0.208 A 
ATOM      3  C   UNL     1      10.457  -7.371 -10.143  1.00  0.00     0.238 A 
ATOM      4  O   UNL     1      11.564  -7.176 -10.710  1.00  0.00    -0.285 OA
ATOM      5  C   UNL     1       9.377  -7.987 -10.821  1.00  0.00     0.111 A 
ATOM      6  C   UNL     1       9.441  -8.503 -12.150  1.00  0.00     0.134 A 
ATOM      7  C   UNL     1       8.278  -8.995 -12.756  1.00  0.00     0.093 A 
ATOM      8  C   UNL     1       7.071  -9.050 -12.061  1.00  0.00     0.123 A 
ATOM      9  C   UNL     1       7.010  -8.598 -10.742  1.00  0.00     0.094 A 
ATOM     10  C   UNL     1       8.143  -8.066 -10.123  1.00  0.00     0.146 A 
ATOM     11  O   UNL     1       8.036  -7.628  -8.874  1.00  0.00    -0.452 OA
ENDROOT
BRANCH   1  12
ATOM     12  C   UNL     1       8.788  -6.632  -6.813  1.00  0.00     0.021 A 
ATOM     13  C   UNL     1       8.238  -7.534  -5.888  1.00  0.00     0.016 A 
ATOM     14  C   UNL     1       7.970  -7.130  -4.577  1.00  0.00     0.047 A 
ATOM     15  C   UNL     1       8.235  -5.813  -4.179  1.00  0.00     0.115 A 
ATOM     16  C   UNL     1       9.033  -5.306  -6.411  1.00  0.00     0.016 A 
ATOM     17  C   UNL     1       8.764  -4.904  -5.099  1.00  0.00     0.047 A 
BRANCH  15  18
ATOM     18  O   UNL     1       7.974  -5.399  -2.875  1.00  0.00    -0.508 OA
ATOM     19  H   UNL     1       8.620  -5.591  -2.119  1.00  0.00     0.293 HD
ENDBRANCH  15  18
ENDBRANCH   1  12
BRANCH   2  20
ATOM     20  O   UNL     1      11.372  -6.399  -8.105  1.00  0.00    -0.502 OA
ATOM     21  H   UNL     1      11.290  -5.551  -7.557  1.00  0.00     0.293 HD
ENDBRANCH   2  20
BRANCH   6  22
ATOM     22  O   UNL     1      10.615  -8.579 -12.906  1.00  0.00    -0.507 OA
ATOM     23  H   UNL     1      10.664  -8.478 -13.908  1.00  0.00     0.293 HD
ENDBRANCH   6  22
BRANCH   8  24
ATOM     24  O   UNL     1       5.938  -9.561 -12.689  1.00  0.00    -0.508 OA
ATOM     25  H   UNL     1       5.357 -10.264 -12.246  1.00  0.00     0.293 HD
ENDBRANCH   8  24
TORSDOF 5
ENDMDL
MODEL 3
REMARK VINA RESULT:    -5.875      6.499      8.556
REMARK INTER + INTRA:          -7.100
REMARK INTER:                  -6.819
REMARK INTRA:                  -0.281
REMARK UNBOUND:                -0.194
REMARK SMILES O=c1c(O)c(-c2ccc(O)cc2)oc2cc(O)cc(O)c12
REMARK SMILES IDX 5 1 3 2 2 3 1 4 21 5 19 6 18 7 16 8 15 9 14 10 13 11 6 12
REMARK SMILES IDX 7 13 8 14 9 15 12 16 11 17 10 18 4 20 20 22 17 24
REMARK H PARENT 10 19 4 21 20 23 17 25
REMARK Flexibility Score: inf
ROOT
ATOM      1  C   UNL     1      18.156  -2.494  -8.871  1.00  0.00     0.180 A 
ATOM      2  C   UNL     1      17.411  -1.303  -8.915  1.00  0.00     0.208 A 
ATOM      3  C   UNL     1      16.325  -1.211  -9.799  1.00  0.00     0.238 A 
ATOM      4  O   UNL     1      15.618  -0.170  -9.779  1.00  0.00    -0.285 OA
ATOM      5  C   UNL     1      16.028  -2.290 -10.668  1.00  0.00     0.111 A 
ATOM      6  C   UNL     1      14.978  -2.289 -11.634  1.00  0.00     0.134 A 
ATOM      7  C   UNL     1      14.712  -3.453 -12.366  1.00  0.00     0.093 A 
ATOM      8  C   UNL     1      15.495  -4.596 -12.212  1.00  0.00     0.123 A 
ATOM      9  C   UNL     1      16.559  -4.590 -11.309  1.00  0.00     0.094 A 
ATOM     10  C   UNL     1      16.826  -3.457 -10.537  1.00  0.00     0.146 A 
ATOM     11  O   UNL     1      17.834  -3.501  -9.675  1.00  0.00    -0.452 OA
ENDROOT
BRANCH   1  12
ATOM     12  C   UNL     1      19.306  -2.673  -7.956  1.00  0.00     0.021 A 
ATOM     13  C   UNL     1      20.613  -2.551  -8.458  1.00  0.00     0.016 A 
ATOM     14  C   UNL     1      21.714  -2.738  -7.617  1.00  0.00     0.047 A 
ATOM     15  C   UNL     1      21.523  -3.064  -6.269  1.00  0.00     0.115 A 
ATOM     16  C   UNL     1      19.122  -3.022  -6.606  1.00  0.00     0.016 A 
ATOM     17  C   UNL     1      20.226  -3.208  -5.767  1.00  0.00     0.047 A 
BRANCH  15  18
ATOM     18  O   UNL     1      22.613  -3.252  -5.422  1.00  0.00    -0.508 OA
ATOM     19  H   UNL     1      22.488  -3.473  -4.440  1.00  0.00     0.293 HD
ENDBRANCH  15  18
ENDBRANCH   1  12
BRANCH   2  20
ATOM     20  O   UNL     1      17.768  -0.221  -8.104  1.00  0.00    -0.502 OA
ATOM     21  H   UNL     1      17.100   0.483  -7.814  1.00  0.00     0.293 HD
ENDBRANCH   2  20
BRANCH   6  22
ATOM     22  O   UNL     1      14.189  -1.173 -11.933  1.00  0.00    -0.507 OA
ATOM     23  H   UNL     1      14.353  -0.241 -11.588  1.00  0.00     0.293 HD
ENDBRANCH   6  22
BRANCH   8  24
ATOM     24  O   UNL     1      15.212  -5.731 -12.969  1.00  0.00    -0.508 OA
ATOM     25  H   UNL     1      15.125  -5.688 -13.977  1.00  0.00     0.293 HD
ENDBRANCH   8  24
TORSDOF 5
ENDMDL
MODEL 4
REMARK VINA RESULT:    -5.857      3.582      5.145
REMARK INTER + INTRA:          -7.079
REMARK INTER:                  -6.991
REMARK INTRA:                  -0.088
REMARK UNBOUND:                -0.194
REMARK SMILES O=c1c(O)c(-c2ccc(O)cc2)oc2cc(O)cc(O)c12
REMARK SMILES IDX 5 1 3 2 2 3 1 4 21 5 19 6 18 7 16 8 15 9 14 10 13 11 6 12
REMARK SMILES IDX 7 13 8 14 9 15 12 16 11 17 10 18 4 20 20 22 17 24
REMARK H PARENT 10 19 4 21 20 23 17 25
REMARK Flexibility Score: inf
ROOT
ATOM      1  C   UNL     1      20.460   0.479 -17.194  1.00  0.00     0.180 A 
ATOM      2  C   UNL     1      19.220   0.471 -16.532  1.00  0.00     0.208 A 
ATOM      3  C   UNL     1      19.158   0.898 -15.196  1.00  0.00     0.238 A 
ATOM      4  O   UNL     1      18.034   0.958 -14.635  1.00  0.00    -0.285 OA
ATOM      5  C   UNL     1      20.344   1.275 -14.521  1.00  0.00     0.111 A 
ATOM      6  C   UNL     1      20.406   1.683 -13.154  1.00  0.00     0.134 A 
ATOM      7  C   UNL     1      21.620   2.136 -12.623  1.00  0.00     0.093 A 
ATOM      8  C   UNL     1      22.786   2.137 -13.386  1.00  0.00     0.123 A 
ATOM      9  C   UNL     1      22.748   1.689 -14.708  1.00  0.00     0.094 A 
ATOM     10  C   UNL     1      21.545   1.267 -15.278  1.00  0.00     0.146 A 
ATOM     11  O   UNL     1      21.550   0.870 -16.545  1.00  0.00    -0.452 OA
ENDROOT
BRANCH   1  12
ATOM     12  C   UNL     1      20.603   0.057 -18.607  1.00  0.00     0.021 A 
ATOM     13  C   UNL     1      21.031   0.989 -19.566  1.00  0.00     0.016 A 
ATOM     14  C   UNL     1      21.152   0.619 -20.908  1.00  0.00     0.047 A 
ATOM     15  C   UNL     1      20.831  -0.684 -21.311  1.00  0.00     0.115 A 
ATOM     16  C   UNL     1      20.263  -1.244 -19.021  1.00  0.00     0.016 A 
ATOM     17  C   UNL     1      20.385  -1.611 -20.365  1.00  0.00     0.047 A 
BRANCH  15  18
ATOM     18  O   UNL     1      20.949  -1.065 -22.645  1.00  0.00    -0.508 OA
ATOM     19  H   UNL     1      21.799  -0.898 -23.171  1.00  0.00     0.293 HD
ENDBRANCH  15  18
ENDBRANCH   1  12
BRANCH   2  20
ATOM     20  O   UNL     1      18.073   0.021 -17.193  1.00  0.00    -0.502 OA
ATOM     21  H   UNL     1      17.205   0.544 -17.193  1.00  0.00     0.293 HD
ENDBRANCH   2  20
BRANCH   6  22
ATOM     22  O   UNL     1      19.320   1.639 -12.273  1.00  0.00    -0.507 OA
ATOM     23  H   UNL     1      19.374   1.809 -11.281  1.00  0.00     0.293 HD
ENDBRANCH   6  22
BRANCH   8  24
ATOM     24  O   UNL     1      23.979   2.578 -12.820  1.00  0.00    -0.508 OA
ATOM     25  H   UNL     1      24.603   3.204 -13.316  1.00  0.00     0.293 HD
ENDBRANCH   8  24
TORSDOF 5
ENDMDL
MODEL 5
REMARK VINA RESULT:    -5.856     10.156     12.811
REMARK INTER + INTRA:          -7.076
REMARK INTER:                  -6.818
REMARK INTRA:                  -0.259
REMARK UNBOUND:                -0.194
REMARK SMILES O=c1c(O)c(-c2ccc(O)cc2)oc2cc(O)cc(O)c12
REMARK SMILES IDX 5 1 3 2 2 3 1 4 21 5 19 6 18 7 16 8 15 9 14 10 13 11 6 12
REMARK SMILES IDX 7 13 8 14 9 15 12 16 11 17 10 18 4 20 20 22 17 24
REMARK H PARENT 10 19 4 21 20 23 17 25
REMARK Flexibility Score: inf
ROOT
ATOM      1  C   UNL     1      10.112  -7.873 -10.274  1.00  0.00     0.180 A 
ATOM      2  C   UNL     1      10.086  -8.581  -9.061  1.00  0.00     0.208 A 
ATOM      3  C   UNL     1       9.270  -8.116  -8.018  1.00  0.00     0.238 A 
ATOM      4  O   UNL     1       9.195  -8.797  -6.962  1.00  0.00    -0.285 OA
ATOM      5  C   UNL     1       8.531  -6.919  -8.180  1.00  0.00     0.111 A 
ATOM      6  C   UNL     1       7.705  -6.331  -7.175  1.00  0.00     0.134 A 
ATOM      7  C   UNL     1       6.938  -5.201  -7.485  1.00  0.00     0.093 A 
ATOM      8  C   UNL     1       7.014  -4.601  -8.740  1.00  0.00     0.123 A 
ATOM      9  C   UNL     1       7.859  -5.135  -9.713  1.00  0.00     0.094 A 
ATOM     10  C   UNL     1       8.608  -6.284  -9.447  1.00  0.00     0.146 A 
ATOM     11  O   UNL     1       9.383  -6.771 -10.409  1.00  0.00    -0.452 OA
ENDROOT
BRANCH   1  12
ATOM     12  C   UNL     1      10.937  -8.308 -11.425  1.00  0.00     0.021 A 
ATOM     13  C   UNL     1      10.341  -9.042 -12.464  1.00  0.00     0.016 A 
ATOM     14  C   UNL     1      11.105  -9.482 -13.548  1.00  0.00     0.047 A 
ATOM     15  C   UNL     1      12.477  -9.207 -13.600  1.00  0.00     0.115 A 
ATOM     16  C   UNL     1      12.320  -8.053 -11.474  1.00  0.00     0.016 A 
ATOM     17  C   UNL     1      13.081  -8.495 -12.560  1.00  0.00     0.047 A 
BRANCH  15  18
ATOM     18  O   UNL     1      13.248  -9.640 -14.676  1.00  0.00    -0.508 OA
ATOM     19  H   UNL     1      14.152 -10.078 -14.538  1.00  0.00     0.293 HD
ENDBRANCH  15  18
ENDBRANCH   1  12
BRANCH   2  20
ATOM     20  O   UNL     1      10.882  -9.718  -8.893  1.00  0.00    -0.502 OA
ATOM     21  H   UNL     1      10.544 -10.652  -9.090  1.00  0.00     0.293 HD
ENDBRANCH   2  20
BRANCH   6  22
ATOM     22  O   UNL     1       7.622  -6.797  -5.858  1.00  0.00    -0.507 OA
ATOM     23  H   UNL     1       6.903  -6.541  -5.200  1.00  0.00     0.293 HD
ENDBRANCH   6  22
BRANCH   8  24
ATOM     24  O   UNL     1       6.249  -3.468  -9.008  1.00  0.00    -0.508 OA
ATOM     25  H   UNL     1       5.276  -3.407  -8.733  1.00  0.00     0.293 HD
ENDBRANCH   8  24
TORSDOF 5
ENDMDL
MODEL 6
REMARK VINA RESULT:    -5.838      2.113      6.642
REMARK INTER + INTRA:          -7.055
REMARK INTER:                  -6.773
REMARK INTRA:                  -0.283
REMARK UNBOUND:                -0.194
REMARK SMILES O=c1c(O)c(-c2ccc(O)cc2)oc2cc(O)cc(O)c12
REMARK SMILES IDX 5 1 3 2 2 3 1 4 21 5 19 6 18 7 16 8 15 9 14 10 13 11 6 12
REMARK SMILES IDX 7 13 8 14 9 15 12 16 11 17 10 18 4 20 20 22 17 24
REMARK H PARENT 10 19 4 21 20 23 17 25
REMARK Flexibility Score: inf
ROOT
ATOM      1  C   UNL     1      18.015  -0.312 -15.474  1.00  0.00     0.180 A 
ATOM      2  C   UNL     1      19.076   0.454 -14.960  1.00  0.00     0.208 A 
ATOM      3  C   UNL     1      20.116   0.841 -15.821  1.00  0.00     0.238 A 
ATOM      4  O   UNL     1      21.023   1.589 -15.371  1.00  0.00    -0.285 OA
ATOM      5  C   UNL     1      20.112   0.412 -17.170  1.00  0.00     0.111 A 
ATOM      6  C   UNL     1      21.136   0.708 -18.119  1.00  0.00     0.134 A 
ATOM      7  C   UNL     1      20.973   0.319 -19.455  1.00  0.00     0.093 A 
ATOM      8  C   UNL     1      19.856  -0.408 -19.863  1.00  0.00     0.123 A 
ATOM      9  C   UNL     1      18.874  -0.750 -18.931  1.00  0.00     0.094 A 
ATOM     10  C   UNL     1      18.990  -0.344 -17.600  1.00  0.00     0.146 A 
ATOM     11  O   UNL     1      18.022  -0.672 -16.751  1.00  0.00    -0.452 OA
ENDROOT
BRANCH   1  12
ATOM     12  C   UNL     1      16.876  -0.746 -14.633  1.00  0.00     0.021 A 
ATOM     13  C   UNL     1      15.795   0.127 -14.431  1.00  0.00     0.016 A 
ATOM     14  C   UNL     1      14.719  -0.254 -13.623  1.00  0.00     0.047 A 
ATOM     15  C   UNL     1      14.719  -1.505 -12.995  1.00  0.00     0.115 A 
ATOM     16  C   UNL     1      16.879  -1.993 -13.982  1.00  0.00     0.016 A 
ATOM     17  C   UNL     1      15.802  -2.371 -13.174  1.00  0.00     0.047 A 
BRANCH  15  18
ATOM     18  O   UNL     1      13.653  -1.896 -12.188  1.00  0.00    -0.508 OA
ATOM     19  H   UNL     1      13.423  -2.873 -12.051  1.00  0.00     0.293 HD
ENDBRANCH  15  18
ENDBRANCH   1  12
BRANCH   2  20
ATOM     20  O   UNL     1      19.101   0.803 -13.607  1.00  0.00    -0.502 OA
ATOM     21  H   UNL     1      19.326   0.136 -12.878  1.00  0.00     0.293 HD
ENDBRANCH   2  20
BRANCH   6  22
ATOM     22  O   UNL     1      22.336   1.352 -17.802  1.00  0.00    -0.507 OA
ATOM     23  H   UNL     1      23.256   0.984 -17.988  1.00  0.00     0.293 HD
ENDBRANCH   6  22
BRANCH   8  24
ATOM     24  O   UNL     1      19.735  -0.793 -21.196  1.00  0.00    -0.508 OA
ATOM     25  H   UNL     1      19.443  -1.729 -21.453  1.00  0.00     0.293 HD
ENDBRANCH   8  24
TORSDOF 5
ENDMDL
MODEL 7
REMARK VINA RESULT:    -5.664     10.964     12.098
REMARK INTER + INTRA:          -6.851
REMARK INTER:                  -6.589
REMARK INTRA:                  -0.263
REMARK UNBOUND:                -0.194
REMARK SMILES O=c1c(O)c(-c2ccc(O)cc2)oc2cc(O)cc(O)c12
REMARK SMILES IDX 5 1 3 2 2 3 1 4 21 5 19 6 18 7 16 8 15 9 14 10 13 11 6 12
REMARK SMILES IDX 7 13 8 14 9 15 12 16 11 17 10 18 4 20 20 22 17 24
REMARK H PARENT 10 19 4 21 20 23 17 25
REMARK Flexibility Score: inf
ROOT
ATOM      1  C   UNL     1       9.070   3.586 -18.683  1.00  0.00     0.180 A 
ATOM      2  C   UNL     1       8.604   2.781 -19.737  1.00  0.00     0.208 A 
ATOM      3  C   UNL     1       7.225   2.546 -19.856  1.00  0.00     0.238 A 
ATOM      4  O   UNL     1       6.810   1.886 -20.844  1.00  0.00    -0.285 OA
ATOM      5  C   UNL     1       6.333   3.072 -18.890  1.00  0.00     0.111 A 
ATOM      6  C   UNL     1       4.921   2.860 -18.887  1.00  0.00     0.134 A 
ATOM      7  C   UNL     1       4.126   3.519 -17.941  1.00  0.00     0.093 A 
ATOM      8  C   UNL     1       4.695   4.329 -16.960  1.00  0.00     0.123 A 
ATOM      9  C   UNL     1       6.080   4.499 -16.920  1.00  0.00     0.094 A 
ATOM     10  C   UNL     1       6.896   3.887 -17.873  1.00  0.00     0.146 A 
ATOM     11  O   UNL     1       8.206   4.093 -17.811  1.00  0.00    -0.452 OA
ENDROOT
BRANCH   1  12
ATOM     12  C   UNL     1      10.507   3.891 -18.499  1.00  0.00     0.021 A 
ATOM     13  C   UNL     1      11.336   2.953 -17.863  1.00  0.00     0.016 A 
ATOM     14  C   UNL     1      12.691   3.230 -17.658  1.00  0.00     0.047 A 
ATOM     15  C   UNL     1      13.230   4.454 -18.073  1.00  0.00     0.115 A 
ATOM     16  C   UNL     1      11.051   5.127 -18.895  1.00  0.00     0.016 A 
ATOM     17  C   UNL     1      12.407   5.401 -18.688  1.00  0.00     0.047 A 
BRANCH  15  18
ATOM     18  O   UNL     1      14.579   4.740 -17.875  1.00  0.00    -0.508 OA
ATOM     19  H   UNL     1      15.224   4.039 -17.529  1.00  0.00     0.293 HD
ENDBRANCH  15  18
ENDBRANCH   1  12
BRANCH   2  20
ATOM     20  O   UNL     1       9.508   2.207 -20.635  1.00  0.00    -0.502 OA
ATOM     21  H   UNL     1       9.972   2.744 -21.357  1.00  0.00     0.293 HD
ENDBRANCH   2  20
BRANCH   6  22
ATOM     22  O   UNL     1       4.256   2.000 -19.767  1.00  0.00    -0.507 OA
ATOM     23  H   UNL     1       3.364   1.567 -19.588  1.00  0.00     0.293 HD
ENDBRANCH   6  22
BRANCH   8  24
ATOM     24  O   UNL     1       3.875   4.955 -16.024  1.00  0.00    -0.508 OA
ATOM     25  H   UNL     1       3.777   5.963 -15.994  1.00  0.00     0.293 HD
ENDBRANCH   8  24
TORSDOF 5
ENDMDL
MODEL 8
REMARK VINA RESULT:    -5.659      7.246      9.639
REMARK INTER + INTRA:          -6.845
REMARK INTER:                  -6.652
REMARK INTRA:                  -0.193
REMARK UNBOUND:                -0.194
REMARK SMILES O=c1c(O)c(-c2ccc(O)cc2)oc2cc(O)cc(O)c12
REMARK SMILES IDX 5 1 3 2 2 3 1 4 21 5 19 6 18 7 16 8 15 9 14 10 13 11 6 12
REMARK SMILES IDX 7 13 8 14 9 15 12 16 11 17 10 18 4 20 20 22 17 24
REMARK H PARENT 10 19 4 21 20 23 17 25
REMARK Flexibility Score: inf
ROOT
ATOM      1  C   UNL     1      18.630  -1.885  -8.382  1.00  0.00     0.180 A 
ATOM      2  C   UNL     1      17.670  -2.748  -8.939  1.00  0.00     0.208 A 
ATOM      3  C   UNL     1      16.620  -2.202  -9.695  1.00  0.00     0.238 A 
ATOM      4  O   UNL     1      15.808  -2.985 -10.252  1.00  0.00    -0.285 OA
ATOM      5  C   UNL     1      16.510  -0.797  -9.838  1.00  0.00     0.111 A 
ATOM      6  C   UNL     1      15.463  -0.132 -10.545  1.00  0.00     0.134 A 
ATOM      7  C   UNL     1      15.516   1.257 -10.711  1.00  0.00     0.093 A 
ATOM      8  C   UNL     1      16.541   2.013 -10.144  1.00  0.00     0.123 A 
ATOM      9  C   UNL     1      17.541   1.378  -9.405  1.00  0.00     0.094 A 
ATOM     10  C   UNL     1      17.537  -0.010  -9.254  1.00  0.00     0.146 A 
ATOM     11  O   UNL     1      18.519  -0.574  -8.561  1.00  0.00    -0.452 OA
ENDROOT
BRANCH   1  12
ATOM     12  C   UNL     1      19.773  -2.386  -7.586  1.00  0.00     0.021 A 
ATOM     13  C   UNL     1      19.549  -2.877  -6.289  1.00  0.00     0.016 A 
ATOM     14  C   UNL     1      20.616  -3.333  -5.510  1.00  0.00     0.047 A 
ATOM     15  C   UNL     1      21.923  -3.291  -6.013  1.00  0.00     0.115 A 
ATOM     16  C   UNL     1      21.090  -2.327  -8.076  1.00  0.00     0.016 A 
ATOM     17  C   UNL     1      22.156  -2.785  -7.295  1.00  0.00     0.047 A 
BRANCH  15  18
ATOM     18  O   UNL     1      22.994  -3.743  -5.247  1.00  0.00    -0.508 OA
ATOM     19  H   UNL     1      22.878  -4.000  -4.273  1.00  0.00     0.293 HD
ENDBRANCH  15  18
ENDBRANCH   1  12
BRANCH   2  20
ATOM     20  O   UNL     1      17.752  -4.126  -8.721  1.00  0.00    -0.502 OA
ATOM     21  H   UNL     1      17.290  -4.582  -7.944  1.00  0.00     0.293 HD
ENDBRANCH   2  20
BRANCH   6  22
ATOM     22  O   UNL     1      14.343  -0.779 -11.077  1.00  0.00    -0.507 OA
ATOM     23  H   UNL     1      13.996  -0.655 -12.015  1.00  0.00     0.293 HD
ENDBRANCH   6  22
BRANCH   8  24
ATOM     24  O   UNL     1      16.553   3.395 -10.315  1.00  0.00    -0.508 OA
ATOM     25  H   UNL     1      16.665   3.815 -11.230  1.00  0.00     0.293 HD
ENDBRANCH   8  24
TORSDOF 5
ENDMDL
MODEL 9
REMARK VINA RESULT:    -5.591      3.767      4.938
REMARK INTER + INTRA:          -6.765
REMARK INTER:                  -6.591
REMARK INTRA:                  -0.175
REMARK UNBOUND:                -0.194
REMARK SMILES O=c1c(O)c(-c2ccc(O)cc2)oc2cc(O)cc(O)c12
REMARK SMILES IDX 5 1 3 2 2 3 1 4 21 5 19 6 18 7 16 8 15 9 14 10 13 11 6 12
REMARK SMILES IDX 7 13 8 14 9 15 12 16 11 17 10 18 4 20 20 22 17 24
REMARK H PARENT 10 19 4 21 20 23 17 25
REMARK Flexibility Score: inf
ROOT
ATOM      1  C   UNL     1      20.729   0.651 -17.145  1.00  0.00     0.180 A 
ATOM      2  C   UNL     1      21.895   0.919 -16.408  1.00  0.00     0.208 A 
ATOM      3  C   UNL     1      21.776   1.346 -15.076  1.00  0.00     0.238 A 
ATOM      4  O   UNL     1      22.826   1.511 -14.401  1.00  0.00    -0.285 OA
ATOM      5  C   UNL     1      20.494   1.553 -14.513  1.00  0.00     0.111 A 
ATOM      6  C   UNL     1      20.255   2.026 -13.187  1.00  0.00     0.134 A 
ATOM      7  C   UNL     1      18.943   2.091 -12.703  1.00  0.00     0.093 A 
ATOM      8  C   UNL     1      17.858   1.763 -13.514  1.00  0.00     0.123 A 
ATOM      9  C   UNL     1      18.077   1.351 -14.830  1.00  0.00     0.094 A 
ATOM     10  C   UNL     1      19.376   1.239 -15.330  1.00  0.00     0.146 A 
ATOM     11  O   UNL     1      19.540   0.823 -16.580  1.00  0.00    -0.452 OA
ENDROOT
BRANCH   1  12
ATOM     12  C   UNL     1      20.772   0.184 -18.550  1.00  0.00     0.021 A 
ATOM     13  C   UNL     1      21.173   1.073 -19.561  1.00  0.00     0.016 A 
ATOM     14  C   UNL     1      21.199   0.661 -20.896  1.00  0.00     0.047 A 
ATOM     15  C   UNL     1      20.811  -0.640 -21.239  1.00  0.00     0.115 A 
ATOM     16  C   UNL     1      20.364  -1.115 -18.904  1.00  0.00     0.016 A 
ATOM     17  C   UNL     1      20.392  -1.524 -20.241  1.00  0.00     0.047 A 
BRANCH  15  18
ATOM     18  O   UNL     1      20.834  -1.062 -22.566  1.00  0.00    -0.508 OA
ATOM     19  H   UNL     1      20.378  -1.919 -22.857  1.00  0.00     0.293 HD
ENDBRANCH  15  18
ENDBRANCH   1  12
BRANCH   2  20
ATOM     20  O   UNL     1      23.151   0.783 -17.006  1.00  0.00    -0.502 OA
ATOM     21  H   UNL     1      23.597  -0.118 -17.135  1.00  0.00     0.293 HD
ENDBRANCH   2  20
BRANCH   6  22
ATOM     22  O   UNL     1      21.260   2.465 -12.320  1.00  0.00    -0.507 OA
ATOM     23  H   UNL     1      21.447   2.077 -11.408  1.00  0.00     0.293 HD
ENDBRANCH   6  22
BRANCH   8  24
ATOM     24  O   UNL     1      16.565   1.856 -13.005  1.00  0.00    -0.508 OA
ATOM     25  H   UNL     1      16.377   1.757 -12.014  1.00  0.00     0.293 HD
ENDBRANCH   8  24
TORSDOF 5
ENDMDL
