MODEL 1
REMARK VINA RESULT:    67.322      0.000      0.000
REMARK INTER + INTRA:          92.191
REMARK INTER:                  88.968
REMARK INTRA:                   3.222
REMARK UNBOUND:                 3.222
REMARK SMILES CC[C@H](C=C[C@@H](C)[C@H]1CC[C@@H]2C3=CC[C@H]4C[C@H](O)CC[C@]4(C)[C@H]3CC[C@@]21C)C(C)C
REMARK SMILES IDX 6 1 7 2 5 3 4 4 3 5 2 6 1 7 28 8 29 9 30 10 8 11 9 12 26 13
REMARK SMILES IDX 10 14 11 15 25 16 27 17 12 18 24 19 23 20 13 21 21 22 14 23
REMARK SMILES IDX 15 24 20 25 22 26 16 27 19 28 17 29 18 30
REMARK H PARENT 18 31
REMARK Flexibility Score: inf
ROOT
ATOM      1  C   UNL     1      -2.322  -3.052  19.967  1.00  0.00     0.012 C 
ATOM      2  C   UNL     1      -1.275  -2.601  18.925  1.00  0.00     0.012 C 
ENDROOT
BRANCH   1   3
ATOM      3  C   UNL     1      -2.240  -4.554  20.179  1.00  0.00    -0.028 C 
ATOM      4  C   UNL     1      -1.437  -5.402  19.502  1.00  0.00    -0.027 C 
BRANCH   4   5
ATOM      5  C   UNL     1      -0.472  -5.031  18.389  1.00  0.00     0.014 C 
BRANCH   5   6
ATOM      6  C   UNL     1       0.824  -4.489  19.047  1.00  0.00     0.004 C 
ATOM      7  C   UNL     1       1.124  -3.024  18.733  1.00  0.00     0.004 C 
ENDBRANCH   5   6
BRANCH   5   8
ATOM      8  C   UNL     1      -0.297  -6.260  17.436  1.00  0.00    -0.011 C 
ATOM      9  C   UNL     1      -1.345  -6.304  16.313  1.00  0.00     0.008 C 
ATOM     10  C   UNL     1       1.121  -6.409  16.861  1.00  0.00     0.008 C 
ENDBRANCH   5   8
ENDBRANCH   4   5
ENDBRANCH   1   3
BRANCH   1  11
ATOM     11  C   UNL     1      -3.802  -2.571  19.733  1.00  0.00     0.002 C 
ATOM     12  C   UNL     1      -4.490  -2.161  21.041  1.00  0.00     0.005 C 
ATOM     13  C   UNL     1      -4.169  -1.465  18.667  1.00  0.00    -0.023 C 
ATOM     14  C   UNL     1      -5.689  -1.339  20.627  1.00  0.00     0.009 C 
ATOM     15  C   UNL     1      -5.236  -0.573  19.386  1.00  0.00     0.021 C 
ATOM     16  C   UNL     1      -4.746  -2.114  17.361  1.00  0.00     0.008 C 
ATOM     17  C   UNL     1      -2.979  -0.568  18.254  1.00  0.00     0.012 C 
ATOM     18  C   UNL     1      -6.418  -0.195  18.505  1.00  0.00    -0.067 C 
ATOM     19  C   UNL     1      -6.227  -2.508  17.470  1.00  0.00     0.009 C 
ATOM     20  C   UNL     1      -7.158  -1.297  17.753  1.00  0.00     0.021 C 
ATOM     21  C   UNL     1      -6.869   1.077  18.506  1.00  0.00    -0.027 C 
ATOM     22  C   UNL     1      -7.945  -0.768  16.499  1.00  0.00    -0.023 C 
ATOM     23  C   UNL     1      -7.945   1.577  17.578  1.00  0.00     0.031 C 
ATOM     24  C   UNL     1      -8.806   0.447  16.979  1.00  0.00     0.002 C 
ATOM     25  C   UNL     1      -8.890  -1.902  15.948  1.00  0.00     0.010 C 
ATOM     26  C   UNL     1      -6.956  -0.330  15.381  1.00  0.00     0.012 C 
ATOM     27  C   UNL     1      -9.746   1.007  15.880  1.00  0.00     0.036 C 
ATOM     28  C   UNL     1     -10.328  -1.455  15.631  1.00  0.00     0.032 C 
ATOM     29  C   UNL     1     -10.353  -0.080  14.963  1.00  0.00     0.114 C 
BRANCH  29  30
ATOM     30  O   UNL     1     -11.679   0.248  14.639  1.00  0.00    -0.393 OA
ATOM     31  H   UNL     1     -11.658   1.153  14.232  1.00  0.00     0.210 HD
ENDBRANCH  29  30
ENDBRANCH   1  11
TORSDOF 6
ENDMDL
MODEL 2
REMARK VINA RESULT:    67.709      4.581      8.943
REMARK INTER + INTRA:          92.703
REMARK INTER:                  87.665
REMARK INTRA:                   5.038
REMARK UNBOUND:                 3.222
REMARK SMILES CC[C@H](C=C[C@@H](C)[C@H]1CC[C@@H]2C3=CC[C@H]4C[C@H](O)CC[C@]4(C)[C@H]3CC[C@@]21C)C(C)C
REMARK SMILES IDX 6 1 7 2 5 3 4 4 3 5 2 6 1 7 28 8 29 9 30 10 8 11 9 12 26 13
REMARK SMILES IDX 10 14 11 15 25 16 27 17 12 18 24 19 23 20 13 21 21 22 14 23
REMARK SMILES IDX 15 24 20 25 22 26 16 27 19 28 17 29 18 30
REMARK H PARENT 18 31
REMARK Flexibility Score: inf
ROOT
ATOM      1  C   UNL     1       0.029  -5.180  18.386  1.00  0.00     0.012 C 
ATOM      2  C   UNL     1       1.124  -5.989  19.115  1.00  0.00     0.012 C 
ENDROOT
BRANCH   1   3
ATOM      3  C   UNL     1      -1.213  -5.074  19.255  1.00  0.00    -0.028 C 
ATOM      4  C   UNL     1      -1.845  -3.930  19.589  1.00  0.00    -0.027 C 
BRANCH   4   5
ATOM      5  C   UNL     1      -1.438  -2.525  19.179  1.00  0.00     0.014 C 
BRANCH   5   6
ATOM      6  C   UNL     1      -2.404  -1.530  19.874  1.00  0.00     0.004 C 
ATOM      7  C   UNL     1      -3.883  -1.795  19.602  1.00  0.00     0.004 C 
ENDBRANCH   5   6
BRANCH   5   8
ATOM      8  C   UNL     1       0.086  -2.328  19.480  1.00  0.00    -0.011 C 
ATOM      9  C   UNL     1       0.846  -3.655  19.629  1.00  0.00     0.008 C 
ATOM     10  C   UNL     1       0.804  -1.400  18.486  1.00  0.00     0.008 C 
ENDBRANCH   5   8
ENDBRANCH   4   5
ENDBRANCH   1   3
BRANCH   1  11
ATOM     11  C   UNL     1      -0.318  -5.626  16.918  1.00  0.00     0.002 C 
ATOM     12  C   UNL     1       0.563  -4.923  15.877  1.00  0.00     0.005 C 
ATOM     13  C   UNL     1      -0.385  -7.146  16.493  1.00  0.00    -0.023 C 
ATOM     14  C   UNL     1       0.431  -5.742  14.614  1.00  0.00     0.009 C 
ATOM     15  C   UNL     1       0.308  -7.188  15.090  1.00  0.00     0.021 C 
ATOM     16  C   UNL     1      -1.871  -7.642  16.416  1.00  0.00     0.008 C 
ATOM     17  C   UNL     1       0.376  -8.100  17.443  1.00  0.00     0.012 C 
ATOM     18  C   UNL     1      -0.420  -8.048  14.068  1.00  0.00    -0.067 C 
ATOM     19  C   UNL     1      -2.589  -7.242  15.118  1.00  0.00     0.009 C 
ATOM     20  C   UNL     1      -1.913  -7.825  13.847  1.00  0.00     0.021 C 
ATOM     21  C   UNL     1       0.284  -8.897  13.289  1.00  0.00    -0.027 C 
ATOM     22  C   UNL     1      -2.641  -9.076  13.232  1.00  0.00    -0.023 C 
ATOM     23  C   UNL     1      -0.355  -9.878  12.342  1.00  0.00     0.031 C 
ATOM     24  C   UNL     1      -1.810  -9.520  11.983  1.00  0.00     0.002 C 
ATOM     25  C   UNL     1      -4.098  -8.675  12.785  1.00  0.00     0.010 C 
ATOM     26  C   UNL     1      -2.718 -10.227  14.275  1.00  0.00     0.012 C 
ATOM     27  C   UNL     1      -2.471 -10.672  11.183  1.00  0.00     0.036 C 
ATOM     28  C   UNL     1      -4.505  -9.161  11.383  1.00  0.00     0.032 C 
ATOM     29  C   UNL     1      -4.013 -10.584  11.118  1.00  0.00     0.114 C 
BRANCH  29  30
ATOM     30  O   UNL     1      -4.467 -10.997   9.855  1.00  0.00    -0.393 OA
ATOM     31  H   UNL     1      -5.411 -11.284   9.971  1.00  0.00     0.210 HD
ENDBRANCH  29  30
ENDBRANCH   1  11
TORSDOF 6
ENDMDL
MODEL 3
REMARK VINA RESULT:    68.141      5.613     10.936
REMARK INTER + INTRA:          93.272
REMARK INTER:                  92.111
REMARK INTRA:                   1.162
REMARK UNBOUND:                 3.222
REMARK SMILES CC[C@H](C=C[C@@H](C)[C@H]1CC[C@@H]2C3=CC[C@H]4C[C@H](O)CC[C@]4(C)[C@H]3CC[C@@]21C)C(C)C
REMARK SMILES IDX 6 1 7 2 5 3 4 4 3 5 2 6 1 7 28 8 29 9 30 10 8 11 9 12 26 13
REMARK SMILES IDX 10 14 11 15 25 16 27 17 12 18 24 19 23 20 13 21 21 22 14 23
REMARK SMILES IDX 15 24 20 25 22 26 16 27 19 28 17 29 18 30
REMARK H PARENT 18 31
REMARK Flexibility Score: inf
ROOT
ATOM      1  C   UNL     1     -14.333  -1.560  13.102  1.00  0.00     0.012 C 
ATOM      2  C   UNL     1     -15.299  -0.362  13.226  1.00  0.00     0.012 C 
ENDROOT
BRANCH   1   3
ATOM      3  C   UNL     1     -15.103  -2.867  13.176  1.00  0.00    -0.028 C 
ATOM      4  C   UNL     1     -15.838  -3.290  14.226  1.00  0.00    -0.027 C 
BRANCH   4   5
ATOM      5  C   UNL     1     -16.028  -2.557  15.544  1.00  0.00     0.014 C 
BRANCH   5   6
ATOM      6  C   UNL     1     -17.178  -1.534  15.355  1.00  0.00     0.004 C 
ATOM      7  C   UNL     1     -18.569  -2.085  15.668  1.00  0.00     0.004 C 
ENDBRANCH   5   6
BRANCH   5   8
ATOM      8  C   UNL     1     -16.223  -3.608  16.687  1.00  0.00    -0.011 C 
ATOM      9  C   UNL     1     -15.265  -3.395  17.869  1.00  0.00     0.008 C 
ATOM     10  C   UNL     1     -17.674  -3.734  17.180  1.00  0.00     0.008 C 
ENDBRANCH   5   8
ENDBRANCH   4   5
ENDBRANCH   1   3
BRANCH   1  11
ATOM     11  C   UNL     1     -13.083  -1.560  14.059  1.00  0.00     0.002 C 
ATOM     12  C   UNL     1     -12.511  -2.969  14.263  1.00  0.00     0.005 C 
ATOM     13  C   UNL     1     -11.847  -0.604  13.831  1.00  0.00    -0.023 C 
ATOM     14  C   UNL     1     -11.118  -2.765  14.814  1.00  0.00     0.009 C 
ATOM     15  C   UNL     1     -10.601  -1.504  14.126  1.00  0.00     0.021 C 
ATOM     16  C   UNL     1     -11.907   0.631  14.796  1.00  0.00     0.008 C 
ATOM     17  C   UNL     1     -11.728  -0.062  12.388  1.00  0.00     0.012 C 
ATOM     18  C   UNL     1      -9.528  -0.818  14.959  1.00  0.00    -0.067 C 
ATOM     19  C   UNL     1     -11.415   0.327  16.219  1.00  0.00     0.009 C 
ATOM     20  C   UNL     1      -9.933  -0.135  16.262  1.00  0.00     0.021 C 
ATOM     21  C   UNL     1      -8.232  -0.935  14.604  1.00  0.00    -0.027 C 
ATOM     22  C   UNL     1      -8.914   0.970  16.723  1.00  0.00    -0.023 C 
ATOM     23  C   UNL     1      -7.114  -0.192  15.286  1.00  0.00     0.031 C 
ATOM     24  C   UNL     1      -7.491   0.323  16.688  1.00  0.00     0.002 C 
ATOM     25  C   UNL     1      -9.255   1.425  18.193  1.00  0.00     0.010 C 
ATOM     26  C   UNL     1      -8.980   2.200  15.773  1.00  0.00     0.012 C 
ATOM     27  C   UNL     1      -6.379   1.252  17.242  1.00  0.00     0.036 C 
ATOM     28  C   UNL     1      -8.047   1.514  19.143  1.00  0.00     0.032 C 
ATOM     29  C   UNL     1      -6.827   2.115  18.443  1.00  0.00     0.114 C 
BRANCH  29  30
ATOM     30  O   UNL     1      -5.780   2.232  19.371  1.00  0.00    -0.393 OA
ATOM     31  H   UNL     1      -4.934   2.218  18.850  1.00  0.00     0.210 HD
ENDBRANCH  29  30
ENDBRANCH   1  11
TORSDOF 6
ENDMDL
