MODEL 1
REMARK VINA RESULT:    -4.071      0.000      0.000
REMARK INTER + INTRA:         -16.723
REMARK INTER:                 -10.736
REMARK INTRA:                  -5.987
REMARK UNBOUND:                -5.987
REMARK SMILES CCCCCCCCCCCCCCCCCCCCCCCCCCCCCC(=O)[O-]
REMARK SMILES IDX 16 1 17 2 18 3 19 4 20 5 21 6 22 7 23 8 24 9 25 10 26 11
REMARK SMILES IDX 27 12 28 13 29 14 30 15 31 16 32 17 15 18 14 19 13 20 12 21
REMARK SMILES IDX 11 22 10 23 9 24 8 25 7 26 6 27 5 28 4 29 3 30 2 31 1 32
REMARK H PARENT
REMARK Flexibility Score: inf
ROOT
ATOM      1  C   UNL     1     -33.840 -44.567  32.348  1.00  0.00     0.000 C 
ENDROOT
BRANCH   1   2
ATOM      2  C   UNL     1     -34.238 -45.673  33.343  1.00  0.00     0.000 C 
BRANCH   2   3
ATOM      3  C   UNL     1     -35.472 -46.480  32.885  1.00  0.00     0.000 C 
BRANCH   3   4
ATOM      4  C   UNL     1     -35.439 -47.968  33.286  1.00  0.00     0.000 C 
BRANCH   4   5
ATOM      5  C   UNL     1     -35.789 -48.266  34.755  1.00  0.00     0.000 C 
BRANCH   5   6
ATOM      6  C   UNL     1     -35.181 -49.561  35.325  1.00  0.00     0.000 C 
BRANCH   6   7
ATOM      7  C   UNL     1     -33.658 -49.643  35.146  1.00  0.00     0.000 C 
BRANCH   7   8
ATOM      8  C   UNL     1     -32.947 -48.619  36.036  1.00  0.00     0.000 C 
BRANCH   8   9
ATOM      9  C   UNL     1     -31.506 -49.049  36.335  1.00  0.00     0.000 C 
BRANCH   9  10
ATOM     10  C   UNL     1     -31.074 -50.200  35.412  1.00  0.00     0.000 C 
BRANCH  10  11
ATOM     11  C   UNL     1     -29.560 -50.458  35.454  1.00  0.00     0.000 C 
BRANCH  11  12
ATOM     12  C   UNL     1     -28.819 -49.472  36.373  1.00  0.00     0.000 C 
BRANCH  12  13
ATOM     13  C   UNL     1     -28.261 -48.251  35.621  1.00  0.00     0.006 C 
BRANCH  13  14
ATOM     14  C   UNL     1     -27.249 -48.604  34.517  1.00  0.00     0.053 C 
BRANCH  14  15
ATOM     15  C   UNL     1     -26.070 -49.370  35.038  1.00  0.00     0.041 C 
ATOM     16  O   UNL     1     -25.162 -48.776  35.675  1.00  0.00    -0.550 OA
ATOM     17  O   UNL     1     -25.954 -50.732  34.786  1.00  0.00    -0.550 OA
ENDBRANCH  14  15
ENDBRANCH  13  14
ENDBRANCH  12  13
ENDBRANCH  11  12
ENDBRANCH  10  11
ENDBRANCH   9  10
ENDBRANCH   8   9
ENDBRANCH   7   8
ENDBRANCH   6   7
ENDBRANCH   5   6
ENDBRANCH   4   5
ENDBRANCH   3   4
ENDBRANCH   2   3
ENDBRANCH   1   2
BRANCH   1  18
ATOM     18  C   UNL     1     -34.969 -44.212  31.357  1.00  0.00     0.000 C 
BRANCH  18  19
ATOM     19  C   UNL     1     -34.567 -44.324  29.874  1.00  0.00     0.000 C 
BRANCH  19  20
ATOM     20  C   UNL     1     -33.447 -45.335  29.561  1.00  0.00     0.000 C 
BRANCH  20  21
ATOM     21  C   UNL     1     -33.919 -46.755  29.192  1.00  0.00     0.000 C 
BRANCH  21  22
ATOM     22  C   UNL     1     -33.445 -47.828  30.188  1.00  0.00     0.000 C 
BRANCH  22  23
ATOM     23  C   UNL     1     -32.075 -47.494  30.806  1.00  0.00     0.000 C 
BRANCH  23  24
ATOM     24  C   UNL     1     -31.832 -48.094  32.203  1.00  0.00    -0.000 C 
BRANCH  24  25
ATOM     25  C   UNL     1     -30.491 -47.659  32.814  1.00  0.00    -0.000 C 
BRANCH  25  26
ATOM     26  C   UNL     1     -30.681 -46.464  33.760  1.00  0.00    -0.000 C 
BRANCH  26  27
ATOM     27  C   UNL     1     -30.017 -45.180  33.239  1.00  0.00    -0.000 C 
BRANCH  27  28
ATOM     28  C   UNL     1     -28.554 -45.045  33.697  1.00  0.00    -0.000 C 
BRANCH  28  29
ATOM     29  C   UNL     1     -27.555 -45.256  32.548  1.00  0.00    -0.000 C 
BRANCH  29  30
ATOM     30  C   UNL     1     -28.229 -45.174  31.167  1.00  0.00    -0.000 C 
BRANCH  30  31
ATOM     31  C   UNL     1     -27.953 -46.414  30.303  1.00  0.00    -0.003 C 
ATOM     32  C   UNL     1     -27.196 -47.508  31.055  1.00  0.00     0.004 C 
ENDBRANCH  30  31
ENDBRANCH  29  30
ENDBRANCH  28  29
ENDBRANCH  27  28
ENDBRANCH  26  27
ENDBRANCH  25  26
ENDBRANCH  24  25
ENDBRANCH  23  24
ENDBRANCH  22  23
ENDBRANCH  21  22
ENDBRANCH  20  21
ENDBRANCH  19  20
ENDBRANCH  18  19
ENDBRANCH   1  18
TORSDOF 28
ENDMDL
MODEL 2
REMARK VINA RESULT:    -4.067      2.225      5.552
REMARK INTER + INTRA:         -16.711
REMARK INTER:                 -10.514
REMARK INTRA:                  -6.197
REMARK UNBOUND:                -5.987
REMARK SMILES CCCCCCCCCCCCCCCCCCCCCCCCCCCCCC(=O)[O-]
REMARK SMILES IDX 16 1 17 2 18 3 19 4 20 5 21 6 22 7 23 8 24 9 25 10 26 11
REMARK SMILES IDX 27 12 28 13 29 14 30 15 31 16 32 17 15 18 14 19 13 20 12 21
REMARK SMILES IDX 11 22 10 23 9 24 8 25 7 26 6 27 5 28 4 29 3 30 2 31 1 32
REMARK H PARENT
REMARK Flexibility Score: inf
ROOT
ATOM      1  C   UNL     1     -31.346 -49.186  31.912  1.00  0.00     0.000 C 
ENDROOT
BRANCH   1   2
ATOM      2  C   UNL     1     -31.290 -47.685  32.254  1.00  0.00     0.000 C 
BRANCH   2   3
ATOM      3  C   UNL     1     -31.550 -46.780  31.031  1.00  0.00     0.000 C 
BRANCH   3   4
ATOM      4  C   UNL     1     -33.030 -46.395  30.833  1.00  0.00     0.000 C 
BRANCH   4   5
ATOM      5  C   UNL     1     -33.525 -45.209  31.682  1.00  0.00     0.000 C 
BRANCH   5   6
ATOM      6  C   UNL     1     -34.305 -45.592  32.953  1.00  0.00     0.000 C 
BRANCH   6   7
ATOM      7  C   UNL     1     -33.476 -45.447  34.238  1.00  0.00     0.000 C 
BRANCH   7   8
ATOM      8  C   UNL     1     -32.330 -44.450  34.039  1.00  0.00     0.000 C 
BRANCH   8   9
ATOM      9  C   UNL     1     -31.057 -44.918  34.757  1.00  0.00     0.000 C 
BRANCH   9  10
ATOM     10  C   UNL     1     -29.809 -44.269  34.138  1.00  0.00     0.000 C 
BRANCH  10  11
ATOM     11  C   UNL     1     -28.927 -45.279  33.387  1.00  0.00     0.000 C 
BRANCH  11  12
ATOM     12  C   UNL     1     -27.562 -44.690  32.992  1.00  0.00     0.000 C 
BRANCH  12  13
ATOM     13  C   UNL     1     -26.970 -45.338  31.728  1.00  0.00     0.006 C 
BRANCH  13  14
ATOM     14  C   UNL     1     -28.017 -45.990  30.808  1.00  0.00     0.053 C 
BRANCH  14  15
ATOM     15  C   UNL     1     -27.559 -47.306  30.253  1.00  0.00     0.041 C 
ATOM     16  O   UNL     1     -28.381 -48.079  29.698  1.00  0.00    -0.550 OA
ATOM     17  O   UNL     1     -26.231 -47.696  30.385  1.00  0.00    -0.550 OA
ENDBRANCH  14  15
ENDBRANCH  13  14
ENDBRANCH  12  13
ENDBRANCH  11  12
ENDBRANCH  10  11
ENDBRANCH   9  10
ENDBRANCH   8   9
ENDBRANCH   7   8
ENDBRANCH   6   7
ENDBRANCH   5   6
ENDBRANCH   4   5
ENDBRANCH   3   4
ENDBRANCH   2   3
ENDBRANCH   1   2
BRANCH   1  18
ATOM     18  C   UNL     1     -32.747 -49.800  32.117  1.00  0.00     0.000 C 
BRANCH  18  19
ATOM     19  C   UNL     1     -33.524 -49.218  33.313  1.00  0.00     0.000 C 
BRANCH  19  20
ATOM     20  C   UNL     1     -33.544 -50.090  34.584  1.00  0.00     0.000 C 
BRANCH  20  21
ATOM     21  C   UNL     1     -32.535 -49.690  35.679  1.00  0.00     0.000 C 
BRANCH  21  22
ATOM     22  C   UNL     1     -31.131 -50.276  35.450  1.00  0.00     0.000 C 
BRANCH  22  23
ATOM     23  C   UNL     1     -30.047 -49.545  36.262  1.00  0.00     0.000 C 
BRANCH  23  24
ATOM     24  C   UNL     1     -29.511 -48.255  35.613  1.00  0.00    -0.000 C 
BRANCH  24  25
ATOM     25  C   UNL     1     -28.023 -48.349  35.241  1.00  0.00    -0.000 C 
BRANCH  25  26
ATOM     26  C   UNL     1     -27.850 -48.620  33.739  1.00  0.00    -0.000 C 
BRANCH  26  27
ATOM     27  C   UNL     1     -26.543 -49.362  33.413  1.00  0.00    -0.000 C 
BRANCH  27  28
ATOM     28  C   UNL     1     -26.791 -50.752  32.801  1.00  0.00    -0.000 C 
BRANCH  28  29
ATOM     29  C   UNL     1     -28.205 -50.893  32.214  1.00  0.00    -0.000 C 
BRANCH  29  30
ATOM     30  C   UNL     1     -29.036 -51.962  32.944  1.00  0.00    -0.000 C 
BRANCH  30  31
ATOM     31  C   UNL     1     -28.244 -52.666  34.056  1.00  0.00    -0.003 C 
ATOM     32  C   UNL     1     -28.250 -54.188  33.918  1.00  0.00     0.004 C 
ENDBRANCH  30  31
ENDBRANCH  29  30
ENDBRANCH  28  29
ENDBRANCH  27  28
ENDBRANCH  26  27
ENDBRANCH  25  26
ENDBRANCH  24  25
ENDBRANCH  23  24
ENDBRANCH  22  23
ENDBRANCH  21  22
ENDBRANCH  20  21
ENDBRANCH  19  20
ENDBRANCH  18  19
ENDBRANCH   1  18
TORSDOF 28
ENDMDL
MODEL 3
REMARK VINA RESULT:    -4.032      2.129      4.868
REMARK INTER + INTRA:         -16.619
REMARK INTER:                 -10.323
REMARK INTRA:                  -6.295
REMARK UNBOUND:                -5.987
REMARK SMILES CCCCCCCCCCCCCCCCCCCCCCCCCCCCCC(=O)[O-]
REMARK SMILES IDX 16 1 17 2 18 3 19 4 20 5 21 6 22 7 23 8 24 9 25 10 26 11
REMARK SMILES IDX 27 12 28 13 29 14 30 15 31 16 32 17 15 18 14 19 13 20 12 21
REMARK SMILES IDX 11 22 10 23 9 24 8 25 7 26 6 27 5 28 4 29 3 30 2 31 1 32
REMARK H PARENT
REMARK Flexibility Score: inf
ROOT
ATOM      1  C   UNL     1     -29.433 -48.303  30.921  1.00  0.00     0.000 C 
ENDROOT
BRANCH   1   2
ATOM      2  C   UNL     1     -28.059 -48.319  31.616  1.00  0.00     0.000 C 
BRANCH   2   3
ATOM      3  C   UNL     1     -27.645 -49.725  32.101  1.00  0.00     0.000 C 
BRANCH   3   4
ATOM      4  C   UNL     1     -26.989 -49.744  33.496  1.00  0.00     0.000 C 
BRANCH   4   5
ATOM      5  C   UNL     1     -26.965 -48.394  34.235  1.00  0.00     0.000 C 
BRANCH   5   6
ATOM      6  C   UNL     1     -27.876 -48.307  35.473  1.00  0.00     0.000 C 
BRANCH   6   7
ATOM      7  C   UNL     1     -28.058 -49.655  36.186  1.00  0.00     0.000 C 
BRANCH   7   8
ATOM      8  C   UNL     1     -29.443 -49.748  36.834  1.00  0.00     0.000 C 
BRANCH   8   9
ATOM      9  C   UNL     1     -30.462 -48.874  36.093  1.00  0.00     0.000 C 
BRANCH   9  10
ATOM     10  C   UNL     1     -31.722 -49.680  35.739  1.00  0.00     0.000 C 
BRANCH  10  11
ATOM     11  C   UNL     1     -32.003 -49.708  34.228  1.00  0.00     0.000 C 
BRANCH  11  12
ATOM     12  C   UNL     1     -31.086 -50.687  33.476  1.00  0.00     0.000 C 
BRANCH  12  13
ATOM     13  C   UNL     1     -30.795 -51.972  34.272  1.00  0.00     0.006 C 
BRANCH  13  14
ATOM     14  C   UNL     1     -29.415 -52.589  33.981  1.00  0.00     0.053 C 
BRANCH  14  15
ATOM     15  C   UNL     1     -29.421 -54.086  34.082  1.00  0.00     0.041 C 
ATOM     16  O   UNL     1     -28.347 -54.731  33.963  1.00  0.00    -0.550 OA
ATOM     17  O   UNL     1     -30.616 -54.770  34.267  1.00  0.00    -0.550 OA
ENDBRANCH  14  15
ENDBRANCH  13  14
ENDBRANCH  12  13
ENDBRANCH  11  12
ENDBRANCH  10  11
ENDBRANCH   9  10
ENDBRANCH   8   9
ENDBRANCH   7   8
ENDBRANCH   6   7
ENDBRANCH   5   6
ENDBRANCH   4   5
ENDBRANCH   3   4
ENDBRANCH   2   3
ENDBRANCH   1   2
BRANCH   1  18
ATOM     18  C   UNL     1     -30.519 -47.581  31.747  1.00  0.00     0.000 C 
BRANCH  18  19
ATOM     19  C   UNL     1     -31.167 -46.382  31.028  1.00  0.00     0.000 C 
BRANCH  19  20
ATOM     20  C   UNL     1     -32.634 -46.575  30.599  1.00  0.00     0.000 C 
BRANCH  20  21
ATOM     21  C   UNL     1     -33.277 -47.912  31.017  1.00  0.00     0.000 C 
BRANCH  21  22
ATOM     22  C   UNL     1     -34.718 -47.754  31.532  1.00  0.00     0.000 C 
BRANCH  22  23
ATOM     23  C   UNL     1     -34.824 -47.936  33.057  1.00  0.00     0.000 C 
BRANCH  23  24
ATOM     24  C   UNL     1     -34.978 -46.629  33.856  1.00  0.00    -0.000 C 
BRANCH  24  25
ATOM     25  C   UNL     1     -33.643 -46.108  34.410  1.00  0.00    -0.000 C 
BRANCH  25  26
ATOM     26  C   UNL     1     -33.299 -44.736  33.812  1.00  0.00    -0.000 C 
BRANCH  26  27
ATOM     27  C   UNL     1     -31.820 -44.360  33.992  1.00  0.00    -0.000 C 
BRANCH  27  28
ATOM     28  C   UNL     1     -31.070 -45.341  34.911  1.00  0.00    -0.000 C 
BRANCH  28  29
ATOM     29  C   UNL     1     -29.663 -45.677  34.390  1.00  0.00    -0.000 C 
BRANCH  29  30
ATOM     30  C   UNL     1     -29.027 -44.501  33.629  1.00  0.00    -0.000 C 
BRANCH  30  31
ATOM     31  C   UNL     1     -27.668 -44.864  33.012  1.00  0.00    -0.003 C 
ATOM     32  C   UNL     1     -27.601 -44.582  31.512  1.00  0.00     0.004 C 
ENDBRANCH  30  31
ENDBRANCH  29  30
ENDBRANCH  28  29
ENDBRANCH  27  28
ENDBRANCH  26  27
ENDBRANCH  25  26
ENDBRANCH  24  25
ENDBRANCH  23  24
ENDBRANCH  22  23
ENDBRANCH  21  22
ENDBRANCH  20  21
ENDBRANCH  19  20
ENDBRANCH  18  19
ENDBRANCH   1  18
TORSDOF 28
ENDMDL
MODEL 4
REMARK VINA RESULT:    -4.028      3.963      6.268
REMARK INTER + INTRA:         -16.610
REMARK INTER:                 -10.604
REMARK INTRA:                  -6.006
REMARK UNBOUND:                -5.987
REMARK SMILES CCCCCCCCCCCCCCCCCCCCCCCCCCCCCC(=O)[O-]
REMARK SMILES IDX 16 1 17 2 18 3 19 4 20 5 21 6 22 7 23 8 24 9 25 10 26 11
REMARK SMILES IDX 27 12 28 13 29 14 30 15 31 16 32 17 15 18 14 19 13 20 12 21
REMARK SMILES IDX 11 22 10 23 9 24 8 25 7 26 6 27 5 28 4 29 3 30 2 31 1 32
REMARK H PARENT
REMARK Flexibility Score: inf
ROOT
ATOM      1  C   UNL     1     -33.691 -47.869  29.499  1.00  0.00     0.000 C 
ENDROOT
BRANCH   1   2
ATOM      2  C   UNL     1     -34.269 -48.955  30.426  1.00  0.00     0.000 C 
BRANCH   2   3
ATOM      3  C   UNL     1     -33.276 -49.403  31.520  1.00  0.00     0.000 C 
BRANCH   3   4
ATOM      4  C   UNL     1     -32.001 -48.540  31.609  1.00  0.00     0.000 C 
BRANCH   4   5
ATOM      5  C   UNL     1     -30.721 -49.289  32.021  1.00  0.00     0.000 C 
BRANCH   5   6
ATOM      6  C   UNL     1     -30.500 -50.643  31.323  1.00  0.00     0.000 C 
BRANCH   6   7
ATOM      7  C   UNL     1     -30.077 -51.760  32.289  1.00  0.00     0.000 C 
BRANCH   7   8
ATOM      8  C   UNL     1     -30.406 -51.383  33.737  1.00  0.00     0.000 C 
BRANCH   8   9
ATOM      9  C   UNL     1     -31.434 -52.347  34.342  1.00  0.00     0.000 C 
BRANCH   9  10
ATOM     10  C   UNL     1     -31.886 -53.387  33.305  1.00  0.00     0.000 C 
BRANCH  10  11
ATOM     11  C   UNL     1     -33.292 -53.102  32.753  1.00  0.00     0.000 C 
BRANCH  11  12
ATOM     12  C   UNL     1     -33.534 -53.764  31.387  1.00  0.00     0.000 C 
BRANCH  12  13
ATOM     13  C   UNL     1     -33.427 -52.776  30.211  1.00  0.00     0.006 C 
BRANCH  13  14
ATOM     14  C   UNL     1     -34.628 -52.812  29.250  1.00  0.00     0.053 C 
BRANCH  14  15
ATOM     15  C   UNL     1     -35.193 -54.192  29.084  1.00  0.00     0.041 C 
ATOM     16  O   UNL     1     -34.587 -55.042  28.381  1.00  0.00    -0.550 OA
ATOM     17  O   UNL     1     -36.407 -54.526  29.671  1.00  0.00    -0.550 OA
ENDBRANCH  14  15
ENDBRANCH  13  14
ENDBRANCH  12  13
ENDBRANCH  11  12
ENDBRANCH  10  11
ENDBRANCH   9  10
ENDBRANCH   8   9
ENDBRANCH   7   8
ENDBRANCH   6   7
ENDBRANCH   5   6
ENDBRANCH   4   5
ENDBRANCH   3   4
ENDBRANCH   2   3
ENDBRANCH   1   2
BRANCH   1  18
ATOM     18  C   UNL     1     -34.702 -46.747  29.180  1.00  0.00     0.000 C 
BRANCH  18  19
ATOM     19  C   UNL     1     -34.262 -45.347  29.649  1.00  0.00     0.000 C 
BRANCH  19  20
ATOM     20  C   UNL     1     -33.383 -45.313  30.915  1.00  0.00     0.000 C 
BRANCH  20  21
ATOM     21  C   UNL     1     -34.106 -44.904  32.213  1.00  0.00     0.000 C 
BRANCH  21  22
ATOM     22  C   UNL     1     -34.155 -46.031  33.258  1.00  0.00     0.000 C 
BRANCH  22  23
ATOM     23  C   UNL     1     -35.484 -46.808  33.226  1.00  0.00     0.000 C 
BRANCH  23  24
ATOM     24  C   UNL     1     -35.906 -47.425  34.572  1.00  0.00    -0.000 C 
BRANCH  24  25
ATOM     25  C   UNL     1     -35.626 -48.934  34.650  1.00  0.00    -0.000 C 
BRANCH  25  26
ATOM     26  C   UNL     1     -34.590 -49.244  35.740  1.00  0.00    -0.000 C 
BRANCH  26  27
ATOM     27  C   UNL     1     -33.144 -49.181  35.223  1.00  0.00    -0.000 C 
BRANCH  27  28
ATOM     28  C   UNL     1     -32.279 -48.182  36.013  1.00  0.00    -0.000 C 
BRANCH  28  29
ATOM     29  C   UNL     1     -31.265 -47.448  35.120  1.00  0.00    -0.000 C 
BRANCH  29  30
ATOM     30  C   UNL     1     -30.837 -46.095  35.714  1.00  0.00    -0.000 C 
BRANCH  30  31
ATOM     31  C   UNL     1     -30.564 -45.038  34.633  1.00  0.00    -0.003 C 
ATOM     32  C   UNL     1     -30.441 -45.636  33.233  1.00  0.00     0.004 C 
ENDBRANCH  30  31
ENDBRANCH  29  30
ENDBRANCH  28  29
ENDBRANCH  27  28
ENDBRANCH  26  27
ENDBRANCH  25  26
ENDBRANCH  24  25
ENDBRANCH  23  24
ENDBRANCH  22  23
ENDBRANCH  21  22
ENDBRANCH  20  21
ENDBRANCH  19  20
ENDBRANCH  18  19
ENDBRANCH   1  18
TORSDOF 28
ENDMDL
MODEL 5
REMARK VINA RESULT:    -4.001      7.902     10.735
REMARK INTER + INTRA:         -16.537
REMARK INTER:                 -11.337
REMARK INTRA:                  -5.200
REMARK UNBOUND:                -5.987
REMARK SMILES CCCCCCCCCCCCCCCCCCCCCCCCCCCCCC(=O)[O-]
REMARK SMILES IDX 16 1 17 2 18 3 19 4 20 5 21 6 22 7 23 8 24 9 25 10 26 11
REMARK SMILES IDX 27 12 28 13 29 14 30 15 31 16 32 17 15 18 14 19 13 20 12 21
REMARK SMILES IDX 11 22 10 23 9 24 8 25 7 26 6 27 5 28 4 29 3 30 2 31 1 32
REMARK H PARENT
REMARK Flexibility Score: inf
ROOT
ATOM      1  C   UNL     1     -29.806 -50.190  23.038  1.00  0.00     0.000 C 
ENDROOT
BRANCH   1   2
ATOM      2  C   UNL     1     -30.161 -49.179  24.143  1.00  0.00     0.000 C 
BRANCH   2   3
ATOM      3  C   UNL     1     -30.378 -49.843  25.520  1.00  0.00     0.000 C 
BRANCH   3   4
ATOM      4  C   UNL     1     -31.477 -49.181  26.375  1.00  0.00     0.000 C 
BRANCH   4   5
ATOM      5  C   UNL     1     -32.416 -50.153  27.113  1.00  0.00     0.000 C 
BRANCH   5   6
ATOM      6  C   UNL     1     -32.604 -51.524  26.439  1.00  0.00     0.000 C 
BRANCH   6   7
ATOM      7  C   UNL     1     -34.036 -51.761  25.938  1.00  0.00     0.000 C 
BRANCH   7   8
ATOM      8  C   UNL     1     -34.146 -51.467  24.439  1.00  0.00     0.000 C 
BRANCH   8   9
ATOM      9  C   UNL     1     -34.756 -50.083  24.188  1.00  0.00     0.000 C 
BRANCH   9  10
ATOM     10  C   UNL     1     -34.055 -49.378  23.016  1.00  0.00     0.000 C 
BRANCH  10  11
ATOM     11  C   UNL     1     -33.604 -47.951  23.366  1.00  0.00     0.000 C 
BRANCH  11  12
ATOM     12  C   UNL     1     -34.067 -47.513  24.765  1.00  0.00     0.000 C 
BRANCH  12  13
ATOM     13  C   UNL     1     -34.454 -46.025  24.833  1.00  0.00     0.006 C 
BRANCH  13  14
ATOM     14  C   UNL     1     -33.349 -45.067  24.356  1.00  0.00     0.053 C 
BRANCH  14  15
ATOM     15  C   UNL     1     -32.129 -45.115  25.227  1.00  0.00     0.041 C 
ATOM     16  O   UNL     1     -32.131 -44.548  26.350  1.00  0.00    -0.550 OA
ATOM     17  O   UNL     1     -30.976 -45.750  24.781  1.00  0.00    -0.550 OA
ENDBRANCH  14  15
ENDBRANCH  13  14
ENDBRANCH  12  13
ENDBRANCH  11  12
ENDBRANCH  10  11
ENDBRANCH   9  10
ENDBRANCH   8   9
ENDBRANCH   7   8
ENDBRANCH   6   7
ENDBRANCH   5   6
ENDBRANCH   4   5
ENDBRANCH   3   4
ENDBRANCH   2   3
ENDBRANCH   1   2
BRANCH   1  18
ATOM     18  C   UNL     1     -31.003 -51.071  22.618  1.00  0.00     0.000 C 
BRANCH  18  19
ATOM     19  C   UNL     1     -30.866 -52.553  23.015  1.00  0.00     0.000 C 
BRANCH  19  20
ATOM     20  C   UNL     1     -29.546 -52.940  23.708  1.00  0.00     0.000 C 
BRANCH  20  21
ATOM     21  C   UNL     1     -28.771 -54.104  23.059  1.00  0.00     0.000 C 
BRANCH  21  22
ATOM     22  C   UNL     1     -27.710 -54.716  23.988  1.00  0.00     0.000 C 
BRANCH  22  23
ATOM     23  C   UNL     1     -28.009 -54.459  25.476  1.00  0.00     0.000 C 
BRANCH  23  24
ATOM     24  C   UNL     1     -26.924 -53.665  26.227  1.00  0.00    -0.000 C 
BRANCH  24  25
ATOM     25  C   UNL     1     -27.441 -52.329  26.782  1.00  0.00    -0.000 C 
BRANCH  25  26
ATOM     26  C   UNL     1     -26.773 -51.144  26.068  1.00  0.00    -0.000 C 
BRANCH  26  27
ATOM     27  C   UNL     1     -25.515 -51.552  25.285  1.00  0.00    -0.000 C 
BRANCH  27  28
ATOM     28  C   UNL     1     -25.179 -50.563  24.154  1.00  0.00    -0.000 C 
BRANCH  28  29
ATOM     29  C   UNL     1     -26.346 -49.615  23.834  1.00  0.00    -0.000 C 
BRANCH  29  30
ATOM     30  C   UNL     1     -25.893 -48.150  23.720  1.00  0.00    -0.000 C 
BRANCH  30  31
ATOM     31  C   UNL     1     -27.019 -47.157  24.046  1.00  0.00    -0.003 C 
ATOM     32  C   UNL     1     -26.591 -46.078  25.039  1.00  0.00     0.004 C 
ENDBRANCH  30  31
ENDBRANCH  29  30
ENDBRANCH  28  29
ENDBRANCH  27  28
ENDBRANCH  26  27
ENDBRANCH  25  26
ENDBRANCH  24  25
ENDBRANCH  23  24
ENDBRANCH  22  23
ENDBRANCH  21  22
ENDBRANCH  20  21
ENDBRANCH  19  20
ENDBRANCH  18  19
ENDBRANCH   1  18
TORSDOF 28
ENDMDL
MODEL 6
REMARK VINA RESULT:    -3.967      7.191     10.580
REMARK INTER + INTRA:         -16.448
REMARK INTER:                 -10.500
REMARK INTRA:                  -5.948
REMARK UNBOUND:                -5.987
REMARK SMILES CCCCCCCCCCCCCCCCCCCCCCCCCCCCCC(=O)[O-]
REMARK SMILES IDX 16 1 17 2 18 3 19 4 20 5 21 6 22 7 23 8 24 9 25 10 26 11
REMARK SMILES IDX 27 12 28 13 29 14 30 15 31 16 32 17 15 18 14 19 13 20 12 21
REMARK SMILES IDX 11 22 10 23 9 24 8 25 7 26 6 27 5 28 4 29 3 30 2 31 1 32
REMARK H PARENT
REMARK Flexibility Score: inf
ROOT
ATOM      1  C   UNL     1     -29.988 -51.750  22.159  1.00  0.00     0.000 C 
ENDROOT
BRANCH   1   2
ATOM      2  C   UNL     1     -29.531 -50.490  21.401  1.00  0.00     0.000 C 
BRANCH   2   3
ATOM      3  C   UNL     1     -28.055 -50.127  21.673  1.00  0.00     0.000 C 
BRANCH   3   4
ATOM      4  C   UNL     1     -27.854 -48.742  22.319  1.00  0.00     0.000 C 
BRANCH   4   5
ATOM      5  C   UNL     1     -27.254 -48.754  23.738  1.00  0.00     0.000 C 
BRANCH   5   6
ATOM      6  C   UNL     1     -26.341 -49.953  24.054  1.00  0.00     0.000 C 
BRANCH   6   7
ATOM      7  C   UNL     1     -26.838 -50.795  25.238  1.00  0.00     0.000 C 
BRANCH   7   8
ATOM      8  C   UNL     1     -26.387 -52.253  25.100  1.00  0.00     0.000 C 
BRANCH   8   9
ATOM      9  C   UNL     1     -27.204 -52.988  24.031  1.00  0.00     0.000 C 
BRANCH   9  10
ATOM     10  C   UNL     1     -28.183 -53.982  24.676  1.00  0.00     0.000 C 
BRANCH  10  11
ATOM     11  C   UNL     1     -27.750 -54.408  26.087  1.00  0.00     0.000 C 
BRANCH  11  12
ATOM     12  C   UNL     1     -28.873 -54.239  27.125  1.00  0.00     0.000 C 
BRANCH  12  13
ATOM     13  C   UNL     1     -28.878 -52.849  27.785  1.00  0.00     0.006 C 
BRANCH  13  14
ATOM     14  C   UNL     1     -28.000 -52.751  29.045  1.00  0.00     0.053 C 
BRANCH  14  15
ATOM     15  C   UNL     1     -26.713 -52.022  28.796  1.00  0.00     0.041 C 
ATOM     16  O   UNL     1     -26.690 -50.764  28.796  1.00  0.00    -0.550 OA
ATOM     17  O   UNL     1     -25.549 -52.730  28.525  1.00  0.00    -0.550 OA
ENDBRANCH  14  15
ENDBRANCH  13  14
ENDBRANCH  12  13
ENDBRANCH  11  12
ENDBRANCH  10  11
ENDBRANCH   9  10
ENDBRANCH   8   9
ENDBRANCH   7   8
ENDBRANCH   6   7
ENDBRANCH   5   6
ENDBRANCH   4   5
ENDBRANCH   3   4
ENDBRANCH   2   3
ENDBRANCH   1   2
BRANCH   1  18
ATOM     18  C   UNL     1     -31.084 -51.461  23.206  1.00  0.00     0.000 C 
BRANCH  18  19
ATOM     19  C   UNL     1     -30.562 -51.336  24.650  1.00  0.00     0.000 C 
BRANCH  19  20
ATOM     20  C   UNL     1     -30.483 -49.903  25.210  1.00  0.00     0.000 C 
BRANCH  20  21
ATOM     21  C   UNL     1     -30.969 -48.791  24.258  1.00  0.00     0.000 C 
BRANCH  21  22
ATOM     22  C   UNL     1     -32.389 -48.296  24.583  1.00  0.00     0.000 C 
BRANCH  22  23
ATOM     23  C   UNL     1     -33.282 -48.203  23.333  1.00  0.00     0.000 C 
BRANCH  23  24
ATOM     24  C   UNL     1     -34.133 -49.455  23.051  1.00  0.00    -0.000 C 
BRANCH  24  25
ATOM     25  C   UNL     1     -34.745 -50.058  24.324  1.00  0.00    -0.000 C 
BRANCH  25  26
ATOM     26  C   UNL     1     -34.310 -51.521  24.502  1.00  0.00    -0.000 C 
BRANCH  26  27
ATOM     27  C   UNL     1     -34.445 -52.011  25.952  1.00  0.00    -0.000 C 
BRANCH  27  28
ATOM     28  C   UNL     1     -33.510 -51.260  26.917  1.00  0.00    -0.000 C 
BRANCH  28  29
ATOM     29  C   UNL     1     -32.548 -52.204  27.658  1.00  0.00    -0.000 C 
BRANCH  29  30
ATOM     30  C   UNL     1     -33.097 -52.641  29.026  1.00  0.00    -0.000 C 
BRANCH  30  31
ATOM     31  C   UNL     1     -34.029 -53.858  28.925  1.00  0.00    -0.003 C 
ATOM     32  C   UNL     1     -34.124 -54.644  30.232  1.00  0.00     0.004 C 
ENDBRANCH  30  31
ENDBRANCH  29  30
ENDBRANCH  28  29
ENDBRANCH  27  28
ENDBRANCH  26  27
ENDBRANCH  25  26
ENDBRANCH  24  25
ENDBRANCH  23  24
ENDBRANCH  22  23
ENDBRANCH  21  22
ENDBRANCH  20  21
ENDBRANCH  19  20
ENDBRANCH  18  19
ENDBRANCH   1  18
TORSDOF 28
ENDMDL
MODEL 7
REMARK VINA RESULT:    -3.950      2.585      5.243
REMARK INTER + INTRA:         -16.402
REMARK INTER:                 -10.334
REMARK INTRA:                  -6.068
REMARK UNBOUND:                -5.987
REMARK SMILES CCCCCCCCCCCCCCCCCCCCCCCCCCCCCC(=O)[O-]
REMARK SMILES IDX 16 1 17 2 18 3 19 4 20 5 21 6 22 7 23 8 24 9 25 10 26 11
REMARK SMILES IDX 27 12 28 13 29 14 30 15 31 16 32 17 15 18 14 19 13 20 12 21
REMARK SMILES IDX 11 22 10 23 9 24 8 25 7 26 6 27 5 28 4 29 3 30 2 31 1 32
REMARK H PARENT
REMARK Flexibility Score: inf
ROOT
ATOM      1  C   UNL     1     -32.952 -50.206  33.187  1.00  0.00     0.000 C 
ENDROOT
BRANCH   1   2
ATOM      2  C   UNL     1     -32.492 -51.524  33.837  1.00  0.00     0.000 C 
BRANCH   2   3
ATOM      3  C   UNL     1     -31.218 -52.105  33.186  1.00  0.00     0.000 C 
BRANCH   3   4
ATOM      4  C   UNL     1     -29.917 -51.788  33.951  1.00  0.00     0.000 C 
BRANCH   4   5
ATOM      5  C   UNL     1     -30.078 -51.565  35.466  1.00  0.00     0.000 C 
BRANCH   5   6
ATOM      6  C   UNL     1     -29.708 -50.156  35.965  1.00  0.00     0.000 C 
BRANCH   6   7
ATOM      7  C   UNL     1     -28.950 -49.324  34.920  1.00  0.00     0.000 C 
BRANCH   7   8
ATOM      8  C   UNL     1     -28.116 -48.230  35.593  1.00  0.00     0.000 C 
BRANCH   8   9
ATOM      9  C   UNL     1     -26.642 -48.324  35.182  1.00  0.00     0.000 C 
BRANCH   9  10
ATOM     10  C   UNL     1     -26.108 -49.752  35.378  1.00  0.00     0.000 C 
BRANCH  10  11
ATOM     11  C   UNL     1     -24.789 -50.000  34.630  1.00  0.00     0.000 C 
BRANCH  11  12
ATOM     12  C   UNL     1     -24.880 -51.179  33.647  1.00  0.00     0.000 C 
BRANCH  12  13
ATOM     13  C   UNL     1     -26.273 -51.327  33.011  1.00  0.00     0.006 C 
BRANCH  13  14
ATOM     14  C   UNL     1     -26.278 -52.117  31.690  1.00  0.00     0.053 C 
BRANCH  14  15
ATOM     15  C   UNL     1     -25.333 -51.549  30.674  1.00  0.00     0.041 C 
ATOM     16  O   UNL     1     -25.443 -50.350  30.309  1.00  0.00    -0.550 OA
ATOM     17  O   UNL     1     -24.355 -52.353  30.101  1.00  0.00    -0.550 OA
ENDBRANCH  14  15
ENDBRANCH  13  14
ENDBRANCH  12  13
ENDBRANCH  11  12
ENDBRANCH  10  11
ENDBRANCH   9  10
ENDBRANCH   8   9
ENDBRANCH   7   8
ENDBRANCH   6   7
ENDBRANCH   5   6
ENDBRANCH   4   5
ENDBRANCH   3   4
ENDBRANCH   2   3
ENDBRANCH   1   2
BRANCH   1  18
ATOM     18  C   UNL     1     -33.731 -49.293  34.158  1.00  0.00     0.000 C 
BRANCH  18  19
ATOM     19  C   UNL     1     -33.387 -49.511  35.644  1.00  0.00     0.000 C 
BRANCH  19  20
ATOM     20  C   UNL     1     -32.661 -48.344  36.339  1.00  0.00     0.000 C 
BRANCH  20  21
ATOM     21  C   UNL     1     -32.446 -47.086  35.473  1.00  0.00     0.000 C 
BRANCH  21  22
ATOM     22  C   UNL     1     -31.122 -46.363  35.775  1.00  0.00     0.000 C 
BRANCH  22  23
ATOM     23  C   UNL     1     -30.808 -45.257  34.752  1.00  0.00     0.000 C 
BRANCH  23  24
ATOM     24  C   UNL     1     -29.779 -45.645  33.674  1.00  0.00    -0.000 C 
BRANCH  24  25
ATOM     25  C   UNL     1     -28.663 -44.601  33.512  1.00  0.00    -0.000 C 
BRANCH  25  26
ATOM     26  C   UNL     1     -27.342 -45.269  33.102  1.00  0.00    -0.000 C 
BRANCH  26  27
ATOM     27  C   UNL     1     -27.360 -45.785  31.654  1.00  0.00    -0.000 C 
BRANCH  27  28
ATOM     28  C   UNL     1     -27.092 -47.298  31.564  1.00  0.00    -0.000 C 
BRANCH  28  29
ATOM     29  C   UNL     1     -28.034 -48.004  30.576  1.00  0.00    -0.000 C 
BRANCH  29  30
ATOM     30  C   UNL     1     -28.834 -49.137  31.240  1.00  0.00    -0.000 C 
BRANCH  30  31
ATOM     31  C   UNL     1     -30.255 -48.704  31.631  1.00  0.00    -0.003 C 
ATOM     32  C   UNL     1     -30.815 -47.612  30.721  1.00  0.00     0.004 C 
ENDBRANCH  30  31
ENDBRANCH  29  30
ENDBRANCH  28  29
ENDBRANCH  27  28
ENDBRANCH  26  27
ENDBRANCH  25  26
ENDBRANCH  24  25
ENDBRANCH  23  24
ENDBRANCH  22  23
ENDBRANCH  21  22
ENDBRANCH  20  21
ENDBRANCH  19  20
ENDBRANCH  18  19
ENDBRANCH   1  18
TORSDOF 28
ENDMDL
MODEL 8
REMARK VINA RESULT:    -3.893      7.709     10.699
REMARK INTER + INTRA:         -16.251
REMARK INTER:                 -10.647
REMARK INTRA:                  -5.604
REMARK UNBOUND:                -5.987
REMARK SMILES CCCCCCCCCCCCCCCCCCCCCCCCCCCCCC(=O)[O-]
REMARK SMILES IDX 16 1 17 2 18 3 19 4 20 5 21 6 22 7 23 8 24 9 25 10 26 11
REMARK SMILES IDX 27 12 28 13 29 14 30 15 31 16 32 17 15 18 14 19 13 20 12 21
REMARK SMILES IDX 11 22 10 23 9 24 8 25 7 26 6 27 5 28 4 29 3 30 2 31 1 32
REMARK H PARENT
REMARK Flexibility Score: inf
ROOT
ATOM      1  C   UNL     1     -29.652 -51.290  21.322  1.00  0.00     0.000 C 
ENDROOT
BRANCH   1   2
ATOM      2  C   UNL     1     -29.621 -49.753  21.415  1.00  0.00     0.000 C 
BRANCH   2   3
ATOM      3  C   UNL     1     -30.359 -49.210  22.658  1.00  0.00     0.000 C 
BRANCH   3   4
ATOM      4  C   UNL     1     -31.526 -48.256  22.332  1.00  0.00     0.000 C 
BRANCH   4   5
ATOM      5  C   UNL     1     -31.506 -46.909  23.078  1.00  0.00     0.000 C 
BRANCH   5   6
ATOM      6  C   UNL     1     -32.659 -46.693  24.074  1.00  0.00     0.000 C 
BRANCH   6   7
ATOM      7  C   UNL     1     -34.046 -46.923  23.454  1.00  0.00     0.000 C 
BRANCH   7   8
ATOM      8  C   UNL     1     -34.778 -48.068  24.160  1.00  0.00     0.000 C 
BRANCH   8   9
ATOM      9  C   UNL     1     -34.618 -49.386  23.392  1.00  0.00     0.000 C 
BRANCH   9  10
ATOM     10  C   UNL     1     -34.081 -50.495  24.311  1.00  0.00     0.000 C 
BRANCH  10  11
ATOM     11  C   UNL     1     -33.455 -49.945  25.601  1.00  0.00     0.000 C 
BRANCH  11  12
ATOM     12  C   UNL     1     -31.927 -50.117  25.636  1.00  0.00     0.000 C 
BRANCH  12  13
ATOM     13  C   UNL     1     -31.487 -51.472  26.220  1.00  0.00     0.006 C 
BRANCH  13  14
ATOM     14  C   UNL     1     -30.251 -51.388  27.133  1.00  0.00     0.053 C 
BRANCH  14  15
ATOM     15  C   UNL     1     -30.108 -52.588  28.021  1.00  0.00     0.041 C 
ATOM     16  O   UNL     1     -31.110 -53.303  28.284  1.00  0.00    -0.550 OA
ATOM     17  O   UNL     1     -28.878 -52.894  28.591  1.00  0.00    -0.550 OA
ENDBRANCH  14  15
ENDBRANCH  13  14
ENDBRANCH  12  13
ENDBRANCH  11  12
ENDBRANCH  10  11
ENDBRANCH   9  10
ENDBRANCH   8   9
ENDBRANCH   7   8
ENDBRANCH   6   7
ENDBRANCH   5   6
ENDBRANCH   4   5
ENDBRANCH   3   4
ENDBRANCH   2   3
ENDBRANCH   1   2
BRANCH   1  18
ATOM     18  C   UNL     1     -30.228 -51.960  22.588  1.00  0.00     0.000 C 
BRANCH  18  19
ATOM     19  C   UNL     1     -30.102 -53.495  22.603  1.00  0.00     0.000 C 
BRANCH  19  20
ATOM     20  C   UNL     1     -28.849 -54.055  23.304  1.00  0.00     0.000 C 
BRANCH  20  21
ATOM     21  C   UNL     1     -28.725 -53.723  24.805  1.00  0.00     0.000 C 
BRANCH  21  22
ATOM     22  C   UNL     1     -27.269 -53.524  25.260  1.00  0.00     0.000 C 
BRANCH  22  23
ATOM     23  C   UNL     1     -26.959 -52.059  25.621  1.00  0.00     0.000 C 
BRANCH  23  24
ATOM     24  C   UNL     1     -25.498 -51.631  25.390  1.00  0.00    -0.000 C 
BRANCH  24  25
ATOM     25  C   UNL     1     -25.321 -50.777  24.126  1.00  0.00    -0.000 C 
BRANCH  25  26
ATOM     26  C   UNL     1     -26.678 -50.280  23.605  1.00  0.00    -0.000 C 
BRANCH  26  27
ATOM     27  C   UNL     1     -26.620 -48.841  23.068  1.00  0.00    -0.000 C 
BRANCH  27  28
ATOM     28  C   UNL     1     -25.686 -47.940  23.895  1.00  0.00    -0.000 C 
BRANCH  28  29
ATOM     29  C   UNL     1     -26.407 -46.706  24.461  1.00  0.00    -0.000 C 
BRANCH  29  30
ATOM     30  C   UNL     1     -27.921 -46.739  24.188  1.00  0.00    -0.000 C 
BRANCH  30  31
ATOM     31  C   UNL     1     -28.748 -46.880  25.474  1.00  0.00    -0.003 C 
ATOM     32  C   UNL     1     -28.544 -48.226  26.168  1.00  0.00     0.004 C 
ENDBRANCH  30  31
ENDBRANCH  29  30
ENDBRANCH  28  29
ENDBRANCH  27  28
ENDBRANCH  26  27
ENDBRANCH  25  26
ENDBRANCH  24  25
ENDBRANCH  23  24
ENDBRANCH  22  23
ENDBRANCH  21  22
ENDBRANCH  20  21
ENDBRANCH  19  20
ENDBRANCH  18  19
ENDBRANCH   1  18
TORSDOF 28
ENDMDL
MODEL 9
REMARK VINA RESULT:    -3.842      2.058      5.254
REMARK INTER + INTRA:         -16.117
REMARK INTER:                 -10.056
REMARK INTRA:                  -6.061
REMARK UNBOUND:                -5.987
REMARK SMILES CCCCCCCCCCCCCCCCCCCCCCCCCCCCCC(=O)[O-]
REMARK SMILES IDX 16 1 17 2 18 3 19 4 20 5 21 6 22 7 23 8 24 9 25 10 26 11
REMARK SMILES IDX 27 12 28 13 29 14 30 15 31 16 32 17 15 18 14 19 13 20 12 21
REMARK SMILES IDX 11 22 10 23 9 24 8 25 7 26 6 27 5 28 4 29 3 30 2 31 1 32
REMARK H PARENT
REMARK Flexibility Score: inf
ROOT
ATOM      1  C   UNL     1     -27.473 -46.263  32.828  1.00  0.00     0.000 C 
ENDROOT
BRANCH   1   2
ATOM      2  C   UNL     1     -27.855 -47.683  32.371  1.00  0.00     0.000 C 
BRANCH   2   3
ATOM      3  C   UNL     1     -27.803 -48.718  33.516  1.00  0.00     0.000 C 
BRANCH   3   4
ATOM      4  C   UNL     1     -27.301 -48.151  34.858  1.00  0.00     0.000 C 
BRANCH   4   5
ATOM      5  C   UNL     1     -27.616 -49.008  36.099  1.00  0.00     0.000 C 
BRANCH   5   6
ATOM      6  C   UNL     1     -28.445 -50.276  35.827  1.00  0.00     0.000 C 
BRANCH   6   7
ATOM      7  C   UNL     1     -29.935 -50.106  36.158  1.00  0.00     0.000 C 
BRANCH   7   8
ATOM      8  C   UNL     1     -30.802 -50.974  35.239  1.00  0.00     0.000 C 
BRANCH   8   9
ATOM      9  C   UNL     1     -30.184 -52.364  35.044  1.00  0.00     0.000 C 
BRANCH   9  10
ATOM     10  C   UNL     1     -30.037 -52.694  33.550  1.00  0.00     0.000 C 
BRANCH  10  11
ATOM     11  C   UNL     1     -28.569 -52.825  33.114  1.00  0.00     0.000 C 
BRANCH  11  12
ATOM     12  C   UNL     1     -28.213 -51.888  31.948  1.00  0.00     0.000 C 
BRANCH  12  13
ATOM     13  C   UNL     1     -26.845 -52.204  31.317  1.00  0.00     0.006 C 
BRANCH  13  14
ATOM     14  C   UNL     1     -25.707 -52.371  32.340  1.00  0.00     0.053 C 
BRANCH  14  15
ATOM     15  C   UNL     1     -25.091 -51.063  32.737  1.00  0.00     0.041 C 
ATOM     16  O   UNL     1     -24.863 -50.813  33.949  1.00  0.00    -0.550 OA
ATOM     17  O   UNL     1     -24.806 -50.103  31.773  1.00  0.00    -0.550 OA
ENDBRANCH  14  15
ENDBRANCH  13  14
ENDBRANCH  12  13
ENDBRANCH  11  12
ENDBRANCH  10  11
ENDBRANCH   9  10
ENDBRANCH   8   9
ENDBRANCH   7   8
ENDBRANCH   6   7
ENDBRANCH   5   6
ENDBRANCH   4   5
ENDBRANCH   3   4
ENDBRANCH   2   3
ENDBRANCH   1   2
BRANCH   1  18
ATOM     18  C   UNL     1     -28.599 -45.232  32.598  1.00  0.00     0.000 C 
BRANCH  18  19
ATOM     19  C   UNL     1     -28.996 -44.438  33.857  1.00  0.00     0.000 C 
BRANCH  19  20
ATOM     20  C   UNL     1     -30.339 -44.833  34.500  1.00  0.00     0.000 C 
BRANCH  20  21
ATOM     21  C   UNL     1     -30.359 -46.204  35.206  1.00  0.00     0.000 C 
BRANCH  21  22
ATOM     22  C   UNL     1     -31.180 -47.261  34.448  1.00  0.00     0.000 C 
BRANCH  22  23
ATOM     23  C   UNL     1     -32.658 -47.279  34.877  1.00  0.00     0.000 C 
BRANCH  23  24
ATOM     24  C   UNL     1     -33.668 -47.108  33.727  1.00  0.00    -0.000 C 
BRANCH  24  25
ATOM     25  C   UNL     1     -34.138 -45.655  33.557  1.00  0.00    -0.000 C 
BRANCH  25  26
ATOM     26  C   UNL     1     -33.330 -44.943  32.461  1.00  0.00    -0.000 C 
BRANCH  26  27
ATOM     27  C   UNL     1     -33.873 -45.212  31.049  1.00  0.00    -0.000 C 
BRANCH  27  28
ATOM     28  C   UNL     1     -32.840 -45.905  30.143  1.00  0.00    -0.000 C 
BRANCH  28  29
ATOM     29  C   UNL     1     -31.563 -46.300  30.902  1.00  0.00    -0.000 C 
BRANCH  29  30
ATOM     30  C   UNL     1     -30.832 -47.481  30.239  1.00  0.00    -0.000 C 
BRANCH  30  31
ATOM     31  C   UNL     1     -31.541 -48.822  30.479  1.00  0.00    -0.003 C 
ATOM     32  C   UNL     1     -31.062 -49.530  31.746  1.00  0.00     0.004 C 
ENDBRANCH  30  31
ENDBRANCH  29  30
ENDBRANCH  28  29
ENDBRANCH  27  28
ENDBRANCH  26  27
ENDBRANCH  25  26
ENDBRANCH  24  25
ENDBRANCH  23  24
ENDBRANCH  22  23
ENDBRANCH  21  22
ENDBRANCH  20  21
ENDBRANCH  19  20
ENDBRANCH  18  19
ENDBRANCH   1  18
TORSDOF 28
ENDMDL
