MODEL 1
REMARK VINA RESULT:    29.198      0.000      0.000
REMARK INTER + INTRA:          34.073
REMARK INTER:                  34.319
REMARK INTRA:                  -0.247
REMARK UNBOUND:                -0.247
REMARK SMILES O=c1c(O)c(-c2ccc(O)cc2)oc2cc(O)cc(O)c12
REMARK SMILES IDX 5 1 3 2 2 3 1 4 21 5 19 6 18 7 16 8 15 9 14 10 13 11 6 12
REMARK SMILES IDX 7 13 8 14 9 15 12 16 11 17 10 18 4 20 20 22 17 24
REMARK H PARENT 10 19 4 21 20 23 17 25
REMARK Flexibility Score: inf
ROOT
ATOM      1  C   UNL     1      12.766   5.159  18.384  1.00  0.00     0.180 A 
ATOM      2  C   UNL     1      13.681   6.061  18.954  1.00  0.00     0.208 A 
ATOM      3  C   UNL     1      13.613   7.418  18.598  1.00  0.00     0.238 A 
ATOM      4  O   UNL     1      14.468   8.211  19.071  1.00  0.00    -0.285 OA
ATOM      5  C   UNL     1      12.621   7.859  17.689  1.00  0.00     0.111 A 
ATOM      6  C   UNL     1      12.433   9.216  17.289  1.00  0.00     0.134 A 
ATOM      7  C   UNL     1      11.506   9.518  16.285  1.00  0.00     0.093 A 
ATOM      8  C   UNL     1      10.713   8.523  15.713  1.00  0.00     0.123 A 
ATOM      9  C   UNL     1      10.846   7.201  16.139  1.00  0.00     0.094 A 
ATOM     10  C   UNL     1      11.789   6.863  17.113  1.00  0.00     0.146 A 
ATOM     11  O   UNL     1      11.890   5.592  17.484  1.00  0.00    -0.452 OA
ENDROOT
BRANCH   1  12
ATOM     12  C   UNL     1      12.760   3.719  18.728  1.00  0.00     0.021 A 
ATOM     13  C   UNL     1      13.355   2.762  17.884  1.00  0.00     0.016 A 
ATOM     14  C   UNL     1      13.358   1.410  18.242  1.00  0.00     0.047 A 
ATOM     15  C   UNL     1      12.783   1.000  19.451  1.00  0.00     0.115 A 
ATOM     16  C   UNL     1      12.204   3.301  19.948  1.00  0.00     0.016 A 
ATOM     17  C   UNL     1      12.209   1.948  20.302  1.00  0.00     0.047 A 
BRANCH  15  18
ATOM     18  O   UNL     1      12.779  -0.344  19.817  1.00  0.00    -0.508 OA
ATOM     19  H   UNL     1      13.333  -0.683  20.596  1.00  0.00     0.293 HD
ENDBRANCH  15  18
ENDBRANCH   1  12
BRANCH   2  20
ATOM     20  O   UNL     1      14.666   5.601  19.833  1.00  0.00    -0.502 OA
ATOM     21  H   UNL     1      15.617   5.952  19.816  1.00  0.00     0.293 HD
ENDBRANCH   2  20
BRANCH   6  22
ATOM     22  O   UNL     1      13.108  10.298  17.861  1.00  0.00    -0.507 OA
ATOM     23  H   UNL     1      14.106  10.437  17.826  1.00  0.00     0.293 HD
ENDBRANCH   6  22
BRANCH   8  24
ATOM     24  O   UNL     1       9.789   8.862  14.727  1.00  0.00    -0.508 OA
ATOM     25  H   UNL     1       9.115   9.607  14.866  1.00  0.00     0.293 HD
ENDBRANCH   8  24
TORSDOF 5
ENDMDL
MODEL 2
REMARK VINA RESULT:    30.122      1.204      3.046
REMARK INTER + INTRA:          35.158
REMARK INTER:                  35.297
REMARK INTRA:                  -0.138
REMARK UNBOUND:                -0.247
REMARK SMILES O=c1c(O)c(-c2ccc(O)cc2)oc2cc(O)cc(O)c12
REMARK SMILES IDX 5 1 3 2 2 3 1 4 21 5 19 6 18 7 16 8 15 9 14 10 13 11 6 12
REMARK SMILES IDX 7 13 8 14 9 15 12 16 11 17 10 18 4 20 20 22 17 24
REMARK H PARENT 10 19 4 21 20 23 17 25
REMARK Flexibility Score: inf
ROOT
ATOM      1  C   UNL     1      12.271   5.119  17.985  1.00  0.00     0.180 A 
ATOM      2  C   UNL     1      11.444   5.295  16.862  1.00  0.00     0.208 A 
ATOM      3  C   UNL     1      11.261   6.588  16.346  1.00  0.00     0.238 A 
ATOM      4  O   UNL     1      10.478   6.747  15.374  1.00  0.00    -0.285 OA
ATOM      5  C   UNL     1      11.920   7.687  16.950  1.00  0.00     0.111 A 
ATOM      6  C   UNL     1      11.839   9.035  16.486  1.00  0.00     0.134 A 
ATOM      7  C   UNL     1      12.426  10.059  17.238  1.00  0.00     0.093 A 
ATOM      8  C   UNL     1      13.146   9.780  18.399  1.00  0.00     0.123 A 
ATOM      9  C   UNL     1      13.282   8.459  18.829  1.00  0.00     0.094 A 
ATOM     10  C   UNL     1      12.676   7.419  18.120  1.00  0.00     0.146 A 
ATOM     11  O   UNL     1      12.822   6.178  18.568  1.00  0.00    -0.452 OA
ENDROOT
BRANCH   1  12
ATOM     12  C   UNL     1      12.531   3.784  18.571  1.00  0.00     0.021 A 
ATOM     13  C   UNL     1      12.047   3.437  19.846  1.00  0.00     0.016 A 
ATOM     14  C   UNL     1      12.285   2.162  20.368  1.00  0.00     0.047 A 
ATOM     15  C   UNL     1      12.994   1.215  19.619  1.00  0.00     0.115 A 
ATOM     16  C   UNL     1      13.223   2.821  17.818  1.00  0.00     0.016 A 
ATOM     17  C   UNL     1      13.459   1.547  18.343  1.00  0.00     0.047 A 
BRANCH  15  18
ATOM     18  O   UNL     1      13.238  -0.059  20.130  1.00  0.00    -0.508 OA
ATOM     19  H   UNL     1      12.480  -0.696  20.346  1.00  0.00     0.293 HD
ENDBRANCH  15  18
ENDBRANCH   1  12
BRANCH   2  20
ATOM     20  O   UNL     1      10.786   4.200  16.295  1.00  0.00    -0.502 OA
ATOM     21  H   UNL     1      10.435   4.208  15.344  1.00  0.00     0.293 HD
ENDBRANCH   2  20
BRANCH   6  22
ATOM     22  O   UNL     1      11.222   9.413  15.290  1.00  0.00    -0.507 OA
ATOM     23  H   UNL     1      11.230  10.347  14.910  1.00  0.00     0.293 HD
ENDBRANCH   6  22
BRANCH   8  24
ATOM     24  O   UNL     1      13.730  10.823  19.113  1.00  0.00    -0.508 OA
ATOM     25  H   UNL     1      13.229  11.309  19.849  1.00  0.00     0.293 HD
ENDBRANCH   8  24
TORSDOF 5
ENDMDL
MODEL 3
REMARK VINA RESULT:    30.160      4.640      7.513
REMARK INTER + INTRA:          35.203
REMARK INTER:                  35.445
REMARK INTRA:                  -0.242
REMARK UNBOUND:                -0.247
REMARK SMILES O=c1c(O)c(-c2ccc(O)cc2)oc2cc(O)cc(O)c12
REMARK SMILES IDX 5 1 3 2 2 3 1 4 21 5 19 6 18 7 16 8 15 9 14 10 13 11 6 12
REMARK SMILES IDX 7 13 8 14 9 15 12 16 11 17 10 18 4 20 20 22 17 24
REMARK H PARENT 10 19 4 21 20 23 17 25
REMARK Flexibility Score: inf
ROOT
ATOM      1  C   UNL     1       9.271   9.857  19.487  1.00  0.00     0.180 A 
ATOM      2  C   UNL     1       8.774   9.414  18.249  1.00  0.00     0.208 A 
ATOM      3  C   UNL     1       9.679   8.986  17.265  1.00  0.00     0.238 A 
ATOM      4  O   UNL     1       9.231   8.640  16.140  1.00  0.00    -0.285 OA
ATOM      5  C   UNL     1      11.069   8.992  17.535  1.00  0.00     0.111 A 
ATOM      6  C   UNL     1      12.073   8.542  16.627  1.00  0.00     0.134 A 
ATOM      7  C   UNL     1      13.424   8.716  16.950  1.00  0.00     0.093 A 
ATOM      8  C   UNL     1      13.808   9.262  18.175  1.00  0.00     0.123 A 
ATOM      9  C   UNL     1      12.834   9.650  19.096  1.00  0.00     0.094 A 
ATOM     10  C   UNL     1      11.478   9.523  18.787  1.00  0.00     0.146 A 
ATOM     11  O   UNL     1      10.583   9.913  19.687  1.00  0.00    -0.452 OA
ENDROOT
BRANCH   1  12
ATOM     12  C   UNL     1       8.378  10.300  20.582  1.00  0.00     0.021 A 
ATOM     13  C   UNL     1       8.163  11.666  20.844  1.00  0.00     0.016 A 
ATOM     14  C   UNL     1       7.296  12.060  21.868  1.00  0.00     0.047 A 
ATOM     15  C   UNL     1       6.624  11.098  22.632  1.00  0.00     0.115 A 
ATOM     16  C   UNL     1       7.684   9.343  21.339  1.00  0.00     0.016 A 
ATOM     17  C   UNL     1       6.818   9.740  22.363  1.00  0.00     0.047 A 
BRANCH  15  18
ATOM     18  O   UNL     1       5.759  11.480  23.656  1.00  0.00    -0.508 OA
ATOM     19  H   UNL     1       5.497  12.449  23.794  1.00  0.00     0.293 HD
ENDBRANCH  15  18
ENDBRANCH   1  12
BRANCH   2  20
ATOM     20  O   UNL     1       7.399   9.436  17.995  1.00  0.00    -0.502 OA
ATOM     21  H   UNL     1       6.968  10.130  17.395  1.00  0.00     0.293 HD
ENDBRANCH   2  20
BRANCH   6  22
ATOM     22  O   UNL     1      11.799   7.899  15.416  1.00  0.00    -0.507 OA
ATOM     23  H   UNL     1      11.991   8.284  14.504  1.00  0.00     0.293 HD
ENDBRANCH   6  22
BRANCH   8  24
ATOM     24  O   UNL     1      15.162   9.405  18.469  1.00  0.00    -0.508 OA
ATOM     25  H   UNL     1      15.695   8.654  18.892  1.00  0.00     0.293 HD
ENDBRANCH   8  24
TORSDOF 5
ENDMDL
MODEL 4
REMARK VINA RESULT:    30.707      4.599      6.863
REMARK INTER + INTRA:          35.846
REMARK INTER:                  35.981
REMARK INTRA:                  -0.135
REMARK UNBOUND:                -0.247
REMARK SMILES O=c1c(O)c(-c2ccc(O)cc2)oc2cc(O)cc(O)c12
REMARK SMILES IDX 5 1 3 2 2 3 1 4 21 5 19 6 18 7 16 8 15 9 14 10 13 11 6 12
REMARK SMILES IDX 7 13 8 14 9 15 12 16 11 17 10 18 4 20 20 22 17 24
REMARK H PARENT 10 19 4 21 20 23 17 25
REMARK Flexibility Score: inf
ROOT
ATOM      1  C   UNL     1       9.868   9.969  19.763  1.00  0.00     0.180 A 
ATOM      2  C   UNL     1      11.185  10.319  20.111  1.00  0.00     0.208 A 
ATOM      3  C   UNL     1      12.232   9.982  19.238  1.00  0.00     0.238 A 
ATOM      4  O   UNL     1      13.413  10.250  19.579  1.00  0.00    -0.285 OA
ATOM      5  C   UNL     1      11.949   9.314  18.022  1.00  0.00     0.111 A 
ATOM      6  C   UNL     1      12.927   8.961  17.044  1.00  0.00     0.134 A 
ATOM      7  C   UNL     1      12.550   8.187  15.940  1.00  0.00     0.093 A 
ATOM      8  C   UNL     1      11.222   7.809  15.743  1.00  0.00     0.123 A 
ATOM      9  C   UNL     1      10.247   8.201  16.662  1.00  0.00     0.094 A 
ATOM     10  C   UNL     1      10.598   8.942  17.793  1.00  0.00     0.146 A 
ATOM     11  O   UNL     1       9.642   9.285  18.647  1.00  0.00    -0.452 OA
ENDROOT
BRANCH   1  12
ATOM     12  C   UNL     1       8.710  10.312  20.620  1.00  0.00     0.021 A 
ATOM     13  C   UNL     1       7.963   9.314  21.274  1.00  0.00     0.016 A 
ATOM     14  C   UNL     1       6.888   9.664  22.098  1.00  0.00     0.047 A 
ATOM     15  C   UNL     1       6.555  11.010  22.289  1.00  0.00     0.115 A 
ATOM     16  C   UNL     1       8.382  11.661  20.834  1.00  0.00     0.016 A 
ATOM     17  C   UNL     1       7.306  12.006  21.658  1.00  0.00     0.047 A 
BRANCH  15  18
ATOM     18  O   UNL     1       5.486  11.369  23.107  1.00  0.00    -0.508 OA
ATOM     19  H   UNL     1       5.043  12.278  23.031  1.00  0.00     0.293 HD
ENDBRANCH  15  18
ENDBRANCH   1  12
BRANCH   2  20
ATOM     20  O   UNL     1      11.444  10.958  21.326  1.00  0.00    -0.502 OA
ATOM     21  H   UNL     1      11.188  10.554  22.220  1.00  0.00     0.293 HD
ENDBRANCH   2  20
BRANCH   6  22
ATOM     22  O   UNL     1      14.264   9.365  17.097  1.00  0.00    -0.507 OA
ATOM     23  H   UNL     1      14.993   8.875  17.592  1.00  0.00     0.293 HD
ENDBRANCH   6  22
BRANCH   8  24
ATOM     24  O   UNL     1      10.882   7.052  14.625  1.00  0.00    -0.508 OA
ATOM     25  H   UNL     1      11.542   6.891  13.873  1.00  0.00     0.293 HD
ENDBRANCH   8  24
TORSDOF 5
ENDMDL
