MODEL 1
REMARK VINA RESULT:    -2.875      0.000      0.000
REMARK INTER + INTRA:         -13.540
REMARK INTER:                  -7.580
REMARK INTRA:                  -5.960
REMARK UNBOUND:                -5.960
REMARK SMILES CCCCCCCCCCCCCCCCCCCCCCCCCCCCCC(=O)[O-]
REMARK SMILES IDX 16 1 17 2 18 3 19 4 20 5 21 6 22 7 23 8 24 9 25 10 26 11
REMARK SMILES IDX 27 12 28 13 29 14 30 15 31 16 32 17 15 18 14 19 13 20 12 21
REMARK SMILES IDX 11 22 10 23 9 24 8 25 7 26 6 27 5 28 4 29 3 30 2 31 1 32
REMARK H PARENT
REMARK Flexibility Score: inf
ROOT
ATOM      1  C   UNL     1      10.924   4.189  33.281  1.00  0.00     0.000 C 
ENDROOT
BRANCH   1   2
ATOM      2  C   UNL     1      10.982   5.240  34.407  1.00  0.00     0.000 C 
BRANCH   2   3
ATOM      3  C   UNL     1      10.244   6.559  34.110  1.00  0.00     0.000 C 
BRANCH   3   4
ATOM      4  C   UNL     1      11.137   7.607  33.431  1.00  0.00     0.000 C 
BRANCH   4   5
ATOM      5  C   UNL     1      10.633   7.926  32.018  1.00  0.00     0.000 C 
BRANCH   5   6
ATOM      6  C   UNL     1       9.246   7.311  31.776  1.00  0.00     0.000 C 
BRANCH   6   7
ATOM      7  C   UNL     1       9.083   6.748  30.354  1.00  0.00     0.000 C 
BRANCH   7   8
ATOM      8  C   UNL     1      10.406   6.724  29.571  1.00  0.00     0.000 C 
BRANCH   8   9
ATOM      9  C   UNL     1      11.032   5.321  29.516  1.00  0.00     0.000 C 
BRANCH   9  10
ATOM     10  C   UNL     1      12.488   5.300  30.015  1.00  0.00     0.000 C 
BRANCH  10  11
ATOM     11  C   UNL     1      13.493   5.002  28.880  1.00  0.00     0.000 C 
BRANCH  11  12
ATOM     12  C   UNL     1      14.969   5.107  29.311  1.00  0.00     0.000 C 
BRANCH  12  13
ATOM     13  C   UNL     1      15.267   4.593  30.730  1.00  0.00     0.006 C 
BRANCH  13  14
ATOM     14  C   UNL     1      16.386   3.543  30.758  1.00  0.00     0.053 C 
BRANCH  14  15
ATOM     15  C   UNL     1      17.618   4.096  31.403  1.00  0.00     0.041 C 
ATOM     16  O   UNL     1      18.574   4.511  30.694  1.00  0.00    -0.550 OA
ATOM     17  O   UNL     1      17.706   4.168  32.790  1.00  0.00    -0.550 OA
ENDBRANCH  14  15
ENDBRANCH  13  14
ENDBRANCH  12  13
ENDBRANCH  11  12
ENDBRANCH  10  11
ENDBRANCH   9  10
ENDBRANCH   8   9
ENDBRANCH   7   8
ENDBRANCH   6   7
ENDBRANCH   5   6
ENDBRANCH   4   5
ENDBRANCH   3   4
ENDBRANCH   2   3
ENDBRANCH   1   2
BRANCH   1  18
ATOM     18  C   UNL     1       9.514   3.879  32.740  1.00  0.00     0.000 C 
BRANCH  18  19
ATOM     19  C   UNL     1       9.005   2.464  33.088  1.00  0.00     0.000 C 
BRANCH  19  20
ATOM     20  C   UNL     1       9.048   1.501  31.885  1.00  0.00     0.000 C 
BRANCH  20  21
ATOM     21  C   UNL     1       9.174   2.237  30.541  1.00  0.00     0.000 C 
BRANCH  21  22
ATOM     22  C   UNL     1      10.437   1.831  29.760  1.00  0.00     0.000 C 
BRANCH  22  23
ATOM     23  C   UNL     1      11.453   1.087  30.643  1.00  0.00     0.000 C 
BRANCH  23  24
ATOM     24  C   UNL     1      12.713   1.926  30.920  1.00  0.00    -0.000 C 
BRANCH  24  25
ATOM     25  C   UNL     1      13.697   1.217  31.864  1.00  0.00    -0.000 C 
BRANCH  25  26
ATOM     26  C   UNL     1      13.511   1.628  33.334  1.00  0.00    -0.000 C 
BRANCH  26  27
ATOM     27  C   UNL     1      14.688   2.456  33.879  1.00  0.00    -0.000 C 
BRANCH  27  28
ATOM     28  C   UNL     1      14.735   2.596  35.414  1.00  0.00    -0.000 C 
BRANCH  28  29
ATOM     29  C   UNL     1      14.024   3.838  35.983  1.00  0.00    -0.000 C 
BRANCH  29  30
ATOM     30  C   UNL     1      12.902   3.533  36.995  1.00  0.00    -0.000 C 
BRANCH  30  31
ATOM     31  C   UNL     1      12.421   2.066  36.959  1.00  0.00    -0.003 C 
ATOM     32  C   UNL     1      11.093   1.903  36.221  1.00  0.00     0.004 C 
ENDBRANCH  30  31
ENDBRANCH  29  30
ENDBRANCH  28  29
ENDBRANCH  27  28
ENDBRANCH  26  27
ENDBRANCH  25  26
ENDBRANCH  24  25
ENDBRANCH  23  24
ENDBRANCH  22  23
ENDBRANCH  21  22
ENDBRANCH  20  21
ENDBRANCH  19  20
ENDBRANCH  18  19
ENDBRANCH   1  18
TORSDOF 28
ENDMDL
MODEL 2
REMARK VINA RESULT:    -2.857      9.277     12.128
REMARK INTER + INTRA:         -13.493
REMARK INTER:                  -8.794
REMARK INTRA:                  -4.698
REMARK UNBOUND:                -5.960
REMARK SMILES CCCCCCCCCCCCCCCCCCCCCCCCCCCCCC(=O)[O-]
REMARK SMILES IDX 16 1 17 2 18 3 19 4 20 5 21 6 22 7 23 8 24 9 25 10 26 11
REMARK SMILES IDX 27 12 28 13 29 14 30 15 31 16 32 17 15 18 14 19 13 20 12 21
REMARK SMILES IDX 11 22 10 23 9 24 8 25 7 26 6 27 5 28 4 29 3 30 2 31 1 32
REMARK H PARENT
REMARK Flexibility Score: inf
ROOT
ATOM      1  C   UNL     1      20.967   6.560  33.987  1.00  0.00     0.000 C 
ENDROOT
BRANCH   1   2
ATOM      2  C   UNL     1      20.727   5.603  32.803  1.00  0.00     0.000 C 
BRANCH   2   3
ATOM      3  C   UNL     1      21.999   4.980  32.197  1.00  0.00     0.000 C 
BRANCH   3   4
ATOM      4  C   UNL     1      22.296   3.574  32.738  1.00  0.00     0.000 C 
BRANCH   4   5
ATOM      5  C   UNL     1      23.526   3.586  33.653  1.00  0.00     0.000 C 
BRANCH   5   6
ATOM      6  C   UNL     1      23.230   2.874  34.983  1.00  0.00     0.000 C 
BRANCH   6   7
ATOM      7  C   UNL     1      22.723   3.833  36.073  1.00  0.00     0.000 C 
BRANCH   7   8
ATOM      8  C   UNL     1      21.224   3.654  36.369  1.00  0.00     0.000 C 
BRANCH   8   9
ATOM      9  C   UNL     1      20.881   2.228  36.830  1.00  0.00     0.000 C 
BRANCH   9  10
ATOM     10  C   UNL     1      20.236   2.195  38.227  1.00  0.00     0.000 C 
BRANCH  10  11
ATOM     11  C   UNL     1      21.032   1.321  39.221  1.00  0.00     0.000 C 
BRANCH  11  12
ATOM     12  C   UNL     1      21.944   2.127  40.167  1.00  0.00     0.000 C 
BRANCH  12  13
ATOM     13  C   UNL     1      23.331   2.465  39.595  1.00  0.00     0.006 C 
BRANCH  13  14
ATOM     14  C   UNL     1      23.888   1.354  38.693  1.00  0.00     0.053 C 
BRANCH  14  15
ATOM     15  C   UNL     1      25.218   0.882  39.191  1.00  0.00     0.041 C 
ATOM     16  O   UNL     1      25.696   1.346  40.261  1.00  0.00    -0.550 OA
ATOM     17  O   UNL     1      25.925  -0.083  38.482  1.00  0.00    -0.550 OA
ENDBRANCH  14  15
ENDBRANCH  13  14
ENDBRANCH  12  13
ENDBRANCH  11  12
ENDBRANCH  10  11
ENDBRANCH   9  10
ENDBRANCH   8   9
ENDBRANCH   7   8
ENDBRANCH   6   7
ENDBRANCH   5   6
ENDBRANCH   4   5
ENDBRANCH   3   4
ENDBRANCH   2   3
ENDBRANCH   1   2
BRANCH   1  18
ATOM     18  C   UNL     1      19.772   6.738  34.944  1.00  0.00     0.000 C 
BRANCH  18  19
ATOM     19  C   UNL     1      19.434   8.211  35.259  1.00  0.00     0.000 C 
BRANCH  19  20
ATOM     20  C   UNL     1      20.671   9.129  35.223  1.00  0.00     0.000 C 
BRANCH  20  21
ATOM     21  C   UNL     1      20.704  10.125  36.394  1.00  0.00     0.000 C 
BRANCH  21  22
ATOM     22  C   UNL     1      20.272   9.486  37.727  1.00  0.00     0.000 C 
BRANCH  22  23
ATOM     23  C   UNL     1      21.464   9.234  38.664  1.00  0.00     0.000 C 
BRANCH  23  24
ATOM     24  C   UNL     1      22.056   7.824  38.492  1.00  0.00    -0.000 C 
BRANCH  24  25
ATOM     25  C   UNL     1      20.975   6.754  38.272  1.00  0.00    -0.000 C 
BRANCH  25  26
ATOM     26  C   UNL     1      20.982   5.669  39.363  1.00  0.00    -0.000 C 
BRANCH  26  27
ATOM     27  C   UNL     1      20.114   6.037  40.580  1.00  0.00    -0.000 C 
BRANCH  27  28
ATOM     28  C   UNL     1      19.228   7.286  40.398  1.00  0.00    -0.000 C 
BRANCH  28  29
ATOM     29  C   UNL     1      19.353   8.348  41.506  1.00  0.00    -0.000 C 
BRANCH  29  30
ATOM     30  C   UNL     1      18.490   9.607  41.295  1.00  0.00    -0.000 C 
BRANCH  30  31
ATOM     31  C   UNL     1      17.211   9.347  40.468  1.00  0.00    -0.003 C 
ATOM     32  C   UNL     1      17.206  10.108  39.142  1.00  0.00     0.004 C 
ENDBRANCH  30  31
ENDBRANCH  29  30
ENDBRANCH  28  29
ENDBRANCH  27  28
ENDBRANCH  26  27
ENDBRANCH  25  26
ENDBRANCH  24  25
ENDBRANCH  23  24
ENDBRANCH  22  23
ENDBRANCH  21  22
ENDBRANCH  20  21
ENDBRANCH  19  20
ENDBRANCH  18  19
ENDBRANCH   1  18
TORSDOF 28
ENDMDL
MODEL 3
REMARK VINA RESULT:    -2.852      1.655      4.947
REMARK INTER + INTRA:         -13.479
REMARK INTER:                  -7.487
REMARK INTRA:                  -5.992
REMARK UNBOUND:                -5.960
REMARK SMILES CCCCCCCCCCCCCCCCCCCCCCCCCCCCCC(=O)[O-]
REMARK SMILES IDX 16 1 17 2 18 3 19 4 20 5 21 6 22 7 23 8 24 9 25 10 26 11
REMARK SMILES IDX 27 12 28 13 29 14 30 15 31 16 32 17 15 18 14 19 13 20 12 21
REMARK SMILES IDX 11 22 10 23 9 24 8 25 7 26 6 27 5 28 4 29 3 30 2 31 1 32
REMARK H PARENT
REMARK Flexibility Score: inf
ROOT
ATOM      1  C   UNL     1      12.715   1.078  30.059  1.00  0.00     0.000 C 
ENDROOT
BRANCH   1   2
ATOM      2  C   UNL     1      12.244   1.201  28.596  1.00  0.00     0.000 C 
BRANCH   2   3
ATOM      3  C   UNL     1      11.999   2.640  28.106  1.00  0.00     0.000 C 
BRANCH   3   4
ATOM      4  C   UNL     1      13.060   3.124  27.107  1.00  0.00     0.000 C 
BRANCH   4   5
ATOM      5  C   UNL     1      13.406   4.598  27.343  1.00  0.00     0.000 C 
BRANCH   5   6
ATOM      6  C   UNL     1      13.409   4.930  28.844  1.00  0.00     0.000 C 
BRANCH   6   7
ATOM      7  C   UNL     1      14.634   4.360  29.579  1.00  0.00     0.000 C 
BRANCH   7   8
ATOM      8  C   UNL     1      15.962   4.739  28.900  1.00  0.00     0.000 C 
BRANCH   8   9
ATOM      9  C   UNL     1      16.849   3.515  28.620  1.00  0.00     0.000 C 
BRANCH   9  10
ATOM     10  C   UNL     1      16.060   2.193  28.634  1.00  0.00     0.000 C 
BRANCH  10  11
ATOM     11  C   UNL     1      16.529   1.240  29.755  1.00  0.00     0.000 C 
BRANCH  11  12
ATOM     12  C   UNL     1      17.466   1.903  30.784  1.00  0.00     0.000 C 
BRANCH  12  13
ATOM     13  C   UNL     1      16.773   2.396  32.065  1.00  0.00     0.006 C 
BRANCH  13  14
ATOM     14  C   UNL     1      17.087   3.865  32.382  1.00  0.00     0.053 C 
BRANCH  14  15
ATOM     15  C   UNL     1      18.564   4.107  32.372  1.00  0.00     0.041 C 
ATOM     16  O   UNL     1      19.076   4.868  31.507  1.00  0.00    -0.550 OA
ATOM     17  O   UNL     1      19.376   3.503  33.326  1.00  0.00    -0.550 OA
ENDBRANCH  14  15
ENDBRANCH  13  14
ENDBRANCH  12  13
ENDBRANCH  11  12
ENDBRANCH  10  11
ENDBRANCH   9  10
ENDBRANCH   8   9
ENDBRANCH   7   8
ENDBRANCH   6   7
ENDBRANCH   5   6
ENDBRANCH   4   5
ENDBRANCH   3   4
ENDBRANCH   2   3
ENDBRANCH   1   2
BRANCH   1  18
ATOM     18  C   UNL     1      12.093   2.092  31.039  1.00  0.00     0.000 C 
BRANCH  18  19
ATOM     19  C   UNL     1      10.644   1.759  31.452  1.00  0.00     0.000 C 
BRANCH  19  20
ATOM     20  C   UNL     1       9.647   2.877  31.090  1.00  0.00     0.000 C 
BRANCH  20  21
ATOM     21  C   UNL     1      10.321   4.252  30.957  1.00  0.00     0.000 C 
BRANCH  21  22
ATOM     22  C   UNL     1       9.817   5.043  29.735  1.00  0.00     0.000 C 
BRANCH  22  23
ATOM     23  C   UNL     1       9.706   6.548  30.022  1.00  0.00     0.000 C 
BRANCH  23  24
ATOM     24  C   UNL     1       9.380   6.842  31.497  1.00  0.00    -0.000 C 
BRANCH  24  25
ATOM     25  C   UNL     1      10.372   7.827  32.135  1.00  0.00    -0.000 C 
BRANCH  25  26
ATOM     26  C   UNL     1      10.807   7.400  33.548  1.00  0.00    -0.000 C 
BRANCH  26  27
ATOM     27  C   UNL     1      10.039   6.171  34.066  1.00  0.00    -0.000 C 
BRANCH  27  28
ATOM     28  C   UNL     1      10.430   5.705  35.484  1.00  0.00    -0.000 C 
BRANCH  28  29
ATOM     29  C   UNL     1      10.879   4.236  35.592  1.00  0.00    -0.000 C 
BRANCH  29  30
ATOM     30  C   UNL     1      11.726   3.731  34.408  1.00  0.00    -0.000 C 
BRANCH  30  31
ATOM     31  C   UNL     1      13.147   4.334  34.363  1.00  0.00    -0.003 C 
ATOM     32  C   UNL     1      13.483   4.943  33.003  1.00  0.00     0.004 C 
ENDBRANCH  30  31
ENDBRANCH  29  30
ENDBRANCH  28  29
ENDBRANCH  27  28
ENDBRANCH  26  27
ENDBRANCH  25  26
ENDBRANCH  24  25
ENDBRANCH  23  24
ENDBRANCH  22  23
ENDBRANCH  21  22
ENDBRANCH  20  21
ENDBRANCH  19  20
ENDBRANCH  18  19
ENDBRANCH   1  18
TORSDOF 28
ENDMDL
MODEL 4
REMARK VINA RESULT:    -2.835      1.525      4.601
REMARK INTER + INTRA:         -13.436
REMARK INTER:                  -6.988
REMARK INTRA:                  -6.449
REMARK UNBOUND:                -5.960
REMARK SMILES CCCCCCCCCCCCCCCCCCCCCCCCCCCCCC(=O)[O-]
REMARK SMILES IDX 16 1 17 2 18 3 19 4 20 5 21 6 22 7 23 8 24 9 25 10 26 11
REMARK SMILES IDX 27 12 28 13 29 14 30 15 31 16 32 17 15 18 14 19 13 20 12 21
REMARK SMILES IDX 11 22 10 23 9 24 8 25 7 26 6 27 5 28 4 29 3 30 2 31 1 32
REMARK H PARENT
REMARK Flexibility Score: inf
ROOT
ATOM      1  C   UNL     1      11.139   5.822  29.553  1.00  0.00     0.000 C 
ENDROOT
BRANCH   1   2
ATOM      2  C   UNL     1      10.448   4.513  29.122  1.00  0.00     0.000 C 
BRANCH   2   3
ATOM      3  C   UNL     1      10.573   3.347  30.119  1.00  0.00     0.000 C 
BRANCH   3   4
ATOM      4  C   UNL     1       9.274   2.542  30.270  1.00  0.00     0.000 C 
BRANCH   4   5
ATOM      5  C   UNL     1       9.324   1.644  31.511  1.00  0.00     0.000 C 
BRANCH   5   6
ATOM      6  C   UNL     1      10.731   1.638  32.131  1.00  0.00     0.000 C 
BRANCH   6   7
ATOM      7  C   UNL     1      11.260   0.219  32.398  1.00  0.00     0.000 C 
BRANCH   7   8
ATOM      8  C   UNL     1      12.712   0.030  31.929  1.00  0.00     0.000 C 
BRANCH   8   9
ATOM      9  C   UNL     1      13.009   0.776  30.617  1.00  0.00     0.000 C 
BRANCH   9  10
ATOM     10  C   UNL     1      14.198   1.745  30.742  1.00  0.00     0.000 C 
BRANCH  10  11
ATOM     11  C   UNL     1      14.601   2.357  29.382  1.00  0.00     0.000 C 
BRANCH  11  12
ATOM     12  C   UNL     1      14.157   3.823  29.203  1.00  0.00     0.000 C 
BRANCH  12  13
ATOM     13  C   UNL     1      15.307   4.841  29.123  1.00  0.00     0.006 C 
BRANCH  13  14
ATOM     14  C   UNL     1      16.221   4.803  30.357  1.00  0.00     0.053 C 
BRANCH  14  15
ATOM     15  C   UNL     1      17.644   4.574  29.957  1.00  0.00     0.041 C 
ATOM     16  O   UNL     1      18.571   4.718  30.799  1.00  0.00    -0.550 OA
ATOM     17  O   UNL     1      17.949   4.188  28.655  1.00  0.00    -0.550 OA
ENDBRANCH  14  15
ENDBRANCH  13  14
ENDBRANCH  12  13
ENDBRANCH  11  12
ENDBRANCH  10  11
ENDBRANCH   9  10
ENDBRANCH   8   9
ENDBRANCH   7   8
ENDBRANCH   6   7
ENDBRANCH   5   6
ENDBRANCH   4   5
ENDBRANCH   3   4
ENDBRANCH   2   3
ENDBRANCH   1   2
BRANCH   1  18
ATOM     18  C   UNL     1      10.205   7.036  29.724  1.00  0.00     0.000 C 
BRANCH  18  19
ATOM     19  C   UNL     1       9.075   6.821  30.754  1.00  0.00     0.000 C 
BRANCH  19  20
ATOM     20  C   UNL     1       9.591   6.773  32.205  1.00  0.00     0.000 C 
BRANCH  20  21
ATOM     21  C   UNL     1       9.249   5.451  32.912  1.00  0.00     0.000 C 
BRANCH  21  22
ATOM     22  C   UNL     1      10.452   4.855  33.666  1.00  0.00     0.000 C 
BRANCH  22  23
ATOM     23  C   UNL     1      11.764   5.588  33.341  1.00  0.00     0.000 C 
BRANCH  23  24
ATOM     24  C   UNL     1      12.809   4.660  32.696  1.00  0.00    -0.000 C 
BRANCH  24  25
ATOM     25  C   UNL     1      14.145   4.661  33.457  1.00  0.00    -0.000 C 
BRANCH  25  26
ATOM     26  C   UNL     1      13.985   4.281  34.939  1.00  0.00    -0.000 C 
BRANCH  26  27
ATOM     27  C   UNL     1      13.485   2.839  35.137  1.00  0.00    -0.000 C 
BRANCH  27  28
ATOM     28  C   UNL     1      14.258   1.764  34.346  1.00  0.00    -0.000 C 
BRANCH  28  29
ATOM     29  C   UNL     1      15.601   1.332  34.963  1.00  0.00    -0.000 C 
BRANCH  29  30
ATOM     30  C   UNL     1      16.718   1.044  33.942  1.00  0.00    -0.000 C 
BRANCH  30  31
ATOM     31  C   UNL     1      17.093   2.268  33.076  1.00  0.00    -0.003 C 
ATOM     32  C   UNL     1      17.564   3.456  33.913  1.00  0.00     0.004 C 
ENDBRANCH  30  31
ENDBRANCH  29  30
ENDBRANCH  28  29
ENDBRANCH  27  28
ENDBRANCH  26  27
ENDBRANCH  25  26
ENDBRANCH  24  25
ENDBRANCH  23  24
ENDBRANCH  22  23
ENDBRANCH  21  22
ENDBRANCH  20  21
ENDBRANCH  19  20
ENDBRANCH  18  19
ENDBRANCH   1  18
TORSDOF 28
ENDMDL
MODEL 5
REMARK VINA RESULT:    -2.831      1.597      4.878
REMARK INTER + INTRA:         -13.424
REMARK INTER:                  -6.802
REMARK INTRA:                  -6.621
REMARK UNBOUND:                -5.960
REMARK SMILES CCCCCCCCCCCCCCCCCCCCCCCCCCCCCC(=O)[O-]
REMARK SMILES IDX 16 1 17 2 18 3 19 4 20 5 21 6 22 7 23 8 24 9 25 10 26 11
REMARK SMILES IDX 27 12 28 13 29 14 30 15 31 16 32 17 15 18 14 19 13 20 12 21
REMARK SMILES IDX 11 22 10 23 9 24 8 25 7 26 6 27 5 28 4 29 3 30 2 31 1 32
REMARK H PARENT
REMARK Flexibility Score: inf
ROOT
ATOM      1  C   UNL     1      12.979   5.249  29.976  1.00  0.00     0.000 C 
ENDROOT
BRANCH   1   2
ATOM      2  C   UNL     1      12.829   4.765  31.432  1.00  0.00     0.000 C 
BRANCH   2   3
ATOM      3  C   UNL     1      12.189   5.781  32.397  1.00  0.00     0.000 C 
BRANCH   3   4
ATOM      4  C   UNL     1      10.908   6.417  31.837  1.00  0.00     0.000 C 
BRANCH   4   5
ATOM      5  C   UNL     1       9.690   6.037  32.686  1.00  0.00     0.000 C 
BRANCH   5   6
ATOM      6  C   UNL     1      10.045   6.013  34.182  1.00  0.00     0.000 C 
BRANCH   6   7
ATOM      7  C   UNL     1       9.044   5.201  35.020  1.00  0.00     0.000 C 
BRANCH   7   8
ATOM      8  C   UNL     1       9.713   4.459  36.189  1.00  0.00     0.000 C 
BRANCH   8   9
ATOM      9  C   UNL     1      11.208   4.793  36.320  1.00  0.00     0.000 C 
BRANCH   9  10
ATOM     10  C   UNL     1      11.912   3.951  37.398  1.00  0.00     0.000 C 
BRANCH  10  11
ATOM     11  C   UNL     1      13.180   3.251  36.861  1.00  0.00     0.000 C 
BRANCH  11  12
ATOM     12  C   UNL     1      13.856   3.997  35.693  1.00  0.00     0.000 C 
BRANCH  12  13
ATOM     13  C   UNL     1      14.871   3.163  34.894  1.00  0.00     0.006 C 
BRANCH  13  14
ATOM     14  C   UNL     1      15.534   3.960  33.761  1.00  0.00     0.053 C 
BRANCH  14  15
ATOM     15  C   UNL     1      16.992   3.637  33.667  1.00  0.00     0.041 C 
ATOM     16  O   UNL     1      17.850   4.559  33.702  1.00  0.00    -0.550 OA
ATOM     17  O   UNL     1      17.407   2.313  33.554  1.00  0.00    -0.550 OA
ENDBRANCH  14  15
ENDBRANCH  13  14
ENDBRANCH  12  13
ENDBRANCH  11  12
ENDBRANCH  10  11
ENDBRANCH   9  10
ENDBRANCH   8   9
ENDBRANCH   7   8
ENDBRANCH   6   7
ENDBRANCH   5   6
ENDBRANCH   4   5
ENDBRANCH   3   4
ENDBRANCH   2   3
ENDBRANCH   1   2
BRANCH   1  18
ATOM     18  C   UNL     1      14.276   4.811  29.266  1.00  0.00     0.000 C 
BRANCH  18  19
ATOM     19  C   UNL     1      14.043   3.924  28.025  1.00  0.00     0.000 C 
BRANCH  19  20
ATOM     20  C   UNL     1      12.561   3.553  27.824  1.00  0.00     0.000 C 
BRANCH  20  21
ATOM     21  C   UNL     1      12.344   2.038  27.674  1.00  0.00     0.000 C 
BRANCH  21  22
ATOM     22  C   UNL     1      11.544   1.436  28.844  1.00  0.00     0.000 C 
BRANCH  22  23
ATOM     23  C   UNL     1      10.685   2.488  29.563  1.00  0.00     0.000 C 
BRANCH  23  24
ATOM     24  C   UNL     1       9.679   1.855  30.540  1.00  0.00    -0.000 C 
BRANCH  24  25
ATOM     25  C   UNL     1       9.409   2.744  31.765  1.00  0.00    -0.000 C 
BRANCH  25  26
ATOM     26  C   UNL     1       9.748   2.044  33.092  1.00  0.00    -0.000 C 
BRANCH  26  27
ATOM     27  C   UNL     1      11.181   2.333  33.573  1.00  0.00    -0.000 C 
BRANCH  27  28
ATOM     28  C   UNL     1      12.104   1.100  33.659  1.00  0.00    -0.000 C 
BRANCH  28  29
ATOM     29  C   UNL     1      12.656   0.596  32.313  1.00  0.00    -0.000 C 
BRANCH  29  30
ATOM     30  C   UNL     1      14.178   0.759  32.137  1.00  0.00    -0.000 C 
BRANCH  30  31
ATOM     31  C   UNL     1      14.569   1.634  30.925  1.00  0.00    -0.003 C 
ATOM     32  C   UNL     1      16.009   1.398  30.472  1.00  0.00     0.004 C 
ENDBRANCH  30  31
ENDBRANCH  29  30
ENDBRANCH  28  29
ENDBRANCH  27  28
ENDBRANCH  26  27
ENDBRANCH  25  26
ENDBRANCH  24  25
ENDBRANCH  23  24
ENDBRANCH  22  23
ENDBRANCH  21  22
ENDBRANCH  20  21
ENDBRANCH  19  20
ENDBRANCH  18  19
ENDBRANCH   1  18
TORSDOF 28
ENDMDL
MODEL 6
REMARK VINA RESULT:    -2.830      1.611      4.076
REMARK INTER + INTRA:         -13.421
REMARK INTER:                  -6.985
REMARK INTRA:                  -6.436
REMARK UNBOUND:                -5.960
REMARK SMILES CCCCCCCCCCCCCCCCCCCCCCCCCCCCCC(=O)[O-]
REMARK SMILES IDX 16 1 17 2 18 3 19 4 20 5 21 6 22 7 23 8 24 9 25 10 26 11
REMARK SMILES IDX 27 12 28 13 29 14 30 15 31 16 32 17 15 18 14 19 13 20 12 21
REMARK SMILES IDX 11 22 10 23 9 24 8 25 7 26 6 27 5 28 4 29 3 30 2 31 1 32
REMARK H PARENT
REMARK Flexibility Score: inf
ROOT
ATOM      1  C   UNL     1      11.473   1.348  32.458  1.00  0.00     0.000 C 
ENDROOT
BRANCH   1   2
ATOM      2  C   UNL     1      12.374   1.971  31.374  1.00  0.00     0.000 C 
BRANCH   2   3
ATOM      3  C   UNL     1      12.656   1.067  30.159  1.00  0.00     0.000 C 
BRANCH   3   4
ATOM      4  C   UNL     1      12.014   1.585  28.863  1.00  0.00     0.000 C 
BRANCH   4   5
ATOM      5  C   UNL     1      12.107   3.113  28.776  1.00  0.00     0.000 C 
BRANCH   5   6
ATOM      6  C   UNL     1      12.513   3.561  27.363  1.00  0.00     0.000 C 
BRANCH   6   7
ATOM      7  C   UNL     1      13.754   4.468  27.358  1.00  0.00     0.000 C 
BRANCH   7   8
ATOM      8  C   UNL     1      13.939   5.227  28.683  1.00  0.00     0.000 C 
BRANCH   8   9
ATOM      9  C   UNL     1      15.307   4.955  29.331  1.00  0.00     0.000 C 
BRANCH   9  10
ATOM     10  C   UNL     1      16.101   3.856  28.602  1.00  0.00     0.000 C 
BRANCH  10  11
ATOM     11  C   UNL     1      16.025   2.496  29.328  1.00  0.00     0.000 C 
BRANCH  11  12
ATOM     12  C   UNL     1      15.960   2.612  30.864  1.00  0.00     0.000 C 
BRANCH  12  13
ATOM     13  C   UNL     1      17.327   2.646  31.568  1.00  0.00     0.006 C 
BRANCH  13  14
ATOM     14  C   UNL     1      17.687   4.041  32.100  1.00  0.00     0.053 C 
BRANCH  14  15
ATOM     15  C   UNL     1      19.152   4.139  32.384  1.00  0.00     0.041 C 
ATOM     16  O   UNL     1      19.806   5.148  32.006  1.00  0.00    -0.550 OA
ATOM     17  O   UNL     1      19.796   3.122  33.082  1.00  0.00    -0.550 OA
ENDBRANCH  14  15
ENDBRANCH  13  14
ENDBRANCH  12  13
ENDBRANCH  11  12
ENDBRANCH  10  11
ENDBRANCH   9  10
ENDBRANCH   8   9
ENDBRANCH   7   8
ENDBRANCH   6   7
ENDBRANCH   5   6
ENDBRANCH   4   5
ENDBRANCH   3   4
ENDBRANCH   2   3
ENDBRANCH   1   2
BRANCH   1  18
ATOM     18  C   UNL     1      10.003   1.131  32.049  1.00  0.00     0.000 C 
BRANCH  18  19
ATOM     19  C   UNL     1       9.247   2.433  31.707  1.00  0.00     0.000 C 
BRANCH  19  20
ATOM     20  C   UNL     1       9.205   3.426  32.884  1.00  0.00     0.000 C 
BRANCH  20  21
ATOM     21  C   UNL     1       9.387   4.885  32.436  1.00  0.00     0.000 C 
BRANCH  21  22
ATOM     22  C   UNL     1       9.895   4.999  30.987  1.00  0.00     0.000 C 
BRANCH  22  23
ATOM     23  C   UNL     1      11.025   6.031  30.846  1.00  0.00     0.000 C 
BRANCH  23  24
ATOM     24  C   UNL     1      11.794   6.242  32.163  1.00  0.00    -0.000 C 
BRANCH  24  25
ATOM     25  C   UNL     1      13.010   5.310  32.289  1.00  0.00    -0.000 C 
BRANCH  25  26
ATOM     26  C   UNL     1      13.454   5.109  33.748  1.00  0.00    -0.000 C 
BRANCH  26  27
ATOM     27  C   UNL     1      12.445   4.293  34.575  1.00  0.00    -0.000 C 
BRANCH  27  28
ATOM     28  C   UNL     1      13.065   3.403  35.672  1.00  0.00    -0.000 C 
BRANCH  28  29
ATOM     29  C   UNL     1      14.589   3.208  35.577  1.00  0.00    -0.000 C 
BRANCH  29  30
ATOM     30  C   UNL     1      15.052   2.277  34.440  1.00  0.00    -0.000 C 
BRANCH  30  31
ATOM     31  C   UNL     1      14.453   0.855  34.524  1.00  0.00    -0.003 C 
ATOM     32  C   UNL     1      14.884  -0.033  33.358  1.00  0.00     0.004 C 
ENDBRANCH  30  31
ENDBRANCH  29  30
ENDBRANCH  28  29
ENDBRANCH  27  28
ENDBRANCH  26  27
ENDBRANCH  25  26
ENDBRANCH  24  25
ENDBRANCH  23  24
ENDBRANCH  22  23
ENDBRANCH  21  22
ENDBRANCH  20  21
ENDBRANCH  19  20
ENDBRANCH  18  19
ENDBRANCH   1  18
TORSDOF 28
ENDMDL
MODEL 7
REMARK VINA RESULT:    -2.811      2.776      5.109
REMARK INTER + INTRA:         -13.371
REMARK INTER:                  -6.555
REMARK INTRA:                  -6.816
REMARK UNBOUND:                -5.960
REMARK SMILES CCCCCCCCCCCCCCCCCCCCCCCCCCCCCC(=O)[O-]
REMARK SMILES IDX 16 1 17 2 18 3 19 4 20 5 21 6 22 7 23 8 24 9 25 10 26 11
REMARK SMILES IDX 27 12 28 13 29 14 30 15 31 16 32 17 15 18 14 19 13 20 12 21
REMARK SMILES IDX 11 22 10 23 9 24 8 25 7 26 6 27 5 28 4 29 3 30 2 31 1 32
REMARK H PARENT
REMARK Flexibility Score: inf
ROOT
ATOM      1  C   UNL     1       9.559   1.893  31.558  1.00  0.00     0.000 C 
ENDROOT
BRANCH   1   2
ATOM      2  C   UNL     1       9.770   2.471  30.145  1.00  0.00     0.000 C 
BRANCH   2   3
ATOM      3  C   UNL     1       9.694   4.007  30.049  1.00  0.00     0.000 C 
BRANCH   3   4
ATOM      4  C   UNL     1      10.800   4.609  29.170  1.00  0.00     0.000 C 
BRANCH   4   5
ATOM      5  C   UNL     1      11.642   3.508  28.514  1.00  0.00     0.000 C 
BRANCH   5   6
ATOM      6  C   UNL     1      12.973   4.070  27.991  1.00  0.00     0.000 C 
BRANCH   6   7
ATOM      7  C   UNL     1      13.523   5.212  28.862  1.00  0.00     0.000 C 
BRANCH   7   8
ATOM      8  C   UNL     1      15.050   5.361  28.750  1.00  0.00     0.000 C 
BRANCH   8   9
ATOM      9  C   UNL     1      15.778   4.931  30.035  1.00  0.00     0.000 C 
BRANCH   9  10
ATOM     10  C   UNL     1      16.906   3.918  29.768  1.00  0.00     0.000 C 
BRANCH  10  11
ATOM     11  C   UNL     1      16.484   2.822  28.765  1.00  0.00     0.000 C 
BRANCH  11  12
ATOM     12  C   UNL     1      15.809   1.602  29.424  1.00  0.00     0.000 C 
BRANCH  12  13
ATOM     13  C   UNL     1      15.300   0.536  28.439  1.00  0.00     0.006 C 
BRANCH  13  14
ATOM     14  C   UNL     1      13.767   0.443  28.406  1.00  0.00     0.053 C 
BRANCH  14  15
ATOM     15  C   UNL     1      13.265   0.452  26.996  1.00  0.00     0.041 C 
ATOM     16  O   UNL     1      13.805   1.197  26.135  1.00  0.00    -0.550 OA
ATOM     17  O   UNL     1      12.208  -0.374  26.628  1.00  0.00    -0.550 OA
ENDBRANCH  14  15
ENDBRANCH  13  14
ENDBRANCH  12  13
ENDBRANCH  11  12
ENDBRANCH  10  11
ENDBRANCH   9  10
ENDBRANCH   8   9
ENDBRANCH   7   8
ENDBRANCH   6   7
ENDBRANCH   5   6
ENDBRANCH   4   5
ENDBRANCH   3   4
ENDBRANCH   2   3
ENDBRANCH   1   2
BRANCH   1  18
ATOM     18  C   UNL     1       9.134   2.914  32.632  1.00  0.00     0.000 C 
BRANCH  18  19
ATOM     19  C   UNL     1      10.055   2.944  33.871  1.00  0.00     0.000 C 
BRANCH  19  20
ATOM     20  C   UNL     1       9.825   4.185  34.756  1.00  0.00     0.000 C 
BRANCH  20  21
ATOM     21  C   UNL     1       9.493   5.443  33.938  1.00  0.00     0.000 C 
BRANCH  21  22
ATOM     22  C   UNL     1      10.538   6.560  34.120  1.00  0.00     0.000 C 
BRANCH  22  23
ATOM     23  C   UNL     1      11.231   6.928  32.798  1.00  0.00     0.000 C 
BRANCH  23  24
ATOM     24  C   UNL     1      12.154   5.806  32.288  1.00  0.00    -0.000 C 
BRANCH  24  25
ATOM     25  C   UNL     1      13.124   5.304  33.370  1.00  0.00    -0.000 C 
BRANCH  25  26
ATOM     26  C   UNL     1      13.810   3.982  32.985  1.00  0.00    -0.000 C 
BRANCH  26  27
ATOM     27  C   UNL     1      13.056   3.214  31.886  1.00  0.00    -0.000 C 
BRANCH  27  28
ATOM     28  C   UNL     1      13.241   1.682  31.914  1.00  0.00    -0.000 C 
BRANCH  28  29
ATOM     29  C   UNL     1      14.112   1.146  33.065  1.00  0.00    -0.000 C 
BRANCH  29  30
ATOM     30  C   UNL     1      15.070   0.005  32.672  1.00  0.00    -0.000 C 
BRANCH  30  31
ATOM     31  C   UNL     1      16.562   0.354  32.872  1.00  0.00    -0.003 C 
ATOM     32  C   UNL     1      16.800   1.859  32.994  1.00  0.00     0.004 C 
ENDBRANCH  30  31
ENDBRANCH  29  30
ENDBRANCH  28  29
ENDBRANCH  27  28
ENDBRANCH  26  27
ENDBRANCH  25  26
ENDBRANCH  24  25
ENDBRANCH  23  24
ENDBRANCH  22  23
ENDBRANCH  21  22
ENDBRANCH  20  21
ENDBRANCH  19  20
ENDBRANCH  18  19
ENDBRANCH   1  18
TORSDOF 28
ENDMDL
MODEL 8
REMARK VINA RESULT:    -2.795      2.021      5.973
REMARK INTER + INTRA:         -13.331
REMARK INTER:                  -7.536
REMARK INTRA:                  -5.795
REMARK UNBOUND:                -5.960
REMARK SMILES CCCCCCCCCCCCCCCCCCCCCCCCCCCCCC(=O)[O-]
REMARK SMILES IDX 16 1 17 2 18 3 19 4 20 5 21 6 22 7 23 8 24 9 25 10 26 11
REMARK SMILES IDX 27 12 28 13 29 14 30 15 31 16 32 17 15 18 14 19 13 20 12 21
REMARK SMILES IDX 11 22 10 23 9 24 8 25 7 26 6 27 5 28 4 29 3 30 2 31 1 32
REMARK H PARENT
REMARK Flexibility Score: inf
ROOT
ATOM      1  C   UNL     1      14.091   3.689  32.131  1.00  0.00     0.000 C 
ENDROOT
BRANCH   1   2
ATOM      2  C   UNL     1      14.753   3.513  30.750  1.00  0.00     0.000 C 
BRANCH   2   3
ATOM      3  C   UNL     1      15.275   4.810  30.104  1.00  0.00     0.000 C 
BRANCH   3   4
ATOM      4  C   UNL     1      14.752   5.023  28.676  1.00  0.00     0.000 C 
BRANCH   4   5
ATOM      5  C   UNL     1      14.188   3.720  28.098  1.00  0.00     0.000 C 
BRANCH   5   6
ATOM      6  C   UNL     1      14.848   3.383  26.751  1.00  0.00     0.000 C 
BRANCH   6   7
ATOM      7  C   UNL     1      16.131   2.551  26.907  1.00  0.00     0.000 C 
BRANCH   7   8
ATOM      8  C   UNL     1      17.401   3.419  26.936  1.00  0.00     0.000 C 
BRANCH   8   9
ATOM      9  C   UNL     1      18.166   3.299  28.265  1.00  0.00     0.000 C 
BRANCH   9  10
ATOM     10  C   UNL     1      18.222   1.853  28.789  1.00  0.00     0.000 C 
BRANCH  10  11
ATOM     11  C   UNL     1      17.554   1.704  30.173  1.00  0.00     0.000 C 
BRANCH  11  12
ATOM     12  C   UNL     1      18.544   1.388  31.312  1.00  0.00     0.000 C 
BRANCH  12  13
ATOM     13  C   UNL     1      18.577   2.426  32.446  1.00  0.00     0.006 C 
BRANCH  13  14
ATOM     14  C   UNL     1      18.415   3.866  31.937  1.00  0.00     0.053 C 
BRANCH  14  15
ATOM     15  C   UNL     1      19.747   4.531  31.789  1.00  0.00     0.041 C 
ATOM     16  O   UNL     1      20.097   5.437  32.592  1.00  0.00    -0.550 OA
ATOM     17  O   UNL     1      20.612   4.140  30.771  1.00  0.00    -0.550 OA
ENDBRANCH  14  15
ENDBRANCH  13  14
ENDBRANCH  12  13
ENDBRANCH  11  12
ENDBRANCH  10  11
ENDBRANCH   9  10
ENDBRANCH   8   9
ENDBRANCH   7   8
ENDBRANCH   6   7
ENDBRANCH   5   6
ENDBRANCH   4   5
ENDBRANCH   3   4
ENDBRANCH   2   3
ENDBRANCH   1   2
BRANCH   1  18
ATOM     18  C   UNL     1      13.145   4.900  32.259  1.00  0.00     0.000 C 
BRANCH  18  19
ATOM     19  C   UNL     1      12.221   4.847  33.494  1.00  0.00     0.000 C 
BRANCH  19  20
ATOM     20  C   UNL     1      10.789   4.391  33.151  1.00  0.00     0.000 C 
BRANCH  20  21
ATOM     21  C   UNL     1       9.755   5.517  33.308  1.00  0.00     0.000 C 
BRANCH  21  22
ATOM     22  C   UNL     1      10.400   6.915  33.324  1.00  0.00     0.000 C 
BRANCH  22  23
ATOM     23  C   UNL     1      10.301   7.617  31.961  1.00  0.00     0.000 C 
BRANCH  23  24
ATOM     24  C   UNL     1       9.060   7.179  31.164  1.00  0.00    -0.000 C 
BRANCH  24  25
ATOM     25  C   UNL     1       9.413   6.662  29.761  1.00  0.00    -0.000 C 
BRANCH  25  26
ATOM     26  C   UNL     1      10.859   6.143  29.666  1.00  0.00    -0.000 C 
BRANCH  26  27
ATOM     27  C   UNL     1      10.937   4.644  29.326  1.00  0.00    -0.000 C 
BRANCH  27  28
ATOM     28  C   UNL     1       9.672   3.829  29.666  1.00  0.00    -0.000 C 
BRANCH  28  29
ATOM     29  C   UNL     1       9.927   2.380  30.121  1.00  0.00    -0.000 C 
BRANCH  29  30
ATOM     30  C   UNL     1      11.407   1.950  30.108  1.00  0.00    -0.000 C 
BRANCH  30  31
ATOM     31  C   UNL     1      11.774   0.970  31.244  1.00  0.00    -0.003 C 
ATOM     32  C   UNL     1      10.623   0.749  32.223  1.00  0.00     0.004 C 
ENDBRANCH  30  31
ENDBRANCH  29  30
ENDBRANCH  28  29
ENDBRANCH  27  28
ENDBRANCH  26  27
ENDBRANCH  25  26
ENDBRANCH  24  25
ENDBRANCH  23  24
ENDBRANCH  22  23
ENDBRANCH  21  22
ENDBRANCH  20  21
ENDBRANCH  19  20
ENDBRANCH  18  19
ENDBRANCH   1  18
TORSDOF 28
ENDMDL
MODEL 9
REMARK VINA RESULT:    -2.791      1.741      4.220
REMARK INTER + INTRA:         -13.318
REMARK INTER:                  -7.026
REMARK INTRA:                  -6.292
REMARK UNBOUND:                -5.960
REMARK SMILES CCCCCCCCCCCCCCCCCCCCCCCCCCCCCC(=O)[O-]
REMARK SMILES IDX 16 1 17 2 18 3 19 4 20 5 21 6 22 7 23 8 24 9 25 10 26 11
REMARK SMILES IDX 27 12 28 13 29 14 30 15 31 16 32 17 15 18 14 19 13 20 12 21
REMARK SMILES IDX 11 22 10 23 9 24 8 25 7 26 6 27 5 28 4 29 3 30 2 31 1 32
REMARK H PARENT
REMARK Flexibility Score: inf
ROOT
ATOM      1  C   UNL     1      12.146   1.373  32.102  1.00  0.00     0.000 C 
ENDROOT
BRANCH   1   2
ATOM      2  C   UNL     1      12.865   1.998  30.892  1.00  0.00     0.000 C 
BRANCH   2   3
ATOM      3  C   UNL     1      13.075   1.052  29.694  1.00  0.00     0.000 C 
BRANCH   3   4
ATOM      4  C   UNL     1      12.137   1.356  28.517  1.00  0.00     0.000 C 
BRANCH   4   5
ATOM      5  C   UNL     1      11.973   2.867  28.320  1.00  0.00     0.000 C 
BRANCH   5   6
ATOM      6  C   UNL     1      12.753   3.351  27.088  1.00  0.00     0.000 C 
BRANCH   6   7
ATOM      7  C   UNL     1      13.654   4.561  27.389  1.00  0.00     0.000 C 
BRANCH   7   8
ATOM      8  C   UNL     1      13.625   4.967  28.872  1.00  0.00     0.000 C 
BRANCH   8   9
ATOM      9  C   UNL     1      15.030   5.017  29.495  1.00  0.00     0.000 C 
BRANCH   9  10
ATOM     10  C   UNL     1      16.008   4.028  28.836  1.00  0.00     0.000 C 
BRANCH  10  11
ATOM     11  C   UNL     1      16.400   2.872  29.781  1.00  0.00     0.000 C 
BRANCH  11  12
ATOM     12  C   UNL     1      16.288   3.225  31.278  1.00  0.00     0.000 C 
BRANCH  12  13
ATOM     13  C   UNL     1      17.535   3.894  31.879  1.00  0.00     0.006 C 
BRANCH  13  14
ATOM     14  C   UNL     1      18.538   2.878  32.447  1.00  0.00     0.053 C 
BRANCH  14  15
ATOM     15  C   UNL     1      18.646   3.014  33.933  1.00  0.00     0.041 C 
ATOM     16  O   UNL     1      17.607   3.124  34.638  1.00  0.00    -0.550 OA
ATOM     17  O   UNL     1      19.896   3.004  34.545  1.00  0.00    -0.550 OA
ENDBRANCH  14  15
ENDBRANCH  13  14
ENDBRANCH  12  13
ENDBRANCH  11  12
ENDBRANCH  10  11
ENDBRANCH   9  10
ENDBRANCH   8   9
ENDBRANCH   7   8
ENDBRANCH   6   7
ENDBRANCH   5   6
ENDBRANCH   4   5
ENDBRANCH   3   4
ENDBRANCH   2   3
ENDBRANCH   1   2
BRANCH   1  18
ATOM     18  C   UNL     1      10.637   1.116  31.913  1.00  0.00     0.000 C 
BRANCH  18  19
ATOM     19  C   UNL     1       9.855   2.332  31.374  1.00  0.00     0.000 C 
BRANCH  19  20
ATOM     20  C   UNL     1       9.237   3.190  32.495  1.00  0.00     0.000 C 
BRANCH  20  21
ATOM     21  C   UNL     1       9.482   4.695  32.294  1.00  0.00     0.000 C 
BRANCH  21  22
ATOM     22  C   UNL     1      10.584   4.982  31.258  1.00  0.00     0.000 C 
BRANCH  22  23
ATOM     23  C   UNL     1      11.498   6.140  31.686  1.00  0.00     0.000 C 
BRANCH  23  24
ATOM     24  C   UNL     1      12.240   5.846  33.002  1.00  0.00    -0.000 C 
BRANCH  24  25
ATOM     25  C   UNL     1      13.360   4.808  32.826  1.00  0.00    -0.000 C 
BRANCH  25  26
ATOM     26  C   UNL     1      14.325   4.767  34.023  1.00  0.00    -0.000 C 
BRANCH  26  27
ATOM     27  C   UNL     1      14.066   3.575  34.962  1.00  0.00    -0.000 C 
BRANCH  27  28
ATOM     28  C   UNL     1      12.887   3.755  35.940  1.00  0.00    -0.000 C 
BRANCH  28  29
ATOM     29  C   UNL     1      11.626   2.937  35.608  1.00  0.00    -0.000 C 
BRANCH  29  30
ATOM     30  C   UNL     1      10.295   3.675  35.848  1.00  0.00    -0.000 C 
BRANCH  30  31
ATOM     31  C   UNL     1      10.471   5.079  36.467  1.00  0.00    -0.003 C 
ATOM     32  C   UNL     1       9.691   6.155  35.711  1.00  0.00     0.004 C 
ENDBRANCH  30  31
ENDBRANCH  29  30
ENDBRANCH  28  29
ENDBRANCH  27  28
ENDBRANCH  26  27
ENDBRANCH  25  26
ENDBRANCH  24  25
ENDBRANCH  23  24
ENDBRANCH  22  23
ENDBRANCH  21  22
ENDBRANCH  20  21
ENDBRANCH  19  20
ENDBRANCH  18  19
ENDBRANCH   1  18
TORSDOF 28
ENDMDL
