MODEL 1
REMARK VINA RESULT:    -5.457      0.000      0.000
REMARK INTER + INTRA:          -6.806
REMARK INTER:                  -6.574
REMARK INTRA:                  -0.232
REMARK UNBOUND:                -0.232
REMARK SMILES O=c1c(O)c(-c2ccc(O)cc2O)oc2cc(O)cc(O)c12
REMARK SMILES IDX 5 1 3 2 2 3 1 4 22 5 20 6 19 7 17 8 16 9 15 10 14 11 6 12
REMARK SMILES IDX 8 13 7 14 9 15 11 16 12 17 10 18 13 20 4 22 21 24 18 26
REMARK H PARENT 10 19 13 21 4 23 21 25 18 27
REMARK Flexibility Score: inf
ROOT
ATOM      1  C   UNL     1      21.930 -47.019   6.049  1.00  0.00     0.184 A 
ATOM      2  C   UNL     1      22.735 -46.174   6.832  1.00  0.00     0.208 A 
ATOM      3  C   UNL     1      22.119 -45.205   7.642  1.00  0.00     0.238 A 
ATOM      4  O   UNL     1      22.843 -44.489   8.383  1.00  0.00    -0.285 OA
ATOM      5  C   UNL     1      20.709 -45.082   7.644  1.00  0.00     0.111 A 
ATOM      6  C   UNL     1      19.982 -44.111   8.395  1.00  0.00     0.134 A 
ATOM      7  C   UNL     1      18.582 -44.163   8.420  1.00  0.00     0.093 A 
ATOM      8  C   UNL     1      17.884 -45.112   7.669  1.00  0.00     0.123 A 
ATOM      9  C   UNL     1      18.584 -46.027   6.887  1.00  0.00     0.094 A 
ATOM     10  C   UNL     1      19.981 -46.022   6.869  1.00  0.00     0.146 A 
ATOM     11  O   UNL     1      20.608 -46.920   6.119  1.00  0.00    -0.451 OA
ENDROOT
BRANCH   1  12
ATOM     12  C   UNL     1      22.514 -48.045   5.155  1.00  0.00     0.063 A 
ATOM     13  C   UNL     1      24.079 -48.667   3.397  1.00  0.00     0.047 A 
ATOM     14  C   UNL     1      23.547 -47.706   4.261  1.00  0.00     0.020 A 
ATOM     15  C   UNL     1      23.582 -49.975   3.406  1.00  0.00     0.119 A 
ATOM     16  C   UNL     1      22.547 -50.317   4.281  1.00  0.00     0.093 A 
ATOM     17  C   UNL     1      22.008 -49.360   5.153  1.00  0.00     0.130 A 
BRANCH  15  18
ATOM     18  O   UNL     1      24.105 -50.939   2.548  1.00  0.00    -0.508 OA
ATOM     19  H   UNL     1      24.740 -50.693   1.798  1.00  0.00     0.293 HD
ENDBRANCH  15  18
BRANCH  17  20
ATOM     20  O   UNL     1      20.981 -49.719   6.026  1.00  0.00    -0.507 OA
ATOM     21  H   UNL     1      20.251 -49.066   6.286  1.00  0.00     0.293 HD
ENDBRANCH  17  20
ENDBRANCH   1  12
BRANCH   2  22
ATOM     22  O   UNL     1      24.125 -46.323   6.823  1.00  0.00    -0.502 OA
ATOM     23  H   UNL     1      24.747 -45.651   7.258  1.00  0.00     0.293 HD
ENDBRANCH   2  22
BRANCH   6  24
ATOM     24  O   UNL     1      20.579 -43.065   9.106  1.00  0.00    -0.507 OA
ATOM     25  H   UNL     1      20.090 -42.443   9.732  1.00  0.00     0.293 HD
ENDBRANCH   6  24
BRANCH   8  26
ATOM     26  O   UNL     1      16.491 -45.147   7.687  1.00  0.00    -0.508 OA
ATOM     27  H   UNL     1      15.984 -46.013   7.829  1.00  0.00     0.293 HD
ENDBRANCH   8  26
TORSDOF 6
ENDMDL
MODEL 2
REMARK VINA RESULT:    -5.011      1.291      3.053
REMARK INTER + INTRA:          -6.268
REMARK INTER:                  -6.357
REMARK INTRA:                   0.088
REMARK UNBOUND:                -0.232
REMARK SMILES O=c1c(O)c(-c2ccc(O)cc2O)oc2cc(O)cc(O)c12
REMARK SMILES IDX 5 1 3 2 2 3 1 4 22 5 20 6 19 7 17 8 16 9 15 10 14 11 6 12
REMARK SMILES IDX 8 13 7 14 9 15 11 16 12 17 10 18 13 20 4 22 21 24 18 26
REMARK H PARENT 10 19 13 21 4 23 21 25 18 27
REMARK Flexibility Score: inf
ROOT
ATOM      1  C   UNL     1      21.985 -46.833   5.719  1.00  0.00     0.184 A 
ATOM      2  C   UNL     1      20.599 -46.616   5.794  1.00  0.00     0.208 A 
ATOM      3  C   UNL     1      20.116 -45.566   6.592  1.00  0.00     0.238 A 
ATOM      4  O   UNL     1      18.877 -45.341   6.610  1.00  0.00    -0.285 OA
ATOM      5  C   UNL     1      21.024 -44.759   7.319  1.00  0.00     0.111 A 
ATOM      6  C   UNL     1      20.644 -43.694   8.190  1.00  0.00     0.134 A 
ATOM      7  C   UNL     1      21.631 -42.881   8.760  1.00  0.00     0.093 A 
ATOM      8  C   UNL     1      22.987 -43.136   8.541  1.00  0.00     0.123 A 
ATOM      9  C   UNL     1      23.370 -44.209   7.741  1.00  0.00     0.094 A 
ATOM     10  C   UNL     1      22.406 -45.016   7.130  1.00  0.00     0.146 A 
ATOM     11  O   UNL     1      22.815 -46.022   6.365  1.00  0.00    -0.451 OA
ENDROOT
BRANCH   1  12
ATOM     12  C   UNL     1      22.561 -47.936   4.917  1.00  0.00     0.063 A 
ATOM     13  C   UNL     1      24.065 -48.709   3.166  1.00  0.00     0.047 A 
ATOM     14  C   UNL     1      23.541 -47.673   3.943  1.00  0.00     0.020 A 
ATOM     15  C   UNL     1      23.610 -50.021   3.344  1.00  0.00     0.119 A 
ATOM     16  C   UNL     1      22.627 -50.291   4.299  1.00  0.00     0.093 A 
ATOM     17  C   UNL     1      22.097 -49.256   5.085  1.00  0.00     0.130 A 
BRANCH  15  18
ATOM     18  O   UNL     1      24.125 -51.061   2.573  1.00  0.00    -0.508 OA
ATOM     19  H   UNL     1      24.497 -51.902   2.999  1.00  0.00     0.293 HD
ENDBRANCH  15  18
BRANCH  17  20
ATOM     20  O   UNL     1      21.121 -49.542   6.040  1.00  0.00    -0.507 OA
ATOM     21  H   UNL     1      20.185 -49.824   5.776  1.00  0.00     0.293 HD
ENDBRANCH  17  20
ENDBRANCH   1  12
BRANCH   2  22
ATOM     22  O   UNL     1      19.723 -47.417   5.056  1.00  0.00    -0.502 OA
ATOM     23  H   UNL     1      18.787 -47.117   4.811  1.00  0.00     0.293 HD
ENDBRANCH   2  22
BRANCH   6  24
ATOM     24  O   UNL     1      19.321 -43.411   8.547  1.00  0.00    -0.507 OA
ATOM     25  H   UNL     1      18.591 -44.101   8.642  1.00  0.00     0.293 HD
ENDBRANCH   6  24
BRANCH   8  26
ATOM     26  O   UNL     1      23.964 -42.332   9.125  1.00  0.00    -0.508 OA
ATOM     27  H   UNL     1      24.825 -42.105   8.639  1.00  0.00     0.293 HD
ENDBRANCH   8  26
TORSDOF 6
ENDMDL
MODEL 3
REMARK VINA RESULT:    -4.882      2.571      5.881
REMARK INTER + INTRA:          -6.113
REMARK INTER:                  -5.703
REMARK INTRA:                  -0.410
REMARK UNBOUND:                -0.232
REMARK SMILES O=c1c(O)c(-c2ccc(O)cc2O)oc2cc(O)cc(O)c12
REMARK SMILES IDX 5 1 3 2 2 3 1 4 22 5 20 6 19 7 17 8 16 9 15 10 14 11 6 12
REMARK SMILES IDX 8 13 7 14 9 15 11 16 12 17 10 18 13 20 4 22 21 24 18 26
REMARK H PARENT 10 19 13 21 4 23 21 25 18 27
REMARK Flexibility Score: inf
ROOT
ATOM      1  C   UNL     1      21.963 -46.138   7.728  1.00  0.00     0.184 A 
ATOM      2  C   UNL     1      22.648 -46.954   6.812  1.00  0.00     0.208 A 
ATOM      3  C   UNL     1      22.158 -48.244   6.550  1.00  0.00     0.238 A 
ATOM      4  O   UNL     1      22.744 -48.948   5.686  1.00  0.00    -0.285 OA
ATOM      5  C   UNL     1      21.001 -48.708   7.221  1.00  0.00     0.111 A 
ATOM      6  C   UNL     1      20.440 -50.010   7.062  1.00  0.00     0.134 A 
ATOM      7  C   UNL     1      19.220 -50.317   7.679  1.00  0.00     0.093 A 
ATOM      8  C   UNL     1      18.577 -49.389   8.502  1.00  0.00     0.123 A 
ATOM      9  C   UNL     1      19.147 -48.136   8.710  1.00  0.00     0.094 A 
ATOM     10  C   UNL     1      20.344 -47.789   8.079  1.00  0.00     0.146 A 
ATOM     11  O   UNL     1      20.846 -46.579   8.296  1.00  0.00    -0.451 OA
ENDROOT
BRANCH   1  12
ATOM     12  C   UNL     1      22.438 -44.778   8.070  1.00  0.00     0.063 A 
ATOM     13  C   UNL     1      24.124 -43.313   9.039  1.00  0.00     0.047 A 
ATOM     14  C   UNL     1      23.687 -44.594   8.691  1.00  0.00     0.020 A 
ATOM     15  C   UNL     1      23.316 -42.200   8.781  1.00  0.00     0.119 A 
ATOM     16  C   UNL     1      22.068 -42.373   8.177  1.00  0.00     0.093 A 
ATOM     17  C   UNL     1      21.622 -43.655   7.822  1.00  0.00     0.130 A 
BRANCH  15  18
ATOM     18  O   UNL     1      23.742 -40.919   9.125  1.00  0.00    -0.508 OA
ATOM     19  H   UNL     1      23.222 -40.345   9.778  1.00  0.00     0.293 HD
ENDBRANCH  15  18
BRANCH  17  20
ATOM     20  O   UNL     1      20.377 -43.812   7.213  1.00  0.00    -0.507 OA
ATOM     21  H   UNL     1      19.770 -44.592   7.435  1.00  0.00     0.293 HD
ENDBRANCH  17  20
ENDBRANCH   1  12
BRANCH   2  22
ATOM     22  O   UNL     1      23.781 -46.469   6.152  1.00  0.00    -0.502 OA
ATOM     23  H   UNL     1      23.759 -46.166   5.185  1.00  0.00     0.293 HD
ENDBRANCH   2  22
BRANCH   6  24
ATOM     24  O   UNL     1      21.048 -51.040   6.337  1.00  0.00    -0.507 OA
ATOM     25  H   UNL     1      21.930 -50.960   5.854  1.00  0.00     0.293 HD
ENDBRANCH   6  24
BRANCH   8  26
ATOM     26  O   UNL     1      17.372 -49.709   9.125  1.00  0.00    -0.508 OA
ATOM     27  H   UNL     1      17.313 -50.444   9.820  1.00  0.00     0.293 HD
ENDBRANCH   8  26
TORSDOF 6
ENDMDL
MODEL 4
REMARK VINA RESULT:    -4.514      2.524      6.396
REMARK INTER + INTRA:          -5.670
REMARK INTER:                  -6.253
REMARK INTRA:                   0.583
REMARK UNBOUND:                -0.232
REMARK SMILES O=c1c(O)c(-c2ccc(O)cc2O)oc2cc(O)cc(O)c12
REMARK SMILES IDX 5 1 3 2 2 3 1 4 22 5 20 6 19 7 17 8 16 9 15 10 14 11 6 12
REMARK SMILES IDX 8 13 7 14 9 15 11 16 12 17 10 18 13 20 4 22 21 24 18 26
REMARK H PARENT 10 19 13 21 4 23 21 25 18 27
REMARK Flexibility Score: inf
ROOT
ATOM      1  C   UNL     1      21.097 -45.371   8.201  1.00  0.00     0.184 A 
ATOM      2  C   UNL     1      19.693 -45.372   8.253  1.00  0.00     0.208 A 
ATOM      3  C   UNL     1      19.001 -46.561   7.968  1.00  0.00     0.238 A 
ATOM      4  O   UNL     1      17.746 -46.570   8.072  1.00  0.00    -0.285 OA
ATOM      5  C   UNL     1      19.722 -47.728   7.617  1.00  0.00     0.111 A 
ATOM      6  C   UNL     1      19.124 -48.976   7.270  1.00  0.00     0.134 A 
ATOM      7  C   UNL     1      19.936 -50.099   7.064  1.00  0.00     0.093 A 
ATOM      8  C   UNL     1      21.329 -50.000   7.128  1.00  0.00     0.123 A 
ATOM      9  C   UNL     1      21.924 -48.773   7.408  1.00  0.00     0.094 A 
ATOM     10  C   UNL     1      21.138 -47.644   7.653  1.00  0.00     0.146 A 
ATOM     11  O   UNL     1      21.747 -46.496   7.928  1.00  0.00    -0.451 OA
ENDROOT
BRANCH   1  12
ATOM     12  C   UNL     1      21.887 -44.147   8.466  1.00  0.00     0.063 A 
ATOM     13  C   UNL     1      21.991 -41.799   9.100  1.00  0.00     0.047 A 
ATOM     14  C   UNL     1      21.250 -42.962   8.877  1.00  0.00     0.020 A 
ATOM     15  C   UNL     1      23.377 -41.800   8.906  1.00  0.00     0.119 A 
ATOM     16  C   UNL     1      24.017 -42.968   8.485  1.00  0.00     0.093 A 
ATOM     17  C   UNL     1      23.281 -44.141   8.260  1.00  0.00     0.130 A 
BRANCH  15  18
ATOM     18  O   UNL     1      24.125 -40.645   9.125  1.00  0.00    -0.508 OA
ATOM     19  H   UNL     1      24.023 -40.101   9.973  1.00  0.00     0.293 HD
ENDBRANCH  15  18
BRANCH  17  20
ATOM     20  O   UNL     1      23.936 -45.302   7.847  1.00  0.00    -0.507 OA
ATOM     21  H   UNL     1      24.940 -45.406   7.933  1.00  0.00     0.293 HD
ENDBRANCH  17  20
ENDBRANCH   1  12
BRANCH   2  22
ATOM     22  O   UNL     1      19.003 -44.211   8.615  1.00  0.00    -0.502 OA
ATOM     23  H   UNL     1      18.100 -44.236   9.074  1.00  0.00     0.293 HD
ENDBRANCH   2  22
BRANCH   6  24
ATOM     24  O   UNL     1      17.749 -49.161   7.090  1.00  0.00    -0.507 OA
ATOM     25  H   UNL     1      17.173 -49.772   7.649  1.00  0.00     0.293 HD
ENDBRANCH   6  24
BRANCH   8  26
ATOM     26  O   UNL     1      22.130 -51.118   6.905  1.00  0.00    -0.508 OA
ATOM     27  H   UNL     1      23.124 -51.031   6.726  1.00  0.00     0.293 HD
ENDBRANCH   8  26
TORSDOF 6
ENDMDL
MODEL 5
REMARK VINA RESULT:    -2.788      1.980      6.988
REMARK INTER + INTRA:          -3.591
REMARK INTER:                  -3.537
REMARK INTRA:                  -0.054
REMARK UNBOUND:                -0.232
REMARK SMILES O=c1c(O)c(-c2ccc(O)cc2O)oc2cc(O)cc(O)c12
REMARK SMILES IDX 5 1 3 2 2 3 1 4 22 5 20 6 19 7 17 8 16 9 15 10 14 11 6 12
REMARK SMILES IDX 8 13 7 14 9 15 11 16 12 17 10 18 13 20 4 22 21 24 18 26
REMARK H PARENT 10 19 13 21 4 23 21 25 18 27
REMARK Flexibility Score: inf
ROOT
ATOM      1  C   UNL     1      19.619 -47.349   7.492  1.00  0.00     0.184 A 
ATOM      2  C   UNL     1      19.802 -48.618   8.066  1.00  0.00     0.208 A 
ATOM      3  C   UNL     1      20.831 -49.442   7.582  1.00  0.00     0.238 A 
ATOM      4  O   UNL     1      21.027 -50.555   8.138  1.00  0.00    -0.285 OA
ATOM      5  C   UNL     1      21.651 -48.994   6.518  1.00  0.00     0.111 A 
ATOM      6  C   UNL     1      22.696 -49.761   5.922  1.00  0.00     0.134 A 
ATOM      7  C   UNL     1      23.526 -49.169   4.961  1.00  0.00     0.093 A 
ATOM      8  C   UNL     1      23.305 -47.859   4.528  1.00  0.00     0.123 A 
ATOM      9  C   UNL     1      22.251 -47.123   5.061  1.00  0.00     0.094 A 
ATOM     10  C   UNL     1      21.429 -47.674   6.047  1.00  0.00     0.146 A 
ATOM     11  O   UNL     1      20.442 -46.932   6.537  1.00  0.00    -0.451 OA
ENDROOT
BRANCH   1  12
ATOM     12  C   UNL     1      18.539 -46.439   7.938  1.00  0.00     0.063 A 
ATOM     13  C   UNL     1      16.238 -46.086   8.652  1.00  0.00     0.047 A 
ATOM     14  C   UNL     1      17.266 -46.947   8.259  1.00  0.00     0.020 A 
ATOM     15  C   UNL     1      16.463 -44.707   8.721  1.00  0.00     0.119 A 
ATOM     16  C   UNL     1      17.719 -44.191   8.391  1.00  0.00     0.093 A 
ATOM     17  C   UNL     1      18.758 -45.048   7.997  1.00  0.00     0.130 A 
BRANCH  15  18
ATOM     18  O   UNL     1      15.445 -43.840   9.111  1.00  0.00    -0.508 OA
ATOM     19  H   UNL     1      14.478 -44.141   9.146  1.00  0.00     0.293 HD
ENDBRANCH  15  18
BRANCH  17  20
ATOM     20  O   UNL     1      20.009 -44.519   7.678  1.00  0.00    -0.507 OA
ATOM     21  H   UNL     1      20.144 -43.527   7.527  1.00  0.00     0.293 HD
ENDBRANCH  17  20
ENDBRANCH   1  12
BRANCH   2  22
ATOM     22  O   UNL     1      18.989 -49.033   9.125  1.00  0.00    -0.502 OA
ATOM     23  H   UNL     1      19.364 -49.281  10.033  1.00  0.00     0.293 HD
ENDBRANCH   2  22
BRANCH   6  24
ATOM     24  O   UNL     1      22.944 -51.106   6.216  1.00  0.00    -0.507 OA
ATOM     25  H   UNL     1      22.282 -51.730   6.653  1.00  0.00     0.293 HD
ENDBRANCH   6  24
BRANCH   8  26
ATOM     26  O   UNL     1      24.125 -47.284   3.560  1.00  0.00    -0.508 OA
ATOM     27  H   UNL     1      23.871 -47.289   2.579  1.00  0.00     0.293 HD
ENDBRANCH   8  26
TORSDOF 6
ENDMDL
