MODEL 1
REMARK VINA RESULT:    -4.731      0.000      0.000
REMARK INTER + INTRA:         -14.549
REMARK INTER:                 -10.815
REMARK INTRA:                  -3.734
REMARK UNBOUND:                -3.734
REMARK SMILES CCCCCCCCCCCCCCCCCCCCCCCC(=O)[O-]
REMARK SMILES IDX 13 1 14 2 15 3 16 4 17 5 18 6 19 7 20 8 21 9 22 10 23 11
REMARK SMILES IDX 24 12 25 13 26 14 12 15 11 16 10 17 9 18 8 19 7 20 6 21 5 22
REMARK SMILES IDX 4 23 3 24 2 25 1 26
REMARK H PARENT
REMARK Flexibility Score: inf
ROOT
ATOM      1  C   UNL     1     -16.749  -6.274  31.833  1.00  0.00     0.000 C 
ENDROOT
BRANCH   1   2
ATOM      2  C   UNL     1     -16.629  -6.653  33.319  1.00  0.00     0.000 C 
BRANCH   2   3
ATOM      3  C   UNL     1     -16.336  -5.435  34.216  1.00  0.00     0.000 C 
BRANCH   3   4
ATOM      4  C   UNL     1     -15.779  -5.776  35.614  1.00  0.00     0.000 C 
BRANCH   4   5
ATOM      5  C   UNL     1     -14.865  -4.702  36.244  1.00  0.00     0.000 C 
BRANCH   5   6
ATOM      6  C   UNL     1     -14.745  -3.397  35.430  1.00  0.00     0.000 C 
BRANCH   6   7
ATOM      7  C   UNL     1     -15.349  -2.167  36.133  1.00  0.00     0.000 C 
BRANCH   7   8
ATOM      8  C   UNL     1     -16.887  -2.211  36.163  1.00  0.00     0.000 C 
BRANCH   8   9
ATOM      9  C   UNL     1     -17.520  -1.164  35.233  1.00  0.00     0.000 C 
BRANCH   9  10
ATOM     10  C   UNL     1     -17.668   0.207  35.918  1.00  0.00     0.006 C 
BRANCH  10  11
ATOM     11  C   UNL     1     -17.793   0.090  37.445  1.00  0.00     0.053 C 
BRANCH  11  12
ATOM     12  C   UNL     1     -17.973   1.424  38.108  1.00  0.00     0.041 C 
ATOM     13  O   UNL     1     -16.967   2.073  38.499  1.00  0.00    -0.550 OA
ATOM     14  O   UNL     1     -19.245   1.958  38.283  1.00  0.00    -0.550 OA
ENDBRANCH  11  12
ENDBRANCH  10  11
ENDBRANCH   9  10
ENDBRANCH   8   9
ENDBRANCH   7   8
ENDBRANCH   6   7
ENDBRANCH   5   6
ENDBRANCH   4   5
ENDBRANCH   3   4
ENDBRANCH   2   3
ENDBRANCH   1   2
BRANCH   1  15
ATOM     15  C   UNL     1     -15.713  -6.992  30.955  1.00  0.00     0.000 C 
BRANCH  15  16
ATOM     16  C   UNL     1     -14.620  -7.687  31.783  1.00  0.00     0.000 C 
BRANCH  16  17
ATOM     17  C   UNL     1     -13.325  -6.864  31.783  1.00  0.00     0.000 C 
BRANCH  17  18
ATOM     18  C   UNL     1     -12.918  -6.469  33.209  1.00  0.00    -0.000 C 
BRANCH  18  19
ATOM     19  C   UNL     1     -12.665  -4.959  33.361  1.00  0.00    -0.000 C 
BRANCH  19  20
ATOM     20  C   UNL     1     -12.446  -4.228  32.019  1.00  0.00    -0.000 C 
BRANCH  20  21
ATOM     21  C   UNL     1     -13.342  -2.984  31.875  1.00  0.00    -0.000 C 
BRANCH  21  22
ATOM     22  C   UNL     1     -14.808  -3.353  31.561  1.00  0.00    -0.000 C 
BRANCH  22  23
ATOM     23  C   UNL     1     -15.837  -2.384  32.174  1.00  0.00    -0.000 C 
BRANCH  23  24
ATOM     24  C   UNL     1     -17.305  -2.808  31.995  1.00  0.00    -0.000 C 
BRANCH  24  25
ATOM     25  C   UNL     1     -18.077  -1.885  31.042  1.00  0.00    -0.003 C 
ATOM     26  C   UNL     1     -19.576  -1.937  31.324  1.00  0.00     0.004 C 
ENDBRANCH  24  25
ENDBRANCH  23  24
ENDBRANCH  22  23
ENDBRANCH  21  22
ENDBRANCH  20  21
ENDBRANCH  19  20
ENDBRANCH  18  19
ENDBRANCH  17  18
ENDBRANCH  16  17
ENDBRANCH  15  16
ENDBRANCH   1  15
TORSDOF 22
ENDMDL
MODEL 2
REMARK VINA RESULT:    -4.666      1.191      2.987
REMARK INTER + INTRA:         -14.402
REMARK INTER:                 -10.974
REMARK INTRA:                  -3.428
REMARK UNBOUND:                -3.734
REMARK SMILES CCCCCCCCCCCCCCCCCCCCCCCC(=O)[O-]
REMARK SMILES IDX 13 1 14 2 15 3 16 4 17 5 18 6 19 7 20 8 21 9 22 10 23 11
REMARK SMILES IDX 24 12 25 13 26 14 12 15 11 16 10 17 9 18 8 19 7 20 6 21 5 22
REMARK SMILES IDX 4 23 3 24 2 25 1 26
REMARK H PARENT
REMARK Flexibility Score: inf
ROOT
ATOM      1  C   UNL     1     -14.131  -2.686  34.318  1.00  0.00     0.000 C 
ENDROOT
BRANCH   1   2
ATOM      2  C   UNL     1     -13.165  -2.463  35.495  1.00  0.00     0.000 C 
BRANCH   2   3
ATOM      3  C   UNL     1     -12.814  -3.773  36.224  1.00  0.00     0.000 C 
BRANCH   3   4
ATOM      4  C   UNL     1     -13.741  -4.131  37.404  1.00  0.00     0.000 C 
BRANCH   4   5
ATOM      5  C   UNL     1     -14.934  -5.047  37.057  1.00  0.00     0.000 C 
BRANCH   5   6
ATOM      6  C   UNL     1     -16.295  -4.326  36.958  1.00  0.00     0.000 C 
BRANCH   6   7
ATOM      7  C   UNL     1     -16.334  -2.967  37.681  1.00  0.00     0.000 C 
BRANCH   7   8
ATOM      8  C   UNL     1     -16.727  -1.817  36.736  1.00  0.00     0.000 C 
BRANCH   8   9
ATOM      9  C   UNL     1     -17.661  -0.800  37.411  1.00  0.00     0.000 C 
BRANCH   9  10
ATOM     10  C   UNL     1     -18.318   0.150  36.393  1.00  0.00     0.006 C 
BRANCH  10  11
ATOM     11  C   UNL     1     -17.865   1.607  36.572  1.00  0.00     0.053 C 
BRANCH  11  12
ATOM     12  C   UNL     1     -17.975   2.069  37.996  1.00  0.00     0.041 C 
ATOM     13  O   UNL     1     -19.109   2.211  38.526  1.00  0.00    -0.550 OA
ATOM     14  O   UNL     1     -16.831   2.329  38.742  1.00  0.00    -0.550 OA
ENDBRANCH  11  12
ENDBRANCH  10  11
ENDBRANCH   9  10
ENDBRANCH   8   9
ENDBRANCH   7   8
ENDBRANCH   6   7
ENDBRANCH   5   6
ENDBRANCH   4   5
ENDBRANCH   3   4
ENDBRANCH   2   3
ENDBRANCH   1   2
BRANCH   1  15
ATOM     15  C   UNL     1     -13.524  -2.273  32.969  1.00  0.00     0.000 C 
BRANCH  15  16
ATOM     16  C   UNL     1     -13.372  -3.460  32.004  1.00  0.00     0.000 C 
BRANCH  16  17
ATOM     17  C   UNL     1     -12.657  -4.633  32.687  1.00  0.00     0.000 C 
BRANCH  17  18
ATOM     18  C   UNL     1     -13.037  -5.969  32.036  1.00  0.00    -0.000 C 
BRANCH  18  19
ATOM     19  C   UNL     1     -13.610  -6.982  33.043  1.00  0.00    -0.000 C 
BRANCH  19  20
ATOM     20  C   UNL     1     -14.861  -6.474  33.791  1.00  0.00    -0.000 C 
BRANCH  20  21
ATOM     21  C   UNL     1     -16.024  -6.150  32.836  1.00  0.00    -0.000 C 
BRANCH  21  22
ATOM     22  C   UNL     1     -16.827  -4.912  33.290  1.00  0.00    -0.000 C 
BRANCH  22  23
ATOM     23  C   UNL     1     -17.552  -4.186  32.140  1.00  0.00    -0.000 C 
BRANCH  23  24
ATOM     24  C   UNL     1     -16.991  -2.793  31.805  1.00  0.00    -0.000 C 
BRANCH  24  25
ATOM     25  C   UNL     1     -18.008  -1.904  31.074  1.00  0.00    -0.003 C 
ATOM     26  C   UNL     1     -19.375  -1.969  31.749  1.00  0.00     0.004 C 
ENDBRANCH  24  25
ENDBRANCH  23  24
ENDBRANCH  22  23
ENDBRANCH  21  22
ENDBRANCH  20  21
ENDBRANCH  19  20
ENDBRANCH  18  19
ENDBRANCH  17  18
ENDBRANCH  16  17
ENDBRANCH  15  16
ENDBRANCH   1  15
TORSDOF 22
ENDMDL
MODEL 3
REMARK VINA RESULT:    -4.572      1.420      3.981
REMARK INTER + INTRA:         -14.186
REMARK INTER:                 -10.104
REMARK INTRA:                  -4.082
REMARK UNBOUND:                -3.734
REMARK SMILES CCCCCCCCCCCCCCCCCCCCCCCC(=O)[O-]
REMARK SMILES IDX 13 1 14 2 15 3 16 4 17 5 18 6 19 7 20 8 21 9 22 10 23 11
REMARK SMILES IDX 24 12 25 13 26 14 12 15 11 16 10 17 9 18 8 19 7 20 6 21 5 22
REMARK SMILES IDX 4 23 3 24 2 25 1 26
REMARK H PARENT
REMARK Flexibility Score: inf
ROOT
ATOM      1  C   UNL     1     -17.097  -4.736  32.832  1.00  0.00     0.000 C 
ENDROOT
BRANCH   1   2
ATOM      2  C   UNL     1     -17.590  -3.427  32.193  1.00  0.00     0.000 C 
BRANCH   2   3
ATOM      3  C   UNL     1     -16.432  -2.528  31.723  1.00  0.00     0.000 C 
BRANCH   3   4
ATOM      4  C   UNL     1     -15.028  -3.154  31.850  1.00  0.00     0.000 C 
BRANCH   4   5
ATOM      5  C   UNL     1     -14.087  -2.474  32.868  1.00  0.00     0.000 C 
BRANCH   5   6
ATOM      6  C   UNL     1     -13.810  -3.298  34.143  1.00  0.00     0.000 C 
BRANCH   6   7
ATOM      7  C   UNL     1     -14.337  -2.644  35.434  1.00  0.00     0.000 C 
BRANCH   7   8
ATOM      8  C   UNL     1     -15.867  -2.476  35.418  1.00  0.00     0.000 C 
BRANCH   8   9
ATOM      9  C   UNL     1     -16.478  -2.549  36.826  1.00  0.00     0.000 C 
BRANCH   9  10
ATOM     10  C   UNL     1     -17.190  -1.242  37.220  1.00  0.00     0.006 C 
BRANCH  10  11
ATOM     11  C   UNL     1     -17.567  -0.389  35.999  1.00  0.00     0.053 C 
BRANCH  11  12
ATOM     12  C   UNL     1     -18.361   0.828  36.375  1.00  0.00     0.041 C 
ATOM     13  O   UNL     1     -19.427   0.706  37.034  1.00  0.00    -0.550 OA
ATOM     14  O   UNL     1     -17.919   2.095  36.012  1.00  0.00    -0.550 OA
ENDBRANCH  11  12
ENDBRANCH  10  11
ENDBRANCH   9  10
ENDBRANCH   8   9
ENDBRANCH   7   8
ENDBRANCH   6   7
ENDBRANCH   5   6
ENDBRANCH   4   5
ENDBRANCH   3   4
ENDBRANCH   2   3
ENDBRANCH   1   2
BRANCH   1  15
ATOM     15  C   UNL     1     -17.604  -5.983  32.093  1.00  0.00     0.000 C 
BRANCH  15  16
ATOM     16  C   UNL     1     -16.575  -7.126  32.093  1.00  0.00     0.000 C 
BRANCH  16  17
ATOM     17  C   UNL     1     -15.414  -6.817  31.138  1.00  0.00     0.000 C 
BRANCH  17  18
ATOM     18  C   UNL     1     -14.112  -7.471  31.617  1.00  0.00    -0.000 C 
BRANCH  18  19
ATOM     19  C   UNL     1     -13.113  -6.456  32.200  1.00  0.00    -0.000 C 
BRANCH  19  20
ATOM     20  C   UNL     1     -12.667  -6.783  33.642  1.00  0.00    -0.000 C 
BRANCH  20  21
ATOM     21  C   UNL     1     -13.316  -8.072  34.178  1.00  0.00    -0.000 C 
BRANCH  21  22
ATOM     22  C   UNL     1     -13.992  -7.859  35.551  1.00  0.00    -0.000 C 
BRANCH  22  23
ATOM     23  C   UNL     1     -14.441  -6.407  35.803  1.00  0.00    -0.000 C 
BRANCH  23  24
ATOM     24  C   UNL     1     -15.961  -6.219  35.943  1.00  0.00    -0.000 C 
BRANCH  24  25
ATOM     25  C   UNL     1     -16.442  -6.336  37.397  1.00  0.00    -0.003 C 
ATOM     26  C   UNL     1     -15.465  -5.656  38.352  1.00  0.00     0.004 C 
ENDBRANCH  24  25
ENDBRANCH  23  24
ENDBRANCH  22  23
ENDBRANCH  21  22
ENDBRANCH  20  21
ENDBRANCH  19  20
ENDBRANCH  18  19
ENDBRANCH  17  18
ENDBRANCH  16  17
ENDBRANCH  15  16
ENDBRANCH   1  15
TORSDOF 22
ENDMDL
MODEL 4
REMARK VINA RESULT:    -4.539      1.237      3.768
REMARK INTER + INTRA:         -14.110
REMARK INTER:                 -10.961
REMARK INTRA:                  -3.149
REMARK UNBOUND:                -3.734
REMARK SMILES CCCCCCCCCCCCCCCCCCCCCCCC(=O)[O-]
REMARK SMILES IDX 13 1 14 2 15 3 16 4 17 5 18 6 19 7 20 8 21 9 22 10 23 11
REMARK SMILES IDX 24 12 25 13 26 14 12 15 11 16 10 17 9 18 8 19 7 20 6 21 5 22
REMARK SMILES IDX 4 23 3 24 2 25 1 26
REMARK H PARENT
REMARK Flexibility Score: inf
ROOT
ATOM      1  C   UNL     1     -15.666  -6.544  30.993  1.00  0.00     0.000 C 
ENDROOT
BRANCH   1   2
ATOM      2  C   UNL     1     -16.951  -6.291  31.800  1.00  0.00     0.000 C 
BRANCH   2   3
ATOM      3  C   UNL     1     -16.962  -4.905  32.472  1.00  0.00     0.000 C 
BRANCH   3   4
ATOM      4  C   UNL     1     -16.362  -3.765  31.623  1.00  0.00     0.000 C 
BRANCH   4   5
ATOM      5  C   UNL     1     -17.233  -2.495  31.509  1.00  0.00     0.000 C 
BRANCH   5   6
ATOM      6  C   UNL     1     -16.964  -1.427  32.590  1.00  0.00     0.000 C 
BRANCH   6   7
ATOM      7  C   UNL     1     -17.903  -1.524  33.807  1.00  0.00     0.000 C 
BRANCH   7   8
ATOM      8  C   UNL     1     -17.154  -1.938  35.087  1.00  0.00     0.000 C 
BRANCH   8   9
ATOM      9  C   UNL     1     -17.296  -0.897  36.209  1.00  0.00     0.000 C 
BRANCH   9  10
ATOM     10  C   UNL     1     -18.156   0.306  35.780  1.00  0.00     0.006 C 
BRANCH  10  11
ATOM     11  C   UNL     1     -17.642   1.632  36.363  1.00  0.00     0.053 C 
BRANCH  11  12
ATOM     12  C   UNL     1     -18.133   1.871  37.761  1.00  0.00     0.041 C 
ATOM     13  O   UNL     1     -19.199   1.329  38.155  1.00  0.00    -0.550 OA
ATOM     14  O   UNL     1     -17.410   2.677  38.633  1.00  0.00    -0.550 OA
ENDBRANCH  11  12
ENDBRANCH  10  11
ENDBRANCH   9  10
ENDBRANCH   8   9
ENDBRANCH   7   8
ENDBRANCH   6   7
ENDBRANCH   5   6
ENDBRANCH   4   5
ENDBRANCH   3   4
ENDBRANCH   2   3
ENDBRANCH   1   2
BRANCH   1  15
ATOM     15  C   UNL     1     -14.647  -7.401  31.759  1.00  0.00     0.000 C 
BRANCH  15  16
ATOM     16  C   UNL     1     -13.318  -6.663  31.997  1.00  0.00     0.000 C 
BRANCH  16  17
ATOM     17  C   UNL     1     -12.955  -6.657  33.488  1.00  0.00     0.000 C 
BRANCH  17  18
ATOM     18  C   UNL     1     -12.532  -5.258  33.951  1.00  0.00    -0.000 C 
BRANCH  18  19
ATOM     19  C   UNL     1     -13.240  -4.133  33.176  1.00  0.00    -0.000 C 
BRANCH  19  20
ATOM     20  C   UNL     1     -13.711  -2.965  34.070  1.00  0.00    -0.000 C 
BRANCH  20  21
ATOM     21  C   UNL     1     -13.245  -3.119  35.529  1.00  0.00    -0.000 C 
BRANCH  21  22
ATOM     22  C   UNL     1     -14.421  -3.390  36.493  1.00  0.00    -0.000 C 
BRANCH  22  23
ATOM     23  C   UNL     1     -14.583  -4.874  36.873  1.00  0.00    -0.000 C 
BRANCH  23  24
ATOM     24  C   UNL     1     -15.919  -5.506  36.445  1.00  0.00    -0.000 C 
BRANCH  24  25
ATOM     25  C   UNL     1     -16.642  -6.207  37.603  1.00  0.00    -0.003 C 
ATOM     26  C   UNL     1     -16.197  -5.639  38.949  1.00  0.00     0.004 C 
ENDBRANCH  24  25
ENDBRANCH  23  24
ENDBRANCH  22  23
ENDBRANCH  21  22
ENDBRANCH  20  21
ENDBRANCH  19  20
ENDBRANCH  18  19
ENDBRANCH  17  18
ENDBRANCH  16  17
ENDBRANCH  15  16
ENDBRANCH   1  15
TORSDOF 22
ENDMDL
MODEL 5
REMARK VINA RESULT:    -4.466      1.355      3.058
REMARK INTER + INTRA:         -13.945
REMARK INTER:                 -10.738
REMARK INTRA:                  -3.207
REMARK UNBOUND:                -3.734
REMARK SMILES CCCCCCCCCCCCCCCCCCCCCCCC(=O)[O-]
REMARK SMILES IDX 13 1 14 2 15 3 16 4 17 5 18 6 19 7 20 8 21 9 22 10 23 11
REMARK SMILES IDX 24 12 25 13 26 14 12 15 11 16 10 17 9 18 8 19 7 20 6 21 5 22
REMARK SMILES IDX 4 23 3 24 2 25 1 26
REMARK H PARENT
REMARK Flexibility Score: inf
ROOT
ATOM      1  C   UNL     1     -12.992  -6.940  33.089  1.00  0.00     0.000 C 
ENDROOT
BRANCH   1   2
ATOM      2  C   UNL     1     -13.218  -5.844  32.034  1.00  0.00     0.000 C 
BRANCH   2   3
ATOM      3  C   UNL     1     -12.548  -4.511  32.417  1.00  0.00     0.000 C 
BRANCH   3   4
ATOM      4  C   UNL     1     -13.524  -3.347  32.693  1.00  0.00     0.000 C 
BRANCH   4   5
ATOM      5  C   UNL     1     -13.765  -3.023  34.183  1.00  0.00     0.000 C 
BRANCH   5   6
ATOM      6  C   UNL     1     -14.233  -4.219  35.038  1.00  0.00     0.000 C 
BRANCH   6   7
ATOM      7  C   UNL     1     -14.813  -3.818  36.407  1.00  0.00     0.000 C 
BRANCH   7   8
ATOM      8  C   UNL     1     -15.765  -2.613  36.304  1.00  0.00     0.000 C 
BRANCH   8   9
ATOM      9  C   UNL     1     -16.703  -2.505  37.517  1.00  0.00     0.000 C 
BRANCH   9  10
ATOM     10  C   UNL     1     -17.341  -1.109  37.636  1.00  0.00     0.006 C 
BRANCH  10  11
ATOM     11  C   UNL     1     -17.503  -0.420  36.272  1.00  0.00     0.053 C 
BRANCH  11  12
ATOM     12  C   UNL     1     -18.071   0.964  36.394  1.00  0.00     0.041 C 
ATOM     13  O   UNL     1     -17.500   1.932  35.825  1.00  0.00    -0.550 OA
ATOM     14  O   UNL     1     -19.235   1.185  37.121  1.00  0.00    -0.550 OA
ENDBRANCH  11  12
ENDBRANCH  10  11
ENDBRANCH   9  10
ENDBRANCH   8   9
ENDBRANCH   7   8
ENDBRANCH   6   7
ENDBRANCH   5   6
ENDBRANCH   4   5
ENDBRANCH   3   4
ENDBRANCH   2   3
ENDBRANCH   1   2
BRANCH   1  15
ATOM     15  C   UNL     1     -13.016  -8.353  32.488  1.00  0.00     0.000 C 
BRANCH  15  16
ATOM     16  C   UNL     1     -14.249  -9.160  32.930  1.00  0.00     0.000 C 
BRANCH  16  17
ATOM     17  C   UNL     1     -15.025  -8.417  34.025  1.00  0.00     0.000 C 
BRANCH  17  18
ATOM     18  C   UNL     1     -16.466  -8.129  33.587  1.00  0.00    -0.000 C 
BRANCH  18  19
ATOM     19  C   UNL     1     -16.684  -8.338  32.078  1.00  0.00    -0.000 C 
BRANCH  19  20
ATOM     20  C   UNL     1     -16.850  -7.023  31.286  1.00  0.00    -0.000 C 
BRANCH  20  21
ATOM     21  C   UNL     1     -17.513  -5.915  32.123  1.00  0.00    -0.000 C 
BRANCH  21  22
ATOM     22  C   UNL     1     -16.694  -4.605  32.113  1.00  0.00    -0.000 C 
BRANCH  22  23
ATOM     23  C   UNL     1     -17.310  -3.482  32.971  1.00  0.00    -0.000 C 
BRANCH  23  24
ATOM     24  C   UNL     1     -17.006  -2.057  32.477  1.00  0.00    -0.000 C 
BRANCH  24  25
ATOM     25  C   UNL     1     -17.861  -1.654  31.267  1.00  0.00    -0.003 C 
ATOM     26  C   UNL     1     -19.302  -2.127  31.434  1.00  0.00     0.004 C 
ENDBRANCH  24  25
ENDBRANCH  23  24
ENDBRANCH  22  23
ENDBRANCH  21  22
ENDBRANCH  20  21
ENDBRANCH  19  20
ENDBRANCH  18  19
ENDBRANCH  17  18
ENDBRANCH  16  17
ENDBRANCH  15  16
ENDBRANCH   1  15
TORSDOF 22
ENDMDL
MODEL 6
REMARK VINA RESULT:    -4.462      1.252      4.168
REMARK INTER + INTRA:         -13.935
REMARK INTER:                  -9.839
REMARK INTRA:                  -4.096
REMARK UNBOUND:                -3.734
REMARK SMILES CCCCCCCCCCCCCCCCCCCCCCCC(=O)[O-]
REMARK SMILES IDX 13 1 14 2 15 3 16 4 17 5 18 6 19 7 20 8 21 9 22 10 23 11
REMARK SMILES IDX 24 12 25 13 26 14 12 15 11 16 10 17 9 18 8 19 7 20 6 21 5 22
REMARK SMILES IDX 4 23 3 24 2 25 1 26
REMARK H PARENT
REMARK Flexibility Score: inf
ROOT
ATOM      1  C   UNL     1     -14.164  -3.116  34.828  1.00  0.00     0.000 C 
ENDROOT
BRANCH   1   2
ATOM      2  C   UNL     1     -13.200  -3.868  33.895  1.00  0.00     0.000 C 
BRANCH   2   3
ATOM      3  C   UNL     1     -13.319  -3.406  32.430  1.00  0.00     0.000 C 
BRANCH   3   4
ATOM      4  C   UNL     1     -14.591  -2.596  32.104  1.00  0.00     0.000 C 
BRANCH   4   5
ATOM      5  C   UNL     1     -15.692  -3.367  31.343  1.00  0.00     0.000 C 
BRANCH   5   6
ATOM      6  C   UNL     1     -17.089  -3.309  31.995  1.00  0.00     0.000 C 
BRANCH   6   7
ATOM      7  C   UNL     1     -17.642  -1.881  32.155  1.00  0.00     0.000 C 
BRANCH   7   8
ATOM      8  C   UNL     1     -18.430  -1.706  33.466  1.00  0.00     0.000 C 
BRANCH   8   9
ATOM      9  C   UNL     1     -17.532  -1.820  34.707  1.00  0.00     0.000 C 
BRANCH   9  10
ATOM     10  C   UNL     1     -17.279  -0.453  35.369  1.00  0.00     0.006 C 
BRANCH  10  11
ATOM     11  C   UNL     1     -17.868  -0.368  36.785  1.00  0.00     0.053 C 
BRANCH  11  12
ATOM     12  C   UNL     1     -18.861   0.747  36.926  1.00  0.00     0.041 C 
ATOM     13  O   UNL     1     -19.623   1.037  35.965  1.00  0.00    -0.550 OA
ATOM     14  O   UNL     1     -18.959   1.457  38.117  1.00  0.00    -0.550 OA
ENDBRANCH  11  12
ENDBRANCH  10  11
ENDBRANCH   9  10
ENDBRANCH   8   9
ENDBRANCH   7   8
ENDBRANCH   6   7
ENDBRANCH   5   6
ENDBRANCH   4   5
ENDBRANCH   3   4
ENDBRANCH   2   3
ENDBRANCH   1   2
BRANCH   1  15
ATOM     15  C   UNL     1     -14.805  -4.035  35.879  1.00  0.00     0.000 C 
BRANCH  15  16
ATOM     16  C   UNL     1     -15.838  -4.996  35.269  1.00  0.00     0.000 C 
BRANCH  16  17
ATOM     17  C   UNL     1     -15.734  -6.388  35.906  1.00  0.00     0.000 C 
BRANCH  17  18
ATOM     18  C   UNL     1     -14.311  -6.949  35.786  1.00  0.00    -0.000 C 
BRANCH  18  19
ATOM     19  C   UNL     1     -14.153  -7.932  34.613  1.00  0.00    -0.000 C 
BRANCH  19  20
ATOM     20  C   UNL     1     -12.894  -7.679  33.756  1.00  0.00    -0.000 C 
BRANCH  20  21
ATOM     21  C   UNL     1     -13.229  -7.047  32.393  1.00  0.00    -0.000 C 
BRANCH  21  22
ATOM     22  C   UNL     1     -14.384  -7.781  31.677  1.00  0.00    -0.000 C 
BRANCH  22  23
ATOM     23  C   UNL     1     -15.363  -6.837  30.951  1.00  0.00    -0.000 C 
BRANCH  23  24
ATOM     24  C   UNL     1     -16.850  -7.181  31.146  1.00  0.00    -0.000 C 
BRANCH  24  25
ATOM     25  C   UNL     1     -17.302  -7.049  32.607  1.00  0.00    -0.003 C 
ATOM     26  C   UNL     1     -17.639  -8.414  33.201  1.00  0.00     0.004 C 
ENDBRANCH  24  25
ENDBRANCH  23  24
ENDBRANCH  22  23
ENDBRANCH  21  22
ENDBRANCH  20  21
ENDBRANCH  19  20
ENDBRANCH  18  19
ENDBRANCH  17  18
ENDBRANCH  16  17
ENDBRANCH  15  16
ENDBRANCH   1  15
TORSDOF 22
ENDMDL
MODEL 7
REMARK VINA RESULT:    -4.389     11.800     15.705
REMARK INTER + INTRA:         -13.768
REMARK INTER:                 -10.125
REMARK INTRA:                  -3.642
REMARK UNBOUND:                -3.734
REMARK SMILES CCCCCCCCCCCCCCCCCCCCCCCC(=O)[O-]
REMARK SMILES IDX 13 1 14 2 15 3 16 4 17 5 18 6 19 7 20 8 21 9 22 10 23 11
REMARK SMILES IDX 24 12 25 13 26 14 12 15 11 16 10 17 9 18 8 19 7 20 6 21 5 22
REMARK SMILES IDX 4 23 3 24 2 25 1 26
REMARK H PARENT
REMARK Flexibility Score: inf
ROOT
ATOM      1  C   UNL     1     -28.942  -1.683  26.466  1.00  0.00     0.000 C 
ENDROOT
BRANCH   1   2
ATOM      2  C   UNL     1     -28.338  -0.833  25.336  1.00  0.00     0.000 C 
BRANCH   2   3
ATOM      3  C   UNL     1     -29.305  -0.658  24.150  1.00  0.00     0.000 C 
BRANCH   3   4
ATOM      4  C   UNL     1     -28.899  -1.407  22.863  1.00  0.00     0.000 C 
BRANCH   4   5
ATOM      5  C   UNL     1     -28.373  -0.519  21.715  1.00  0.00     0.000 C 
BRANCH   5   6
ATOM      6  C   UNL     1     -26.908  -0.785  21.311  1.00  0.00     0.000 C 
BRANCH   6   7
ATOM      7  C   UNL     1     -26.028  -1.303  22.463  1.00  0.00     0.000 C 
BRANCH   7   8
ATOM      8  C   UNL     1     -25.204  -0.179  23.116  1.00  0.00     0.000 C 
BRANCH   8   9
ATOM      9  C   UNL     1     -24.067  -0.722  23.996  1.00  0.00     0.000 C 
BRANCH   9  10
ATOM     10  C   UNL     1     -22.802   0.152  23.917  1.00  0.00     0.006 C 
BRANCH  10  11
ATOM     11  C   UNL     1     -23.128   1.637  23.696  1.00  0.00     0.053 C 
BRANCH  11  12
ATOM     12  C   UNL     1     -22.676   2.128  22.352  1.00  0.00     0.041 C 
ATOM     13  O   UNL     1     -21.529   1.830  21.926  1.00  0.00    -0.550 OA
ATOM     14  O   UNL     1     -23.522   2.900  21.563  1.00  0.00    -0.550 OA
ENDBRANCH  11  12
ENDBRANCH  10  11
ENDBRANCH   9  10
ENDBRANCH   8   9
ENDBRANCH   7   8
ENDBRANCH   6   7
ENDBRANCH   5   6
ENDBRANCH   4   5
ENDBRANCH   3   4
ENDBRANCH   2   3
ENDBRANCH   1   2
BRANCH   1  15
ATOM     15  C   UNL     1     -30.464  -1.845  26.336  1.00  0.00     0.000 C 
BRANCH  15  16
ATOM     16  C   UNL     1     -30.893  -3.318  26.239  1.00  0.00     0.000 C 
BRANCH  16  17
ATOM     17  C   UNL     1     -29.700  -4.253  26.477  1.00  0.00     0.000 C 
BRANCH  17  18
ATOM     18  C   UNL     1     -29.856  -5.563  25.695  1.00  0.00    -0.000 C 
BRANCH  18  19
ATOM     19  C   UNL     1     -28.699  -5.811  24.710  1.00  0.00    -0.000 C 
BRANCH  19  20
ATOM     20  C   UNL     1     -27.891  -4.541  24.368  1.00  0.00    -0.000 C 
BRANCH  20  21
ATOM     21  C   UNL     1     -26.648  -4.850  23.515  1.00  0.00    -0.000 C 
BRANCH  21  22
ATOM     22  C   UNL     1     -25.356  -4.273  24.134  1.00  0.00    -0.000 C 
BRANCH  22  23
ATOM     23  C   UNL     1     -25.560  -3.651  25.529  1.00  0.00    -0.000 C 
BRANCH  23  24
ATOM     24  C   UNL     1     -24.318  -3.687  26.437  1.00  0.00    -0.000 C 
BRANCH  24  25
ATOM     25  C   UNL     1     -24.248  -2.487  27.392  1.00  0.00    -0.003 C 
ATOM     26  C   UNL     1     -25.625  -1.860  27.585  1.00  0.00     0.004 C 
ENDBRANCH  24  25
ENDBRANCH  23  24
ENDBRANCH  22  23
ENDBRANCH  21  22
ENDBRANCH  20  21
ENDBRANCH  19  20
ENDBRANCH  18  19
ENDBRANCH  17  18
ENDBRANCH  16  17
ENDBRANCH  15  16
ENDBRANCH   1  15
TORSDOF 22
ENDMDL
MODEL 8
REMARK VINA RESULT:    -4.376     12.717     15.945
REMARK INTER + INTRA:         -13.737
REMARK INTER:                 -10.046
REMARK INTRA:                  -3.692
REMARK UNBOUND:                -3.734
REMARK SMILES CCCCCCCCCCCCCCCCCCCCCCCC(=O)[O-]
REMARK SMILES IDX 13 1 14 2 15 3 16 4 17 5 18 6 19 7 20 8 21 9 22 10 23 11
REMARK SMILES IDX 24 12 25 13 26 14 12 15 11 16 10 17 9 18 8 19 7 20 6 21 5 22
REMARK SMILES IDX 4 23 3 24 2 25 1 26
REMARK H PARENT
REMARK Flexibility Score: inf
ROOT
ATOM      1  C   UNL     1     -28.291  -2.103  25.854  1.00  0.00     0.000 C 
ENDROOT
BRANCH   1   2
ATOM      2  C   UNL     1     -29.208  -2.731  26.917  1.00  0.00     0.000 C 
BRANCH   2   3
ATOM      3  C   UNL     1     -30.698  -2.450  26.651  1.00  0.00     0.000 C 
BRANCH   3   4
ATOM      4  C   UNL     1     -31.528  -3.679  26.226  1.00  0.00     0.000 C 
BRANCH   4   5
ATOM      5  C   UNL     1     -30.979  -5.044  26.696  1.00  0.00     0.000 C 
BRANCH   5   6
ATOM      6  C   UNL     1     -30.678  -6.045  25.560  1.00  0.00     0.000 C 
BRANCH   6   7
ATOM      7  C   UNL     1     -29.240  -5.955  25.016  1.00  0.00     0.000 C 
BRANCH   7   8
ATOM      8  C   UNL     1     -29.145  -5.055  23.771  1.00  0.00     0.000 C 
BRANCH   8   9
ATOM      9  C   UNL     1     -27.692  -4.819  23.330  1.00  0.00     0.000 C 
BRANCH   9  10
ATOM     10  C   UNL     1     -26.680  -5.262  24.402  1.00  0.00     0.006 C 
BRANCH  10  11
ATOM     11  C   UNL     1     -25.261  -4.745  24.119  1.00  0.00     0.053 C 
BRANCH  11  12
ATOM     12  C   UNL     1     -24.466  -4.539  25.375  1.00  0.00     0.041 C 
ATOM     13  O   UNL     1     -24.503  -3.428  25.968  1.00  0.00    -0.550 OA
ATOM     14  O   UNL     1     -23.698  -5.572  25.900  1.00  0.00    -0.550 OA
ENDBRANCH  11  12
ENDBRANCH  10  11
ENDBRANCH   9  10
ENDBRANCH   8   9
ENDBRANCH   7   8
ENDBRANCH   6   7
ENDBRANCH   5   6
ENDBRANCH   4   5
ENDBRANCH   3   4
ENDBRANCH   2   3
ENDBRANCH   1   2
BRANCH   1  15
ATOM     15  C   UNL     1     -27.960  -0.633  26.154  1.00  0.00     0.000 C 
BRANCH  15  16
ATOM     16  C   UNL     1     -28.520   0.325  25.089  1.00  0.00     0.000 C 
BRANCH  16  17
ATOM     17  C   UNL     1     -29.346  -0.438  24.046  1.00  0.00     0.000 C 
BRANCH  17  18
ATOM     18  C   UNL     1     -28.719  -0.325  22.650  1.00  0.00    -0.000 C 
BRANCH  18  19
ATOM     19  C   UNL     1     -27.642  -1.392  22.391  1.00  0.00    -0.000 C 
BRANCH  19  20
ATOM     20  C   UNL     1     -26.264  -0.805  22.017  1.00  0.00    -0.000 C 
BRANCH  20  21
ATOM     21  C   UNL     1     -25.146  -1.287  22.959  1.00  0.00    -0.000 C 
BRANCH  21  22
ATOM     22  C   UNL     1     -24.975  -0.364  24.185  1.00  0.00    -0.000 C 
BRANCH  22  23
ATOM     23  C   UNL     1     -23.507  -0.152  24.603  1.00  0.00    -0.000 C 
BRANCH  23  24
ATOM     24  C   UNL     1     -22.616   0.482  23.521  1.00  0.00    -0.000 C 
BRANCH  24  25
ATOM     25  C   UNL     1     -22.915   1.972  23.304  1.00  0.00    -0.003 C 
ATOM     26  C   UNL     1     -23.226   2.260  21.837  1.00  0.00     0.004 C 
ENDBRANCH  24  25
ENDBRANCH  23  24
ENDBRANCH  22  23
ENDBRANCH  21  22
ENDBRANCH  20  21
ENDBRANCH  19  20
ENDBRANCH  18  19
ENDBRANCH  17  18
ENDBRANCH  16  17
ENDBRANCH  15  16
ENDBRANCH   1  15
TORSDOF 22
ENDMDL
MODEL 9
REMARK VINA RESULT:    -4.371      1.682      3.995
REMARK INTER + INTRA:         -13.726
REMARK INTER:                 -10.103
REMARK INTRA:                  -3.623
REMARK UNBOUND:                -3.734
REMARK SMILES CCCCCCCCCCCCCCCCCCCCCCCC(=O)[O-]
REMARK SMILES IDX 13 1 14 2 15 3 16 4 17 5 18 6 19 7 20 8 21 9 22 10 23 11
REMARK SMILES IDX 24 12 25 13 26 14 12 15 11 16 10 17 9 18 8 19 7 20 6 21 5 22
REMARK SMILES IDX 4 23 3 24 2 25 1 26
REMARK H PARENT
REMARK Flexibility Score: inf
ROOT
ATOM      1  C   UNL     1     -14.914  -4.190  35.507  1.00  0.00     0.000 C 
ENDROOT
BRANCH   1   2
ATOM      2  C   UNL     1     -14.100  -3.019  34.931  1.00  0.00     0.000 C 
BRANCH   2   3
ATOM      3  C   UNL     1     -13.783  -3.202  33.435  1.00  0.00     0.000 C 
BRANCH   3   4
ATOM      4  C   UNL     1     -14.592  -2.297  32.483  1.00  0.00     0.000 C 
BRANCH   4   5
ATOM      5  C   UNL     1     -15.509  -3.037  31.485  1.00  0.00     0.000 C 
BRANCH   5   6
ATOM      6  C   UNL     1     -17.018  -2.771  31.674  1.00  0.00     0.000 C 
BRANCH   6   7
ATOM      7  C   UNL     1     -17.526  -3.056  33.100  1.00  0.00     0.000 C 
BRANCH   7   8
ATOM      8  C   UNL     1     -18.181  -1.820  33.742  1.00  0.00     0.000 C 
BRANCH   8   9
ATOM      9  C   UNL     1     -17.214  -1.058  34.662  1.00  0.00     0.000 C 
BRANCH   9  10
ATOM     10  C   UNL     1     -17.408  -1.429  36.144  1.00  0.00     0.006 C 
BRANCH  10  11
ATOM     11  C   UNL     1     -17.633  -0.196  37.032  1.00  0.00     0.053 C 
BRANCH  11  12
ATOM     12  C   UNL     1     -18.258   0.943  36.282  1.00  0.00     0.041 C 
ATOM     13  O   UNL     1     -17.561   1.938  35.951  1.00  0.00    -0.550 OA
ATOM     14  O   UNL     1     -19.604   0.904  35.935  1.00  0.00    -0.550 OA
ENDBRANCH  11  12
ENDBRANCH  10  11
ENDBRANCH   9  10
ENDBRANCH   8   9
ENDBRANCH   7   8
ENDBRANCH   6   7
ENDBRANCH   5   6
ENDBRANCH   4   5
ENDBRANCH   3   4
ENDBRANCH   2   3
ENDBRANCH   1   2
BRANCH   1  15
ATOM     15  C   UNL     1     -14.077  -5.467  35.672  1.00  0.00     0.000 C 
BRANCH  15  16
ATOM     16  C   UNL     1     -14.864  -6.738  35.309  1.00  0.00     0.000 C 
BRANCH  16  17
ATOM     17  C   UNL     1     -14.041  -7.646  34.386  1.00  0.00     0.000 C 
BRANCH  17  18
ATOM     18  C   UNL     1     -13.012  -6.838  33.585  1.00  0.00    -0.000 C 
BRANCH  18  19
ATOM     19  C   UNL     1     -13.413  -6.656  32.110  1.00  0.00    -0.000 C 
BRANCH  19  20
ATOM     20  C   UNL     1     -14.663  -7.465  31.702  1.00  0.00    -0.000 C 
BRANCH  20  21
ATOM     21  C   UNL     1     -15.697  -6.606  30.951  1.00  0.00    -0.000 C 
BRANCH  21  22
ATOM     22  C   UNL     1     -17.028  -6.485  31.725  1.00  0.00    -0.000 C 
BRANCH  22  23
ATOM     23  C   UNL     1     -17.374  -7.730  32.565  1.00  0.00    -0.000 C 
BRANCH  23  24
ATOM     24  C   UNL     1     -18.734  -8.370  32.235  1.00  0.00    -0.000 C 
BRANCH  24  25
ATOM     25  C   UNL     1     -18.966  -8.526  30.725  1.00  0.00    -0.003 C 
ATOM     26  C   UNL     1     -20.165  -7.699  30.269  1.00  0.00     0.004 C 
ENDBRANCH  24  25
ENDBRANCH  23  24
ENDBRANCH  22  23
ENDBRANCH  21  22
ENDBRANCH  20  21
ENDBRANCH  19  20
ENDBRANCH  18  19
ENDBRANCH  17  18
ENDBRANCH  16  17
ENDBRANCH  15  16
ENDBRANCH   1  15
TORSDOF 22
ENDMDL
