MODEL 1
REMARK VINA RESULT:    -3.012      0.000      0.000
REMARK INTER + INTRA:         -11.260
REMARK INTER:                  -6.887
REMARK INTRA:                  -4.373
REMARK UNBOUND:                -4.373
REMARK SMILES CCCCCCCCCCCCCCCCCCCCCCCC(=O)[O-]
REMARK SMILES IDX 13 1 14 2 15 3 16 4 17 5 18 6 19 7 20 8 21 9 22 10 23 11
REMARK SMILES IDX 24 12 25 13 26 14 12 15 11 16 10 17 9 18 8 19 7 20 6 21 5 22
REMARK SMILES IDX 4 23 3 24 2 25 1 26
REMARK H PARENT
REMARK Flexibility Score: inf
ROOT
ATOM      1  C   UNL     1      50.947  49.099  12.632  1.00  0.00     0.000 C 
ENDROOT
BRANCH   1   2
ATOM      2  C   UNL     1      50.268  49.474  13.966  1.00  0.00     0.000 C 
BRANCH   2   3
ATOM      3  C   UNL     1      50.860  50.706  14.680  1.00  0.00     0.000 C 
BRANCH   3   4
ATOM      4  C   UNL     1      51.269  50.472  16.147  1.00  0.00     0.000 C 
BRANCH   4   5
ATOM      5  C   UNL     1      51.135  49.005  16.575  1.00  0.00     0.000 C 
BRANCH   5   6
ATOM      6  C   UNL     1      52.475  48.265  16.440  1.00  0.00     0.000 C 
BRANCH   6   7
ATOM      7  C   UNL     1      52.495  46.926  17.192  1.00  0.00     0.000 C 
BRANCH   7   8
ATOM      8  C   UNL     1      51.860  45.780  16.388  1.00  0.00     0.000 C 
BRANCH   8   9
ATOM      9  C   UNL     1      51.918  46.066  14.882  1.00  0.00     0.000 C 
BRANCH   9  10
ATOM     10  C   UNL     1      50.598  45.681  14.199  1.00  0.00     0.006 C 
BRANCH  10  11
ATOM     11  C   UNL     1      49.383  45.922  15.104  1.00  0.00     0.053 C 
BRANCH  11  12
ATOM     12  C   UNL     1      48.518  44.704  15.217  1.00  0.00     0.041 C 
ATOM     13  O   UNL     1      49.039  43.560  15.298  1.00  0.00    -0.550 OA
ATOM     14  O   UNL     1      47.133  44.830  15.206  1.00  0.00    -0.550 OA
ENDBRANCH  11  12
ENDBRANCH  10  11
ENDBRANCH   9  10
ENDBRANCH   8   9
ENDBRANCH   7   8
ENDBRANCH   6   7
ENDBRANCH   5   6
ENDBRANCH   4   5
ENDBRANCH   3   4
ENDBRANCH   2   3
ENDBRANCH   1   2
BRANCH   1  15
ATOM     15  C   UNL     1      52.477  48.947  12.708  1.00  0.00     0.000 C 
BRANCH  15  16
ATOM     16  C   UNL     1      53.221  50.069  11.964  1.00  0.00     0.000 C 
BRANCH  16  17
ATOM     17  C   UNL     1      54.569  50.415  12.617  1.00  0.00     0.000 C 
BRANCH  17  18
ATOM     18  C   UNL     1      54.516  50.341  14.152  1.00  0.00    -0.000 C 
BRANCH  18  19
ATOM     19  C   UNL     1      55.599  49.406  14.730  1.00  0.00    -0.000 C 
BRANCH  19  20
ATOM     20  C   UNL     1      56.615  48.914  13.683  1.00  0.00    -0.000 C 
BRANCH  20  21
ATOM     21  C   UNL     1      56.705  47.381  13.607  1.00  0.00    -0.000 C 
BRANCH  21  22
ATOM     22  C   UNL     1      55.406  46.696  14.081  1.00  0.00    -0.000 C 
BRANCH  22  23
ATOM     23  C   UNL     1      55.618  45.704  15.241  1.00  0.00    -0.000 C 
BRANCH  23  24
ATOM     24  C   UNL     1      56.650  46.150  16.294  1.00  0.00    -0.000 C 
BRANCH  24  25
ATOM     25  C   UNL     1      57.777  45.134  16.558  1.00  0.00    -0.003 C 
ATOM     26  C   UNL     1      57.764  43.965  15.574  1.00  0.00     0.004 C 
ENDBRANCH  24  25
ENDBRANCH  23  24
ENDBRANCH  22  23
ENDBRANCH  21  22
ENDBRANCH  20  21
ENDBRANCH  19  20
ENDBRANCH  18  19
ENDBRANCH  17  18
ENDBRANCH  16  17
ENDBRANCH  15  16
ENDBRANCH   1  15
TORSDOF 22
ENDMDL
MODEL 2
REMARK VINA RESULT:    -2.953      5.902     11.130
REMARK INTER + INTRA:         -11.124
REMARK INTER:                  -8.638
REMARK INTRA:                  -2.486
REMARK UNBOUND:                -4.373
REMARK SMILES CCCCCCCCCCCCCCCCCCCCCCCC(=O)[O-]
REMARK SMILES IDX 13 1 14 2 15 3 16 4 17 5 18 6 19 7 20 8 21 9 22 10 23 11
REMARK SMILES IDX 24 12 25 13 26 14 12 15 11 16 10 17 9 18 8 19 7 20 6 21 5 22
REMARK SMILES IDX 4 23 3 24 2 25 1 26
REMARK H PARENT
REMARK Flexibility Score: inf
ROOT
ATOM      1  C   UNL     1      62.070  44.374  17.040  1.00  0.00     0.000 C 
ENDROOT
BRANCH   1   2
ATOM      2  C   UNL     1      63.303  45.244  16.718  1.00  0.00     0.000 C 
BRANCH   2   3
ATOM      3  C   UNL     1      64.187  44.729  15.565  1.00  0.00     0.000 C 
BRANCH   3   4
ATOM      4  C   UNL     1      63.714  43.413  14.920  1.00  0.00     0.000 C 
BRANCH   4   5
ATOM      5  C   UNL     1      64.593  42.215  15.301  1.00  0.00     0.000 C 
BRANCH   5   6
ATOM      6  C   UNL     1      63.748  41.078  15.898  1.00  0.00     0.000 C 
BRANCH   6   7
ATOM      7  C   UNL     1      64.479  40.317  17.015  1.00  0.00     0.000 C 
BRANCH   7   8
ATOM      8  C   UNL     1      63.743  40.381  18.362  1.00  0.00     0.000 C 
BRANCH   8   9
ATOM      9  C   UNL     1      63.906  41.760  19.013  1.00  0.00     0.000 C 
BRANCH   9  10
ATOM     10  C   UNL     1      62.624  42.174  19.750  1.00  0.00     0.006 C 
BRANCH  10  11
ATOM     11  C   UNL     1      61.977  41.000  20.496  1.00  0.00     0.053 C 
BRANCH  11  12
ATOM     12  C   UNL     1      60.689  41.394  21.152  1.00  0.00     0.041 C 
ATOM     13  O   UNL     1      60.311  40.820  22.208  1.00  0.00    -0.550 OA
ATOM     14  O   UNL     1      59.889  42.377  20.580  1.00  0.00    -0.550 OA
ENDBRANCH  11  12
ENDBRANCH  10  11
ENDBRANCH   9  10
ENDBRANCH   8   9
ENDBRANCH   7   8
ENDBRANCH   6   7
ENDBRANCH   5   6
ENDBRANCH   4   5
ENDBRANCH   3   4
ENDBRANCH   2   3
ENDBRANCH   1   2
BRANCH   1  15
ATOM     15  C   UNL     1      60.971  45.086  17.848  1.00  0.00     0.000 C 
BRANCH  15  16
ATOM     16  C   UNL     1      59.594  45.015  17.168  1.00  0.00     0.000 C 
BRANCH  16  17
ATOM     17  C   UNL     1      58.510  44.435  18.091  1.00  0.00     0.000 C 
BRANCH  17  18
ATOM     18  C   UNL     1      57.555  43.482  17.352  1.00  0.00    -0.000 C 
BRANCH  18  19
ATOM     19  C   UNL     1      57.596  43.685  15.822  1.00  0.00    -0.000 C 
BRANCH  19  20
ATOM     20  C   UNL     1      56.450  44.561  15.284  1.00  0.00    -0.000 C 
BRANCH  20  21
ATOM     21  C   UNL     1      56.922  45.946  14.814  1.00  0.00    -0.000 C 
BRANCH  21  22
ATOM     22  C   UNL     1      56.427  47.077  15.741  1.00  0.00    -0.000 C 
BRANCH  22  23
ATOM     23  C   UNL     1      57.560  47.959  16.298  1.00  0.00    -0.000 C 
BRANCH  23  24
ATOM     24  C   UNL     1      57.592  49.397  15.747  1.00  0.00    -0.000 C 
BRANCH  24  25
ATOM     25  C   UNL     1      57.871  49.500  14.236  1.00  0.00    -0.003 C 
ATOM     26  C   UNL     1      58.759  50.691  13.877  1.00  0.00     0.004 C 
ENDBRANCH  24  25
ENDBRANCH  23  24
ENDBRANCH  22  23
ENDBRANCH  21  22
ENDBRANCH  20  21
ENDBRANCH  19  20
ENDBRANCH  18  19
ENDBRANCH  17  18
ENDBRANCH  16  17
ENDBRANCH  15  16
ENDBRANCH   1  15
TORSDOF 22
ENDMDL
MODEL 3
REMARK VINA RESULT:    -2.848      2.164      3.935
REMARK INTER + INTRA:         -10.884
REMARK INTER:                  -9.153
REMARK INTRA:                  -1.731
REMARK UNBOUND:                -4.373
REMARK SMILES CCCCCCCCCCCCCCCCCCCCCCCC(=O)[O-]
REMARK SMILES IDX 13 1 14 2 15 3 16 4 17 5 18 6 19 7 20 8 21 9 22 10 23 11
REMARK SMILES IDX 24 12 25 13 26 14 12 15 11 16 10 17 9 18 8 19 7 20 6 21 5 22
REMARK SMILES IDX 4 23 3 24 2 25 1 26
REMARK H PARENT
REMARK Flexibility Score: inf
ROOT
ATOM      1  C   UNL     1      53.868  50.457  12.848  1.00  0.00     0.000 C 
ENDROOT
BRANCH   1   2
ATOM      2  C   UNL     1      53.210  50.987  11.557  1.00  0.00     0.000 C 
BRANCH   2   3
ATOM      3  C   UNL     1      52.187  50.036  10.903  1.00  0.00     0.000 C 
BRANCH   3   4
ATOM      4  C   UNL     1      50.732  50.540  10.913  1.00  0.00     0.000 C 
BRANCH   4   5
ATOM      5  C   UNL     1      50.295  51.068  12.286  1.00  0.00     0.000 C 
BRANCH   5   6
ATOM      6  C   UNL     1      49.596  49.970  13.103  1.00  0.00     0.000 C 
BRANCH   6   7
ATOM      7  C   UNL     1      50.578  49.128  13.931  1.00  0.00     0.000 C 
BRANCH   7   8
ATOM      8  C   UNL     1      50.083  47.692  14.167  1.00  0.00     0.000 C 
BRANCH   8   9
ATOM      9  C   UNL     1      51.237  46.688  14.056  1.00  0.00     0.000 C 
BRANCH   9  10
ATOM     10  C   UNL     1      50.847  45.334  14.668  1.00  0.00     0.006 C 
BRANCH  10  11
ATOM     11  C   UNL     1      49.377  45.295  15.105  1.00  0.00     0.053 C 
BRANCH  11  12
ATOM     12  C   UNL     1      48.899  43.895  15.341  1.00  0.00     0.041 C 
ATOM     13  O   UNL     1      47.887  43.458  14.731  1.00  0.00    -0.550 OA
ATOM     14  O   UNL     1      49.556  43.080  16.256  1.00  0.00    -0.550 OA
ENDBRANCH  11  12
ENDBRANCH  10  11
ENDBRANCH   9  10
ENDBRANCH   8   9
ENDBRANCH   7   8
ENDBRANCH   6   7
ENDBRANCH   5   6
ENDBRANCH   4   5
ENDBRANCH   3   4
ENDBRANCH   2   3
ENDBRANCH   1   2
BRANCH   1  15
ATOM     15  C   UNL     1      54.096  48.935  12.877  1.00  0.00     0.000 C 
BRANCH  15  16
ATOM     16  C   UNL     1      54.560  48.432  14.253  1.00  0.00     0.000 C 
BRANCH  16  17
ATOM     17  C   UNL     1      56.083  48.233  14.326  1.00  0.00     0.000 C 
BRANCH  17  18
ATOM     18  C   UNL     1      56.494  46.763  14.131  1.00  0.00    -0.000 C 
BRANCH  18  19
ATOM     19  C   UNL     1      57.556  46.313  15.155  1.00  0.00    -0.000 C 
BRANCH  19  20
ATOM     20  C   UNL     1      57.551  44.797  15.426  1.00  0.00    -0.000 C 
BRANCH  20  21
ATOM     21  C   UNL     1      58.166  44.427  16.786  1.00  0.00    -0.000 C 
BRANCH  21  22
ATOM     22  C   UNL     1      59.290  45.400  17.202  1.00  0.00    -0.000 C 
BRANCH  22  23
ATOM     23  C   UNL     1      60.504  44.702  17.844  1.00  0.00    -0.000 C 
BRANCH  23  24
ATOM     24  C   UNL     1      61.869  45.100  17.251  1.00  0.00    -0.000 C 
BRANCH  24  25
ATOM     25  C   UNL     1      62.859  43.933  17.082  1.00  0.00    -0.003 C 
ATOM     26  C   UNL     1      63.280  43.718  15.628  1.00  0.00     0.004 C 
ENDBRANCH  24  25
ENDBRANCH  23  24
ENDBRANCH  22  23
ENDBRANCH  21  22
ENDBRANCH  20  21
ENDBRANCH  19  20
ENDBRANCH  18  19
ENDBRANCH  17  18
ENDBRANCH  16  17
ENDBRANCH  15  16
ENDBRANCH   1  15
TORSDOF 22
ENDMDL
MODEL 4
REMARK VINA RESULT:    -2.776      6.271      9.533
REMARK INTER + INTRA:         -10.719
REMARK INTER:                  -7.173
REMARK INTRA:                  -3.545
REMARK UNBOUND:                -4.373
REMARK SMILES CCCCCCCCCCCCCCCCCCCCCCCC(=O)[O-]
REMARK SMILES IDX 13 1 14 2 15 3 16 4 17 5 18 6 19 7 20 8 21 9 22 10 23 11
REMARK SMILES IDX 24 12 25 13 26 14 12 15 11 16 10 17 9 18 8 19 7 20 6 21 5 22
REMARK SMILES IDX 4 23 3 24 2 25 1 26
REMARK H PARENT
REMARK Flexibility Score: inf
ROOT
ATOM      1  C   UNL     1      60.418  45.841  17.767  1.00  0.00     0.000 C 
ENDROOT
BRANCH   1   2
ATOM      2  C   UNL     1      59.536  44.690  17.242  1.00  0.00     0.000 C 
BRANCH   2   3
ATOM      3  C   UNL     1      58.294  45.127  16.440  1.00  0.00     0.000 C 
BRANCH   3   4
ATOM      4  C   UNL     1      57.548  43.986  15.722  1.00  0.00     0.000 C 
BRANCH   4   5
ATOM      5  C   UNL     1      56.042  43.984  16.014  1.00  0.00     0.000 C 
BRANCH   5   6
ATOM      6  C   UNL     1      55.706  43.030  17.172  1.00  0.00     0.000 C 
BRANCH   6   7
ATOM      7  C   UNL     1      56.836  42.034  17.470  1.00  0.00     0.000 C 
BRANCH   7   8
ATOM      8  C   UNL     1      56.887  41.612  18.947  1.00  0.00     0.000 C 
BRANCH   8   9
ATOM      9  C   UNL     1      56.040  42.549  19.816  1.00  0.00     0.000 C 
BRANCH   9  10
ATOM     10  C   UNL     1      56.922  43.336  20.796  1.00  0.00     0.006 C 
BRANCH  10  11
ATOM     11  C   UNL     1      57.573  44.560  20.139  1.00  0.00     0.053 C 
BRANCH  11  12
ATOM     12  C   UNL     1      56.650  45.740  20.113  1.00  0.00     0.041 C 
ATOM     13  O   UNL     1      56.394  46.370  21.174  1.00  0.00    -0.550 OA
ATOM     14  O   UNL     1      56.048  46.128  18.922  1.00  0.00    -0.550 OA
ENDBRANCH  11  12
ENDBRANCH  10  11
ENDBRANCH   9  10
ENDBRANCH   8   9
ENDBRANCH   7   8
ENDBRANCH   6   7
ENDBRANCH   5   6
ENDBRANCH   4   5
ENDBRANCH   3   4
ENDBRANCH   2   3
ENDBRANCH   1   2
BRANCH   1  15
ATOM     15  C   UNL     1      61.933  45.615  17.613  1.00  0.00     0.000 C 
BRANCH  15  16
ATOM     16  C   UNL     1      62.265  44.315  16.863  1.00  0.00     0.000 C 
BRANCH  16  17
ATOM     17  C   UNL     1      63.535  44.436  16.007  1.00  0.00     0.000 C 
BRANCH  17  18
ATOM     18  C   UNL     1      63.602  43.370  14.899  1.00  0.00    -0.000 C 
BRANCH  18  19
ATOM     19  C   UNL     1      64.581  42.228  15.245  1.00  0.00    -0.000 C 
BRANCH  19  20
ATOM     20  C   UNL     1      63.941  41.090  16.062  1.00  0.00    -0.000 C 
BRANCH  20  21
ATOM     21  C   UNL     1      64.761  40.707  17.304  1.00  0.00    -0.000 C 
BRANCH  21  22
ATOM     22  C   UNL     1      64.489  41.647  18.497  1.00  0.00    -0.000 C 
BRANCH  22  23
ATOM     23  C   UNL     1      63.067  41.518  19.074  1.00  0.00    -0.000 C 
BRANCH  23  24
ATOM     24  C   UNL     1      62.671  42.618  20.077  1.00  0.00    -0.000 C 
BRANCH  24  25
ATOM     25  C   UNL     1      61.162  42.918  20.138  1.00  0.00    -0.003 C 
ATOM     26  C   UNL     1      60.373  41.840  20.881  1.00  0.00     0.004 C 
ENDBRANCH  24  25
ENDBRANCH  23  24
ENDBRANCH  22  23
ENDBRANCH  21  22
ENDBRANCH  20  21
ENDBRANCH  19  20
ENDBRANCH  18  19
ENDBRANCH  17  18
ENDBRANCH  16  17
ENDBRANCH  15  16
ENDBRANCH   1  15
TORSDOF 22
ENDMDL
MODEL 5
REMARK VINA RESULT:    -2.769      3.097      7.964
REMARK INTER + INTRA:         -10.702
REMARK INTER:                  -7.561
REMARK INTRA:                  -3.142
REMARK UNBOUND:                -4.373
REMARK SMILES CCCCCCCCCCCCCCCCCCCCCCCC(=O)[O-]
REMARK SMILES IDX 13 1 14 2 15 3 16 4 17 5 18 6 19 7 20 8 21 9 22 10 23 11
REMARK SMILES IDX 24 12 25 13 26 14 12 15 11 16 10 17 9 18 8 19 7 20 6 21 5 22
REMARK SMILES IDX 4 23 3 24 2 25 1 26
REMARK H PARENT
REMARK Flexibility Score: inf
ROOT
ATOM      1  C   UNL     1      51.475  46.350  14.539  1.00  0.00     0.000 C 
ENDROOT
BRANCH   1   2
ATOM      2  C   UNL     1      51.515  47.347  13.362  1.00  0.00     0.000 C 
BRANCH   2   3
ATOM      3  C   UNL     1      50.513  48.515  13.457  1.00  0.00     0.000 C 
BRANCH   3   4
ATOM      4  C   UNL     1      50.756  49.662  12.458  1.00  0.00     0.000 C 
BRANCH   4   5
ATOM      5  C   UNL     1      51.843  49.332  11.427  1.00  0.00     0.000 C 
BRANCH   5   6
ATOM      6  C   UNL     1      52.672  50.580  11.081  1.00  0.00     0.000 C 
BRANCH   6   7
ATOM      7  C   UNL     1      53.609  51.006  12.222  1.00  0.00     0.000 C 
BRANCH   7   8
ATOM      8  C   UNL     1      54.386  49.828  12.830  1.00  0.00     0.000 C 
BRANCH   8   9
ATOM      9  C   UNL     1      54.153  49.738  14.343  1.00  0.00     0.000 C 
BRANCH   9  10
ATOM     10  C   UNL     1      54.776  48.458  14.919  1.00  0.00     0.006 C 
BRANCH  10  11
ATOM     11  C   UNL     1      55.271  47.506  13.821  1.00  0.00     0.053 C 
BRANCH  11  12
ATOM     12  C   UNL     1      56.160  46.432  14.369  1.00  0.00     0.041 C 
ATOM     13  O   UNL     1      57.370  46.371  14.023  1.00  0.00    -0.550 OA
ATOM     14  O   UNL     1      55.645  45.480  15.241  1.00  0.00    -0.550 OA
ENDBRANCH  11  12
ENDBRANCH  10  11
ENDBRANCH   9  10
ENDBRANCH   8   9
ENDBRANCH   7   8
ENDBRANCH   6   7
ENDBRANCH   5   6
ENDBRANCH   4   5
ENDBRANCH   3   4
ENDBRANCH   2   3
ENDBRANCH   1   2
BRANCH   1  15
ATOM     15  C   UNL     1      50.312  45.343  14.493  1.00  0.00     0.000 C 
BRANCH  15  16
ATOM     16  C   UNL     1      49.147  45.741  15.413  1.00  0.00     0.000 C 
BRANCH  16  17
ATOM     17  C   UNL     1      49.467  45.520  16.900  1.00  0.00     0.000 C 
BRANCH  17  18
ATOM     18  C   UNL     1      48.221  45.636  17.794  1.00  0.00    -0.000 C 
BRANCH  18  19
ATOM     19  C   UNL     1      47.023  46.261  17.049  1.00  0.00    -0.000 C 
BRANCH  19  20
ATOM     20  C   UNL     1      45.688  45.537  17.306  1.00  0.00    -0.000 C 
BRANCH  20  21
ATOM     21  C   UNL     1      44.907  45.242  16.016  1.00  0.00    -0.000 C 
BRANCH  21  22
ATOM     22  C   UNL     1      45.034  43.766  15.582  1.00  0.00    -0.000 C 
BRANCH  22  23
ATOM     23  C   UNL     1      46.302  43.471  14.758  1.00  0.00    -0.000 C 
BRANCH  23  24
ATOM     24  C   UNL     1      47.354  42.604  15.477  1.00  0.00    -0.000 C 
BRANCH  24  25
ATOM     25  C   UNL     1      46.874  41.979  16.800  1.00  0.00    -0.003 C 
ATOM     26  C   UNL     1      46.439  40.522  16.644  1.00  0.00     0.004 C 
ENDBRANCH  24  25
ENDBRANCH  23  24
ENDBRANCH  22  23
ENDBRANCH  21  22
ENDBRANCH  20  21
ENDBRANCH  19  20
ENDBRANCH  18  19
ENDBRANCH  17  18
ENDBRANCH  16  17
ENDBRANCH  15  16
ENDBRANCH   1  15
TORSDOF 22
ENDMDL
MODEL 6
REMARK VINA RESULT:    -2.766      1.689      3.572
REMARK INTER + INTRA:         -10.696
REMARK INTER:                  -7.515
REMARK INTRA:                  -3.181
REMARK UNBOUND:                -4.373
REMARK SMILES CCCCCCCCCCCCCCCCCCCCCCCC(=O)[O-]
REMARK SMILES IDX 13 1 14 2 15 3 16 4 17 5 18 6 19 7 20 8 21 9 22 10 23 11
REMARK SMILES IDX 24 12 25 13 26 14 12 15 11 16 10 17 9 18 8 19 7 20 6 21 5 22
REMARK SMILES IDX 4 23 3 24 2 25 1 26
REMARK H PARENT
REMARK Flexibility Score: inf
ROOT
ATOM      1  C   UNL     1      50.919  50.966  14.641  1.00  0.00     0.000 C 
ENDROOT
BRANCH   1   2
ATOM      2  C   UNL     1      51.094  49.983  15.817  1.00  0.00     0.000 C 
BRANCH   2   3
ATOM      3  C   UNL     1      52.060  48.810  15.554  1.00  0.00     0.000 C 
BRANCH   3   4
ATOM      4  C   UNL     1      51.427  47.410  15.659  1.00  0.00     0.000 C 
BRANCH   4   5
ATOM      5  C   UNL     1      51.047  46.825  14.293  1.00  0.00     0.000 C 
BRANCH   5   6
ATOM      6  C   UNL     1      50.545  45.379  14.432  1.00  0.00     0.000 C 
BRANCH   6   7
ATOM      7  C   UNL     1      49.112  45.296  14.978  1.00  0.00     0.000 C 
BRANCH   7   8
ATOM      8  C   UNL     1      48.756  43.901  15.514  1.00  0.00     0.000 C 
BRANCH   8   9
ATOM      9  C   UNL     1      47.629  43.265  14.690  1.00  0.00     0.000 C 
BRANCH   9  10
ATOM     10  C   UNL     1      46.267  43.867  15.067  1.00  0.00     0.006 C 
BRANCH  10  11
ATOM     11  C   UNL     1      46.043  43.894  16.585  1.00  0.00     0.053 C 
BRANCH  11  12
ATOM     12  C   UNL     1      45.548  45.228  17.054  1.00  0.00     0.041 C 
ATOM     13  O   UNL     1      45.429  46.184  16.241  1.00  0.00    -0.550 OA
ATOM     14  O   UNL     1      45.245  45.425  18.396  1.00  0.00    -0.550 OA
ENDBRANCH  11  12
ENDBRANCH  10  11
ENDBRANCH   9  10
ENDBRANCH   8   9
ENDBRANCH   7   8
ENDBRANCH   6   7
ENDBRANCH   5   6
ENDBRANCH   4   5
ENDBRANCH   3   4
ENDBRANCH   2   3
ENDBRANCH   1   2
BRANCH   1  15
ATOM     15  C   UNL     1      49.730  50.658  13.714  1.00  0.00     0.000 C 
BRANCH  15  16
ATOM     16  C   UNL     1      50.154  49.933  12.426  1.00  0.00     0.000 C 
BRANCH  16  17
ATOM     17  C   UNL     1      51.519  50.408  11.904  1.00  0.00     0.000 C 
BRANCH  17  18
ATOM     18  C   UNL     1      52.432  49.239  11.497  1.00  0.00    -0.000 C 
BRANCH  18  19
ATOM     19  C   UNL     1      53.663  49.110  12.419  1.00  0.00    -0.000 C 
BRANCH  19  20
ATOM     20  C   UNL     1      54.156  50.455  12.985  1.00  0.00    -0.000 C 
BRANCH  20  21
ATOM     21  C   UNL     1      55.350  50.302  13.941  1.00  0.00    -0.000 C 
BRANCH  21  22
ATOM     22  C   UNL     1      56.667  50.012  13.189  1.00  0.00    -0.000 C 
BRANCH  22  23
ATOM     23  C   UNL     1      57.651  49.134  13.984  1.00  0.00    -0.000 C 
BRANCH  23  24
ATOM     24  C   UNL     1      57.006  48.269  15.084  1.00  0.00    -0.000 C 
BRANCH  24  25
ATOM     25  C   UNL     1      56.651  46.836  14.647  1.00  0.00    -0.003 C 
ATOM     26  C   UNL     1      55.145  46.576  14.632  1.00  0.00     0.004 C 
ENDBRANCH  24  25
ENDBRANCH  23  24
ENDBRANCH  22  23
ENDBRANCH  21  22
ENDBRANCH  20  21
ENDBRANCH  19  20
ENDBRANCH  18  19
ENDBRANCH  17  18
ENDBRANCH  16  17
ENDBRANCH  15  16
ENDBRANCH   1  15
TORSDOF 22
ENDMDL
MODEL 7
REMARK VINA RESULT:    -2.731      2.605      6.720
REMARK INTER + INTRA:         -10.616
REMARK INTER:                  -6.931
REMARK INTRA:                  -3.685
REMARK UNBOUND:                -4.373
REMARK SMILES CCCCCCCCCCCCCCCCCCCCCCCC(=O)[O-]
REMARK SMILES IDX 13 1 14 2 15 3 16 4 17 5 18 6 19 7 20 8 21 9 22 10 23 11
REMARK SMILES IDX 24 12 25 13 26 14 12 15 11 16 10 17 9 18 8 19 7 20 6 21 5 22
REMARK SMILES IDX 4 23 3 24 2 25 1 26
REMARK H PARENT
REMARK Flexibility Score: inf
ROOT
ATOM      1  C   UNL     1      57.442  46.050  15.670  1.00  0.00     0.000 C 
ENDROOT
BRANCH   1   2
ATOM      2  C   UNL     1      57.261  47.234  14.698  1.00  0.00     0.000 C 
BRANCH   2   3
ATOM      3  C   UNL     1      56.274  46.988  13.539  1.00  0.00     0.000 C 
BRANCH   3   4
ATOM      4  C   UNL     1      55.005  47.861  13.570  1.00  0.00     0.000 C 
BRANCH   4   5
ATOM      5  C   UNL     1      55.029  48.906  14.694  1.00  0.00     0.000 C 
BRANCH   5   6
ATOM      6  C   UNL     1      53.837  48.720  15.646  1.00  0.00     0.000 C 
BRANCH   6   7
ATOM      7  C   UNL     1      53.772  47.309  16.250  1.00  0.00     0.000 C 
BRANCH   7   8
ATOM      8  C   UNL     1      52.348  46.731  16.267  1.00  0.00     0.000 C 
BRANCH   8   9
ATOM      9  C   UNL     1      52.087  45.872  15.023  1.00  0.00     0.000 C 
BRANCH   9  10
ATOM     10  C   UNL     1      51.027  46.520  14.121  1.00  0.00     0.006 C 
BRANCH  10  11
ATOM     11  C   UNL     1      51.652  47.311  12.965  1.00  0.00     0.053 C 
BRANCH  11  12
ATOM     12  C   UNL     1      51.182  48.734  12.940  1.00  0.00     0.041 C 
ATOM     13  O   UNL     1      51.979  49.661  12.635  1.00  0.00    -0.550 OA
ATOM     14  O   UNL     1      49.871  49.040  13.283  1.00  0.00    -0.550 OA
ENDBRANCH  11  12
ENDBRANCH  10  11
ENDBRANCH   9  10
ENDBRANCH   8   9
ENDBRANCH   7   8
ENDBRANCH   6   7
ENDBRANCH   5   6
ENDBRANCH   4   5
ENDBRANCH   3   4
ENDBRANCH   2   3
ENDBRANCH   1   2
BRANCH   1  15
ATOM     15  C   UNL     1      56.618  44.798  15.321  1.00  0.00     0.000 C 
BRANCH  15  16
ATOM     16  C   UNL     1      56.884  43.626  16.280  1.00  0.00     0.000 C 
BRANCH  16  17
ATOM     17  C   UNL     1      55.670  43.301  17.165  1.00  0.00     0.000 C 
BRANCH  17  18
ATOM     18  C   UNL     1      54.354  43.269  16.371  1.00  0.00    -0.000 C 
BRANCH  18  19
ATOM     19  C   UNL     1      53.116  43.230  17.291  1.00  0.00    -0.000 C 
BRANCH  19  20
ATOM     20  C   UNL     1      52.197  42.020  17.042  1.00  0.00    -0.000 C 
BRANCH  20  21
ATOM     21  C   UNL     1      50.737  42.419  16.773  1.00  0.00    -0.000 C 
BRANCH  21  22
ATOM     22  C   UNL     1      50.353  43.737  17.479  1.00  0.00    -0.000 C 
BRANCH  22  23
ATOM     23  C   UNL     1      49.141  44.446  16.845  1.00  0.00    -0.000 C 
BRANCH  23  24
ATOM     24  C   UNL     1      48.710  43.893  15.473  1.00  0.00    -0.000 C 
BRANCH  24  25
ATOM     25  C   UNL     1      47.225  43.499  15.378  1.00  0.00    -0.003 C 
ATOM     26  C   UNL     1      46.944  42.515  14.243  1.00  0.00     0.004 C 
ENDBRANCH  24  25
ENDBRANCH  23  24
ENDBRANCH  22  23
ENDBRANCH  21  22
ENDBRANCH  20  21
ENDBRANCH  19  20
ENDBRANCH  18  19
ENDBRANCH  17  18
ENDBRANCH  16  17
ENDBRANCH  15  16
ENDBRANCH   1  15
TORSDOF 22
ENDMDL
MODEL 8
REMARK VINA RESULT:    -2.730      3.053      7.145
REMARK INTER + INTRA:         -10.613
REMARK INTER:                  -6.628
REMARK INTRA:                  -3.985
REMARK UNBOUND:                -4.373
REMARK SMILES CCCCCCCCCCCCCCCCCCCCCCCC(=O)[O-]
REMARK SMILES IDX 13 1 14 2 15 3 16 4 17 5 18 6 19 7 20 8 21 9 22 10 23 11
REMARK SMILES IDX 24 12 25 13 26 14 12 15 11 16 10 17 9 18 8 19 7 20 6 21 5 22
REMARK SMILES IDX 4 23 3 24 2 25 1 26
REMARK H PARENT
REMARK Flexibility Score: inf
ROOT
ATOM      1  C   UNL     1      53.877  46.417  17.243  1.00  0.00     0.000 C 
ENDROOT
BRANCH   1   2
ATOM      2  C   UNL     1      53.926  45.453  16.040  1.00  0.00     0.000 C 
BRANCH   2   3
ATOM      3  C   UNL     1      54.127  43.966  16.398  1.00  0.00     0.000 C 
BRANCH   3   4
ATOM      4  C   UNL     1      55.231  43.691  17.437  1.00  0.00     0.000 C 
BRANCH   4   5
ATOM      5  C   UNL     1      56.601  43.435  16.795  1.00  0.00     0.000 C 
BRANCH   5   6
ATOM      6  C   UNL     1      57.689  44.296  17.455  1.00  0.00     0.000 C 
BRANCH   6   7
ATOM      7  C   UNL     1      58.032  45.551  16.638  1.00  0.00     0.000 C 
BRANCH   7   8
ATOM      8  C   UNL     1      57.460  45.511  15.212  1.00  0.00     0.000 C 
BRANCH   8   9
ATOM      9  C   UNL     1      57.245  46.927  14.665  1.00  0.00     0.000 C 
BRANCH   9  10
ATOM     10  C   UNL     1      56.228  46.923  13.515  1.00  0.00     0.006 C 
BRANCH  10  11
ATOM     11  C   UNL     1      55.154  48.006  13.684  1.00  0.00     0.053 C 
BRANCH  11  12
ATOM     12  C   UNL     1      55.754  49.368  13.858  1.00  0.00     0.041 C 
ATOM     13  O   UNL     1      56.420  49.893  12.927  1.00  0.00    -0.550 OA
ATOM     14  O   UNL     1      55.602  50.046  15.062  1.00  0.00    -0.550 OA
ENDBRANCH  11  12
ENDBRANCH  10  11
ENDBRANCH   9  10
ENDBRANCH   8   9
ENDBRANCH   7   8
ENDBRANCH   6   7
ENDBRANCH   5   6
ENDBRANCH   4   5
ENDBRANCH   3   4
ENDBRANCH   2   3
ENDBRANCH   1   2
BRANCH   1  15
ATOM     15  C   UNL     1      53.164  47.753  16.970  1.00  0.00     0.000 C 
BRANCH  15  16
ATOM     16  C   UNL     1      51.760  47.814  17.593  1.00  0.00     0.000 C 
BRANCH  16  17
ATOM     17  C   UNL     1      51.262  46.437  18.061  1.00  0.00     0.000 C 
BRANCH  17  18
ATOM     18  C   UNL     1      50.280  45.796  17.065  1.00  0.00    -0.000 C 
BRANCH  18  19
ATOM     19  C   UNL     1      49.353  46.839  16.405  1.00  0.00    -0.000 C 
BRANCH  19  20
ATOM     20  C   UNL     1      49.363  46.789  14.866  1.00  0.00    -0.000 C 
BRANCH  20  21
ATOM     21  C   UNL     1      50.606  46.087  14.296  1.00  0.00    -0.000 C 
BRANCH  21  22
ATOM     22  C   UNL     1      51.588  47.081  13.640  1.00  0.00    -0.000 C 
BRANCH  22  23
ATOM     23  C   UNL     1      51.202  48.558  13.846  1.00  0.00    -0.000 C 
BRANCH  23  24
ATOM     24  C   UNL     1      51.880  49.547  12.878  1.00  0.00    -0.000 C 
BRANCH  24  25
ATOM     25  C   UNL     1      51.831  49.129  11.397  1.00  0.00    -0.003 C 
ATOM     26  C   UNL     1      50.870  49.985  10.572  1.00  0.00     0.004 C 
ENDBRANCH  24  25
ENDBRANCH  23  24
ENDBRANCH  22  23
ENDBRANCH  21  22
ENDBRANCH  20  21
ENDBRANCH  19  20
ENDBRANCH  18  19
ENDBRANCH  17  18
ENDBRANCH  16  17
ENDBRANCH  15  16
ENDBRANCH   1  15
TORSDOF 22
ENDMDL
MODEL 9
REMARK VINA RESULT:    -2.692      4.528      9.070
REMARK INTER + INTRA:         -10.527
REMARK INTER:                  -6.681
REMARK INTRA:                  -3.846
REMARK UNBOUND:                -4.373
REMARK SMILES CCCCCCCCCCCCCCCCCCCCCCCC(=O)[O-]
REMARK SMILES IDX 13 1 14 2 15 3 16 4 17 5 18 6 19 7 20 8 21 9 22 10 23 11
REMARK SMILES IDX 24 12 25 13 26 14 12 15 11 16 10 17 9 18 8 19 7 20 6 21 5 22
REMARK SMILES IDX 4 23 3 24 2 25 1 26
REMARK H PARENT
REMARK Flexibility Score: inf
ROOT
ATOM      1  C   UNL     1      45.605  41.690  15.220  1.00  0.00     0.000 C 
ENDROOT
BRANCH   1   2
ATOM      2  C   UNL     1      46.062  40.605  16.217  1.00  0.00     0.000 C 
BRANCH   2   3
ATOM      3  C   UNL     1      46.008  41.014  17.703  1.00  0.00     0.000 C 
BRANCH   3   4
ATOM      4  C   UNL     1      47.251  41.763  18.216  1.00  0.00     0.000 C 
BRANCH   4   5
ATOM      5  C   UNL     1      48.560  41.211  17.636  1.00  0.00     0.000 C 
BRANCH   5   6
ATOM      6  C   UNL     1      49.431  42.342  17.065  1.00  0.00     0.000 C 
BRANCH   6   7
ATOM      7  C   UNL     1      49.086  43.716  17.659  1.00  0.00     0.000 C 
BRANCH   7   8
ATOM      8  C   UNL     1      49.882  44.862  17.015  1.00  0.00     0.000 C 
BRANCH   8   9
ATOM      9  C   UNL     1      50.470  44.434  15.665  1.00  0.00     0.000 C 
BRANCH   9  10
ATOM     10  C   UNL     1      50.107  45.441  14.563  1.00  0.00     0.006 C 
BRANCH  10  11
ATOM     11  C   UNL     1      49.447  46.706  15.126  1.00  0.00     0.053 C 
BRANCH  11  12
ATOM     12  C   UNL     1      50.086  47.954  14.599  1.00  0.00     0.041 C 
ATOM     13  O   UNL     1      51.235  48.293  14.990  1.00  0.00    -0.550 OA
ATOM     14  O   UNL     1      49.401  48.760  13.697  1.00  0.00    -0.550 OA
ENDBRANCH  11  12
ENDBRANCH  10  11
ENDBRANCH   9  10
ENDBRANCH   8   9
ENDBRANCH   7   8
ENDBRANCH   6   7
ENDBRANCH   5   6
ENDBRANCH   4   5
ENDBRANCH   3   4
ENDBRANCH   2   3
ENDBRANCH   1   2
BRANCH   1  15
ATOM     15  C   UNL     1      46.748  42.457  14.532  1.00  0.00     0.000 C 
BRANCH  15  16
ATOM     16  C   UNL     1      46.712  43.965  14.828  1.00  0.00     0.000 C 
BRANCH  16  17
ATOM     17  C   UNL     1      45.454  44.384  15.605  1.00  0.00     0.000 C 
BRANCH  17  18
ATOM     18  C   UNL     1      45.786  44.987  16.981  1.00  0.00    -0.000 C 
BRANCH  18  19
ATOM     19  C   UNL     1      46.107  46.494  16.896  1.00  0.00    -0.000 C 
BRANCH  19  20
ATOM     20  C   UNL     1      46.996  47.002  18.046  1.00  0.00    -0.000 C 
BRANCH  20  21
ATOM     21  C   UNL     1      46.311  48.078  18.904  1.00  0.00    -0.000 C 
BRANCH  21  22
ATOM     22  C   UNL     1      45.568  47.474  20.114  1.00  0.00    -0.000 C 
BRANCH  22  23
ATOM     23  C   UNL     1      45.299  48.488  21.243  1.00  0.00    -0.000 C 
BRANCH  23  24
ATOM     24  C   UNL     1      46.156  49.767  21.183  1.00  0.00    -0.000 C 
BRANCH  24  25
ATOM     25  C   UNL     1      47.212  49.884  22.298  1.00  0.00    -0.003 C 
ATOM     26  C   UNL     1      48.593  49.397  21.859  1.00  0.00     0.004 C 
ENDBRANCH  24  25
ENDBRANCH  23  24
ENDBRANCH  22  23
ENDBRANCH  21  22
ENDBRANCH  20  21
ENDBRANCH  19  20
ENDBRANCH  18  19
ENDBRANCH  17  18
ENDBRANCH  16  17
ENDBRANCH  15  16
ENDBRANCH   1  15
TORSDOF 22
ENDMDL
