MODEL 1
REMARK VINA RESULT:    -4.352      0.000      0.000
REMARK INTER + INTRA:          -9.980
REMARK INTER:                  -7.914
REMARK INTRA:                  -2.065
REMARK UNBOUND:                -2.065
REMARK SMILES CCCCCCCCCCCCCCCC(=O)[O-]
REMARK SMILES IDX 9 1 10 2 11 3 12 4 13 5 14 6 15 7 16 8 17 9 18 10 8 11 7 12
REMARK SMILES IDX 6 13 5 14 4 15 3 16 2 17 1 18
REMARK H PARENT
REMARK Flexibility Score: inf
ROOT
ATOM      1  C   UNL     1      85.761 317.587 203.250  1.00  0.00     0.000 C 
ENDROOT
BRANCH   1   2
ATOM      2  C   UNL     1      85.587 318.392 204.549  1.00  0.00     0.000 C 
BRANCH   2   3
ATOM      3  C   UNL     1      84.820 317.616 205.635  1.00  0.00     0.000 C 
BRANCH   3   4
ATOM      4  C   UNL     1      85.057 316.091 205.649  1.00  0.00     0.000 C 
BRANCH   4   5
ATOM      5  C   UNL     1      86.031 315.590 206.729  1.00  0.00     0.000 C 
BRANCH   5   6
ATOM      6  C   UNL     1      85.781 314.124 207.125  1.00  0.00     0.006 C 
BRANCH   6   7
ATOM      7  C   UNL     1      84.429 313.609 206.616  1.00  0.00     0.053 C 
BRANCH   7   8
ATOM      8  C   UNL     1      84.576 312.352 205.815  1.00  0.00     0.041 C 
ATOM      9  O   UNL     1      84.846 312.413 204.585  1.00  0.00    -0.550 OA
ATOM     10  O   UNL     1      84.444 311.114 206.430  1.00  0.00    -0.550 OA
ENDBRANCH   7   8
ENDBRANCH   6   7
ENDBRANCH   5   6
ENDBRANCH   4   5
ENDBRANCH   3   4
ENDBRANCH   2   3
ENDBRANCH   1   2
BRANCH   1  11
ATOM     11  C   UNL     1      84.478 317.540 202.400  1.00  0.00     0.000 C 
BRANCH  11  12
ATOM     12  C   UNL     1      84.259 316.236 201.608  1.00  0.00    -0.000 C 
BRANCH  12  13
ATOM     13  C   UNL     1      85.108 315.039 202.071  1.00  0.00    -0.000 C 
BRANCH  13  14
ATOM     14  C   UNL     1      86.127 314.588 201.016  1.00  0.00    -0.000 C 
BRANCH  14  15
ATOM     15  C   UNL     1      87.549 314.589 201.589  1.00  0.00    -0.000 C 
BRANCH  15  16
ATOM     16  C   UNL     1      87.533 314.313 203.100  1.00  0.00    -0.000 C 
BRANCH  16  17
ATOM     17  C   UNL     1      88.351 315.342 203.897  1.00  0.00    -0.003 C 
ATOM     18  C   UNL     1      89.393 316.061 203.041  1.00  0.00     0.004 C 
ENDBRANCH  16  17
ENDBRANCH  15  16
ENDBRANCH  14  15
ENDBRANCH  13  14
ENDBRANCH  12  13
ENDBRANCH  11  12
ENDBRANCH   1  11
TORSDOF 14
ENDMDL
MODEL 2
REMARK VINA RESULT:    -4.285      1.263      3.432
REMARK INTER + INTRA:          -9.857
REMARK INTER:                  -7.543
REMARK INTRA:                  -2.314
REMARK UNBOUND:                -2.065
REMARK SMILES CCCCCCCCCCCCCCCC(=O)[O-]
REMARK SMILES IDX 9 1 10 2 11 3 12 4 13 5 14 6 15 7 16 8 17 9 18 10 8 11 7 12
REMARK SMILES IDX 6 13 5 14 4 15 3 16 2 17 1 18
REMARK H PARENT
REMARK Flexibility Score: inf
ROOT
ATOM      1  C   UNL     1      85.627 318.290 204.661  1.00  0.00     0.000 C 
ENDROOT
BRANCH   1   2
ATOM      2  C   UNL     1      85.853 317.756 203.237  1.00  0.00     0.000 C 
BRANCH   2   3
ATOM      3  C   UNL     1      84.542 317.581 202.449  1.00  0.00     0.000 C 
BRANCH   3   4
ATOM      4  C   UNL     1      84.456 316.307 201.583  1.00  0.00     0.000 C 
BRANCH   4   5
ATOM      5  C   UNL     1      85.542 315.252 201.862  1.00  0.00     0.000 C 
BRANCH   5   6
ATOM      6  C   UNL     1      85.054 314.123 202.786  1.00  0.00     0.006 C 
BRANCH   6   7
ATOM      7  C   UNL     1      86.157 313.098 203.079  1.00  0.00     0.053 C 
BRANCH   7   8
ATOM      8  C   UNL     1      85.931 312.390 204.380  1.00  0.00     0.041 C 
ATOM      9  O   UNL     1      86.888 311.809 204.959  1.00  0.00    -0.550 OA
ATOM     10  O   UNL     1      84.673 312.397 204.967  1.00  0.00    -0.550 OA
ENDBRANCH   7   8
ENDBRANCH   6   7
ENDBRANCH   5   6
ENDBRANCH   4   5
ENDBRANCH   3   4
ENDBRANCH   2   3
ENDBRANCH   1   2
BRANCH   1  11
ATOM     11  C   UNL     1      84.687 317.398 205.491  1.00  0.00     0.000 C 
BRANCH  11  12
ATOM     12  C   UNL     1      85.168 315.949 205.704  1.00  0.00    -0.000 C 
BRANCH  12  13
ATOM     13  C   UNL     1      86.163 315.754 206.862  1.00  0.00    -0.000 C 
BRANCH  13  14
ATOM     14  C   UNL     1      87.467 315.076 206.419  1.00  0.00    -0.000 C 
BRANCH  14  15
ATOM     15  C   UNL     1      88.293 316.006 205.522  1.00  0.00    -0.000 C 
BRANCH  15  16
ATOM     16  C   UNL     1      89.062 315.206 204.460  1.00  0.00    -0.000 C 
BRANCH  16  17
ATOM     17  C   UNL     1      88.955 315.830 203.059  1.00  0.00    -0.003 C 
ATOM     18  C   UNL     1      90.306 316.289 202.512  1.00  0.00     0.004 C 
ENDBRANCH  16  17
ENDBRANCH  15  16
ENDBRANCH  14  15
ENDBRANCH  13  14
ENDBRANCH  12  13
ENDBRANCH  11  12
ENDBRANCH   1  11
TORSDOF 14
ENDMDL
MODEL 3
REMARK VINA RESULT:    -4.274      3.100      5.127
REMARK INTER + INTRA:          -9.838
REMARK INTER:                  -7.641
REMARK INTRA:                  -2.197
REMARK UNBOUND:                -2.065
REMARK SMILES CCCCCCCCCCCCCCCC(=O)[O-]
REMARK SMILES IDX 9 1 10 2 11 3 12 4 13 5 14 6 15 7 16 8 17 9 18 10 8 11 7 12
REMARK SMILES IDX 6 13 5 14 4 15 3 16 2 17 1 18
REMARK H PARENT
REMARK Flexibility Score: inf
ROOT
ATOM      1  C   UNL     1      85.820 317.549 203.183  1.00  0.00     0.000 C 
ENDROOT
BRANCH   1   2
ATOM      2  C   UNL     1      84.561 317.473 202.304  1.00  0.00     0.000 C 
BRANCH   2   3
ATOM      3  C   UNL     1      84.437 316.135 201.552  1.00  0.00     0.000 C 
BRANCH   3   4
ATOM      4  C   UNL     1      84.681 314.873 202.405  1.00  0.00     0.000 C 
BRANCH   4   5
ATOM      5  C   UNL     1      85.854 313.989 201.947  1.00  0.00     0.000 C 
BRANCH   5   6
ATOM      6  C   UNL     1      86.588 314.559 200.720  1.00  0.00     0.006 C 
BRANCH   6   7
ATOM      7  C   UNL     1      87.804 313.711 200.327  1.00  0.00     0.053 C 
BRANCH   7   8
ATOM      8  C   UNL     1      88.687 314.421 199.349  1.00  0.00     0.041 C 
ATOM      9  O   UNL     1      88.525 314.252 198.110  1.00  0.00    -0.550 OA
ATOM     10  O   UNL     1      89.670 315.292 199.801  1.00  0.00    -0.550 OA
ENDBRANCH   7   8
ENDBRANCH   6   7
ENDBRANCH   5   6
ENDBRANCH   4   5
ENDBRANCH   3   4
ENDBRANCH   2   3
ENDBRANCH   1   2
BRANCH   1  11
ATOM     11  C   UNL     1      85.588 318.324 204.493  1.00  0.00     0.000 C 
BRANCH  11  12
ATOM     12  C   UNL     1      84.823 317.555 205.589  1.00  0.00    -0.000 C 
BRANCH  12  13
ATOM     13  C   UNL     1      85.175 316.060 205.705  1.00  0.00    -0.000 C 
BRANCH  13  14
ATOM     14  C   UNL     1      86.116 315.760 206.879  1.00  0.00    -0.000 C 
BRANCH  14  15
ATOM     15  C   UNL     1      87.358 314.994 206.406  1.00  0.00    -0.000 C 
BRANCH  15  16
ATOM     16  C   UNL     1      88.221 315.864 205.480  1.00  0.00    -0.000 C 
BRANCH  16  17
ATOM     17  C   UNL     1      88.545 315.168 204.149  1.00  0.00    -0.003 C 
ATOM     18  C   UNL     1      89.173 316.113 203.125  1.00  0.00     0.004 C 
ENDBRANCH  16  17
ENDBRANCH  15  16
ENDBRANCH  14  15
ENDBRANCH  13  14
ENDBRANCH  12  13
ENDBRANCH  11  12
ENDBRANCH   1  11
TORSDOF 14
ENDMDL
MODEL 4
REMARK VINA RESULT:    -4.263      2.504      3.956
REMARK INTER + INTRA:          -9.818
REMARK INTER:                  -7.797
REMARK INTRA:                  -2.021
REMARK UNBOUND:                -2.065
REMARK SMILES CCCCCCCCCCCCCCCC(=O)[O-]
REMARK SMILES IDX 9 1 10 2 11 3 12 4 13 5 14 6 15 7 16 8 17 9 18 10 8 11 7 12
REMARK SMILES IDX 6 13 5 14 4 15 3 16 2 17 1 18
REMARK H PARENT
REMARK Flexibility Score: inf
ROOT
ATOM      1  C   UNL     1      85.896 317.516 203.226  1.00  0.00     0.000 C 
ENDROOT
BRANCH   1   2
ATOM      2  C   UNL     1      85.615 318.349 204.487  1.00  0.00     0.000 C 
BRANCH   2   3
ATOM      3  C   UNL     1      84.659 317.645 205.468  1.00  0.00     0.000 C 
BRANCH   3   4
ATOM      4  C   UNL     1      85.012 316.179 205.795  1.00  0.00     0.000 C 
BRANCH   4   5
ATOM      5  C   UNL     1      86.113 315.991 206.853  1.00  0.00     0.000 C 
BRANCH   5   6
ATOM      6  C   UNL     1      87.301 315.161 206.338  1.00  0.00     0.006 C 
BRANCH   6   7
ATOM      7  C   UNL     1      88.303 316.013 205.548  1.00  0.00     0.053 C 
BRANCH   7   8
ATOM      8  C   UNL     1      89.710 315.792 206.009  1.00  0.00     0.041 C 
ATOM      9  O   UNL     1      90.516 316.759 206.069  1.00  0.00    -0.550 OA
ATOM     10  O   UNL     1      90.125 314.526 206.402  1.00  0.00    -0.550 OA
ENDBRANCH   7   8
ENDBRANCH   6   7
ENDBRANCH   5   6
ENDBRANCH   4   5
ENDBRANCH   3   4
ENDBRANCH   2   3
ENDBRANCH   1   2
BRANCH   1  11
ATOM     11  C   UNL     1      84.624 317.211 202.415  1.00  0.00     0.000 C 
BRANCH  11  12
ATOM     12  C   UNL     1      84.592 315.829 201.732  1.00  0.00    -0.000 C 
BRANCH  12  13
ATOM     13  C   UNL     1      85.549 314.782 202.330  1.00  0.00    -0.000 C 
BRANCH  13  14
ATOM     14  C   UNL     1      84.913 313.975 203.470  1.00  0.00    -0.000 C 
BRANCH  14  15
ATOM     15  C   UNL     1      85.722 312.706 203.763  1.00  0.00    -0.000 C 
BRANCH  15  16
ATOM     16  C   UNL     1      85.478 312.217 205.198  1.00  0.00    -0.000 C 
BRANCH  16  17
ATOM     17  C   UNL     1      84.013 312.375 205.636  1.00  0.00    -0.003 C 
ATOM     18  C   UNL     1      83.875 312.948 207.045  1.00  0.00     0.004 C 
ENDBRANCH  16  17
ENDBRANCH  15  16
ENDBRANCH  14  15
ENDBRANCH  13  14
ENDBRANCH  12  13
ENDBRANCH  11  12
ENDBRANCH   1  11
TORSDOF 14
ENDMDL
MODEL 5
REMARK VINA RESULT:    -4.225      1.500      2.761
REMARK INTER + INTRA:          -9.748
REMARK INTER:                  -7.627
REMARK INTRA:                  -2.122
REMARK UNBOUND:                -2.065
REMARK SMILES CCCCCCCCCCCCCCCC(=O)[O-]
REMARK SMILES IDX 9 1 10 2 11 3 12 4 13 5 14 6 15 7 16 8 17 9 18 10 8 11 7 12
REMARK SMILES IDX 6 13 5 14 4 15 3 16 2 17 1 18
REMARK H PARENT
REMARK Flexibility Score: inf
ROOT
ATOM      1  C   UNL     1      84.674 315.994 201.319  1.00  0.00     0.000 C 
ENDROOT
BRANCH   1   2
ATOM      2  C   UNL     1      84.236 317.056 202.341  1.00  0.00     0.000 C 
BRANCH   2   3
ATOM      3  C   UNL     1      85.367 318.034 202.708  1.00  0.00     0.000 C 
BRANCH   3   4
ATOM      4  C   UNL     1      85.921 317.896 204.142  1.00  0.00     0.000 C 
BRANCH   4   5
ATOM      5  C   UNL     1      84.891 317.473 205.203  1.00  0.00     0.000 C 
BRANCH   5   6
ATOM      6  C   UNL     1      85.382 316.310 206.083  1.00  0.00     0.006 C 
BRANCH   6   7
ATOM      7  C   UNL     1      84.963 314.945 205.524  1.00  0.00     0.053 C 
BRANCH   7   8
ATOM      8  C   UNL     1      85.323 313.827 206.453  1.00  0.00     0.041 C 
ATOM      9  O   UNL     1      86.533 313.532 206.650  1.00  0.00    -0.550 OA
ATOM     10  O   UNL     1      84.327 313.130 207.125  1.00  0.00    -0.550 OA
ENDBRANCH   7   8
ENDBRANCH   6   7
ENDBRANCH   5   6
ENDBRANCH   4   5
ENDBRANCH   3   4
ENDBRANCH   2   3
ENDBRANCH   1   2
BRANCH   1  11
ATOM     11  C   UNL     1      85.553 314.893 201.940  1.00  0.00     0.000 C 
BRANCH  11  12
ATOM     12  C   UNL     1      86.802 314.507 201.124  1.00  0.00    -0.000 C 
BRANCH  12  13
ATOM     13  C   UNL     1      88.149 314.836 201.794  1.00  0.00    -0.000 C 
BRANCH  13  14
ATOM     14  C   UNL     1      88.054 314.895 203.325  1.00  0.00    -0.000 C 
BRANCH  14  15
ATOM     15  C   UNL     1      88.954 316.000 203.889  1.00  0.00    -0.000 C 
BRANCH  15  16
ATOM     16  C   UNL     1      88.891 316.032 205.423  1.00  0.00    -0.000 C 
BRANCH  16  17
ATOM     17  C   UNL     1      90.271 316.241 206.067  1.00  0.00    -0.003 C 
ATOM     18  C   UNL     1      91.327 316.703 205.065  1.00  0.00     0.004 C 
ENDBRANCH  16  17
ENDBRANCH  15  16
ENDBRANCH  14  15
ENDBRANCH  13  14
ENDBRANCH  12  13
ENDBRANCH  11  12
ENDBRANCH   1  11
TORSDOF 14
ENDMDL
MODEL 6
REMARK VINA RESULT:    -4.191      2.067      4.338
REMARK INTER + INTRA:          -9.686
REMARK INTER:                  -7.510
REMARK INTRA:                  -2.176
REMARK UNBOUND:                -2.065
REMARK SMILES CCCCCCCCCCCCCCCC(=O)[O-]
REMARK SMILES IDX 9 1 10 2 11 3 12 4 13 5 14 6 15 7 16 8 17 9 18 10 8 11 7 12
REMARK SMILES IDX 6 13 5 14 4 15 3 16 2 17 1 18
REMARK H PARENT
REMARK Flexibility Score: inf
ROOT
ATOM      1  C   UNL     1      85.682 316.354 206.366  1.00  0.00     0.000 C 
ENDROOT
BRANCH   1   2
ATOM      2  C   UNL     1      84.877 317.258 205.418  1.00  0.00     0.000 C 
BRANCH   2   3
ATOM      3  C   UNL     1      85.774 318.134 204.524  1.00  0.00     0.000 C 
BRANCH   3   4
ATOM      4  C   UNL     1      85.753 317.782 203.021  1.00  0.00     0.000 C 
BRANCH   4   5
ATOM      5  C   UNL     1      84.365 317.446 202.447  1.00  0.00     0.000 C 
BRANCH   5   6
ATOM      6  C   UNL     1      84.347 316.119 201.668  1.00  0.00     0.006 C 
BRANCH   6   7
ATOM      7  C   UNL     1      85.352 315.105 202.227  1.00  0.00     0.053 C 
BRANCH   7   8
ATOM      8  C   UNL     1      86.140 314.442 201.140  1.00  0.00     0.041 C 
ATOM      9  O   UNL     1      86.033 314.838 199.949  1.00  0.00    -0.550 OA
ATOM     10  O   UNL     1      87.016 313.408 201.445  1.00  0.00    -0.550 OA
ENDBRANCH   7   8
ENDBRANCH   6   7
ENDBRANCH   5   6
ENDBRANCH   4   5
ENDBRANCH   3   4
ENDBRANCH   2   3
ENDBRANCH   1   2
BRANCH   1  11
ATOM     11  C   UNL     1      85.881 314.932 205.811  1.00  0.00     0.000 C 
BRANCH  11  12
ATOM     12  C   UNL     1      87.335 314.558 205.458  1.00  0.00    -0.000 C 
BRANCH  12  13
ATOM     13  C   UNL     1      88.408 315.507 206.021  1.00  0.00    -0.000 C 
BRANCH  13  14
ATOM     14  C   UNL     1      89.214 316.214 204.923  1.00  0.00    -0.000 C 
BRANCH  14  15
ATOM     15  C   UNL     1      88.708 315.819 203.530  1.00  0.00    -0.000 C 
BRANCH  15  16
ATOM     16  C   UNL     1      89.810 315.996 202.475  1.00  0.00    -0.000 C 
BRANCH  16  17
ATOM     17  C   UNL     1      91.105 316.579 203.064  1.00  0.00    -0.003 C 
ATOM     18  C   UNL     1      91.796 317.559 202.118  1.00  0.00     0.004 C 
ENDBRANCH  16  17
ENDBRANCH  15  16
ENDBRANCH  14  15
ENDBRANCH  13  14
ENDBRANCH  12  13
ENDBRANCH  11  12
ENDBRANCH   1  11
TORSDOF 14
ENDMDL
MODEL 7
REMARK VINA RESULT:    -4.124      1.913      4.168
REMARK INTER + INTRA:          -9.565
REMARK INTER:                  -7.090
REMARK INTRA:                  -2.475
REMARK UNBOUND:                -2.065
REMARK SMILES CCCCCCCCCCCCCCCC(=O)[O-]
REMARK SMILES IDX 9 1 10 2 11 3 12 4 13 5 14 6 15 7 16 8 17 9 18 10 8 11 7 12
REMARK SMILES IDX 6 13 5 14 4 15 3 16 2 17 1 18
REMARK H PARENT
REMARK Flexibility Score: inf
ROOT
ATOM      1  C   UNL     1      84.698 317.710 205.451  1.00  0.00     0.000 C 
ENDROOT
BRANCH   1   2
ATOM      2  C   UNL     1      85.664 318.442 204.504  1.00  0.00     0.000 C 
BRANCH   2   3
ATOM      3  C   UNL     1      85.756 317.781 203.117  1.00  0.00     0.000 C 
BRANCH   3   4
ATOM      4  C   UNL     1      84.412 317.325 202.512  1.00  0.00     0.000 C 
BRANCH   4   5
ATOM      5  C   UNL     1      84.457 315.991 201.747  1.00  0.00     0.000 C 
BRANCH   5   6
ATOM      6  C   UNL     1      85.825 315.293 201.843  1.00  0.00     0.006 C 
BRANCH   6   7
ATOM      7  C   UNL     1      85.697 313.822 202.259  1.00  0.00     0.053 C 
BRANCH   7   8
ATOM      8  C   UNL     1      86.252 312.898 201.219  1.00  0.00     0.041 C 
ATOM      9  O   UNL     1      86.020 311.660 201.284  1.00  0.00    -0.550 OA
ATOM     10  O   UNL     1      86.999 313.404 200.164  1.00  0.00    -0.550 OA
ENDBRANCH   7   8
ENDBRANCH   6   7
ENDBRANCH   5   6
ENDBRANCH   4   5
ENDBRANCH   3   4
ENDBRANCH   2   3
ENDBRANCH   1   2
BRANCH   1  11
ATOM     11  C   UNL     1      85.370 316.553 206.212  1.00  0.00     0.000 C 
BRANCH  11  12
ATOM     12  C   UNL     1      85.062 315.141 205.674  1.00  0.00    -0.000 C 
BRANCH  12  13
ATOM     13  C   UNL     1      86.175 314.101 205.893  1.00  0.00    -0.000 C 
BRANCH  13  14
ATOM     14  C   UNL     1      87.267 314.589 206.854  1.00  0.00    -0.000 C 
BRANCH  14  15
ATOM     15  C   UNL     1      88.630 314.646 206.154  1.00  0.00    -0.000 C 
BRANCH  15  16
ATOM     16  C   UNL     1      88.876 316.033 205.540  1.00  0.00    -0.000 C 
BRANCH  16  17
ATOM     17  C   UNL     1      88.802 316.020 204.005  1.00  0.00    -0.003 C 
ATOM     18  C   UNL     1      89.166 314.663 203.406  1.00  0.00     0.004 C 
ENDBRANCH  16  17
ENDBRANCH  15  16
ENDBRANCH  14  15
ENDBRANCH  13  14
ENDBRANCH  12  13
ENDBRANCH  11  12
ENDBRANCH   1  11
TORSDOF 14
ENDMDL
MODEL 8
REMARK VINA RESULT:    -4.114      2.972      5.616
REMARK INTER + INTRA:          -9.547
REMARK INTER:                  -7.444
REMARK INTRA:                  -2.103
REMARK UNBOUND:                -2.065
REMARK SMILES CCCCCCCCCCCCCCCC(=O)[O-]
REMARK SMILES IDX 9 1 10 2 11 3 12 4 13 5 14 6 15 7 16 8 17 9 18 10 8 11 7 12
REMARK SMILES IDX 6 13 5 14 4 15 3 16 2 17 1 18
REMARK H PARENT
REMARK Flexibility Score: inf
ROOT
ATOM      1  C   UNL     1      84.658 316.234 201.691  1.00  0.00     0.000 C 
ENDROOT
BRANCH   1   2
ATOM      2  C   UNL     1      84.508 314.912 202.461  1.00  0.00     0.000 C 
BRANCH   2   3
ATOM      3  C   UNL     1      85.761 314.022 202.369  1.00  0.00     0.000 C 
BRANCH   3   4
ATOM      4  C   UNL     1      87.105 314.778 202.310  1.00  0.00     0.000 C 
BRANCH   4   5
ATOM      5  C   UNL     1      87.888 314.827 203.634  1.00  0.00     0.000 C 
BRANCH   5   6
ATOM      6  C   UNL     1      88.873 316.006 203.703  1.00  0.00     0.006 C 
BRANCH   6   7
ATOM      7  C   UNL     1      89.826 316.035 202.501  1.00  0.00     0.053 C 
BRANCH   7   8
ATOM      8  C   UNL     1      91.212 316.441 202.897  1.00  0.00     0.041 C 
ATOM      9  O   UNL     1      91.475 316.704 204.102  1.00  0.00    -0.550 OA
ATOM     10  O   UNL     1      92.220 316.500 201.944  1.00  0.00    -0.550 OA
ENDBRANCH   7   8
ENDBRANCH   6   7
ENDBRANCH   5   6
ENDBRANCH   4   5
ENDBRANCH   3   4
ENDBRANCH   2   3
ENDBRANCH   1   2
BRANCH   1  11
ATOM     11  C   UNL     1      84.481 317.472 202.589  1.00  0.00     0.000 C 
BRANCH  11  12
ATOM     12  C   UNL     1      85.733 317.895 203.384  1.00  0.00    -0.000 C 
BRANCH  12  13
ATOM     13  C   UNL     1      85.516 318.079 204.897  1.00  0.00    -0.000 C 
BRANCH  13  14
ATOM     14  C   UNL     1      84.987 316.811 205.581  1.00  0.00    -0.000 C 
BRANCH  14  15
ATOM     15  C   UNL     1      86.116 316.061 206.299  1.00  0.00    -0.000 C 
BRANCH  15  16
ATOM     16  C   UNL     1      85.576 314.823 207.030  1.00  0.00    -0.000 C 
BRANCH  16  17
ATOM     17  C   UNL     1      84.936 313.805 206.074  1.00  0.00    -0.003 C 
ATOM     18  C   UNL     1      83.875 312.940 206.754  1.00  0.00     0.004 C 
ENDBRANCH  16  17
ENDBRANCH  15  16
ENDBRANCH  14  15
ENDBRANCH  13  14
ENDBRANCH  12  13
ENDBRANCH  11  12
ENDBRANCH   1  11
TORSDOF 14
ENDMDL
MODEL 9
REMARK VINA RESULT:    -4.049      1.404      2.784
REMARK INTER + INTRA:          -9.428
REMARK INTER:                  -7.507
REMARK INTRA:                  -1.921
REMARK UNBOUND:                -2.065
REMARK SMILES CCCCCCCCCCCCCCCC(=O)[O-]
REMARK SMILES IDX 9 1 10 2 11 3 12 4 13 5 14 6 15 7 16 8 17 9 18 10 8 11 7 12
REMARK SMILES IDX 6 13 5 14 4 15 3 16 2 17 1 18
REMARK H PARENT
REMARK Flexibility Score: inf
ROOT
ATOM      1  C   UNL     1      85.114 316.844 205.709  1.00  0.00     0.000 C 
ENDROOT
BRANCH   1   2
ATOM      2  C   UNL     1      86.362 315.975 205.936  1.00  0.00     0.000 C 
BRANCH   2   3
ATOM      3  C   UNL     1      86.118 314.827 206.932  1.00  0.00     0.000 C 
BRANCH   3   4
ATOM      4  C   UNL     1      84.698 314.224 206.909  1.00  0.00     0.000 C 
BRANCH   4   5
ATOM      5  C   UNL     1      84.528 312.984 206.014  1.00  0.00     0.000 C 
BRANCH   5   6
ATOM      6  C   UNL     1      84.208 311.709 206.813  1.00  0.00     0.006 C 
BRANCH   6   7
ATOM      7  C   UNL     1      85.466 310.888 207.122  1.00  0.00     0.053 C 
BRANCH   7   8
ATOM      8  C   UNL     1      85.660 309.773 206.142  1.00  0.00     0.041 C 
ATOM      9  O   UNL     1      85.492 308.577 206.501  1.00  0.00    -0.550 OA
ATOM     10  O   UNL     1      85.997 310.054 204.824  1.00  0.00    -0.550 OA
ENDBRANCH   7   8
ENDBRANCH   6   7
ENDBRANCH   5   6
ENDBRANCH   4   5
ENDBRANCH   3   4
ENDBRANCH   2   3
ENDBRANCH   1   2
BRANCH   1  11
ATOM     11  C   UNL     1      85.413 318.122 204.904  1.00  0.00     0.000 C 
BRANCH  11  12
ATOM     12  C   UNL     1      85.698 317.906 203.405  1.00  0.00    -0.000 C 
BRANCH  12  13
ATOM     13  C   UNL     1      84.488 317.449 202.569  1.00  0.00    -0.000 C 
BRANCH  13  14
ATOM     14  C   UNL     1      84.753 316.148 201.799  1.00  0.00    -0.000 C 
BRANCH  14  15
ATOM     15  C   UNL     1      84.584 314.926 202.709  1.00  0.00    -0.000 C 
BRANCH  15  16
ATOM     16  C   UNL     1      85.851 314.059 202.707  1.00  0.00    -0.000 C 
BRANCH  16  17
ATOM     17  C   UNL     1      87.068 314.791 202.119  1.00  0.00    -0.003 C 
ATOM     18  C   UNL     1      88.280 314.764 203.048  1.00  0.00     0.004 C 
ENDBRANCH  16  17
ENDBRANCH  15  16
ENDBRANCH  14  15
ENDBRANCH  13  14
ENDBRANCH  12  13
ENDBRANCH  11  12
ENDBRANCH   1  11
TORSDOF 14
ENDMDL
