MODEL 1
REMARK VINA RESULT:    -7.224      0.000      0.000
REMARK INTER + INTRA:          -8.830
REMARK INTER:                  -8.702
REMARK INTRA:                  -0.128
REMARK UNBOUND:                -0.128
REMARK SMILES Oc1cc(O)c2cc(O)c(-c3ccc(O)c(O)c3)[o+]c2c1
REMARK SMILES IDX 10 1 19 2 20 3 21 4 2 5 3 6 4 7 6 8 7 9 8 10 11 11 12 12
REMARK SMILES IDX 13 13 14 14 18 15 16 16 15 17 17 19 9 21 1 23 5 25
REMARK H PARENT 15 18 17 20 9 22 1 24 5 26
REMARK Flexibility Score: inf
ROOT
ATOM      1  C   UNL     1      29.177 -36.324  13.431  1.00  0.00     0.402 A 
ATOM      2  O   UNL     1      28.663 -36.860  14.537  1.00  0.00    -0.202 OA
ATOM      3  C   UNL     1      28.236 -38.117  14.607  1.00  0.00     0.368 A 
ATOM      4  C   UNL     1      27.709 -38.587  15.812  1.00  0.00     0.162 A 
ATOM      5  C   UNL     1      27.250 -39.901  15.915  1.00  0.00     0.128 A 
ATOM      6  C   UNL     1      27.317 -40.751  14.806  1.00  0.00     0.093 A 
ATOM      7  C   UNL     1      27.841 -40.303  13.587  1.00  0.00     0.136 A 
ATOM      8  C   UNL     1      28.312 -38.969  13.480  1.00  0.00     0.125 A 
ATOM      9  C   UNL     1      28.864 -38.437  12.303  1.00  0.00     0.078 A 
ATOM     10  C   UNL     1      29.310 -37.113  12.274  1.00  0.00     0.223 A 
ENDROOT
BRANCH   1  11
ATOM     11  C   UNL     1      29.609 -34.909  13.475  1.00  0.00     0.087 A 
ATOM     12  C   UNL     1      29.119 -33.965  12.556  1.00  0.00     0.022 A 
ATOM     13  C   UNL     1      29.524 -32.629  12.632  1.00  0.00     0.051 A 
ATOM     14  C   UNL     1      30.411 -32.215  13.633  1.00  0.00     0.157 A 
ATOM     15  C   UNL     1      30.482 -34.484  14.490  1.00  0.00     0.068 A 
ATOM     16  C   UNL     1      30.890 -33.147  14.568  1.00  0.00     0.158 A 
BRANCH  14  17
ATOM     17  O   UNL     1      30.814 -30.882  13.705  1.00  0.00    -0.504 OA
ATOM     18  H   UNL     1      31.530 -30.511  13.092  1.00  0.00     0.293 HD
ENDBRANCH  14  17
BRANCH  16  19
ATOM     19  O   UNL     1      31.769 -32.765  15.582  1.00  0.00    -0.504 OA
ATOM     20  H   UNL     1      32.764 -32.948  15.530  1.00  0.00     0.293 HD
ENDBRANCH  16  19
ENDBRANCH   1  11
BRANCH  10  21
ATOM     21  O   UNL     1      29.904 -36.600  11.121  1.00  0.00    -0.500 OA
ATOM     22  H   UNL     1      30.287 -37.206  10.404  1.00  0.00     0.294 HD
ENDBRANCH  10  21
BRANCH   5  23
ATOM     23  O   UNL     1      26.728 -40.352  17.125  1.00  0.00    -0.507 OA
ATOM     24  H   UNL     1      25.865 -40.883  17.165  1.00  0.00     0.293 HD
ENDBRANCH   5  23
BRANCH   7  25
ATOM     25  O   UNL     1      27.870 -41.212  12.526  1.00  0.00    -0.507 OA
ATOM     26  H   UNL     1      28.388 -41.074  11.671  1.00  0.00     0.293 HD
ENDBRANCH   7  25
TORSDOF 6
ENDMDL
MODEL 2
REMARK VINA RESULT:    -7.103      1.087      1.087
REMARK INTER + INTRA:          -8.685
REMARK INTER:                  -8.348
REMARK INTRA:                  -0.336
REMARK UNBOUND:                -0.128
REMARK SMILES Oc1cc(O)c2cc(O)c(-c3ccc(O)c(O)c3)[o+]c2c1
REMARK SMILES IDX 10 1 19 2 20 3 21 4 2 5 3 6 4 7 6 8 7 9 8 10 11 11 12 12
REMARK SMILES IDX 13 13 14 14 18 15 16 16 15 17 17 19 9 21 1 23 5 25
REMARK H PARENT 15 18 17 20 9 22 1 24 5 26
REMARK Flexibility Score: inf
ROOT
ATOM      1  C   UNL     1      29.404 -36.280  13.257  1.00  0.00     0.402 A 
ATOM      2  O   UNL     1      29.434 -36.966  14.398  1.00  0.00    -0.202 OA
ATOM      3  C   UNL     1      29.046 -38.233  14.498  1.00  0.00     0.368 A 
ATOM      4  C   UNL     1      29.112 -38.867  15.741  1.00  0.00     0.162 A 
ATOM      5  C   UNL     1      28.708 -40.196  15.877  1.00  0.00     0.128 A 
ATOM      6  C   UNL     1      28.233 -40.897  14.763  1.00  0.00     0.093 A 
ATOM      7  C   UNL     1      28.157 -40.284  13.507  1.00  0.00     0.136 A 
ATOM      8  C   UNL     1      28.570 -38.934  13.364  1.00  0.00     0.125 A 
ATOM      9  C   UNL     1      28.541 -38.242  12.142  1.00  0.00     0.078 A 
ATOM     10  C   UNL     1      28.967 -36.913  12.078  1.00  0.00     0.223 A 
ENDROOT
BRANCH   1  11
ATOM     11  C   UNL     1      29.854 -34.870  13.275  1.00  0.00     0.087 A 
ATOM     12  C   UNL     1      28.933 -33.808  13.304  1.00  0.00     0.022 A 
ATOM     13  C   UNL     1      29.383 -32.485  13.345  1.00  0.00     0.051 A 
ATOM     14  C   UNL     1      30.754 -32.205  13.371  1.00  0.00     0.157 A 
ATOM     15  C   UNL     1      31.228 -34.584  13.323  1.00  0.00     0.068 A 
ATOM     16  C   UNL     1      31.681 -33.261  13.363  1.00  0.00     0.158 A 
BRANCH  14  17
ATOM     17  O   UNL     1      31.199 -30.884  13.410  1.00  0.00    -0.504 OA
ATOM     18  H   UNL     1      31.346 -30.399  14.287  1.00  0.00     0.293 HD
ENDBRANCH  14  17
BRANCH  16  19
ATOM     19  O   UNL     1      33.054 -33.015  13.395  1.00  0.00    -0.504 OA
ATOM     20  H   UNL     1      33.455 -32.276  13.960  1.00  0.00     0.293 HD
ENDBRANCH  16  19
ENDBRANCH   1  11
BRANCH  10  21
ATOM     21  O   UNL     1      28.986 -36.242  10.855  1.00  0.00    -0.500 OA
ATOM     22  H   UNL     1      29.851 -35.923  10.436  1.00  0.00     0.294 HD
ENDBRANCH  10  21
BRANCH   5  23
ATOM     23  O   UNL     1      28.782 -40.810  17.125  1.00  0.00    -0.507 OA
ATOM     24  H   UNL     1      27.948 -41.095  17.626  1.00  0.00     0.293 HD
ENDBRANCH   5  23
BRANCH   7  25
ATOM     25  O   UNL     1      27.669 -41.051  12.445  1.00  0.00    -0.507 OA
ATOM     26  H   UNL     1      28.218 -41.338  11.649  1.00  0.00     0.293 HD
ENDBRANCH   7  25
TORSDOF 6
ENDMDL
MODEL 3
REMARK VINA RESULT:    -6.742      2.704      7.159
REMARK INTER + INTRA:          -8.250
REMARK INTER:                  -7.950
REMARK INTRA:                  -0.301
REMARK UNBOUND:                -0.128
REMARK SMILES Oc1cc(O)c2cc(O)c(-c3ccc(O)c(O)c3)[o+]c2c1
REMARK SMILES IDX 10 1 19 2 20 3 21 4 2 5 3 6 4 7 6 8 7 9 8 10 11 11 12 12
REMARK SMILES IDX 13 13 14 14 18 15 16 16 15 17 17 19 9 21 1 23 5 25
REMARK H PARENT 15 18 17 20 9 22 1 24 5 26
REMARK Flexibility Score: inf
ROOT
ATOM      1  C   UNL     1      30.717 -36.326  13.127  1.00  0.00     0.402 A 
ATOM      2  O   UNL     1      31.895 -36.276  13.747  1.00  0.00    -0.202 OA
ATOM      3  C   UNL     1      32.822 -35.362  13.480  1.00  0.00     0.368 A 
ATOM      4  C   UNL     1      34.029 -35.394  14.183  1.00  0.00     0.162 A 
ATOM      5  C   UNL     1      35.022 -34.449  13.922  1.00  0.00     0.128 A 
ATOM      6  C   UNL     1      34.808 -33.464  12.951  1.00  0.00     0.093 A 
ATOM      7  C   UNL     1      33.607 -33.410  12.233  1.00  0.00     0.136 A 
ATOM      8  C   UNL     1      32.594 -34.368  12.498  1.00  0.00     0.125 A 
ATOM      9  C   UNL     1      31.354 -34.385  11.838  1.00  0.00     0.078 A 
ATOM     10  C   UNL     1      30.403 -35.358  12.155  1.00  0.00     0.223 A 
ENDROOT
BRANCH   1  11
ATOM     11  C   UNL     1      29.771 -37.399  13.506  1.00  0.00     0.087 A 
ATOM     12  C   UNL     1      29.011 -37.322  14.686  1.00  0.00     0.022 A 
ATOM     13  C   UNL     1      28.107 -38.338  15.011  1.00  0.00     0.051 A 
ATOM     14  C   UNL     1      27.939 -39.435  14.157  1.00  0.00     0.157 A 
ATOM     15  C   UNL     1      29.583 -38.491  12.643  1.00  0.00     0.068 A 
ATOM     16  C   UNL     1      28.679 -39.509  12.966  1.00  0.00     0.158 A 
BRANCH  14  17
ATOM     17  O   UNL     1      27.037 -40.446  14.485  1.00  0.00    -0.504 OA
ATOM     18  H   UNL     1      26.858 -41.221  13.858  1.00  0.00     0.293 HD
ENDBRANCH  14  17
BRANCH  16  19
ATOM     19  O   UNL     1      28.529 -40.586  12.090  1.00  0.00    -0.504 OA
ATOM     20  H   UNL     1      27.659 -40.767  11.605  1.00  0.00     0.293 HD
ENDBRANCH  16  19
ENDBRANCH   1  11
BRANCH  10  21
ATOM     21  O   UNL     1      29.154 -35.344  11.535  1.00  0.00    -0.500 OA
ATOM     22  H   UNL     1      28.825 -34.537  11.018  1.00  0.00     0.294 HD
ENDBRANCH  10  21
BRANCH   5  23
ATOM     23  O   UNL     1      36.218 -34.497  14.633  1.00  0.00    -0.507 OA
ATOM     24  H   UNL     1      36.277 -34.937  15.544  1.00  0.00     0.293 HD
ENDBRANCH   5  23
BRANCH   7  25
ATOM     25  O   UNL     1      33.472 -32.399  11.278  1.00  0.00    -0.507 OA
ATOM     26  H   UNL     1      34.126 -32.232  10.528  1.00  0.00     0.293 HD
ENDBRANCH   7  25
TORSDOF 6
ENDMDL
MODEL 4
REMARK VINA RESULT:    -6.560      1.948      7.088
REMARK INTER + INTRA:          -8.031
REMARK INTER:                  -7.680
REMARK INTRA:                  -0.351
REMARK UNBOUND:                -0.128
REMARK SMILES Oc1cc(O)c2cc(O)c(-c3ccc(O)c(O)c3)[o+]c2c1
REMARK SMILES IDX 10 1 19 2 20 3 21 4 2 5 3 6 4 7 6 8 7 9 8 10 11 11 12 12
REMARK SMILES IDX 13 13 14 14 18 15 16 16 15 17 17 19 9 21 1 23 5 25
REMARK H PARENT 15 18 17 20 9 22 1 24 5 26
REMARK Flexibility Score: inf
ROOT
ATOM      1  C   UNL     1      28.755 -39.062  13.581  1.00  0.00     0.402 A 
ATOM      2  O   UNL     1      28.792 -38.062  14.459  1.00  0.00    -0.202 OA
ATOM      3  C   UNL     1      28.944 -36.789  14.109  1.00  0.00     0.368 A 
ATOM      4  C   UNL     1      28.974 -35.810  15.105  1.00  0.00     0.162 A 
ATOM      5  C   UNL     1      29.135 -34.465  14.768  1.00  0.00     0.128 A 
ATOM      6  C   UNL     1      29.268 -34.095  13.424  1.00  0.00     0.093 A 
ATOM      7  C   UNL     1      29.240 -35.058  12.407  1.00  0.00     0.136 A 
ATOM      8  C   UNL     1      29.074 -36.425  12.747  1.00  0.00     0.125 A 
ATOM      9  C   UNL     1      29.022 -37.457  11.795  1.00  0.00     0.078 A 
ATOM     10  C   UNL     1      28.852 -38.782  12.205  1.00  0.00     0.223 A 
ENDROOT
BRANCH   1  11
ATOM     11  C   UNL     1      28.591 -40.440  14.096  1.00  0.00     0.087 A 
ATOM     12  C   UNL     1      29.702 -41.224  14.454  1.00  0.00     0.022 A 
ATOM     13  C   UNL     1      29.521 -42.515  14.960  1.00  0.00     0.051 A 
ATOM     14  C   UNL     1      28.231 -43.034  15.129  1.00  0.00     0.157 A 
ATOM     15  C   UNL     1      27.299 -40.958  14.286  1.00  0.00     0.068 A 
ATOM     16  C   UNL     1      27.116 -42.249  14.792  1.00  0.00     0.158 A 
BRANCH  14  17
ATOM     17  O   UNL     1      28.055 -44.322  15.632  1.00  0.00    -0.504 OA
ATOM     18  H   UNL     1      28.680 -44.710  16.329  1.00  0.00     0.293 HD
ENDBRANCH  14  17
BRANCH  16  19
ATOM     19  O   UNL     1      25.818 -42.736  14.955  1.00  0.00    -0.504 OA
ATOM     20  H   UNL     1      25.302 -42.615  15.818  1.00  0.00     0.293 HD
ENDBRANCH  16  19
ENDBRANCH   1  11
BRANCH  10  21
ATOM     21  O   UNL     1      28.750 -39.800  11.257  1.00  0.00    -0.500 OA
ATOM     22  H   UNL     1      29.535 -40.063  10.672  1.00  0.00     0.294 HD
ENDBRANCH  10  21
BRANCH   5  23
ATOM     23  O   UNL     1      29.162 -33.504  15.775  1.00  0.00    -0.507 OA
ATOM     24  H   UNL     1      29.784 -32.705  15.728  1.00  0.00     0.293 HD
ENDBRANCH   5  23
BRANCH   7  25
ATOM     25  O   UNL     1      29.383 -34.608  11.092  1.00  0.00    -0.507 OA
ATOM     26  H   UNL     1      29.114 -33.690  10.770  1.00  0.00     0.293 HD
ENDBRANCH   7  25
TORSDOF 6
ENDMDL
MODEL 5
REMARK VINA RESULT:    -6.513      4.555      9.428
REMARK INTER + INTRA:          -7.974
REMARK INTER:                  -7.731
REMARK INTRA:                  -0.243
REMARK UNBOUND:                -0.128
REMARK SMILES Oc1cc(O)c2cc(O)c(-c3ccc(O)c(O)c3)[o+]c2c1
REMARK SMILES IDX 10 1 19 2 20 3 21 4 2 5 3 6 4 7 6 8 7 9 8 10 11 11 12 12
REMARK SMILES IDX 13 13 14 14 18 15 16 16 15 17 17 19 9 21 1 23 5 25
REMARK H PARENT 15 18 17 20 9 22 1 24 5 26
REMARK Flexibility Score: inf
ROOT
ATOM      1  C   UNL     1      29.194 -43.279  14.755  1.00  0.00     0.402 A 
ATOM      2  O   UNL     1      30.229 -42.442  14.810  1.00  0.00    -0.202 OA
ATOM      3  C   UNL     1      30.205 -41.217  14.296  1.00  0.00     0.368 A 
ATOM      4  C   UNL     1      31.343 -40.414  14.402  1.00  0.00     0.162 A 
ATOM      5  C   UNL     1      31.348 -39.125  13.869  1.00  0.00     0.128 A 
ATOM      6  C   UNL     1      30.208 -38.633  13.224  1.00  0.00     0.093 A 
ATOM      7  C   UNL     1      29.054 -39.418  13.105  1.00  0.00     0.136 A 
ATOM      8  C   UNL     1      29.045 -40.729  13.649  1.00  0.00     0.125 A 
ATOM      9  C   UNL     1      27.931 -41.582  13.588  1.00  0.00     0.078 A 
ATOM     10  C   UNL     1      27.995 -42.860  14.150  1.00  0.00     0.223 A 
ENDROOT
BRANCH   1  11
ATOM     11  C   UNL     1      29.347 -44.623  15.356  1.00  0.00     0.087 A 
ATOM     12  C   UNL     1      28.659 -44.983  16.528  1.00  0.00     0.022 A 
ATOM     13  C   UNL     1      28.802 -46.266  17.064  1.00  0.00     0.051 A 
ATOM     14  C   UNL     1      29.620 -47.210  16.431  1.00  0.00     0.157 A 
ATOM     15  C   UNL     1      30.150 -45.580  14.714  1.00  0.00     0.068 A 
ATOM     16  C   UNL     1      30.295 -46.864  15.249  1.00  0.00     0.158 A 
BRANCH  14  17
ATOM     17  O   UNL     1      29.762 -48.488  16.970  1.00  0.00    -0.504 OA
ATOM     18  H   UNL     1      30.186 -48.637  17.878  1.00  0.00     0.293 HD
ENDBRANCH  14  17
BRANCH  16  19
ATOM     19  O   UNL     1      31.113 -47.784  14.590  1.00  0.00    -0.504 OA
ATOM     20  H   UNL     1      32.102 -47.866  14.792  1.00  0.00     0.293 HD
ENDBRANCH  16  19
ENDBRANCH   1  11
BRANCH  10  21
ATOM     21  O   UNL     1      26.873 -43.688  14.134  1.00  0.00    -0.500 OA
ATOM     22  H   UNL     1      25.970 -43.370  14.466  1.00  0.00     0.294 HD
ENDBRANCH  10  21
BRANCH   5  23
ATOM     23  O   UNL     1      32.492 -38.339  13.984  1.00  0.00    -0.507 OA
ATOM     24  H   UNL     1      32.688 -37.807  14.825  1.00  0.00     0.293 HD
ENDBRANCH   5  23
BRANCH   7  25
ATOM     25  O   UNL     1      27.958 -38.856  12.444  1.00  0.00    -0.507 OA
ATOM     26  H   UNL     1      28.026 -38.154  11.723  1.00  0.00     0.293 HD
ENDBRANCH   7  25
TORSDOF 6
ENDMDL
MODEL 6
REMARK VINA RESULT:    -6.426      2.242      3.115
REMARK INTER + INTRA:          -7.869
REMARK INTER:                  -7.524
REMARK INTRA:                  -0.346
REMARK UNBOUND:                -0.128
REMARK SMILES Oc1cc(O)c2cc(O)c(-c3ccc(O)c(O)c3)[o+]c2c1
REMARK SMILES IDX 10 1 19 2 20 3 21 4 2 5 3 6 4 7 6 8 7 9 8 10 11 11 12 12
REMARK SMILES IDX 13 13 14 14 18 15 16 16 15 17 17 19 9 21 1 23 5 25
REMARK H PARENT 15 18 17 20 9 22 1 24 5 26
REMARK Flexibility Score: inf
ROOT
ATOM      1  C   UNL     1      29.636 -38.427  13.887  1.00  0.00     0.402 A 
ATOM      2  O   UNL     1      28.490 -39.073  14.086  1.00  0.00    -0.202 OA
ATOM      3  C   UNL     1      28.417 -40.385  14.286  1.00  0.00     0.368 A 
ATOM      4  C   UNL     1      27.166 -40.974  14.483  1.00  0.00     0.162 A 
ATOM      5  C   UNL     1      27.059 -42.349  14.692  1.00  0.00     0.128 A 
ATOM      6  C   UNL     1      28.210 -43.144  14.703  1.00  0.00     0.093 A 
ATOM      7  C   UNL     1      29.476 -42.578  14.509  1.00  0.00     0.136 A 
ATOM      8  C   UNL     1      29.589 -41.179  14.299  1.00  0.00     0.125 A 
ATOM      9  C   UNL     1      30.816 -40.523  14.107  1.00  0.00     0.078 A 
ATOM     10  C   UNL     1      30.849 -39.140  13.910  1.00  0.00     0.223 A 
ENDROOT
BRANCH   1  11
ATOM     11  C   UNL     1      29.586 -36.964  13.666  1.00  0.00     0.087 A 
ATOM     12  C   UNL     1      29.729 -36.057  14.731  1.00  0.00     0.022 A 
ATOM     13  C   UNL     1      29.701 -34.680  14.495  1.00  0.00     0.051 A 
ATOM     14  C   UNL     1      29.544 -34.189  13.193  1.00  0.00     0.157 A 
ATOM     15  C   UNL     1      29.450 -36.467  12.360  1.00  0.00     0.068 A 
ATOM     16  C   UNL     1      29.421 -35.088  12.120  1.00  0.00     0.158 A 
BRANCH  14  17
ATOM     17  O   UNL     1      29.515 -32.815  12.960  1.00  0.00    -0.504 OA
ATOM     18  H   UNL     1      28.847 -32.212  13.427  1.00  0.00     0.293 HD
ENDBRANCH  14  17
BRANCH  16  19
ATOM     19  O   UNL     1      29.270 -34.631  10.810  1.00  0.00    -0.504 OA
ATOM     20  H   UNL     1      28.975 -35.241  10.058  1.00  0.00     0.293 HD
ENDBRANCH  16  19
ENDBRANCH   1  11
BRANCH  10  21
ATOM     21  O   UNL     1      32.071 -38.482  13.770  1.00  0.00    -0.500 OA
ATOM     22  H   UNL     1      32.200 -37.526  14.081  1.00  0.00     0.294 HD
ENDBRANCH  10  21
BRANCH   5  23
ATOM     23  O   UNL     1      25.802 -42.918  14.887  1.00  0.00    -0.507 OA
ATOM     24  H   UNL     1      25.103 -42.472  15.469  1.00  0.00     0.293 HD
ENDBRANCH   5  23
BRANCH   7  25
ATOM     25  O   UNL     1      30.577 -43.439  14.531  1.00  0.00    -0.507 OA
ATOM     26  H   UNL     1      30.859 -44.024  13.758  1.00  0.00     0.293 HD
ENDBRANCH   7  25
TORSDOF 6
ENDMDL
MODEL 7
REMARK VINA RESULT:    -6.395      2.228      2.772
REMARK INTER + INTRA:          -7.831
REMARK INTER:                  -7.501
REMARK INTRA:                  -0.331
REMARK UNBOUND:                -0.128
REMARK SMILES Oc1cc(O)c2cc(O)c(-c3ccc(O)c(O)c3)[o+]c2c1
REMARK SMILES IDX 10 1 19 2 20 3 21 4 2 5 3 6 4 7 6 8 7 9 8 10 11 11 12 12
REMARK SMILES IDX 13 13 14 14 18 15 16 16 15 17 17 19 9 21 1 23 5 25
REMARK H PARENT 15 18 17 20 9 22 1 24 5 26
REMARK Flexibility Score: inf
ROOT
ATOM      1  C   UNL     1      30.973 -36.521  13.995  1.00  0.00     0.402 A 
ATOM      2  O   UNL     1      29.895 -37.179  13.574  1.00  0.00    -0.202 OA
ATOM      3  C   UNL     1      29.756 -38.496  13.683  1.00  0.00     0.368 A 
ATOM      4  C   UNL     1      28.587 -39.097  13.208  1.00  0.00     0.162 A 
ATOM      5  C   UNL     1      28.415 -40.478  13.306  1.00  0.00     0.128 A 
ATOM      6  C   UNL     1      29.417 -41.266  13.882  1.00  0.00     0.093 A 
ATOM      7  C   UNL     1      30.598 -40.688  14.366  1.00  0.00     0.136 A 
ATOM      8  C   UNL     1      30.775 -39.283  14.271  1.00  0.00     0.125 A 
ATOM      9  C   UNL     1      31.919 -38.616  14.739  1.00  0.00     0.078 A 
ATOM     10  C   UNL     1      32.021 -37.228  14.614  1.00  0.00     0.223 A 
ENDROOT
BRANCH   1  11
ATOM     11  C   UNL     1      31.014 -35.053  13.809  1.00  0.00     0.087 A 
ATOM     12  C   UNL     1      31.763 -34.467  12.773  1.00  0.00     0.022 A 
ATOM     13  C   UNL     1      31.768 -33.080  12.603  1.00  0.00     0.051 A 
ATOM     14  C   UNL     1      31.015 -32.260  13.453  1.00  0.00     0.157 A 
ATOM     15  C   UNL     1      30.245 -34.228  14.646  1.00  0.00     0.068 A 
ATOM     16  C   UNL     1      30.248 -32.839  14.478  1.00  0.00     0.158 A 
BRANCH  14  17
ATOM     17  O   UNL     1      31.024 -30.877  13.281  1.00  0.00    -0.504 OA
ATOM     18  H   UNL     1      30.285 -30.291  13.653  1.00  0.00     0.293 HD
ENDBRANCH  14  17
BRANCH  16  19
ATOM     19  O   UNL     1      29.482 -32.050  15.337  1.00  0.00    -0.504 OA
ATOM     20  H   UNL     1      29.605 -32.073  16.342  1.00  0.00     0.293 HD
ENDBRANCH  16  19
ENDBRANCH   1  11
BRANCH  10  21
ATOM     21  O   UNL     1      33.134 -36.559  15.124  1.00  0.00    -0.500 OA
ATOM     22  H   UNL     1      33.325 -36.525  16.119  1.00  0.00     0.294 HD
ENDBRANCH  10  21
BRANCH   5  23
ATOM     23  O   UNL     1      27.243 -41.059  12.828  1.00  0.00    -0.507 OA
ATOM     24  H   UNL     1      26.476 -40.495  12.480  1.00  0.00     0.293 HD
ENDBRANCH   5  23
BRANCH   7  25
ATOM     25  O   UNL     1      31.552 -41.544  14.924  1.00  0.00    -0.507 OA
ATOM     26  H   UNL     1      31.496 -41.930  15.855  1.00  0.00     0.293 HD
ENDBRANCH   7  25
TORSDOF 6
ENDMDL
MODEL 8
REMARK VINA RESULT:    -6.369      2.846      4.669
REMARK INTER + INTRA:          -7.800
REMARK INTER:                  -7.471
REMARK INTRA:                  -0.330
REMARK UNBOUND:                -0.128
REMARK SMILES Oc1cc(O)c2cc(O)c(-c3ccc(O)c(O)c3)[o+]c2c1
REMARK SMILES IDX 10 1 19 2 20 3 21 4 2 5 3 6 4 7 6 8 7 9 8 10 11 11 12 12
REMARK SMILES IDX 13 13 14 14 18 15 16 16 15 17 17 19 9 21 1 23 5 25
REMARK H PARENT 15 18 17 20 9 22 1 24 5 26
REMARK Flexibility Score: inf
ROOT
ATOM      1  C   UNL     1      29.130 -40.163  14.082  1.00  0.00     0.402 A 
ATOM      2  O   UNL     1      27.980 -40.585  14.605  1.00  0.00    -0.202 OA
ATOM      3  C   UNL     1      27.855 -41.735  15.258  1.00  0.00     0.368 A 
ATOM      4  C   UNL     1      26.605 -42.093  15.769  1.00  0.00     0.162 A 
ATOM      5  C   UNL     1      26.443 -43.297  16.457  1.00  0.00     0.128 A 
ATOM      6  C   UNL     1      27.538 -44.150  16.635  1.00  0.00     0.093 A 
ATOM      7  C   UNL     1      28.801 -43.814  16.133  1.00  0.00     0.136 A 
ATOM      8  C   UNL     1      28.970 -42.589  15.436  1.00  0.00     0.125 A 
ATOM      9  C   UNL     1      30.201 -42.164  14.909  1.00  0.00     0.078 A 
ATOM     10  C   UNL     1      30.291 -40.942  14.237  1.00  0.00     0.223 A 
ENDROOT
BRANCH   1  11
ATOM     11  C   UNL     1      29.139 -38.866  13.367  1.00  0.00     0.087 A 
ATOM     12  C   UNL     1      29.560 -37.684  14.001  1.00  0.00     0.022 A 
ATOM     13  C   UNL     1      29.583 -36.476  13.299  1.00  0.00     0.051 A 
ATOM     14  C   UNL     1      29.200 -36.433  11.953  1.00  0.00     0.157 A 
ATOM     15  C   UNL     1      28.777 -38.822  12.011  1.00  0.00     0.068 A 
ATOM     16  C   UNL     1      28.798 -37.614  11.306  1.00  0.00     0.158 A 
BRANCH  14  17
ATOM     17  O   UNL     1      29.222 -35.226  11.256  1.00  0.00    -0.504 OA
ATOM     18  H   UNL     1      30.090 -34.816  10.932  1.00  0.00     0.293 HD
ENDBRANCH  14  17
BRANCH  16  19
ATOM     19  O   UNL     1      28.417 -37.606   9.963  1.00  0.00    -0.504 OA
ATOM     20  H   UNL     1      28.314 -38.459   9.428  1.00  0.00     0.293 HD
ENDBRANCH  16  19
ENDBRANCH   1  11
BRANCH  10  21
ATOM     21  O   UNL     1      31.523 -40.496  13.758  1.00  0.00    -0.500 OA
ATOM     22  H   UNL     1      32.393 -40.743  14.215  1.00  0.00     0.294 HD
ENDBRANCH  10  21
BRANCH   5  23
ATOM     23  O   UNL     1      25.189 -43.636  16.959  1.00  0.00    -0.507 OA
ATOM     24  H   UNL     1      24.905 -44.603  17.066  1.00  0.00     0.293 HD
ENDBRANCH   5  23
BRANCH   7  25
ATOM     25  O   UNL     1      29.843 -44.720  16.350  1.00  0.00    -0.507 OA
ATOM     26  H   UNL     1      29.943 -45.284  17.181  1.00  0.00     0.293 HD
ENDBRANCH   7  25
TORSDOF 6
ENDMDL
MODEL 9
REMARK VINA RESULT:    -6.275      2.004      6.908
REMARK INTER + INTRA:          -7.687
REMARK INTER:                  -7.334
REMARK INTRA:                  -0.353
REMARK UNBOUND:                -0.128
REMARK SMILES Oc1cc(O)c2cc(O)c(-c3ccc(O)c(O)c3)[o+]c2c1
REMARK SMILES IDX 10 1 19 2 20 3 21 4 2 5 3 6 4 7 6 8 7 9 8 10 11 11 12 12
REMARK SMILES IDX 13 13 14 14 18 15 16 16 15 17 17 19 9 21 1 23 5 25
REMARK H PARENT 15 18 17 20 9 22 1 24 5 26
REMARK Flexibility Score: inf
ROOT
ATOM      1  C   UNL     1      30.325 -37.587  13.400  1.00  0.00     0.402 A 
ATOM      2  O   UNL     1      29.922 -36.721  14.327  1.00  0.00    -0.202 OA
ATOM      3  C   UNL     1      30.147 -35.413  14.251  1.00  0.00     0.368 A 
ATOM      4  C   UNL     1      29.685 -34.584  15.277  1.00  0.00     0.162 A 
ATOM      5  C   UNL     1      29.910 -33.208  15.225  1.00  0.00     0.128 A 
ATOM      6  C   UNL     1      30.601 -32.654  14.142  1.00  0.00     0.093 A 
ATOM      7  C   UNL     1      31.073 -33.464  13.101  1.00  0.00     0.136 A 
ATOM      8  C   UNL     1      30.844 -34.864  13.148  1.00  0.00     0.125 A 
ATOM      9  C   UNL     1      31.269 -35.750  12.146  1.00  0.00     0.078 A 
ATOM     10  C   UNL     1      31.003 -37.117  12.260  1.00  0.00     0.223 A 
ENDROOT
BRANCH   1  11
ATOM     11  C   UNL     1      30.023 -39.022  13.603  1.00  0.00     0.087 A 
ATOM     12  C   UNL     1      30.910 -39.866  14.292  1.00  0.00     0.022 A 
ATOM     13  C   UNL     1      30.591 -41.213  14.492  1.00  0.00     0.051 A 
ATOM     14  C   UNL     1      29.379 -41.730  14.020  1.00  0.00     0.157 A 
ATOM     15  C   UNL     1      28.798 -39.540  13.151  1.00  0.00     0.068 A 
ATOM     16  C   UNL     1      28.477 -40.888  13.349  1.00  0.00     0.158 A 
BRANCH  14  17
ATOM     17  O   UNL     1      29.065 -43.074  14.220  1.00  0.00    -0.504 OA
ATOM     18  H   UNL     1      29.700 -43.701  14.700  1.00  0.00     0.293 HD
ENDBRANCH  14  17
BRANCH  16  19
ATOM     19  O   UNL     1      27.258 -41.371  12.873  1.00  0.00    -0.504 OA
ATOM     20  H   UNL     1      26.421 -40.800  12.858  1.00  0.00     0.293 HD
ENDBRANCH  16  19
ENDBRANCH   1  11
BRANCH  10  21
ATOM     21  O   UNL     1      31.382 -37.991  11.240  1.00  0.00    -0.500 OA
ATOM     22  H   UNL     1      30.947 -37.962  10.325  1.00  0.00     0.294 HD
ENDBRANCH  10  21
BRANCH   5  23
ATOM     23  O   UNL     1      29.442 -32.398  16.257  1.00  0.00    -0.507 OA
ATOM     24  H   UNL     1      29.737 -31.432  16.349  1.00  0.00     0.293 HD
ENDBRANCH   5  23
BRANCH   7  25
ATOM     25  O   UNL     1      31.757 -32.836  12.056  1.00  0.00    -0.507 OA
ATOM     26  H   UNL     1      32.364 -32.039  12.170  1.00  0.00     0.293 HD
ENDBRANCH   7  25
TORSDOF 6
ENDMDL
