MODEL 1
REMARK VINA RESULT:    -3.555      0.000      0.000
REMARK INTER + INTRA:          -9.990
REMARK INTER:                  -8.127
REMARK INTRA:                  -1.863
REMARK UNBOUND:                -1.863
REMARK SMILES CCCCCCCCCCCCCCCCCCCCCCCC(=O)[O-]
REMARK SMILES IDX 13 1 14 2 15 3 16 4 17 5 18 6 19 7 20 8 21 9 22 10 23 11
REMARK SMILES IDX 24 12 25 13 26 14 12 15 11 16 10 17 9 18 8 19 7 20 6 21 5 22
REMARK SMILES IDX 4 23 3 24 2 25 1 26
REMARK H PARENT
REMARK Flexibility Score: inf
ROOT
ATOM      1  C   UNL     1      45.024  29.031   3.399  1.00  0.00     0.000 C 
ENDROOT
BRANCH   1   2
ATOM      2  C   UNL     1      44.086  28.227   2.487  1.00  0.00     0.000 C 
BRANCH   2   3
ATOM      3  C   UNL     1      44.025  26.734   2.859  1.00  0.00     0.000 C 
BRANCH   3   4
ATOM      4  C   UNL     1      44.731  26.364   4.179  1.00  0.00     0.000 C 
BRANCH   4   5
ATOM      5  C   UNL     1      46.134  25.743   4.021  1.00  0.00     0.000 C 
BRANCH   5   6
ATOM      6  C   UNL     1      47.111  26.045   5.171  1.00  0.00     0.000 C 
BRANCH   6   7
ATOM      7  C   UNL     1      47.124  27.528   5.568  1.00  0.00     0.000 C 
BRANCH   7   8
ATOM      8  C   UNL     1      46.931  27.691   7.082  1.00  0.00     0.000 C 
BRANCH   8   9
ATOM      9  C   UNL     1      45.499  27.375   7.543  1.00  0.00     0.000 C 
BRANCH   9  10
ATOM     10  C   UNL     1      45.363  26.949   9.018  1.00  0.00     0.006 C 
BRANCH  10  11
ATOM     11  C   UNL     1      45.711  28.059  10.028  1.00  0.00     0.053 C 
BRANCH  11  12
ATOM     12  C   UNL     1      44.793  29.240   9.924  1.00  0.00     0.041 C 
ATOM     13  O   UNL     1      44.594  29.795   8.812  1.00  0.00    -0.550 OA
ATOM     14  O   UNL     1      44.126  29.705  11.051  1.00  0.00    -0.550 OA
ENDBRANCH  11  12
ENDBRANCH  10  11
ENDBRANCH   9  10
ENDBRANCH   8   9
ENDBRANCH   7   8
ENDBRANCH   6   7
ENDBRANCH   5   6
ENDBRANCH   4   5
ENDBRANCH   3   4
ENDBRANCH   2   3
ENDBRANCH   1   2
BRANCH   1  15
ATOM     15  C   UNL     1      46.030  29.842   2.572  1.00  0.00     0.000 C 
BRANCH  15  16
ATOM     16  C   UNL     1      46.419  29.088   1.291  1.00  0.00     0.000 C 
BRANCH  16  17
ATOM     17  C   UNL     1      47.047  30.006   0.227  1.00  0.00     0.000 C 
BRANCH  17  18
ATOM     18  C   UNL     1      46.364  29.969  -1.157  1.00  0.00    -0.000 C 
BRANCH  18  19
ATOM     19  C   UNL     1      45.502  28.724  -1.435  1.00  0.00    -0.000 C 
BRANCH  19  20
ATOM     20  C   UNL     1      46.233  27.668  -2.282  1.00  0.00    -0.000 C 
BRANCH  20  21
ATOM     21  C   UNL     1      46.969  28.277  -3.489  1.00  0.00    -0.000 C 
BRANCH  21  22
ATOM     22  C   UNL     1      46.370  27.928  -4.867  1.00  0.00    -0.000 C 
BRANCH  22  23
ATOM     23  C   UNL     1      45.372  28.961  -5.424  1.00  0.00    -0.000 C 
BRANCH  23  24
ATOM     24  C   UNL     1      44.067  28.367  -5.992  1.00  0.00    -0.000 C 
BRANCH  24  25
ATOM     25  C   UNL     1      42.881  28.354  -5.011  1.00  0.00    -0.003 C 
ATOM     26  C   UNL     1      42.900  27.151  -4.070  1.00  0.00     0.004 C 
ENDBRANCH  24  25
ENDBRANCH  23  24
ENDBRANCH  22  23
ENDBRANCH  21  22
ENDBRANCH  20  21
ENDBRANCH  19  20
ENDBRANCH  18  19
ENDBRANCH  17  18
ENDBRANCH  16  17
ENDBRANCH  15  16
ENDBRANCH   1  15
TORSDOF 22
ENDMDL
MODEL 2
REMARK VINA RESULT:    -3.397      4.257     11.209
REMARK INTER + INTRA:          -9.629
REMARK INTER:                  -8.077
REMARK INTRA:                  -1.551
REMARK UNBOUND:                -1.863
REMARK SMILES CCCCCCCCCCCCCCCCCCCCCCCC(=O)[O-]
REMARK SMILES IDX 13 1 14 2 15 3 16 4 17 5 18 6 19 7 20 8 21 9 22 10 23 11
REMARK SMILES IDX 24 12 25 13 26 14 12 15 11 16 10 17 9 18 8 19 7 20 6 21 5 22
REMARK SMILES IDX 4 23 3 24 2 25 1 26
REMARK H PARENT
REMARK Flexibility Score: inf
ROOT
ATOM      1  C   UNL     1      44.563  27.484   1.073  1.00  0.00     0.000 C 
ENDROOT
BRANCH   1   2
ATOM      2  C   UNL     1      45.773  28.140   0.393  1.00  0.00     0.000 C 
BRANCH   2   3
ATOM      3  C   UNL     1      45.778  27.945  -1.135  1.00  0.00     0.000 C 
BRANCH   3   4
ATOM      4  C   UNL     1      44.962  28.987  -1.926  1.00  0.00     0.000 C 
BRANCH   4   5
ATOM      5  C   UNL     1      45.780  29.849  -2.911  1.00  0.00     0.000 C 
BRANCH   5   6
ATOM      6  C   UNL     1      47.125  29.239  -3.345  1.00  0.00     0.000 C 
BRANCH   6   7
ATOM      7  C   UNL     1      46.987  28.277  -4.534  1.00  0.00     0.000 C 
BRANCH   7   8
ATOM      8  C   UNL     1      46.283  28.962  -5.713  1.00  0.00     0.000 C 
BRANCH   8   9
ATOM      9  C   UNL     1      45.663  27.964  -6.705  1.00  0.00     0.000 C 
BRANCH   9  10
ATOM     10  C   UNL     1      44.138  27.775  -6.578  1.00  0.00     0.006 C 
BRANCH  10  11
ATOM     11  C   UNL     1      43.654  27.526  -5.136  1.00  0.00     0.053 C 
BRANCH  11  12
ATOM     12  C   UNL     1      42.576  28.481  -4.718  1.00  0.00     0.041 C 
ATOM     13  O   UNL     1      41.525  28.054  -4.172  1.00  0.00    -0.550 OA
ATOM     14  O   UNL     1      42.750  29.848  -4.894  1.00  0.00    -0.550 OA
ENDBRANCH  11  12
ENDBRANCH  10  11
ENDBRANCH   9  10
ENDBRANCH   8   9
ENDBRANCH   7   8
ENDBRANCH   6   7
ENDBRANCH   5   6
ENDBRANCH   4   5
ENDBRANCH   3   4
ENDBRANCH   2   3
ENDBRANCH   1   2
BRANCH   1  15
ATOM     15  C   UNL     1      44.591  27.719   2.588  1.00  0.00     0.000 C 
BRANCH  15  16
ATOM     16  C   UNL     1      44.226  29.174   2.923  1.00  0.00     0.000 C 
BRANCH  16  17
ATOM     17  C   UNL     1      45.434  30.125   2.850  1.00  0.00     0.000 C 
BRANCH  17  18
ATOM     18  C   UNL     1      46.432  30.010   4.020  1.00  0.00    -0.000 C 
BRANCH  18  19
ATOM     19  C   UNL     1      45.802  29.772   5.405  1.00  0.00    -0.000 C 
BRANCH  19  20
ATOM     20  C   UNL     1      46.175  28.405   6.004  1.00  0.00    -0.000 C 
BRANCH  20  21
ATOM     21  C   UNL     1      46.547  28.489   7.496  1.00  0.00    -0.000 C 
BRANCH  21  22
ATOM     22  C   UNL     1      45.490  29.158   8.399  1.00  0.00    -0.000 C 
BRANCH  22  23
ATOM     23  C   UNL     1      44.863  28.236   9.461  1.00  0.00    -0.000 C 
BRANCH  23  24
ATOM     24  C   UNL     1      45.266  26.751   9.356  1.00  0.00    -0.000 C 
BRANCH  24  25
ATOM     25  C   UNL     1      46.457  26.341  10.241  1.00  0.00    -0.003 C 
ATOM     26  C   UNL     1      46.783  27.375  11.318  1.00  0.00     0.004 C 
ENDBRANCH  24  25
ENDBRANCH  23  24
ENDBRANCH  22  23
ENDBRANCH  21  22
ENDBRANCH  20  21
ENDBRANCH  19  20
ENDBRANCH  18  19
ENDBRANCH  17  18
ENDBRANCH  16  17
ENDBRANCH  15  16
ENDBRANCH   1  15
TORSDOF 22
ENDMDL
MODEL 3
REMARK VINA RESULT:    -3.313      3.861     10.978
REMARK INTER + INTRA:          -9.436
REMARK INTER:                  -9.000
REMARK INTRA:                  -0.436
REMARK UNBOUND:                -1.863
REMARK SMILES CCCCCCCCCCCCCCCCCCCCCCCC(=O)[O-]
REMARK SMILES IDX 13 1 14 2 15 3 16 4 17 5 18 6 19 7 20 8 21 9 22 10 23 11
REMARK SMILES IDX 24 12 25 13 26 14 12 15 11 16 10 17 9 18 8 19 7 20 6 21 5 22
REMARK SMILES IDX 4 23 3 24 2 25 1 26
REMARK H PARENT
REMARK Flexibility Score: inf
ROOT
ATOM      1  C   UNL     1      45.212  28.360   0.355  1.00  0.00     0.000 C 
ENDROOT
BRANCH   1   2
ATOM      2  C   UNL     1      46.090  27.624  -0.668  1.00  0.00     0.000 C 
BRANCH   2   3
ATOM      3  C   UNL     1      46.034  28.259  -2.069  1.00  0.00     0.000 C 
BRANCH   3   4
ATOM      4  C   UNL     1      47.125  27.776  -3.046  1.00  0.00     0.000 C 
BRANCH   4   5
ATOM      5  C   UNL     1      46.643  27.506  -4.486  1.00  0.00     0.000 C 
BRANCH   5   6
ATOM      6  C   UNL     1      47.116  28.530  -5.532  1.00  0.00     0.000 C 
BRANCH   6   7
ATOM      7  C   UNL     1      46.220  28.566  -6.780  1.00  0.00     0.000 C 
BRANCH   7   8
ATOM      8  C   UNL     1      44.736  28.536  -6.388  1.00  0.00     0.000 C 
BRANCH   8   9
ATOM      9  C   UNL     1      43.928  29.688  -7.008  1.00  0.00     0.000 C 
BRANCH   9  10
ATOM     10  C   UNL     1      42.552  29.946  -6.364  1.00  0.00     0.006 C 
BRANCH  10  11
ATOM     11  C   UNL     1      41.953  28.719  -5.648  1.00  0.00     0.053 C 
BRANCH  11  12
ATOM     12  C   UNL     1      42.397  28.612  -4.220  1.00  0.00     0.041 C 
ATOM     13  O   UNL     1      42.895  27.539  -3.788  1.00  0.00    -0.550 OA
ATOM     14  O   UNL     1      42.297  29.710  -3.375  1.00  0.00    -0.550 OA
ENDBRANCH  11  12
ENDBRANCH  10  11
ENDBRANCH   9  10
ENDBRANCH   8   9
ENDBRANCH   7   8
ENDBRANCH   6   7
ENDBRANCH   5   6
ENDBRANCH   4   5
ENDBRANCH   3   4
ENDBRANCH   2   3
ENDBRANCH   1   2
BRANCH   1  15
ATOM     15  C   UNL     1      46.069  29.207   1.304  1.00  0.00     0.000 C 
BRANCH  15  16
ATOM     16  C   UNL     1      45.222  29.759   2.461  1.00  0.00     0.000 C 
BRANCH  16  17
ATOM     17  C   UNL     1      44.879  28.689   3.513  1.00  0.00     0.000 C 
BRANCH  17  18
ATOM     18  C   UNL     1      44.615  27.277   2.951  1.00  0.00    -0.000 C 
BRANCH  18  19
ATOM     19  C   UNL     1      44.859  26.118   3.935  1.00  0.00    -0.000 C 
BRANCH  19  20
ATOM     20  C   UNL     1      46.351  25.793   4.119  1.00  0.00    -0.000 C 
BRANCH  20  21
ATOM     21  C   UNL     1      46.906  26.282   5.470  1.00  0.00    -0.000 C 
BRANCH  21  22
ATOM     22  C   UNL     1      45.893  27.026   6.364  1.00  0.00    -0.000 C 
BRANCH  22  23
ATOM     23  C   UNL     1      46.426  27.439   7.749  1.00  0.00    -0.000 C 
BRANCH  23  24
ATOM     24  C   UNL     1      45.790  26.698   8.941  1.00  0.00    -0.000 C 
BRANCH  24  25
ATOM     25  C   UNL     1      44.983  27.590   9.902  1.00  0.00    -0.003 C 
ATOM     26  C   UNL     1      44.817  29.019   9.388  1.00  0.00     0.004 C 
ENDBRANCH  24  25
ENDBRANCH  23  24
ENDBRANCH  22  23
ENDBRANCH  21  22
ENDBRANCH  20  21
ENDBRANCH  19  20
ENDBRANCH  18  19
ENDBRANCH  17  18
ENDBRANCH  16  17
ENDBRANCH  15  16
ENDBRANCH   1  15
TORSDOF 22
ENDMDL
MODEL 4
REMARK VINA RESULT:    -3.281      3.987     11.318
REMARK INTER + INTRA:          -9.364
REMARK INTER:                  -8.179
REMARK INTRA:                  -1.185
REMARK UNBOUND:                -1.863
REMARK SMILES CCCCCCCCCCCCCCCCCCCCCCCC(=O)[O-]
REMARK SMILES IDX 13 1 14 2 15 3 16 4 17 5 18 6 19 7 20 8 21 9 22 10 23 11
REMARK SMILES IDX 24 12 25 13 26 14 12 15 11 16 10 17 9 18 8 19 7 20 6 21 5 22
REMARK SMILES IDX 4 23 3 24 2 25 1 26
REMARK H PARENT
REMARK Flexibility Score: inf
ROOT
ATOM      1  C   UNL     1      44.723  27.168   1.503  1.00  0.00     0.000 C 
ENDROOT
BRANCH   1   2
ATOM      2  C   UNL     1      45.107  28.403   0.677  1.00  0.00     0.000 C 
BRANCH   2   3
ATOM      3  C   UNL     1      45.948  28.053  -0.565  1.00  0.00     0.000 C 
BRANCH   3   4
ATOM      4  C   UNL     1      45.772  29.011  -1.761  1.00  0.00     0.000 C 
BRANCH   4   5
ATOM      5  C   UNL     1      46.862  28.909  -2.848  1.00  0.00     0.000 C 
BRANCH   5   6
ATOM      6  C   UNL     1      46.620  27.823  -3.911  1.00  0.00     0.000 C 
BRANCH   6   7
ATOM      7  C   UNL     1      46.662  28.373  -5.344  1.00  0.00     0.000 C 
BRANCH   7   8
ATOM      8  C   UNL     1      45.737  27.566  -6.267  1.00  0.00     0.000 C 
BRANCH   8   9
ATOM      9  C   UNL     1      44.815  28.454  -7.117  1.00  0.00     0.000 C 
BRANCH   9  10
ATOM     10  C   UNL     1      43.862  29.365  -6.319  1.00  0.00     0.006 C 
BRANCH  10  11
ATOM     11  C   UNL     1      42.640  28.634  -5.730  1.00  0.00     0.053 C 
BRANCH  11  12
ATOM     12  C   UNL     1      42.776  28.377  -4.259  1.00  0.00     0.041 C 
ATOM     13  O   UNL     1      42.435  29.256  -3.425  1.00  0.00    -0.550 OA
ATOM     14  O   UNL     1      43.244  27.149  -3.807  1.00  0.00    -0.550 OA
ENDBRANCH  11  12
ENDBRANCH  10  11
ENDBRANCH   9  10
ENDBRANCH   8   9
ENDBRANCH   7   8
ENDBRANCH   6   7
ENDBRANCH   5   6
ENDBRANCH   4   5
ENDBRANCH   3   4
ENDBRANCH   2   3
ENDBRANCH   1   2
BRANCH   1  15
ATOM     15  C   UNL     1      44.555  27.530   2.984  1.00  0.00     0.000 C 
BRANCH  15  16
ATOM     16  C   UNL     1      44.828  26.312   3.880  1.00  0.00     0.000 C 
BRANCH  16  17
ATOM     17  C   UNL     1      46.317  26.154   4.235  1.00  0.00     0.000 C 
BRANCH  17  18
ATOM     18  C   UNL     1      46.776  26.916   5.495  1.00  0.00    -0.000 C 
BRANCH  18  19
ATOM     19  C   UNL     1      47.073  28.413   5.290  1.00  0.00    -0.000 C 
BRANCH  19  20
ATOM     20  C   UNL     1      45.868  29.311   5.615  1.00  0.00    -0.000 C 
BRANCH  20  21
ATOM     21  C   UNL     1      46.000  30.018   6.976  1.00  0.00    -0.000 C 
BRANCH  21  22
ATOM     22  C   UNL     1      45.596  29.168   8.198  1.00  0.00    -0.000 C 
BRANCH  22  23
ATOM     23  C   UNL     1      44.523  29.799   9.106  1.00  0.00    -0.000 C 
BRANCH  23  24
ATOM     24  C   UNL     1      44.646  29.447  10.602  1.00  0.00    -0.000 C 
BRANCH  24  25
ATOM     25  C   UNL     1      46.073  29.110  11.072  1.00  0.00    -0.003 C 
ATOM     26  C   UNL     1      46.374  27.612  11.032  1.00  0.00     0.004 C 
ENDBRANCH  24  25
ENDBRANCH  23  24
ENDBRANCH  22  23
ENDBRANCH  21  22
ENDBRANCH  20  21
ENDBRANCH  19  20
ENDBRANCH  18  19
ENDBRANCH  17  18
ENDBRANCH  16  17
ENDBRANCH  15  16
ENDBRANCH   1  15
TORSDOF 22
ENDMDL
MODEL 5
REMARK VINA RESULT:    -2.922      1.714      2.501
REMARK INTER + INTRA:          -8.542
REMARK INTER:                  -7.028
REMARK INTRA:                  -1.514
REMARK UNBOUND:                -1.863
REMARK SMILES CCCCCCCCCCCCCCCCCCCCCCCC(=O)[O-]
REMARK SMILES IDX 13 1 14 2 15 3 16 4 17 5 18 6 19 7 20 8 21 9 22 10 23 11
REMARK SMILES IDX 24 12 25 13 26 14 12 15 11 16 10 17 9 18 8 19 7 20 6 21 5 22
REMARK SMILES IDX 4 23 3 24 2 25 1 26
REMARK H PARENT
REMARK Flexibility Score: inf
ROOT
ATOM      1  C   UNL     1      43.690  27.110   3.349  1.00  0.00     0.000 C 
ENDROOT
BRANCH   1   2
ATOM      2  C   UNL     1      44.877  26.176   3.073  1.00  0.00     0.000 C 
BRANCH   2   3
ATOM      3  C   UNL     1      45.623  25.762   4.355  1.00  0.00     0.000 C 
BRANCH   3   4
ATOM      4  C   UNL     1      46.613  26.811   4.898  1.00  0.00     0.000 C 
BRANCH   4   5
ATOM      5  C   UNL     1      45.965  28.069   5.514  1.00  0.00     0.000 C 
BRANCH   5   6
ATOM      6  C   UNL     1      46.938  29.005   6.252  1.00  0.00     0.000 C 
BRANCH   6   7
ATOM      7  C   UNL     1      46.227  29.944   7.238  1.00  0.00     0.000 C 
BRANCH   7   8
ATOM      8  C   UNL     1      47.030  30.079   8.540  1.00  0.00     0.000 C 
BRANCH   8   9
ATOM      9  C   UNL     1      46.748  28.945   9.539  1.00  0.00     0.000 C 
BRANCH   9  10
ATOM     10  C   UNL     1      45.262  28.573   9.708  1.00  0.00     0.006 C 
BRANCH  10  11
ATOM     11  C   UNL     1      44.940  27.103   9.375  1.00  0.00     0.053 C 
BRANCH  11  12
ATOM     12  C   UNL     1      46.144  26.215   9.465  1.00  0.00     0.041 C 
ATOM     13  O   UNL     1      46.438  25.651  10.551  1.00  0.00    -0.550 OA
ATOM     14  O   UNL     1      46.921  25.979   8.338  1.00  0.00    -0.550 OA
ENDBRANCH  11  12
ENDBRANCH  10  11
ENDBRANCH   9  10
ENDBRANCH   8   9
ENDBRANCH   7   8
ENDBRANCH   6   7
ENDBRANCH   5   6
ENDBRANCH   4   5
ENDBRANCH   3   4
ENDBRANCH   2   3
ENDBRANCH   1   2
BRANCH   1  15
ATOM     15  C   UNL     1      43.869  28.452   2.629  1.00  0.00     0.000 C 
BRANCH  15  16
ATOM     16  C   UNL     1      45.116  28.429   1.731  1.00  0.00     0.000 C 
BRANCH  16  17
ATOM     17  C   UNL     1      45.870  29.771   1.722  1.00  0.00     0.000 C 
BRANCH  17  18
ATOM     18  C   UNL     1      47.125  29.813   0.825  1.00  0.00    -0.000 C 
BRANCH  18  19
ATOM     19  C   UNL     1      46.854  29.803  -0.690  1.00  0.00    -0.000 C 
BRANCH  19  20
ATOM     20  C   UNL     1      46.245  28.478  -1.180  1.00  0.00    -0.000 C 
BRANCH  20  21
ATOM     21  C   UNL     1      46.487  28.228  -2.680  1.00  0.00    -0.000 C 
BRANCH  21  22
ATOM     22  C   UNL     1      46.013  29.357  -3.617  1.00  0.00    -0.000 C 
BRANCH  22  23
ATOM     23  C   UNL     1      45.287  28.885  -4.891  1.00  0.00    -0.000 C 
BRANCH  23  24
ATOM     24  C   UNL     1      43.831  29.373  -5.030  1.00  0.00    -0.000 C 
BRANCH  24  25
ATOM     25  C   UNL     1      42.791  28.526  -4.275  1.00  0.00    -0.003 C 
ATOM     26  C   UNL     1      43.242  27.082  -4.059  1.00  0.00     0.004 C 
ENDBRANCH  24  25
ENDBRANCH  23  24
ENDBRANCH  22  23
ENDBRANCH  21  22
ENDBRANCH  20  21
ENDBRANCH  19  20
ENDBRANCH  18  19
ENDBRANCH  17  18
ENDBRANCH  16  17
ENDBRANCH  15  16
ENDBRANCH   1  15
TORSDOF 22
ENDMDL
MODEL 6
REMARK VINA RESULT:    -2.847      1.621      3.535
REMARK INTER + INTRA:          -8.372
REMARK INTER:                  -7.071
REMARK INTRA:                  -1.301
REMARK UNBOUND:                -1.863
REMARK SMILES CCCCCCCCCCCCCCCCCCCCCCCC(=O)[O-]
REMARK SMILES IDX 13 1 14 2 15 3 16 4 17 5 18 6 19 7 20 8 21 9 22 10 23 11
REMARK SMILES IDX 24 12 25 13 26 14 12 15 11 16 10 17 9 18 8 19 7 20 6 21 5 22
REMARK SMILES IDX 4 23 3 24 2 25 1 26
REMARK H PARENT
REMARK Flexibility Score: inf
ROOT
ATOM      1  C   UNL     1      47.092  30.098  -1.596  1.00  0.00     0.000 C 
ENDROOT
BRANCH   1   2
ATOM      2  C   UNL     1      47.049  29.496  -0.185  1.00  0.00     0.000 C 
BRANCH   2   3
ATOM      3  C   UNL     1      45.628  29.090   0.249  1.00  0.00     0.000 C 
BRANCH   3   4
ATOM      4  C   UNL     1      45.442  28.896   1.767  1.00  0.00     0.000 C 
BRANCH   4   5
ATOM      5  C   UNL     1      45.667  27.457   2.276  1.00  0.00     0.000 C 
BRANCH   5   6
ATOM      6  C   UNL     1      45.291  27.223   3.750  1.00  0.00     0.000 C 
BRANCH   6   7
ATOM      7  C   UNL     1      46.462  27.478   4.711  1.00  0.00     0.000 C 
BRANCH   7   8
ATOM      8  C   UNL     1      46.424  28.914   5.251  1.00  0.00     0.000 C 
BRANCH   8   9
ATOM      9  C   UNL     1      45.691  29.031   6.597  1.00  0.00     0.000 C 
BRANCH   9  10
ATOM     10  C   UNL     1      46.297  28.204   7.748  1.00  0.00     0.006 C 
BRANCH  10  11
ATOM     11  C   UNL     1      45.268  27.357   8.524  1.00  0.00     0.053 C 
BRANCH  11  12
ATOM     12  C   UNL     1      45.790  26.890   9.849  1.00  0.00     0.041 C 
ATOM     13  O   UNL     1      46.049  25.672  10.037  1.00  0.00    -0.550 OA
ATOM     14  O   UNL     1      46.026  27.806  10.867  1.00  0.00    -0.550 OA
ENDBRANCH  11  12
ENDBRANCH  10  11
ENDBRANCH   9  10
ENDBRANCH   8   9
ENDBRANCH   7   8
ENDBRANCH   6   7
ENDBRANCH   5   6
ENDBRANCH   4   5
ENDBRANCH   3   4
ENDBRANCH   2   3
ENDBRANCH   1   2
BRANCH   1  15
ATOM     15  C   UNL     1      45.707  30.054  -2.254  1.00  0.00     0.000 C 
BRANCH  15  16
ATOM     16  C   UNL     1      45.742  29.230  -3.550  1.00  0.00     0.000 C 
BRANCH  16  17
ATOM     17  C   UNL     1      47.111  29.282  -4.253  1.00  0.00     0.000 C 
BRANCH  17  18
ATOM     18  C   UNL     1      47.121  29.993  -5.621  1.00  0.00    -0.000 C 
BRANCH  18  19
ATOM     19  C   UNL     1      45.986  29.594  -6.582  1.00  0.00    -0.000 C 
BRANCH  19  20
ATOM     20  C   UNL     1      45.728  28.077  -6.604  1.00  0.00    -0.000 C 
BRANCH  20  21
ATOM     21  C   UNL     1      44.239  27.728  -6.778  1.00  0.00    -0.000 C 
BRANCH  21  22
ATOM     22  C   UNL     1      43.322  28.918  -7.125  1.00  0.00    -0.000 C 
BRANCH  22  23
ATOM     23  C   UNL     1      42.600  29.557  -5.924  1.00  0.00    -0.000 C 
BRANCH  23  24
ATOM     24  C   UNL     1      41.892  28.562  -4.983  1.00  0.00    -0.000 C 
BRANCH  24  25
ATOM     25  C   UNL     1      42.722  28.121  -3.765  1.00  0.00    -0.003 C 
ATOM     26  C   UNL     1      43.088  26.638  -3.799  1.00  0.00     0.004 C 
ENDBRANCH  24  25
ENDBRANCH  23  24
ENDBRANCH  22  23
ENDBRANCH  21  22
ENDBRANCH  20  21
ENDBRANCH  19  20
ENDBRANCH  18  19
ENDBRANCH  17  18
ENDBRANCH  16  17
ENDBRANCH  15  16
ENDBRANCH   1  15
TORSDOF 22
ENDMDL
MODEL 7
REMARK VINA RESULT:    -2.814      1.397      3.300
REMARK INTER + INTRA:          -8.297
REMARK INTER:                  -6.692
REMARK INTRA:                  -1.605
REMARK UNBOUND:                -1.863
REMARK SMILES CCCCCCCCCCCCCCCCCCCCCCCC(=O)[O-]
REMARK SMILES IDX 13 1 14 2 15 3 16 4 17 5 18 6 19 7 20 8 21 9 22 10 23 11
REMARK SMILES IDX 24 12 25 13 26 14 12 15 11 16 10 17 9 18 8 19 7 20 6 21 5 22
REMARK SMILES IDX 4 23 3 24 2 25 1 26
REMARK H PARENT
REMARK Flexibility Score: inf
ROOT
ATOM      1  C   UNL     1      45.798  28.123  -0.668  1.00  0.00     0.000 C 
ENDROOT
BRANCH   1   2
ATOM      2  C   UNL     1      47.010  28.402   0.233  1.00  0.00     0.000 C 
BRANCH   2   3
ATOM      3  C   UNL     1      46.808  29.629   1.142  1.00  0.00     0.000 C 
BRANCH   3   4
ATOM      4  C   UNL     1      47.068  29.377   2.641  1.00  0.00     0.000 C 
BRANCH   4   5
ATOM      5  C   UNL     1      45.802  29.239   3.512  1.00  0.00     0.000 C 
BRANCH   5   6
ATOM      6  C   UNL     1      46.033  28.615   4.899  1.00  0.00     0.000 C 
BRANCH   6   7
ATOM      7  C   UNL     1      46.273  27.099   4.838  1.00  0.00     0.000 C 
BRANCH   7   8
ATOM      8  C   UNL     1      46.922  26.595   6.135  1.00  0.00     0.000 C 
BRANCH   8   9
ATOM      9  C   UNL     1      46.494  27.401   7.373  1.00  0.00     0.000 C 
BRANCH   9  10
ATOM     10  C   UNL     1      46.298  26.573   8.659  1.00  0.00     0.006 C 
BRANCH  10  11
ATOM     11  C   UNL     1      45.131  27.053   9.544  1.00  0.00     0.053 C 
BRANCH  11  12
ATOM     12  C   UNL     1      45.506  28.219  10.409  1.00  0.00     0.041 C 
ATOM     13  O   UNL     1      44.947  29.335  10.248  1.00  0.00    -0.550 OA
ATOM     14  O   UNL     1      46.445  28.062  11.420  1.00  0.00    -0.550 OA
ENDBRANCH  11  12
ENDBRANCH  10  11
ENDBRANCH   9  10
ENDBRANCH   8   9
ENDBRANCH   7   8
ENDBRANCH   6   7
ENDBRANCH   5   6
ENDBRANCH   4   5
ENDBRANCH   3   4
ENDBRANCH   2   3
ENDBRANCH   1   2
BRANCH   1  15
ATOM     15  C   UNL     1      46.245  27.743  -2.085  1.00  0.00     0.000 C 
BRANCH  15  16
ATOM     16  C   UNL     1      46.027  28.910  -3.059  1.00  0.00     0.000 C 
BRANCH  16  17
ATOM     17  C   UNL     1      44.944  29.894  -2.580  1.00  0.00     0.000 C 
BRANCH  17  18
ATOM     18  C   UNL     1      43.500  29.522  -2.976  1.00  0.00    -0.000 C 
BRANCH  18  19
ATOM     19  C   UNL     1      43.270  28.040  -3.322  1.00  0.00    -0.000 C 
BRANCH  19  20
ATOM     20  C   UNL     1      42.687  27.838  -4.731  1.00  0.00    -0.000 C 
BRANCH  20  21
ATOM     21  C   UNL     1      42.647  29.139  -5.553  1.00  0.00    -0.000 C 
BRANCH  21  22
ATOM     22  C   UNL     1      43.363  29.074  -6.918  1.00  0.00    -0.000 C 
BRANCH  22  23
ATOM     23  C   UNL     1      44.470  30.125  -7.125  1.00  0.00    -0.000 C 
BRANCH  23  24
ATOM     24  C   UNL     1      45.910  29.582  -7.038  1.00  0.00    -0.000 C 
BRANCH  24  25
ATOM     25  C   UNL     1      46.029  28.049  -7.117  1.00  0.00    -0.003 C 
ATOM     26  C   UNL     1      46.342  27.406  -5.766  1.00  0.00     0.004 C 
ENDBRANCH  24  25
ENDBRANCH  23  24
ENDBRANCH  22  23
ENDBRANCH  21  22
ENDBRANCH  20  21
ENDBRANCH  19  20
ENDBRANCH  18  19
ENDBRANCH  17  18
ENDBRANCH  16  17
ENDBRANCH  15  16
ENDBRANCH   1  15
TORSDOF 22
ENDMDL
MODEL 8
REMARK VINA RESULT:    -2.605      4.636     11.014
REMARK INTER + INTRA:          -7.817
REMARK INTER:                  -6.010
REMARK INTRA:                  -1.807
REMARK UNBOUND:                -1.863
REMARK SMILES CCCCCCCCCCCCCCCCCCCCCCCC(=O)[O-]
REMARK SMILES IDX 13 1 14 2 15 3 16 4 17 5 18 6 19 7 20 8 21 9 22 10 23 11
REMARK SMILES IDX 24 12 25 13 26 14 12 15 11 16 10 17 9 18 8 19 7 20 6 21 5 22
REMARK SMILES IDX 4 23 3 24 2 25 1 26
REMARK H PARENT
REMARK Flexibility Score: inf
ROOT
ATOM      1  C   UNL     1      46.991  26.236   3.018  1.00  0.00     0.000 C 
ENDROOT
BRANCH   1   2
ATOM      2  C   UNL     1      47.001  27.136   1.774  1.00  0.00     0.000 C 
BRANCH   2   3
ATOM      3  C   UNL     1      45.884  28.195   1.793  1.00  0.00     0.000 C 
BRANCH   3   4
ATOM      4  C   UNL     1      46.373  29.657   1.773  1.00  0.00     0.000 C 
BRANCH   4   5
ATOM      5  C   UNL     1      46.988  30.125   0.438  1.00  0.00     0.000 C 
BRANCH   5   6
ATOM      6  C   UNL     1      46.758  29.175  -0.751  1.00  0.00     0.000 C 
BRANCH   6   7
ATOM      7  C   UNL     1      47.125  29.810  -2.101  1.00  0.00     0.000 C 
BRANCH   7   8
ATOM      8  C   UNL     1      46.412  29.092  -3.255  1.00  0.00     0.000 C 
BRANCH   8   9
ATOM      9  C   UNL     1      44.887  29.283  -3.231  1.00  0.00     0.000 C 
BRANCH   9  10
ATOM     10  C   UNL     1      44.281  29.884  -4.515  1.00  0.00     0.006 C 
BRANCH  10  11
ATOM     11  C   UNL     1      42.747  30.025  -4.481  1.00  0.00     0.053 C 
BRANCH  11  12
ATOM     12  C   UNL     1      42.065  29.148  -5.489  1.00  0.00     0.041 C 
ATOM     13  O   UNL     1      41.065  29.572  -6.126  1.00  0.00    -0.550 OA
ATOM     14  O   UNL     1      42.559  27.877  -5.753  1.00  0.00    -0.550 OA
ENDBRANCH  11  12
ENDBRANCH  10  11
ENDBRANCH   9  10
ENDBRANCH   8   9
ENDBRANCH   7   8
ENDBRANCH   6   7
ENDBRANCH   5   6
ENDBRANCH   4   5
ENDBRANCH   3   4
ENDBRANCH   2   3
ENDBRANCH   1   2
BRANCH   1  15
ATOM     15  C   UNL     1      45.559  26.007   3.516  1.00  0.00     0.000 C 
BRANCH  15  16
ATOM     16  C   UNL     1      45.554  25.584   4.993  1.00  0.00     0.000 C 
BRANCH  16  17
ATOM     17  C   UNL     1      45.568  26.785   5.957  1.00  0.00     0.000 C 
BRANCH  17  18
ATOM     18  C   UNL     1      46.908  27.545   6.039  1.00  0.00    -0.000 C 
BRANCH  18  19
ATOM     19  C   UNL     1      46.863  29.013   5.578  1.00  0.00    -0.000 C 
BRANCH  19  20
ATOM     20  C   UNL     1      46.194  29.942   6.605  1.00  0.00    -0.000 C 
BRANCH  20  21
ATOM     21  C   UNL     1      47.034  30.125   7.882  1.00  0.00    -0.000 C 
BRANCH  21  22
ATOM     22  C   UNL     1      46.327  29.725   9.194  1.00  0.00    -0.000 C 
BRANCH  22  23
ATOM     23  C   UNL     1      45.035  28.907   9.016  1.00  0.00    -0.000 C 
BRANCH  23  24
ATOM     24  C   UNL     1      45.045  27.517   9.684  1.00  0.00    -0.000 C 
BRANCH  24  25
ATOM     25  C   UNL     1      46.316  27.197  10.490  1.00  0.00    -0.003 C 
ATOM     26  C   UNL     1      46.732  25.730  10.390  1.00  0.00     0.004 C 
ENDBRANCH  24  25
ENDBRANCH  23  24
ENDBRANCH  22  23
ENDBRANCH  21  22
ENDBRANCH  20  21
ENDBRANCH  19  20
ENDBRANCH  18  19
ENDBRANCH  17  18
ENDBRANCH  16  17
ENDBRANCH  15  16
ENDBRANCH   1  15
TORSDOF 22
ENDMDL
