MODEL 1
REMARK VINA RESULT:    -4.140      0.000      0.000
REMARK INTER + INTRA:          -5.682
REMARK INTER:                  -5.350
REMARK INTRA:                  -0.332
REMARK UNBOUND:                -0.332
REMARK SMILES CCOC(=O)C=Cc1ccc(O)c(O)c1
REMARK SMILES IDX 6 1 7 2 4 3 5 4 3 5 2 6 1 7 8 8 15 9 9 10 13 11 10 12 11 13
REMARK SMILES IDX 14 14 12 16
REMARK H PARENT 14 15 12 17
REMARK Flexibility Score: inf
ROOT
ATOM      1  C   UNL     1      -5.909  15.666  21.397  1.00  0.00     0.094 C 
ATOM      2  C   UNL     1      -5.136  16.289  22.298  1.00  0.00     0.016 C 
ENDROOT
BRANCH   1   3
ATOM      3  C   UNL     1      -7.376  15.624  21.512  1.00  0.00     0.330 C 
ATOM      4  O   UNL     1      -8.010  14.553  21.297  1.00  0.00    -0.247 OA
BRANCH   3   5
ATOM      5  O   UNL     1      -8.057  16.790  21.875  1.00  0.00    -0.463 OA
BRANCH   5   6
ATOM      6  C   UNL     1      -9.021  17.430  21.041  1.00  0.00     0.230 C 
ATOM      7  C   UNL     1      -8.391  17.859  19.720  1.00  0.00     0.049 C 
ENDBRANCH   5   6
ENDBRANCH   3   5
ENDBRANCH   1   3
BRANCH   2   8
ATOM      8  C   UNL     1      -3.655  16.340  22.220  1.00  0.00    -0.021 A 
ATOM      9  C   UNL     1      -3.007  15.585  21.229  1.00  0.00     0.058 A 
ATOM     10  C   UNL     1      -2.874  17.089  23.124  1.00  0.00     0.012 A 
ATOM     11  C   UNL     1      -1.609  15.592  21.121  1.00  0.00     0.157 A 
ATOM     12  C   UNL     1      -1.481  17.096  23.015  1.00  0.00     0.051 A 
ATOM     13  C   UNL     1      -0.844  16.354  22.018  1.00  0.00     0.157 A 
BRANCH  11  14
ATOM     14  O   UNL     1      -0.979  14.845  20.127  1.00  0.00    -0.504 OA
ATOM     15  H   UNL     1      -0.355  15.276  19.454  1.00  0.00     0.293 HD
ENDBRANCH  11  14
BRANCH  13  16
ATOM     16  O   UNL     1       0.548  16.384  21.936  1.00  0.00    -0.504 OA
ATOM     17  H   UNL     1       1.043  17.132  21.467  1.00  0.00     0.293 HD
ENDBRANCH  13  16
ENDBRANCH   2   8
TORSDOF 6
ENDMDL
MODEL 2
REMARK VINA RESULT:    -3.928      1.412      6.903
REMARK INTER + INTRA:          -5.408
REMARK INTER:                  -5.195
REMARK INTRA:                  -0.213
REMARK UNBOUND:                -0.332
REMARK SMILES CCOC(=O)C=Cc1ccc(O)c(O)c1
REMARK SMILES IDX 6 1 7 2 4 3 5 4 3 5 2 6 1 7 8 8 15 9 9 10 13 11 10 12 11 13
REMARK SMILES IDX 14 14 12 16
REMARK H PARENT 14 15 12 17
REMARK Flexibility Score: inf
ROOT
ATOM      1  C   UNL     1      -2.672  16.237  21.504  1.00  0.00     0.094 C 
ATOM      2  C   UNL     1      -3.736  16.882  22.002  1.00  0.00     0.016 C 
ENDROOT
BRANCH   1   3
ATOM      3  C   UNL     1      -1.303  16.766  21.623  1.00  0.00     0.330 C 
ATOM      4  O   UNL     1      -1.017  17.918  21.195  1.00  0.00    -0.247 OA
BRANCH   3   5
ATOM      5  O   UNL     1      -0.325  15.972  22.230  1.00  0.00    -0.463 OA
BRANCH   5   6
ATOM      6  C   UNL     1       1.057  16.020  21.880  1.00  0.00     0.230 C 
ATOM      7  C   UNL     1       1.923  16.181  23.123  1.00  0.00     0.049 C 
ENDBRANCH   5   6
ENDBRANCH   3   5
ENDBRANCH   1   3
BRANCH   2   8
ATOM      8  C   UNL     1      -5.130  16.385  21.888  1.00  0.00    -0.021 A 
ATOM      9  C   UNL     1      -6.185  17.293  22.076  1.00  0.00     0.058 A 
ATOM     10  C   UNL     1      -5.433  15.032  21.635  1.00  0.00     0.012 A 
ATOM     11  C   UNL     1      -7.519  16.870  21.989  1.00  0.00     0.157 A 
ATOM     12  C   UNL     1      -6.763  14.611  21.548  1.00  0.00     0.051 A 
ATOM     13  C   UNL     1      -7.808  15.522  21.721  1.00  0.00     0.157 A 
BRANCH  11  14
ATOM     14  O   UNL     1      -8.557  17.783  22.167  1.00  0.00    -0.504 OA
ATOM     15  H   UNL     1      -9.088  18.144  21.383  1.00  0.00     0.293 HD
ENDBRANCH  11  14
BRANCH  13  16
ATOM     16  O   UNL     1      -9.124  15.070  21.627  1.00  0.00    -0.504 OA
ATOM     17  H   UNL     1      -9.849  15.616  21.178  1.00  0.00     0.293 HD
ENDBRANCH  13  16
ENDBRANCH   2   8
TORSDOF 6
ENDMDL
MODEL 3
REMARK VINA RESULT:    -3.817      1.399      2.015
REMARK INTER + INTRA:          -5.265
REMARK INTER:                  -4.889
REMARK INTRA:                  -0.376
REMARK UNBOUND:                -0.332
REMARK SMILES CCOC(=O)C=Cc1ccc(O)c(O)c1
REMARK SMILES IDX 6 1 7 2 4 3 5 4 3 5 2 6 1 7 8 8 15 9 9 10 13 11 10 12 11 13
REMARK SMILES IDX 14 14 12 16
REMARK H PARENT 14 15 12 17
REMARK Flexibility Score: inf
ROOT
ATOM      1  C   UNL     1      -5.084  17.775  22.453  1.00  0.00     0.094 C 
ATOM      2  C   UNL     1      -4.395  16.650  22.691  1.00  0.00     0.016 C 
ENDROOT
BRANCH   1   3
ATOM      3  C   UNL     1      -6.515  17.905  22.776  1.00  0.00     0.330 C 
ATOM      4  O   UNL     1      -7.047  19.043  22.902  1.00  0.00    -0.247 OA
BRANCH   3   5
ATOM      5  O   UNL     1      -7.279  16.744  22.929  1.00  0.00    -0.463 OA
BRANCH   5   6
ATOM      6  C   UNL     1      -8.071  16.179  21.886  1.00  0.00     0.230 C 
ATOM      7  C   UNL     1      -7.610  14.762  21.566  1.00  0.00     0.049 C 
ENDBRANCH   5   6
ENDBRANCH   3   5
ENDBRANCH   1   3
BRANCH   2   8
ATOM      8  C   UNL     1      -2.956  16.479  22.368  1.00  0.00    -0.021 A 
ATOM      9  C   UNL     1      -2.603  15.654  21.288  1.00  0.00     0.058 A 
ATOM     10  C   UNL     1      -1.933  17.085  23.124  1.00  0.00     0.012 A 
ATOM     11  C   UNL     1      -1.258  15.454  20.948  1.00  0.00     0.157 A 
ATOM     12  C   UNL     1      -0.592  16.885  22.786  1.00  0.00     0.051 A 
ATOM     13  C   UNL     1      -0.248  16.074  21.701  1.00  0.00     0.157 A 
BRANCH  11  14
ATOM     14  O   UNL     1      -0.921  14.640  19.868  1.00  0.00    -0.504 OA
ATOM     15  H   UNL     1      -0.558  13.703  20.001  1.00  0.00     0.293 HD
ENDBRANCH  11  14
BRANCH  13  16
ATOM     16  O   UNL     1       1.099  15.896  21.388  1.00  0.00    -0.504 OA
ATOM     17  H   UNL     1       1.748  16.672  21.346  1.00  0.00     0.293 HD
ENDBRANCH  13  16
ENDBRANCH   2   8
TORSDOF 6
ENDMDL
MODEL 4
REMARK VINA RESULT:    -3.697     11.834     15.154
REMARK INTER + INTRA:          -5.109
REMARK INTER:                  -4.795
REMARK INTRA:                  -0.314
REMARK UNBOUND:                -0.332
REMARK SMILES CCOC(=O)C=Cc1ccc(O)c(O)c1
REMARK SMILES IDX 6 1 7 2 4 3 5 4 3 5 2 6 1 7 8 8 15 9 9 10 13 11 10 12 11 13
REMARK SMILES IDX 14 14 12 16
REMARK H PARENT 14 15 12 17
REMARK Flexibility Score: inf
ROOT
ATOM      1  C   UNL     1       9.801  15.141  20.720  1.00  0.00     0.094 C 
ATOM      2  C   UNL     1      10.166  14.469  19.618  1.00  0.00     0.016 C 
ENDROOT
BRANCH   1   3
ATOM      3  C   UNL     1       9.613  16.601  20.725  1.00  0.00     0.330 C 
ATOM      4  O   UNL     1      10.421  17.358  20.120  1.00  0.00    -0.247 OA
BRANCH   3   5
ATOM      5  O   UNL     1       8.514  17.135  21.406  1.00  0.00    -0.463 OA
BRANCH   5   6
ATOM      6  C   UNL     1       7.714  16.387  22.319  1.00  0.00     0.230 C 
ATOM      7  C   UNL     1       6.325  16.139  21.741  1.00  0.00     0.049 C 
ENDBRANCH   5   6
ENDBRANCH   3   5
ENDBRANCH   1   3
BRANCH   2   8
ATOM      8  C   UNL     1      10.378  13.000  19.580  1.00  0.00    -0.021 A 
ATOM      9  C   UNL     1      10.531  12.311  20.793  1.00  0.00     0.058 A 
ATOM     10  C   UNL     1      10.465  12.279  18.372  1.00  0.00     0.012 A 
ATOM     11  C   UNL     1      10.744  10.925  20.810  1.00  0.00     0.157 A 
ATOM     12  C   UNL     1      10.676  10.898  18.388  1.00  0.00     0.051 A 
ATOM     13  C   UNL     1      10.814  10.216  19.600  1.00  0.00     0.157 A 
BRANCH  11  14
ATOM     14  O   UNL     1      10.885  10.252  22.022  1.00  0.00    -0.504 OA
ATOM     15  H   UNL     1      11.797  10.005  22.389  1.00  0.00     0.293 HD
ENDBRANCH  11  14
BRANCH  13  16
ATOM     16  O   UNL     1      11.022   8.837  19.582  1.00  0.00    -0.504 OA
ATOM     17  H   UNL     1      11.615   8.374  20.260  1.00  0.00     0.293 HD
ENDBRANCH  13  16
ENDBRANCH   2   8
TORSDOF 6
ENDMDL
MODEL 5
REMARK VINA RESULT:    -3.593     13.080     15.470
REMARK INTER + INTRA:          -4.975
REMARK INTER:                  -4.655
REMARK INTRA:                  -0.320
REMARK UNBOUND:                -0.332
REMARK SMILES CCOC(=O)C=Cc1ccc(O)c(O)c1
REMARK SMILES IDX 6 1 7 2 4 3 5 4 3 5 2 6 1 7 8 8 15 9 9 10 13 11 10 12 11 13
REMARK SMILES IDX 14 14 12 16
REMARK H PARENT 14 15 12 17
REMARK Flexibility Score: inf
ROOT
ATOM      1  C   UNL     1      10.564  11.991  19.668  1.00  0.00     0.094 C 
ATOM      2  C   UNL     1      10.225  12.668  20.775  1.00  0.00     0.016 C 
ENDROOT
BRANCH   1   3
ATOM      3  C   UNL     1      10.873  10.551  19.689  1.00  0.00     0.330 C 
ATOM      4  O   UNL     1      11.124   9.929  18.620  1.00  0.00    -0.247 OA
BRANCH   3   5
ATOM      5  O   UNL     1      10.894   9.885  20.919  1.00  0.00    -0.463 OA
BRANCH   5   6
ATOM      6  C   UNL     1      10.413   8.555  21.102  1.00  0.00     0.230 C 
ATOM      7  C   UNL     1       9.006   8.567  21.690  1.00  0.00     0.049 C 
ENDBRANCH   5   6
ENDBRANCH   3   5
ENDBRANCH   1   3
BRANCH   2   8
ATOM      8  C   UNL     1       9.920  14.120  20.792  1.00  0.00    -0.021 A 
ATOM      9  C   UNL     1       8.839  14.571  21.567  1.00  0.00     0.058 A 
ATOM     10  C   UNL     1      10.650  15.057  20.033  1.00  0.00     0.012 A 
ATOM     11  C   UNL     1       8.504  15.932  21.609  1.00  0.00     0.157 A 
ATOM     12  C   UNL     1      10.316  16.413  20.075  1.00  0.00     0.051 A 
ATOM     13  C   UNL     1       9.249  16.857  20.860  1.00  0.00     0.157 A 
BRANCH  11  14
ATOM     14  O   UNL     1       7.435  16.367  22.390  1.00  0.00    -0.504 OA
ATOM     15  H   UNL     1       6.763  17.041  22.042  1.00  0.00     0.293 HD
ENDBRANCH  11  14
BRANCH  13  16
ATOM     16  O   UNL     1       8.942  18.217  20.881  1.00  0.00    -0.504 OA
ATOM     17  H   UNL     1       9.362  18.853  21.548  1.00  0.00     0.293 HD
ENDBRANCH  13  16
ENDBRANCH   2   8
TORSDOF 6
ENDMDL
MODEL 6
REMARK VINA RESULT:    -3.498     11.001     14.465
REMARK INTER + INTRA:          -4.852
REMARK INTER:                  -4.617
REMARK INTRA:                  -0.235
REMARK UNBOUND:                -0.332
REMARK SMILES CCOC(=O)C=Cc1ccc(O)c(O)c1
REMARK SMILES IDX 6 1 7 2 4 3 5 4 3 5 2 6 1 7 8 8 15 9 9 10 13 11 10 12 11 13
REMARK SMILES IDX 14 14 12 16
REMARK H PARENT 14 15 12 17
REMARK Flexibility Score: inf
ROOT
ATOM      1  C   UNL     1       8.719  15.055  21.164  1.00  0.00     0.094 C 
ATOM      2  C   UNL     1       9.964  14.627  20.910  1.00  0.00     0.016 C 
ENDROOT
BRANCH   1   3
ATOM      3  C   UNL     1       8.441  16.403  21.686  1.00  0.00     0.330 C 
ATOM      4  O   UNL     1       8.957  17.422  21.149  1.00  0.00    -0.247 OA
BRANCH   3   5
ATOM      5  O   UNL     1       7.585  16.537  22.784  1.00  0.00    -0.463 OA
BRANCH   5   6
ATOM      6  C   UNL     1       6.287  15.947  22.847  1.00  0.00     0.230 C 
ATOM      7  C   UNL     1       5.464  16.324  21.621  1.00  0.00     0.049 C 
ENDBRANCH   5   6
ENDBRANCH   3   5
ENDBRANCH   1   3
BRANCH   2   8
ATOM      8  C   UNL     1      10.282  13.271  20.396  1.00  0.00    -0.021 A 
ATOM      9  C   UNL     1      10.201  13.041  19.013  1.00  0.00     0.058 A 
ATOM     10  C   UNL     1      10.626  12.201  21.245  1.00  0.00     0.012 A 
ATOM     11  C   UNL     1      10.482  11.775  18.480  1.00  0.00     0.157 A 
ATOM     12  C   UNL     1      10.906  10.939  20.713  1.00  0.00     0.051 A 
ATOM     13  C   UNL     1      10.838  10.720  19.335  1.00  0.00     0.157 A 
BRANCH  11  14
ATOM     14  O   UNL     1      10.408  11.562  17.104  1.00  0.00    -0.504 OA
ATOM     15  H   UNL     1      10.259  12.327  16.455  1.00  0.00     0.293 HD
ENDBRANCH  11  14
BRANCH  13  16
ATOM     16  O   UNL     1      11.125   9.450  18.835  1.00  0.00    -0.504 OA
ATOM     17  H   UNL     1      11.730   8.803  19.326  1.00  0.00     0.293 HD
ENDBRANCH  13  16
ENDBRANCH   2   8
TORSDOF 6
ENDMDL
MODEL 7
REMARK VINA RESULT:    -3.259      9.325     13.690
REMARK INTER + INTRA:          -4.544
REMARK INTER:                  -4.372
REMARK INTRA:                  -0.172
REMARK UNBOUND:                -0.332
REMARK SMILES CCOC(=O)C=Cc1ccc(O)c(O)c1
REMARK SMILES IDX 6 1 7 2 4 3 5 4 3 5 2 6 1 7 8 8 15 9 9 10 13 11 10 12 11 13
REMARK SMILES IDX 14 14 12 16
REMARK H PARENT 14 15 12 17
REMARK Flexibility Score: inf
ROOT
ATOM      1  C   UNL     1       9.083  13.693  20.780  1.00  0.00     0.094 C 
ATOM      2  C   UNL     1       8.540  14.827  21.245  1.00  0.00     0.016 C 
ENDROOT
BRANCH   1   3
ATOM      3  C   UNL     1      10.470  13.628  20.289  1.00  0.00     0.330 C 
ATOM      4  O   UNL     1      11.066  14.671  19.900  1.00  0.00    -0.247 OA
BRANCH   3   5
ATOM      5  O   UNL     1      11.120  12.390  20.269  1.00  0.00    -0.463 OA
BRANCH   5   6
ATOM      6  C   UNL     1      10.947  11.426  19.232  1.00  0.00     0.230 C 
ATOM      7  C   UNL     1      10.597  12.109  17.915  1.00  0.00     0.049 C 
ENDBRANCH   5   6
ENDBRANCH   3   5
ENDBRANCH   1   3
BRANCH   2   8
ATOM      8  C   UNL     1       7.143  14.931  21.735  1.00  0.00    -0.021 A 
ATOM      9  C   UNL     1       6.339  15.979  21.258  1.00  0.00     0.058 A 
ATOM     10  C   UNL     1       6.605  14.041  22.686  1.00  0.00     0.012 A 
ATOM     11  C   UNL     1       5.016  16.127  21.698  1.00  0.00     0.157 A 
ATOM     12  C   UNL     1       5.287  14.188  23.125  1.00  0.00     0.051 A 
ATOM     13  C   UNL     1       4.488  15.224  22.635  1.00  0.00     0.157 A 
BRANCH  11  14
ATOM     14  O   UNL     1       4.226  17.166  21.209  1.00  0.00    -0.504 OA
ATOM     15  H   UNL     1       4.028  17.262  20.219  1.00  0.00     0.293 HD
ENDBRANCH  11  14
BRANCH  13  16
ATOM     16  O   UNL     1       3.176  15.343  23.092  1.00  0.00    -0.504 OA
ATOM     17  H   UNL     1       2.960  15.617  24.042  1.00  0.00     0.293 HD
ENDBRANCH  13  16
ENDBRANCH   2   8
TORSDOF 6
ENDMDL
MODEL 8
REMARK VINA RESULT:    -3.258      3.465      5.728
REMARK INTER + INTRA:          -4.542
REMARK INTER:                  -4.295
REMARK INTRA:                  -0.247
REMARK UNBOUND:                -0.332
REMARK SMILES CCOC(=O)C=Cc1ccc(O)c(O)c1
REMARK SMILES IDX 6 1 7 2 4 3 5 4 3 5 2 6 1 7 8 8 15 9 9 10 13 11 10 12 11 13
REMARK SMILES IDX 14 14 12 16
REMARK H PARENT 14 15 12 17
REMARK Flexibility Score: inf
ROOT
ATOM      1  C   UNL     1      -8.115  20.077  22.127  1.00  0.00     0.094 C 
ATOM      2  C   UNL     1      -8.656  18.983  21.571  1.00  0.00     0.016 C 
ENDROOT
BRANCH   1   3
ATOM      3  C   UNL     1      -8.760  21.398  22.053  1.00  0.00     0.330 C 
ATOM      4  O   UNL     1      -9.004  22.057  23.102  1.00  0.00    -0.247 OA
BRANCH   3   5
ATOM      5  O   UNL     1      -9.090  21.917  20.797  1.00  0.00    -0.463 OA
BRANCH   5   6
ATOM      6  C   UNL     1      -8.339  22.940  20.146  1.00  0.00     0.230 C 
ATOM      7  C   UNL     1      -9.125  24.245  20.109  1.00  0.00     0.049 C 
ENDBRANCH   5   6
ENDBRANCH   3   5
ENDBRANCH   1   3
BRANCH   2   8
ATOM      8  C   UNL     1      -8.028  17.639  21.615  1.00  0.00    -0.021 A 
ATOM      9  C   UNL     1      -6.630  17.546  21.513  1.00  0.00     0.058 A 
ATOM     10  C   UNL     1      -8.782  16.453  21.720  1.00  0.00     0.012 A 
ATOM     11  C   UNL     1      -5.990  16.299  21.540  1.00  0.00     0.157 A 
ATOM     12  C   UNL     1      -8.144  15.210  21.747  1.00  0.00     0.051 A 
ATOM     13  C   UNL     1      -6.752  15.126  21.660  1.00  0.00     0.157 A 
BRANCH  11  14
ATOM     14  O   UNL     1      -4.601  16.221  21.447  1.00  0.00    -0.504 OA
ATOM     15  H   UNL     1      -4.002  16.931  21.852  1.00  0.00     0.293 HD
ENDBRANCH  11  14
BRANCH  13  16
ATOM     16  O   UNL     1      -6.146  13.870  21.691  1.00  0.00    -0.504 OA
ATOM     17  H   UNL     1      -5.244  13.698  21.265  1.00  0.00     0.293 HD
ENDBRANCH  13  16
ENDBRANCH   2   8
TORSDOF 6
ENDMDL
MODEL 9
REMARK VINA RESULT:    -3.150      4.025      7.339
REMARK INTER + INTRA:          -4.403
REMARK INTER:                  -4.152
REMARK INTRA:                  -0.251
REMARK UNBOUND:                -0.332
REMARK SMILES CCOC(=O)C=Cc1ccc(O)c(O)c1
REMARK SMILES IDX 6 1 7 2 4 3 5 4 3 5 2 6 1 7 8 8 15 9 9 10 13 11 10 12 11 13
REMARK SMILES IDX 14 14 12 16
REMARK H PARENT 14 15 12 17
REMARK Flexibility Score: inf
ROOT
ATOM      1  C   UNL     1      -7.249  18.104  22.152  1.00  0.00     0.094 C 
ATOM      2  C   UNL     1      -8.137  19.022  22.561  1.00  0.00     0.016 C 
ENDROOT
BRANCH   1   3
ATOM      3  C   UNL     1      -7.104  16.799  22.818  1.00  0.00     0.330 C 
ATOM      4  O   UNL     1      -8.120  16.115  23.125  1.00  0.00    -0.247 OA
BRANCH   3   5
ATOM      5  O   UNL     1      -5.819  16.324  23.097  1.00  0.00    -0.463 OA
BRANCH   5   6
ATOM      6  C   UNL     1      -5.002  15.654  22.138  1.00  0.00     0.230 C 
ATOM      7  C   UNL     1      -3.651  16.347  22.003  1.00  0.00     0.049 C 
ENDBRANCH   5   6
ENDBRANCH   3   5
ENDBRANCH   1   3
BRANCH   2   8
ATOM      8  C   UNL     1      -8.301  20.352  21.922  1.00  0.00    -0.021 A 
ATOM      9  C   UNL     1      -7.783  21.481  22.576  1.00  0.00     0.058 A 
ATOM     10  C   UNL     1      -8.987  20.527  20.703  1.00  0.00     0.012 A 
ATOM     11  C   UNL     1      -7.921  22.760  22.019  1.00  0.00     0.157 A 
ATOM     12  C   UNL     1      -9.125  21.802  20.147  1.00  0.00     0.051 A 
ATOM     13  C   UNL     1      -8.594  22.920  20.797  1.00  0.00     0.157 A 
BRANCH  11  14
ATOM     14  O   UNL     1      -7.394  23.872  22.674  1.00  0.00    -0.504 OA
ATOM     15  H   UNL     1      -7.713  24.811  22.467  1.00  0.00     0.293 HD
ENDBRANCH  11  14
BRANCH  13  16
ATOM     16  O   UNL     1      -8.747  24.178  20.215  1.00  0.00    -0.504 OA
ATOM     17  H   UNL     1      -7.959  24.793  20.049  1.00  0.00     0.293 HD
ENDBRANCH  13  16
ENDBRANCH   2   8
TORSDOF 6
ENDMDL
