MODEL 1
REMARK VINA RESULT:    66.355      0.000      0.000
REMARK INTER + INTRA:          87.023
REMARK INTER:                  87.690
REMARK INTRA:                  -0.667
REMARK UNBOUND:                -0.667
REMARK SMILES CC[C@H](C=C[C@@H](C)[C@H]1CC[C@H]2C3=CC[C@H]4C[C@H](O)CC[C@]4(C)[C@@H]3CC[C@@]12C)C(C)C
REMARK SMILES IDX 6 1 7 2 5 3 4 4 3 5 2 6 1 7 28 8 29 9 30 10 8 11 9 12 26 13
REMARK SMILES IDX 10 14 11 15 25 16 27 17 12 18 24 19 23 20 13 21 21 22 14 23
REMARK SMILES IDX 15 24 20 25 22 26 16 27 19 28 17 29 18 30
REMARK H PARENT 18 31
REMARK Flexibility Score: inf
ROOT
ATOM      1  C   UNL     1     -28.683  27.144  -7.079  1.00  0.00     0.012 C 
ATOM      2  C   UNL     1     -27.614  26.158  -7.587  1.00  0.00     0.012 C 
ENDROOT
BRANCH   1   3
ATOM      3  C   UNL     1     -28.323  28.578  -7.427  1.00  0.00    -0.028 C 
ATOM      4  C   UNL     1     -27.108  29.118  -7.218  1.00  0.00    -0.027 C 
BRANCH   4   5
ATOM      5  C   UNL     1     -26.782  30.575  -7.508  1.00  0.00     0.014 C 
BRANCH   5   6
ATOM      6  C   UNL     1     -27.098  31.492  -6.290  1.00  0.00     0.004 C 
ATOM      7  C   UNL     1     -26.266  31.234  -5.029  1.00  0.00     0.004 C 
ENDBRANCH   5   6
BRANCH   5   8
ATOM      8  C   UNL     1     -25.362  30.751  -8.143  1.00  0.00    -0.011 C 
ATOM      9  C   UNL     1     -25.341  31.861  -9.208  1.00  0.00     0.008 C 
ATOM     10  C   UNL     1     -24.901  29.430  -8.794  1.00  0.00     0.008 C 
ENDBRANCH   5   8
ENDBRANCH   4   5
ENDBRANCH   1   3
BRANCH   1  11
ATOM     11  C   UNL     1     -28.975  27.010  -5.546  1.00  0.00     0.002 C 
ATOM     12  C   UNL     1     -28.206  28.069  -4.730  1.00  0.00     0.005 C 
ATOM     13  C   UNL     1     -30.459  27.149  -5.068  1.00  0.00    -0.023 C 
ATOM     14  C   UNL     1     -29.008  28.351  -3.465  1.00  0.00     0.009 C 
ATOM     15  C   UNL     1     -30.279  27.507  -3.566  1.00  0.00     0.021 C 
ATOM     16  C   UNL     1     -31.212  28.279  -5.846  1.00  0.00     0.008 C 
ATOM     17  C   UNL     1     -31.235  25.811  -5.180  1.00  0.00     0.012 C 
ATOM     18  C   UNL     1     -31.498  28.193  -2.966  1.00  0.00    -0.067 C 
ATOM     19  C   UNL     1     -32.479  28.788  -5.136  1.00  0.00     0.009 C 
ATOM     20  C   UNL     1     -32.103  29.355  -3.752  1.00  0.00     0.021 C 
ATOM     21  C   UNL     1     -32.126  27.619  -1.907  1.00  0.00    -0.027 C 
ATOM     22  C   UNL     1     -33.250  30.083  -2.961  1.00  0.00    -0.023 C 
ATOM     23  C   UNL     1     -33.440  28.111  -1.343  1.00  0.00     0.031 C 
ATOM     24  C   UNL     1     -34.184  28.980  -2.364  1.00  0.00     0.002 C 
ATOM     25  C   UNL     1     -34.072  31.092  -3.844  1.00  0.00     0.010 C 
ATOM     26  C   UNL     1     -32.576  30.930  -1.834  1.00  0.00     0.012 C 
ATOM     27  C   UNL     1     -35.499  29.565  -1.826  1.00  0.00     0.036 C 
ATOM     28  C   UNL     1     -35.472  30.581  -4.212  1.00  0.00     0.032 C 
ATOM     29  C   UNL     1     -36.306  30.293  -2.941  1.00  0.00     0.114 C 
BRANCH  29  30
ATOM     30  O   UNL     1     -37.429  29.528  -3.305  1.00  0.00    -0.393 OA
ATOM     31  H   UNL     1     -38.228  30.024  -2.983  1.00  0.00     0.210 HD
ENDBRANCH  29  30
ENDBRANCH   1  11
TORSDOF 6
ENDMDL
MODEL 2
REMARK VINA RESULT:    69.009      3.582      9.021
REMARK INTER + INTRA:          90.531
REMARK INTER:                  91.553
REMARK INTRA:                  -1.022
REMARK UNBOUND:                -0.667
REMARK SMILES CC[C@H](C=C[C@@H](C)[C@H]1CC[C@H]2C3=CC[C@H]4C[C@H](O)CC[C@]4(C)[C@@H]3CC[C@@]12C)C(C)C
REMARK SMILES IDX 6 1 7 2 5 3 4 4 3 5 2 6 1 7 28 8 29 9 30 10 8 11 9 12 26 13
REMARK SMILES IDX 10 14 11 15 25 16 27 17 12 18 24 19 23 20 13 21 21 22 14 23
REMARK SMILES IDX 15 24 20 25 22 26 16 27 19 28 17 29 18 30
REMARK H PARENT 18 31
REMARK Flexibility Score: inf
ROOT
ATOM      1  C   UNL     1     -29.752  32.583  -3.011  1.00  0.00     0.012 C 
ATOM      2  C   UNL     1     -29.904  33.682  -1.941  1.00  0.00     0.012 C 
ENDROOT
BRANCH   1   3
ATOM      3  C   UNL     1     -30.672  31.408  -2.730  1.00  0.00    -0.028 C 
ATOM      4  C   UNL     1     -31.965  31.362  -3.102  1.00  0.00    -0.027 C 
BRANCH   4   5
ATOM      5  C   UNL     1     -32.892  30.207  -2.754  1.00  0.00     0.014 C 
BRANCH   5   6
ATOM      6  C   UNL     1     -32.631  29.670  -1.317  1.00  0.00     0.004 C 
ATOM      7  C   UNL     1     -32.344  28.168  -1.209  1.00  0.00     0.004 C 
ENDBRANCH   5   6
BRANCH   5   8
ATOM      8  C   UNL     1     -34.386  30.519  -3.103  1.00  0.00    -0.011 C 
ATOM      9  C   UNL     1     -35.362  29.710  -2.232  1.00  0.00     0.008 C 
ATOM     10  C   UNL     1     -34.665  30.199  -4.587  1.00  0.00     0.008 C 
ENDBRANCH   5   8
ENDBRANCH   4   5
ENDBRANCH   1   3
BRANCH   1  11
ATOM     11  C   UNL     1     -28.277  32.092  -3.193  1.00  0.00     0.002 C 
ATOM     12  C   UNL     1     -28.166  30.562  -3.028  1.00  0.00     0.005 C 
ATOM     13  C   UNL     1     -27.568  32.392  -4.556  1.00  0.00    -0.023 C 
ATOM     14  C   UNL     1     -26.978  30.092  -3.860  1.00  0.00     0.009 C 
ATOM     15  C   UNL     1     -26.429  31.333  -4.564  1.00  0.00     0.021 C 
ATOM     16  C   UNL     1     -28.542  32.203  -5.767  1.00  0.00     0.008 C 
ATOM     17  C   UNL     1     -26.941  33.810  -4.587  1.00  0.00     0.012 C 
ATOM     18  C   UNL     1     -25.897  31.040  -5.959  1.00  0.00    -0.067 C 
ATOM     19  C   UNL     1     -27.830  32.015  -7.118  1.00  0.00     0.009 C 
ATOM     20  C   UNL     1     -26.925  30.767  -7.056  1.00  0.00     0.021 C 
ATOM     21  C   UNL     1     -24.583  31.255  -6.225  1.00  0.00    -0.027 C 
ATOM     22  C   UNL     1     -26.259  30.321  -8.408  1.00  0.00    -0.023 C 
ATOM     23  C   UNL     1     -23.981  31.169  -7.610  1.00  0.00     0.031 C 
ATOM     24  C   UNL     1     -25.065  31.292  -8.687  1.00  0.00     0.002 C 
ATOM     25  C   UNL     1     -27.260  30.304  -9.620  1.00  0.00     0.010 C 
ATOM     26  C   UNL     1     -25.765  28.850  -8.222  1.00  0.00     0.012 C 
ATOM     27  C   UNL     1     -24.525  31.147 -10.118  1.00  0.00     0.036 C 
ATOM     28  C   UNL     1     -27.053  31.468 -10.599  1.00  0.00     0.032 C 
ATOM     29  C   UNL     1     -25.620  31.450 -11.182  1.00  0.00     0.114 C 
BRANCH  29  30
ATOM     30  O   UNL     1     -25.369  32.690 -11.796  1.00  0.00    -0.393 OA
ATOM     31  H   UNL     1     -25.967  33.352 -11.357  1.00  0.00     0.210 HD
ENDBRANCH  29  30
ENDBRANCH   1  11
TORSDOF 6
ENDMDL
