MODEL 1
REMARK VINA RESULT:    -6.974      0.000      0.000
REMARK INTER + INTRA:         -12.115
REMARK INTER:                 -10.235
REMARK INTRA:                  -1.880
REMARK UNBOUND:                -1.880
REMARK SMILES O=c1c(O[C@@H]2O[C@@H](CO)[C@@H](O)[C@H](O)[C@H]2O)c(-c2ccc(O)c(O)c2)oc2cc(O)cc(O)c12
REMARK SMILES IDX 4 1 3 2 16 3 25 4 2 5 26 6 1 7 33 8 27 9 31 10 28 11 30 12
REMARK SMILES IDX 17 13 20 14 19 15 22 16 18 17 24 18 21 19 23 21 32 23 29 25
REMARK SMILES IDX 5 27 14 28 6 29 12 30 7 31 10 32 15 33 13 35 8 37 9 38 11 40
REMARK H PARENT 21 20 23 22 32 24 29 26 15 34 13 36 9 39 11 41
REMARK Flexibility Score: inf
ROOT
ATOM      1  O   UNL     1       0.175 -20.924  29.290  1.00  0.00    -0.454 OA
ENDROOT
BRANCH   1   2
ATOM      2  C   UNL     1      -0.121 -22.266  29.602  1.00  0.00     0.214 A 
ATOM      3  C   UNL     1       0.230 -23.276  28.674  1.00  0.00     0.180 A 
ATOM      4  O   UNL     1      -0.133 -24.535  28.901  1.00  0.00    -0.452 OA
ATOM      5  C   UNL     1      -0.829 -22.648  30.767  1.00  0.00     0.239 A 
ATOM      6  C   UNL     1      -0.773 -24.932  29.988  1.00  0.00     0.146 A 
ATOM      7  O   UNL     1      -1.274 -21.763  31.542  1.00  0.00    -0.285 OA
ATOM      8  C   UNL     1      -1.105 -24.014  31.011  1.00  0.00     0.111 A 
ATOM      9  C   UNL     1      -1.128 -26.279  30.100  1.00  0.00     0.094 A 
ATOM     10  C   UNL     1      -1.740 -24.509  32.189  1.00  0.00     0.134 A 
ATOM     11  C   UNL     1      -1.824 -26.738  31.221  1.00  0.00     0.123 A 
ATOM     12  C   UNL     1      -2.121 -25.854  32.257  1.00  0.00     0.093 A 
BRANCH   3  13
ATOM     13  C   UNL     1       0.976 -23.006  27.414  1.00  0.00     0.025 A 
ATOM     14  C   UNL     1       2.483 -22.376  25.111  1.00  0.00     0.157 A 
ATOM     15  C   UNL     1       3.125 -22.795  26.283  1.00  0.00     0.051 A 
ATOM     16  C   UNL     1       1.084 -22.259  25.089  1.00  0.00     0.158 A 
ATOM     17  C   UNL     1       2.379 -23.095  27.426  1.00  0.00     0.016 A 
ATOM     18  C   UNL     1       0.341 -22.566  26.235  1.00  0.00     0.062 A 
BRANCH  14  19
ATOM     19  O   UNL     1       3.230 -22.062  23.977  1.00  0.00    -0.504 OA
ATOM     20  H   UNL     1       3.329 -21.105  23.653  1.00  0.00     0.293 HD
ENDBRANCH  14  19
BRANCH  16  21
ATOM     21  O   UNL     1       0.414 -21.827  23.946  1.00  0.00    -0.504 OA
ATOM     22  H   UNL     1      -0.231 -22.427  23.441  1.00  0.00     0.293 HD
ENDBRANCH  16  21
ENDBRANCH   3  13
BRANCH  10  23
ATOM     23  O   UNL     1      -1.980 -23.729  33.325  1.00  0.00    -0.507 OA
ATOM     24  H   UNL     1      -2.409 -24.078  34.170  1.00  0.00     0.293 HD
ENDBRANCH  10  23
BRANCH  11  25
ATOM     25  O   UNL     1      -2.215 -28.071  31.316  1.00  0.00    -0.508 OA
ATOM     26  H   UNL     1      -1.583 -28.826  31.074  1.00  0.00     0.293 HD
ENDBRANCH  11  25
ENDBRANCH   1   2
BRANCH   1  27
ATOM     27  C   UNL     1      -0.714 -19.906  28.807  1.00  0.00     0.339 C 
ATOM     28  C   UNL     1      -0.614 -18.637  29.699  1.00  0.00     0.214 C 
ATOM     29  O   UNL     1      -0.380 -19.674  27.439  1.00  0.00    -0.332 OA
ATOM     30  C   UNL     1      -1.551 -17.525  29.171  1.00  0.00     0.180 C 
ATOM     31  C   UNL     1      -0.527 -18.328  27.002  1.00  0.00     0.179 C 
ATOM     32  C   UNL     1      -1.744 -17.616  27.637  1.00  0.00     0.177 C 
BRANCH  28  33
ATOM     33  O   UNL     1      -0.954 -18.945  31.025  1.00  0.00    -0.384 OA
ATOM     34  H   UNL     1      -1.148 -18.082  31.479  1.00  0.00     0.211 HD
ENDBRANCH  28  33
BRANCH  30  35
ATOM     35  O   UNL     1      -1.001 -16.276  29.507  1.00  0.00    -0.387 OA
ATOM     36  H   UNL     1      -0.635 -16.356  30.427  1.00  0.00     0.211 HD
ENDBRANCH  30  35
BRANCH  31  37
ATOM     37  C   UNL     1      -0.564 -18.295  25.465  1.00  0.00     0.191 C 
BRANCH  37  38
ATOM     38  O   UNL     1      -1.143 -19.459  24.938  1.00  0.00    -0.394 OA
ATOM     39  H   UNL     1      -0.485 -20.193  25.055  1.00  0.00     0.210 HD
ENDBRANCH  37  38
ENDBRANCH  31  37
BRANCH  32  40
ATOM     40  O   UNL     1      -2.921 -18.327  27.349  1.00  0.00    -0.387 OA
ATOM     41  H   UNL     1      -3.308 -17.915  26.534  1.00  0.00     0.211 HD
ENDBRANCH  32  40
ENDBRANCH   1  27
TORSDOF 12
ENDMDL
MODEL 2
REMARK VINA RESULT:    -6.688      1.775      5.025
REMARK INTER + INTRA:         -11.696
REMARK INTER:                 -10.574
REMARK INTRA:                  -1.122
REMARK UNBOUND:                -1.880
REMARK SMILES O=c1c(O[C@@H]2O[C@@H](CO)[C@@H](O)[C@H](O)[C@H]2O)c(-c2ccc(O)c(O)c2)oc2cc(O)cc(O)c12
REMARK SMILES IDX 4 1 3 2 16 3 25 4 2 5 26 6 1 7 33 8 27 9 31 10 28 11 30 12
REMARK SMILES IDX 17 13 20 14 19 15 22 16 18 17 24 18 21 19 23 21 32 23 29 25
REMARK SMILES IDX 5 27 14 28 6 29 12 30 7 31 10 32 15 33 13 35 8 37 9 38 11 40
REMARK H PARENT 21 20 23 22 32 24 29 26 15 34 13 36 9 39 11 41
REMARK Flexibility Score: inf
ROOT
ATOM      1  O   UNL     1       1.388 -21.732  27.104  1.00  0.00    -0.454 OA
ENDROOT
BRANCH   1   2
ATOM      2  C   UNL     1       0.574 -22.537  27.926  1.00  0.00     0.214 A 
ATOM      3  C   UNL     1      -0.585 -21.969  28.505  1.00  0.00     0.180 A 
ATOM      4  O   UNL     1      -1.309 -22.679  29.365  1.00  0.00    -0.452 OA
ATOM      5  C   UNL     1       0.906 -23.871  28.268  1.00  0.00     0.239 A 
ATOM      6  C   UNL     1      -1.044 -23.934  29.689  1.00  0.00     0.146 A 
ATOM      7  O   UNL     1       1.999 -24.359  27.881  1.00  0.00    -0.285 OA
ATOM      8  C   UNL     1       0.049 -24.618  29.110  1.00  0.00     0.111 A 
ATOM      9  C   UNL     1      -1.861 -24.568  30.630  1.00  0.00     0.094 A 
ATOM     10  C   UNL     1       0.251 -25.989  29.450  1.00  0.00     0.134 A 
ATOM     11  C   UNL     1      -1.605 -25.885  31.018  1.00  0.00     0.123 A 
ATOM     12  C   UNL     1      -0.557 -26.587  30.425  1.00  0.00     0.093 A 
BRANCH   3  13
ATOM     13  C   UNL     1      -1.044 -20.580  28.225  1.00  0.00     0.025 A 
ATOM     14  C   UNL     1      -1.818 -17.950  27.549  1.00  0.00     0.157 A 
ATOM     15  C   UNL     1      -2.050 -19.006  26.659  1.00  0.00     0.051 A 
ATOM     16  C   UNL     1      -1.187 -18.203  28.778  1.00  0.00     0.158 A 
ATOM     17  C   UNL     1      -1.656 -20.305  26.989  1.00  0.00     0.016 A 
ATOM     18  C   UNL     1      -0.798 -19.508  29.106  1.00  0.00     0.062 A 
BRANCH  14  19
ATOM     19  O   UNL     1      -2.198 -16.652  27.211  1.00  0.00    -0.504 OA
ATOM     20  H   UNL     1      -2.540 -16.423  26.283  1.00  0.00     0.293 HD
ENDBRANCH  14  19
BRANCH  16  21
ATOM     21  O   UNL     1      -0.923 -17.174  29.679  1.00  0.00    -0.504 OA
ATOM     22  H   UNL     1      -1.256 -16.226  29.526  1.00  0.00     0.293 HD
ENDBRANCH  16  21
ENDBRANCH   3  13
BRANCH  10  23
ATOM     23  O   UNL     1       1.201 -26.808  28.833  1.00  0.00    -0.507 OA
ATOM     24  H   UNL     1       1.178 -27.066  27.856  1.00  0.00     0.293 HD
ENDBRANCH  10  23
BRANCH  11  25
ATOM     25  O   UNL     1      -2.392 -26.505  31.985  1.00  0.00    -0.508 OA
ATOM     26  H   UNL     1      -2.103 -26.543  32.957  1.00  0.00     0.293 HD
ENDBRANCH  11  25
ENDBRANCH   1   2
BRANCH   1  27
ATOM     27  C   UNL     1       1.196 -21.389  25.725  1.00  0.00     0.339 C 
ATOM     28  C   UNL     1       2.332 -20.446  25.240  1.00  0.00     0.214 C 
ATOM     29  O   UNL     1       1.117 -22.614  24.997  1.00  0.00    -0.332 OA
ATOM     30  C   UNL     1       2.146 -20.091  23.746  1.00  0.00     0.180 C 
ATOM     31  C   UNL     1       1.675 -22.575  23.688  1.00  0.00     0.179 C 
ATOM     32  C   UNL     1       1.437 -21.226  22.970  1.00  0.00     0.177 C 
BRANCH  28  33
ATOM     33  O   UNL     1       2.346 -19.267  26.003  1.00  0.00    -0.384 OA
ATOM     34  H   UNL     1       2.638 -18.536  25.396  1.00  0.00     0.211 HD
ENDBRANCH  28  33
BRANCH  30  35
ATOM     35  O   UNL     1       3.410 -19.846  23.181  1.00  0.00    -0.387 OA
ATOM     36  H   UNL     1       3.457 -18.875  22.977  1.00  0.00     0.211 HD
ENDBRANCH  30  35
BRANCH  31  37
ATOM     37  C   UNL     1       1.152 -23.772  22.877  1.00  0.00     0.191 C 
BRANCH  37  38
ATOM     38  O   UNL     1      -0.249 -23.844  22.910  1.00  0.00    -0.394 OA
ATOM     39  H   UNL     1      -0.499 -24.343  23.731  1.00  0.00     0.210 HD
ENDBRANCH  37  38
ENDBRANCH  31  37
BRANCH  32  40
ATOM     40  O   UNL     1       0.059 -20.960  22.893  1.00  0.00    -0.387 OA
ATOM     41  H   UNL     1      -0.073 -20.375  22.103  1.00  0.00     0.211 HD
ENDBRANCH  32  40
ENDBRANCH   1  27
TORSDOF 12
ENDMDL
MODEL 3
REMARK VINA RESULT:    -6.604      2.176      7.010
REMARK INTER + INTRA:         -11.572
REMARK INTER:                  -9.667
REMARK INTRA:                  -1.905
REMARK UNBOUND:                -1.880
REMARK SMILES O=c1c(O[C@@H]2O[C@@H](CO)[C@@H](O)[C@H](O)[C@H]2O)c(-c2ccc(O)c(O)c2)oc2cc(O)cc(O)c12
REMARK SMILES IDX 4 1 3 2 16 3 25 4 2 5 26 6 1 7 33 8 27 9 31 10 28 11 30 12
REMARK SMILES IDX 17 13 20 14 19 15 22 16 18 17 24 18 21 19 23 21 32 23 29 25
REMARK SMILES IDX 5 27 14 28 6 29 12 30 7 31 10 32 15 33 13 35 8 37 9 38 11 40
REMARK H PARENT 21 20 23 22 32 24 29 26 15 34 13 36 9 39 11 41
REMARK Flexibility Score: inf
ROOT
ATOM      1  O   UNL     1      -1.522 -20.588  27.792  1.00  0.00    -0.454 OA
ENDROOT
BRANCH   1   2
ATOM      2  C   UNL     1      -1.017 -19.545  26.990  1.00  0.00     0.214 A 
ATOM      3  C   UNL     1       0.087 -19.806  26.145  1.00  0.00     0.180 A 
ATOM      4  O   UNL     1       0.644 -18.812  25.459  1.00  0.00    -0.452 OA
ATOM      5  C   UNL     1      -1.512 -18.219  27.049  1.00  0.00     0.239 A 
ATOM      6  C   UNL     1       0.194 -17.568  25.471  1.00  0.00     0.146 A 
ATOM      7  O   UNL     1      -2.402 -17.925  27.889  1.00  0.00    -0.285 OA
ATOM      8  C   UNL     1      -0.949 -17.217  26.224  1.00  0.00     0.111 A 
ATOM      9  C   UNL     1       0.882 -16.602  24.732  1.00  0.00     0.094 A 
ATOM     10  C   UNL     1      -1.427 -15.874  26.151  1.00  0.00     0.134 A 
ATOM     11  C   UNL     1       0.455 -15.272  24.733  1.00  0.00     0.123 A 
ATOM     12  C   UNL     1      -0.695 -14.917  25.437  1.00  0.00     0.093 A 
BRANCH   3  13
ATOM     13  C   UNL     1       0.700 -21.155  25.991  1.00  0.00     0.025 A 
ATOM     14  C   UNL     1       1.701 -23.781  25.721  1.00  0.00     0.157 A 
ATOM     15  C   UNL     1       0.692 -23.319  24.868  1.00  0.00     0.051 A 
ATOM     16  C   UNL     1       2.207 -22.936  26.722  1.00  0.00     0.158 A 
ATOM     17  C   UNL     1       0.188 -22.023  25.010  1.00  0.00     0.016 A 
ATOM     18  C   UNL     1       1.702 -21.637  26.857  1.00  0.00     0.062 A 
BRANCH  14  19
ATOM     19  O   UNL     1       2.191 -25.079  25.587  1.00  0.00    -0.504 OA
ATOM     20  H   UNL     1       1.622 -25.825  25.200  1.00  0.00     0.293 HD
ENDBRANCH  14  19
BRANCH  16  21
ATOM     21  O   UNL     1       3.198 -23.370  27.601  1.00  0.00    -0.504 OA
ATOM     22  H   UNL     1       3.497 -22.809  28.393  1.00  0.00     0.293 HD
ENDBRANCH  16  21
ENDBRANCH   3  13
BRANCH  10  23
ATOM     23  O   UNL     1      -2.626 -15.446  26.728  1.00  0.00    -0.507 OA
ATOM     24  H   UNL     1      -2.696 -15.030  27.647  1.00  0.00     0.293 HD
ENDBRANCH  10  23
BRANCH  11  25
ATOM     25  O   UNL     1       1.162 -14.300  24.031  1.00  0.00    -0.508 OA
ATOM     26  H   UNL     1       2.157 -14.162  24.175  1.00  0.00     0.293 HD
ENDBRANCH  11  25
ENDBRANCH   1   2
BRANCH   1  27
ATOM     27  C   UNL     1      -1.106 -20.979  29.108  1.00  0.00     0.339 C 
ATOM     28  C   UNL     1      -2.267 -20.781  30.121  1.00  0.00     0.214 C 
ATOM     29  O   UNL     1      -0.646 -22.327  29.018  1.00  0.00    -0.332 OA
ATOM     30  C   UNL     1      -1.835 -21.224  31.540  1.00  0.00     0.180 C 
ATOM     31  C   UNL     1      -0.907 -23.131  30.162  1.00  0.00     0.179 C 
ATOM     32  C   UNL     1      -0.776 -22.352  31.491  1.00  0.00     0.177 C 
BRANCH  28  33
ATOM     33  O   UNL     1      -2.664 -19.435  30.152  1.00  0.00    -0.384 OA
ATOM     34  H   UNL     1      -3.227 -19.284  29.346  1.00  0.00     0.211 HD
ENDBRANCH  28  33
BRANCH  30  35
ATOM     35  O   UNL     1      -2.972 -21.668  32.238  1.00  0.00    -0.387 OA
ATOM     36  H   UNL     1      -3.351 -20.880  32.709  1.00  0.00     0.211 HD
ENDBRANCH  30  35
BRANCH  31  37
ATOM     37  C   UNL     1      -0.008 -24.378  30.122  1.00  0.00     0.191 C 
BRANCH  37  38
ATOM     38  O   UNL     1       1.334 -24.039  29.897  1.00  0.00    -0.394 OA
ATOM     39  H   UNL     1       1.354 -23.417  29.123  1.00  0.00     0.210 HD
ENDBRANCH  37  38
ENDBRANCH  31  37
BRANCH  32  40
ATOM     40  O   UNL     1       0.511 -21.799  31.600  1.00  0.00    -0.387 OA
ATOM     41  H   UNL     1       1.007 -22.361  32.249  1.00  0.00     0.211 HD
ENDBRANCH  32  40
ENDBRANCH   1  27
TORSDOF 12
ENDMDL
MODEL 4
REMARK VINA RESULT:    -6.592      2.590      4.020
REMARK INTER + INTRA:         -11.556
REMARK INTER:                 -10.350
REMARK INTRA:                  -1.205
REMARK UNBOUND:                -1.880
REMARK SMILES O=c1c(O[C@@H]2O[C@@H](CO)[C@@H](O)[C@H](O)[C@H]2O)c(-c2ccc(O)c(O)c2)oc2cc(O)cc(O)c12
REMARK SMILES IDX 4 1 3 2 16 3 25 4 2 5 26 6 1 7 33 8 27 9 31 10 28 11 30 12
REMARK SMILES IDX 17 13 20 14 19 15 22 16 18 17 24 18 21 19 23 21 32 23 29 25
REMARK SMILES IDX 5 27 14 28 6 29 12 30 7 31 10 32 15 33 13 35 8 37 9 38 11 40
REMARK H PARENT 21 20 23 22 32 24 29 26 15 34 13 36 9 39 11 41
REMARK Flexibility Score: inf
ROOT
ATOM      1  O   UNL     1       1.729 -20.914  29.234  1.00  0.00    -0.454 OA
ENDROOT
BRANCH   1   2
ATOM      2  C   UNL     1       2.096 -22.271  29.134  1.00  0.00     0.214 A 
ATOM      3  C   UNL     1       1.848 -22.958  27.922  1.00  0.00     0.180 A 
ATOM      4  O   UNL     1       2.091 -24.262  27.841  1.00  0.00    -0.452 OA
ATOM      5  C   UNL     1       2.630 -23.007  30.220  1.00  0.00     0.239 A 
ATOM      6  C   UNL     1       2.611 -24.977  28.826  1.00  0.00     0.146 A 
ATOM      7  O   UNL     1       2.735 -22.462  31.349  1.00  0.00    -0.285 OA
ATOM      8  C   UNL     1       2.965 -24.372  30.053  1.00  0.00     0.111 A 
ATOM      9  C   UNL     1       2.792 -26.350  28.632  1.00  0.00     0.094 A 
ATOM     10  C   UNL     1       3.579 -25.178  31.057  1.00  0.00     0.134 A 
ATOM     11  C   UNL     1       3.318 -27.145  29.651  1.00  0.00     0.123 A 
ATOM     12  C   UNL     1       3.711 -26.557  30.853  1.00  0.00     0.093 A 
BRANCH   3  13
ATOM     13  C   UNL     1       1.293 -22.300  26.707  1.00  0.00     0.025 A 
ATOM     14  C   UNL     1       0.352 -20.922  24.429  1.00  0.00     0.157 A 
ATOM     15  C   UNL     1       1.704 -21.268  24.537  1.00  0.00     0.051 A 
ATOM     16  C   UNL     1      -0.535 -21.253  25.466  1.00  0.00     0.158 A 
ATOM     17  C   UNL     1       2.171 -21.939  25.670  1.00  0.00     0.016 A 
ATOM     18  C   UNL     1      -0.063 -21.930  26.597  1.00  0.00     0.062 A 
BRANCH  14  19
ATOM     19  O   UNL     1      -0.109 -20.238  23.305  1.00  0.00    -0.504 OA
ATOM     20  H   UNL     1       0.477 -19.572  22.810  1.00  0.00     0.293 HD
ENDBRANCH  14  19
BRANCH  16  21
ATOM     21  O   UNL     1      -1.883 -20.906  25.401  1.00  0.00    -0.504 OA
ATOM     22  H   UNL     1      -2.311 -20.281  26.077  1.00  0.00     0.293 HD
ENDBRANCH  16  21
ENDBRANCH   3  13
BRANCH  10  23
ATOM     23  O   UNL     1       4.106 -24.666  32.246  1.00  0.00    -0.507 OA
ATOM     24  H   UNL     1       3.665 -23.942  32.796  1.00  0.00     0.293 HD
ENDBRANCH  10  23
BRANCH  11  25
ATOM     25  O   UNL     1       3.461 -28.519  29.476  1.00  0.00    -0.508 OA
ATOM     26  H   UNL     1       3.127 -28.983  28.638  1.00  0.00     0.293 HD
ENDBRANCH  11  25
ENDBRANCH   1   2
BRANCH   1  27
ATOM     27  C   UNL     1       0.588 -20.348  29.895  1.00  0.00     0.339 C 
ATOM     28  C   UNL     1      -0.247 -19.501  28.895  1.00  0.00     0.214 C 
ATOM     29  O   UNL     1      -0.137 -21.430  30.477  1.00  0.00    -0.332 OA
ATOM     30  C   UNL     1      -1.494 -18.907  29.593  1.00  0.00     0.180 C 
ATOM     31  C   UNL     1      -1.551 -21.271  30.489  1.00  0.00     0.179 C 
ATOM     32  C   UNL     1      -1.992 -19.812  30.746  1.00  0.00     0.177 C 
BRANCH  28  33
ATOM     33  O   UNL     1       0.533 -18.462  28.365  1.00  0.00    -0.384 OA
ATOM     34  H   UNL     1       0.967 -18.007  29.135  1.00  0.00     0.211 HD
ENDBRANCH  28  33
BRANCH  30  35
ATOM     35  O   UNL     1      -2.513 -18.751  28.637  1.00  0.00    -0.387 OA
ATOM     36  H   UNL     1      -2.746 -17.785  28.615  1.00  0.00     0.211 HD
ENDBRANCH  30  35
BRANCH  31  37
ATOM     37  C   UNL     1      -2.163 -22.255  31.500  1.00  0.00     0.191 C 
BRANCH  37  38
ATOM     38  O   UNL     1      -1.319 -22.455  32.603  1.00  0.00    -0.394 OA
ATOM     39  H   UNL     1      -0.385 -22.359  32.279  1.00  0.00     0.210 HD
ENDBRANCH  37  38
ENDBRANCH  31  37
BRANCH  32  40
ATOM     40  O   UNL     1      -1.466 -19.358  31.967  1.00  0.00    -0.387 OA
ATOM     41  H   UNL     1      -2.116 -18.703  32.330  1.00  0.00     0.211 HD
ENDBRANCH  32  40
ENDBRANCH   1  27
TORSDOF 12
ENDMDL
MODEL 5
REMARK VINA RESULT:    -6.515      1.926      5.034
REMARK INTER + INTRA:         -11.441
REMARK INTER:                 -10.208
REMARK INTRA:                  -1.234
REMARK UNBOUND:                -1.880
REMARK SMILES O=c1c(O[C@@H]2O[C@@H](CO)[C@@H](O)[C@H](O)[C@H]2O)c(-c2ccc(O)c(O)c2)oc2cc(O)cc(O)c12
REMARK SMILES IDX 4 1 3 2 16 3 25 4 2 5 26 6 1 7 33 8 27 9 31 10 28 11 30 12
REMARK SMILES IDX 17 13 20 14 19 15 22 16 18 17 24 18 21 19 23 21 32 23 29 25
REMARK SMILES IDX 5 27 14 28 6 29 12 30 7 31 10 32 15 33 13 35 8 37 9 38 11 40
REMARK H PARENT 21 20 23 22 32 24 29 26 15 34 13 36 9 39 11 41
REMARK Flexibility Score: inf
ROOT
ATOM      1  O   UNL     1       1.977 -22.466  27.151  1.00  0.00    -0.454 OA
ENDROOT
BRANCH   1   2
ATOM      2  C   UNL     1       1.105 -23.291  27.889  1.00  0.00     0.214 A 
ATOM      3  C   UNL     1      -0.131 -22.759  28.326  1.00  0.00     0.180 A 
ATOM      4  O   UNL     1      -0.921 -23.485  29.111  1.00  0.00    -0.452 OA
ATOM      5  C   UNL     1       1.443 -24.607  28.287  1.00  0.00     0.239 A 
ATOM      6  C   UNL     1      -0.650 -24.726  29.483  1.00  0.00     0.146 A 
ATOM      7  O   UNL     1       2.589 -25.060  28.032  1.00  0.00    -0.285 OA
ATOM      8  C   UNL     1       0.524 -25.376  29.040  1.00  0.00     0.111 A 
ATOM      9  C   UNL     1      -1.545 -25.378  30.337  1.00  0.00     0.094 A 
ATOM     10  C   UNL     1       0.735 -26.734  29.422  1.00  0.00     0.134 A 
ATOM     11  C   UNL     1      -1.288 -26.680  30.771  1.00  0.00     0.123 A 
ATOM     12  C   UNL     1      -0.156 -27.350  30.310  1.00  0.00     0.093 A 
BRANCH   3  13
ATOM     13  C   UNL     1      -0.604 -21.391  27.975  1.00  0.00     0.025 A 
ATOM     14  C   UNL     1      -1.450 -18.828  27.146  1.00  0.00     0.157 A 
ATOM     15  C   UNL     1      -1.957 -19.975  26.524  1.00  0.00     0.051 A 
ATOM     16  C   UNL     1      -0.507 -18.957  28.179  1.00  0.00     0.158 A 
ATOM     17  C   UNL     1      -1.529 -21.243  26.927  1.00  0.00     0.016 A 
ATOM     18  C   UNL     1      -0.085 -20.230  28.582  1.00  0.00     0.062 A 
BRANCH  14  19
ATOM     19  O   UNL     1      -1.866 -17.564  26.732  1.00  0.00    -0.504 OA
ATOM     20  H   UNL     1      -1.268 -16.749  26.827  1.00  0.00     0.293 HD
ENDBRANCH  14  19
BRANCH  16  21
ATOM     21  O   UNL     1       0.034 -17.836  28.806  1.00  0.00    -0.504 OA
ATOM     22  H   UNL     1       1.037 -17.688  28.872  1.00  0.00     0.293 HD
ENDBRANCH  16  21
ENDBRANCH   3  13
BRANCH  10  23
ATOM     23  O   UNL     1       1.776 -27.525  28.927  1.00  0.00    -0.507 OA
ATOM     24  H   UNL     1       1.644 -28.312  28.306  1.00  0.00     0.293 HD
ENDBRANCH  10  23
BRANCH  11  25
ATOM     25  O   UNL     1      -2.156 -27.317  31.654  1.00  0.00    -0.508 OA
ATOM     26  H   UNL     1      -2.245 -27.014  32.619  1.00  0.00     0.293 HD
ENDBRANCH  11  25
ENDBRANCH   1   2
BRANCH   1  27
ATOM     27  C   UNL     1       2.020 -22.263  25.731  1.00  0.00     0.339 C 
ATOM     28  C   UNL     1       1.181 -23.350  25.005  1.00  0.00     0.214 C 
ATOM     29  O   UNL     1       1.570 -20.931  25.486  1.00  0.00    -0.332 OA
ATOM     30  C   UNL     1       1.201 -23.124  23.475  1.00  0.00     0.180 C 
ATOM     31  C   UNL     1       0.830 -20.756  24.283  1.00  0.00     0.179 C 
ATOM     32  C   UNL     1       1.357 -21.626  23.118  1.00  0.00     0.177 C 
BRANCH  28  33
ATOM     33  O   UNL     1       1.682 -24.628  25.296  1.00  0.00    -0.384 OA
ATOM     34  H   UNL     1       1.462 -25.207  24.518  1.00  0.00     0.211 HD
ENDBRANCH  28  33
BRANCH  30  35
ATOM     35  O   UNL     1       0.003 -23.620  22.931  1.00  0.00    -0.387 OA
ATOM     36  H   UNL     1      -0.073 -24.570  23.211  1.00  0.00     0.211 HD
ENDBRANCH  30  35
BRANCH  31  37
ATOM     37  C   UNL     1       0.787 -19.261  23.926  1.00  0.00     0.191 C 
BRANCH  37  38
ATOM     38  O   UNL     1       2.054 -18.668  24.037  1.00  0.00    -0.394 OA
ATOM     39  H   UNL     1       1.965 -17.726  23.733  1.00  0.00     0.210 HD
ENDBRANCH  37  38
ENDBRANCH  31  37
BRANCH  32  40
ATOM     40  O   UNL     1       2.711 -21.334  22.875  1.00  0.00    -0.387 OA
ATOM     41  H   UNL     1       3.217 -21.661  23.662  1.00  0.00     0.211 HD
ENDBRANCH  32  40
ENDBRANCH   1  27
TORSDOF 12
ENDMDL
MODEL 6
REMARK VINA RESULT:    -6.475      1.888      6.920
REMARK INTER + INTRA:         -11.383
REMARK INTER:                  -9.975
REMARK INTRA:                  -1.408
REMARK UNBOUND:                -1.880
REMARK SMILES O=c1c(O[C@@H]2O[C@@H](CO)[C@@H](O)[C@H](O)[C@H]2O)c(-c2ccc(O)c(O)c2)oc2cc(O)cc(O)c12
REMARK SMILES IDX 4 1 3 2 16 3 25 4 2 5 26 6 1 7 33 8 27 9 31 10 28 11 30 12
REMARK SMILES IDX 17 13 20 14 19 15 22 16 18 17 24 18 21 19 23 21 32 23 29 25
REMARK SMILES IDX 5 27 14 28 6 29 12 30 7 31 10 32 15 33 13 35 8 37 9 38 11 40
REMARK H PARENT 21 20 23 22 32 24 29 26 15 34 13 36 9 39 11 41
REMARK Flexibility Score: inf
ROOT
ATOM      1  O   UNL     1       0.166 -20.380  28.580  1.00  0.00    -0.454 OA
ENDROOT
BRANCH   1   2
ATOM      2  C   UNL     1      -0.299 -19.239  27.896  1.00  0.00     0.214 A 
ATOM      3  C   UNL     1      -0.003 -19.100  26.520  1.00  0.00     0.180 A 
ATOM      4  O   UNL     1      -0.342 -17.984  25.881  1.00  0.00    -0.452 OA
ATOM      5  C   UNL     1      -0.982 -18.180  28.542  1.00  0.00     0.239 A 
ATOM      6  C   UNL     1      -1.001 -16.985  26.446  1.00  0.00     0.146 A 
ATOM      7  O   UNL     1      -1.140 -18.211  29.790  1.00  0.00    -0.285 OA
ATOM      8  C   UNL     1      -1.410 -17.056  27.796  1.00  0.00     0.111 A 
ATOM      9  C   UNL     1      -1.274 -15.848  25.679  1.00  0.00     0.094 A 
ATOM     10  C   UNL     1      -2.171 -15.976  28.335  1.00  0.00     0.134 A 
ATOM     11  C   UNL     1      -1.949 -14.761  26.240  1.00  0.00     0.123 A 
ATOM     12  C   UNL     1      -2.396 -14.832  27.558  1.00  0.00     0.093 A 
BRANCH   3  13
ATOM     13  C   UNL     1       0.707 -20.141  25.726  1.00  0.00     0.025 A 
ATOM     14  C   UNL     1       2.115 -21.986  24.118  1.00  0.00     0.157 A 
ATOM     15  C   UNL     1       2.796 -20.945  24.760  1.00  0.00     0.051 A 
ATOM     16  C   UNL     1       0.723 -22.103  24.268  1.00  0.00     0.158 A 
ATOM     17  C   UNL     1       2.096 -20.025  25.545  1.00  0.00     0.016 A 
ATOM     18  C   UNL     1       0.028 -21.181  25.060  1.00  0.00     0.062 A 
BRANCH  14  19
ATOM     19  O   UNL     1       2.812 -22.894  23.322  1.00  0.00    -0.504 OA
ATOM     20  H   UNL     1       3.409 -22.585  22.561  1.00  0.00     0.293 HD
ENDBRANCH  14  19
BRANCH  16  21
ATOM     21  O   UNL     1       0.011 -23.115  23.628  1.00  0.00    -0.504 OA
ATOM     22  H   UNL     1      -0.963 -23.307  23.844  1.00  0.00     0.293 HD
ENDBRANCH  16  21
ENDBRANCH   3  13
BRANCH  10  23
ATOM     23  O   UNL     1      -2.756 -15.998  29.604  1.00  0.00    -0.507 OA
ATOM     24  H   UNL     1      -3.475 -16.650  29.886  1.00  0.00     0.293 HD
ENDBRANCH  10  23
BRANCH  11  25
ATOM     25  O   UNL     1      -2.186 -13.611  25.491  1.00  0.00    -0.508 OA
ATOM     26  H   UNL     1      -3.099 -13.419  25.092  1.00  0.00     0.293 HD
ENDBRANCH  11  25
ENDBRANCH   1   2
BRANCH   1  27
ATOM     27  C   UNL     1      -0.579 -21.533  28.997  1.00  0.00     0.339 C 
ATOM     28  C   UNL     1       0.336 -22.788  29.019  1.00  0.00     0.214 C 
ATOM     29  O   UNL     1      -1.157 -21.221  30.264  1.00  0.00    -0.332 OA
ATOM     30  C   UNL     1      -0.454 -24.031  29.491  1.00  0.00     0.180 C 
ATOM     31  C   UNL     1      -1.255 -22.316  31.168  1.00  0.00     0.179 C 
ATOM     32  C   UNL     1      -1.595 -23.650  30.465  1.00  0.00     0.177 C 
BRANCH  28  33
ATOM     33  O   UNL     1       0.866 -23.028  27.742  1.00  0.00    -0.384 OA
ATOM     34  H   UNL     1       1.656 -23.619  27.866  1.00  0.00     0.211 HD
ENDBRANCH  28  33
BRANCH  30  35
ATOM     35  O   UNL     1       0.436 -24.916  30.125  1.00  0.00    -0.387 OA
ATOM     36  H   UNL     1       1.025 -25.293  29.420  1.00  0.00     0.211 HD
ENDBRANCH  30  35
BRANCH  31  37
ATOM     37  C   UNL     1      -2.257 -21.966  32.281  1.00  0.00     0.191 C 
BRANCH  37  38
ATOM     38  O   UNL     1      -3.026 -23.080  32.651  1.00  0.00    -0.394 OA
ATOM     39  H   UNL     1      -2.921 -23.761  31.934  1.00  0.00     0.210 HD
ENDBRANCH  37  38
ENDBRANCH  31  37
BRANCH  32  40
ATOM     40  O   UNL     1      -2.803 -23.527  29.756  1.00  0.00    -0.387 OA
ATOM     41  H   UNL     1      -3.153 -24.446  29.631  1.00  0.00     0.211 HD
ENDBRANCH  32  40
ENDBRANCH   1  27
TORSDOF 12
ENDMDL
MODEL 7
REMARK VINA RESULT:    -6.393      2.002      2.321
REMARK INTER + INTRA:         -11.263
REMARK INTER:                  -9.612
REMARK INTRA:                  -1.651
REMARK UNBOUND:                -1.880
REMARK SMILES O=c1c(O[C@@H]2O[C@@H](CO)[C@@H](O)[C@H](O)[C@H]2O)c(-c2ccc(O)c(O)c2)oc2cc(O)cc(O)c12
REMARK SMILES IDX 4 1 3 2 16 3 25 4 2 5 26 6 1 7 33 8 27 9 31 10 28 11 30 12
REMARK SMILES IDX 17 13 20 14 19 15 22 16 18 17 24 18 21 19 23 21 32 23 29 25
REMARK SMILES IDX 5 27 14 28 6 29 12 30 7 31 10 32 15 33 13 35 8 37 9 38 11 40
REMARK H PARENT 21 20 23 22 32 24 29 26 15 34 13 36 9 39 11 41
REMARK Flexibility Score: inf
ROOT
ATOM      1  O   UNL     1       0.189 -19.024  28.754  1.00  0.00    -0.454 OA
ENDROOT
BRANCH   1   2
ATOM      2  C   UNL     1      -0.110 -20.393  28.906  1.00  0.00     0.214 A 
ATOM      3  C   UNL     1       0.077 -21.259  27.802  1.00  0.00     0.180 A 
ATOM      4  O   UNL     1      -0.296 -22.532  27.891  1.00  0.00    -0.452 OA
ATOM      5  C   UNL     1      -0.668 -20.933  30.090  1.00  0.00     0.239 A 
ATOM      6  C   UNL     1      -0.798 -23.076  28.988  1.00  0.00     0.146 A 
ATOM      7  O   UNL     1      -0.973 -20.166  31.039  1.00  0.00    -0.285 OA
ATOM      8  C   UNL     1      -0.956 -22.316  30.169  1.00  0.00     0.111 A 
ATOM      9  C   UNL     1      -1.183 -24.420  28.951  1.00  0.00     0.094 A 
ATOM     10  C   UNL     1      -1.445 -22.970  31.339  1.00  0.00     0.134 A 
ATOM     11  C   UNL     1      -1.737 -25.029  30.079  1.00  0.00     0.123 A 
ATOM     12  C   UNL     1      -1.861 -24.305  31.264  1.00  0.00     0.093 A 
BRANCH   3  13
ATOM     13  C   UNL     1       0.657 -20.817  26.503  1.00  0.00     0.025 A 
ATOM     14  C   UNL     1       1.809 -19.835  24.120  1.00  0.00     0.157 A 
ATOM     15  C   UNL     1       2.593 -19.999  25.269  1.00  0.00     0.051 A 
ATOM     16  C   UNL     1       0.441 -20.150  24.162  1.00  0.00     0.158 A 
ATOM     17  C   UNL     1       2.019 -20.474  26.451  1.00  0.00     0.016 A 
ATOM     18  C   UNL     1      -0.128 -20.630  25.347  1.00  0.00     0.062 A 
BRANCH  14  19
ATOM     19  O   UNL     1       2.380 -19.346  22.947  1.00  0.00    -0.504 OA
ATOM     20  H   UNL     1       2.310 -19.852  22.070  1.00  0.00     0.293 HD
ENDBRANCH  14  19
BRANCH  16  21
ATOM     21  O   UNL     1      -0.373 -19.980  23.043  1.00  0.00    -0.504 OA
ATOM     22  H   UNL     1      -0.956 -20.729  22.684  1.00  0.00     0.293 HD
ENDBRANCH  16  21
ENDBRANCH   3  13
BRANCH  10  23
ATOM     23  O   UNL     1      -1.502 -22.365  32.598  1.00  0.00    -0.507 OA
ATOM     24  H   UNL     1      -1.312 -21.387  32.766  1.00  0.00     0.293 HD
ENDBRANCH  10  23
BRANCH  11  25
ATOM     25  O   UNL     1      -2.160 -26.355  30.032  1.00  0.00    -0.508 OA
ATOM     26  H   UNL     1      -1.516 -27.108  29.814  1.00  0.00     0.293 HD
ENDBRANCH  11  25
ENDBRANCH   1   2
BRANCH   1  27
ATOM     27  C   UNL     1      -0.526 -18.036  27.999  1.00  0.00     0.339 C 
ATOM     28  C   UNL     1      -1.305 -17.089  28.953  1.00  0.00     0.214 C 
ATOM     29  O   UNL     1       0.430 -17.365  27.178  1.00  0.00    -0.332 OA
ATOM     30  C   UNL     1      -2.059 -16.004  28.148  1.00  0.00     0.180 C 
ATOM     31  C   UNL     1       0.175 -15.982  26.963  1.00  0.00     0.179 C 
ATOM     32  C   UNL     1      -1.331 -15.659  26.826  1.00  0.00     0.177 C 
BRANCH  28  33
ATOM     33  O   UNL     1      -2.221 -17.820  29.726  1.00  0.00    -0.384 OA
ATOM     34  H   UNL     1      -1.687 -18.367  30.361  1.00  0.00     0.211 HD
ENDBRANCH  28  33
BRANCH  30  35
ATOM     35  O   UNL     1      -2.172 -14.850  28.943  1.00  0.00    -0.387 OA
ATOM     36  H   UNL     1      -1.272 -14.669  29.324  1.00  0.00     0.211 HD
ENDBRANCH  30  35
BRANCH  31  37
ATOM     37  C   UNL     1       0.992 -15.498  25.753  1.00  0.00     0.191 C 
BRANCH  37  38
ATOM     38  O   UNL     1       1.001 -16.450  24.723  1.00  0.00    -0.394 OA
ATOM     39  H   UNL     1       1.600 -17.189  25.011  1.00  0.00     0.210 HD
ENDBRANCH  37  38
ENDBRANCH  31  37
BRANCH  32  40
ATOM     40  O   UNL     1      -1.887 -16.401  25.770  1.00  0.00    -0.387 OA
ATOM     41  H   UNL     1      -1.853 -15.820  24.967  1.00  0.00     0.211 HD
ENDBRANCH  32  40
ENDBRANCH   1  27
TORSDOF 12
ENDMDL
MODEL 8
REMARK VINA RESULT:    -6.391      2.395      7.954
REMARK INTER + INTRA:         -11.259
REMARK INTER:                  -9.817
REMARK INTRA:                  -1.442
REMARK UNBOUND:                -1.880
REMARK SMILES O=c1c(O[C@@H]2O[C@@H](CO)[C@@H](O)[C@H](O)[C@H]2O)c(-c2ccc(O)c(O)c2)oc2cc(O)cc(O)c12
REMARK SMILES IDX 4 1 3 2 16 3 25 4 2 5 26 6 1 7 33 8 27 9 31 10 28 11 30 12
REMARK SMILES IDX 17 13 20 14 19 15 22 16 18 17 24 18 21 19 23 21 32 23 29 25
REMARK SMILES IDX 5 27 14 28 6 29 12 30 7 31 10 32 15 33 13 35 8 37 9 38 11 40
REMARK H PARENT 21 20 23 22 32 24 29 26 15 34 13 36 9 39 11 41
REMARK Flexibility Score: inf
ROOT
ATOM      1  O   UNL     1       1.299 -19.632  26.354  1.00  0.00    -0.454 OA
ENDROOT
BRANCH   1   2
ATOM      2  C   UNL     1       0.336 -18.659  26.692  1.00  0.00     0.214 A 
ATOM      3  C   UNL     1      -0.547 -18.916  27.766  1.00  0.00     0.180 A 
ATOM      4  O   UNL     1      -1.528 -18.059  28.035  1.00  0.00    -0.452 OA
ATOM      5  C   UNL     1       0.157 -17.464  25.952  1.00  0.00     0.239 A 
ATOM      6  C   UNL     1      -1.712 -16.924  27.381  1.00  0.00     0.146 A 
ATOM      7  O   UNL     1       0.835 -17.270  24.910  1.00  0.00    -0.285 OA
ATOM      8  C   UNL     1      -0.839 -16.536  26.339  1.00  0.00     0.111 A 
ATOM      9  C   UNL     1      -2.798 -16.118  27.735  1.00  0.00     0.094 A 
ATOM     10  C   UNL     1      -1.047 -15.272  25.711  1.00  0.00     0.134 A 
ATOM     11  C   UNL     1      -3.042 -14.921  27.058  1.00  0.00     0.123 A 
ATOM     12  C   UNL     1      -2.166 -14.504  26.056  1.00  0.00     0.093 A 
BRANCH   3  13
ATOM     13  C   UNL     1      -0.463 -20.132  28.623  1.00  0.00     0.025 A 
ATOM     14  C   UNL     1      -0.475 -22.424  30.272  1.00  0.00     0.157 A 
ATOM     15  C   UNL     1      -1.284 -22.370  29.130  1.00  0.00     0.051 A 
ATOM     16  C   UNL     1       0.335 -21.325  30.601  1.00  0.00     0.158 A 
ATOM     17  C   UNL     1      -1.287 -21.231  28.321  1.00  0.00     0.016 A 
ATOM     18  C   UNL     1       0.333 -20.188  29.784  1.00  0.00     0.062 A 
BRANCH  14  19
ATOM     19  O   UNL     1      -0.486 -23.555  31.086  1.00  0.00    -0.504 OA
ATOM     20  H   UNL     1      -0.887 -24.434  30.771  1.00  0.00     0.293 HD
ENDBRANCH  14  19
BRANCH  16  21
ATOM     21  O   UNL     1       1.138 -21.337  31.740  1.00  0.00    -0.504 OA
ATOM     22  H   UNL     1       0.850 -20.890  32.606  1.00  0.00     0.293 HD
ENDBRANCH  16  21
ENDBRANCH   3  13
BRANCH  10  23
ATOM     23  O   UNL     1      -0.168 -14.717  24.777  1.00  0.00    -0.507 OA
ATOM     24  H   UNL     1       0.394 -13.894  24.947  1.00  0.00     0.293 HD
ENDBRANCH  10  23
BRANCH  11  25
ATOM     25  O   UNL     1      -4.146 -14.136  27.380  1.00  0.00    -0.508 OA
ATOM     26  H   UNL     1      -5.092 -14.457  27.202  1.00  0.00     0.293 HD
ENDBRANCH  11  25
ENDBRANCH   1   2
BRANCH   1  27
ATOM     27  C   UNL     1       1.286 -20.551  25.253  1.00  0.00     0.339 C 
ATOM     28  C   UNL     1       2.565 -20.376  24.390  1.00  0.00     0.214 C 
ATOM     29  O   UNL     1       1.138 -21.860  25.803  1.00  0.00    -0.332 OA
ATOM     30  C   UNL     1       2.572 -21.381  23.214  1.00  0.00     0.180 C 
ATOM     31  C   UNL     1       1.824 -22.890  25.100  1.00  0.00     0.179 C 
ATOM     32  C   UNL     1       1.816 -22.685  23.568  1.00  0.00     0.177 C 
BRANCH  28  33
ATOM     33  O   UNL     1       2.641 -19.068  23.888  1.00  0.00    -0.384 OA
ATOM     34  H   UNL     1       2.248 -19.087  22.976  1.00  0.00     0.211 HD
ENDBRANCH  28  33
BRANCH  30  35
ATOM     35  O   UNL     1       3.906 -21.680  22.884  1.00  0.00    -0.387 OA
ATOM     36  H   UNL     1       4.298 -20.860  22.484  1.00  0.00     0.211 HD
ENDBRANCH  30  35
BRANCH  31  37
ATOM     37  C   UNL     1       1.248 -24.255  25.512  1.00  0.00     0.191 C 
BRANCH  37  38
ATOM     38  O   UNL     1       2.261 -25.149  25.890  1.00  0.00    -0.394 OA
ATOM     39  H   UNL     1       2.322 -25.841  25.180  1.00  0.00     0.210 HD
ENDBRANCH  37  38
ENDBRANCH  31  37
BRANCH  32  40
ATOM     40  O   UNL     1       0.493 -22.608  23.099  1.00  0.00    -0.387 OA
ATOM     41  H   UNL     1       0.321 -21.654  22.892  1.00  0.00     0.211 HD
ENDBRANCH  32  40
ENDBRANCH   1  27
TORSDOF 12
ENDMDL
MODEL 9
REMARK VINA RESULT:    -6.387      2.400      7.342
REMARK INTER + INTRA:         -11.253
REMARK INTER:                  -9.837
REMARK INTRA:                  -1.416
REMARK UNBOUND:                -1.880
REMARK SMILES O=c1c(O[C@@H]2O[C@@H](CO)[C@@H](O)[C@H](O)[C@H]2O)c(-c2ccc(O)c(O)c2)oc2cc(O)cc(O)c12
REMARK SMILES IDX 4 1 3 2 16 3 25 4 2 5 26 6 1 7 33 8 27 9 31 10 28 11 30 12
REMARK SMILES IDX 17 13 20 14 19 15 22 16 18 17 24 18 21 19 23 21 32 23 29 25
REMARK SMILES IDX 5 27 14 28 6 29 12 30 7 31 10 32 15 33 13 35 8 37 9 38 11 40
REMARK H PARENT 21 20 23 22 32 24 29 26 15 34 13 36 9 39 11 41
REMARK Flexibility Score: inf
ROOT
ATOM      1  O   UNL     1       1.601 -22.151  30.983  1.00  0.00    -0.454 OA
ENDROOT
BRANCH   1   2
ATOM      2  C   UNL     1       0.700 -21.185  30.491  1.00  0.00     0.214 A 
ATOM      3  C   UNL     1      -0.674 -21.512  30.409  1.00  0.00     0.180 A 
ATOM      4  O   UNL     1      -1.525 -20.656  29.852  1.00  0.00    -0.452 OA
ATOM      5  C   UNL     1       1.116 -19.925  29.996  1.00  0.00     0.239 A 
ATOM      6  C   UNL     1      -1.177 -19.461  29.401  1.00  0.00     0.146 A 
ATOM      7  O   UNL     1       2.343 -19.658  29.929  1.00  0.00    -0.285 OA
ATOM      8  C   UNL     1       0.158 -19.007  29.504  1.00  0.00     0.111 A 
ATOM      9  C   UNL     1      -2.157 -18.660  28.807  1.00  0.00     0.094 A 
ATOM     10  C   UNL     1       0.464 -17.687  29.058  1.00  0.00     0.134 A 
ATOM     11  C   UNL     1      -1.829 -17.401  28.298  1.00  0.00     0.123 A 
ATOM     12  C   UNL     1      -0.526 -16.921  28.429  1.00  0.00     0.093 A 
BRANCH   3  13
ATOM     13  C   UNL     1      -1.240 -22.801  30.896  1.00  0.00     0.025 A 
ATOM     14  C   UNL     1      -2.171 -25.262  31.920  1.00  0.00     0.157 A 
ATOM     15  C   UNL     1      -1.882 -24.200  32.786  1.00  0.00     0.051 A 
ATOM     16  C   UNL     1      -1.984 -25.102  30.538  1.00  0.00     0.158 A 
ATOM     17  C   UNL     1      -1.410 -22.987  32.279  1.00  0.00     0.016 A 
ATOM     18  C   UNL     1      -1.515 -23.883  30.034  1.00  0.00     0.062 A 
BRANCH  14  19
ATOM     19  O   UNL     1      -2.627 -26.477  32.429  1.00  0.00    -0.504 OA
ATOM     20  H   UNL     1      -1.984 -27.209  32.715  1.00  0.00     0.293 HD
ENDBRANCH  14  19
BRANCH  16  21
ATOM     21  O   UNL     1      -2.242 -26.144  29.649  1.00  0.00    -0.504 OA
ATOM     22  H   UNL     1      -2.677 -25.985  28.745  1.00  0.00     0.293 HD
ENDBRANCH  16  21
ENDBRANCH   3  13
BRANCH  10  23
ATOM     23  O   UNL     1       1.707 -17.075  29.243  1.00  0.00    -0.507 OA
ATOM     24  H   UNL     1       1.966 -16.185  28.842  1.00  0.00     0.293 HD
ENDBRANCH  10  23
BRANCH  11  25
ATOM     25  O   UNL     1      -2.793 -16.618  27.669  1.00  0.00    -0.508 OA
ATOM     26  H   UNL     1      -3.554 -17.036  27.144  1.00  0.00     0.293 HD
ENDBRANCH  11  25
ENDBRANCH   1   2
BRANCH   1  27
ATOM     27  C   UNL     1       2.365 -23.112  30.243  1.00  0.00     0.339 C 
ATOM     28  C   UNL     1       2.625 -24.376  31.108  1.00  0.00     0.214 C 
ATOM     29  O   UNL     1       1.648 -23.378  29.038  1.00  0.00    -0.332 OA
ATOM     30  C   UNL     1       3.428 -25.430  30.309  1.00  0.00     0.180 C 
ATOM     31  C   UNL     1       1.743 -24.716  28.563  1.00  0.00     0.179 C 
ATOM     32  C   UNL     1       3.139 -25.340  28.790  1.00  0.00     0.177 C 
BRANCH  28  33
ATOM     33  O   UNL     1       3.331 -24.034  32.272  1.00  0.00    -0.384 OA
ATOM     34  H   UNL     1       4.245 -23.770  31.986  1.00  0.00     0.211 HD
ENDBRANCH  28  33
BRANCH  30  35
ATOM     35  O   UNL     1       3.089 -26.709  30.783  1.00  0.00    -0.387 OA
ATOM     36  H   UNL     1       3.860 -27.305  30.590  1.00  0.00     0.211 HD
ENDBRANCH  30  35
BRANCH  31  37
ATOM     37  C   UNL     1       1.314 -24.762  27.087  1.00  0.00     0.191 C 
BRANCH  37  38
ATOM     38  O   UNL     1       2.252 -25.445  26.298  1.00  0.00    -0.394 OA
ATOM     39  H   UNL     1       2.849 -24.761  25.893  1.00  0.00     0.210 HD
ENDBRANCH  37  38
ENDBRANCH  31  37
BRANCH  32  40
ATOM     40  O   UNL     1       4.125 -24.556  28.165  1.00  0.00    -0.387 OA
ATOM     41  H   UNL     1       4.869 -24.468  28.814  1.00  0.00     0.211 HD
ENDBRANCH  32  40
ENDBRANCH   1  27
TORSDOF 12
ENDMDL
