MODEL 1
REMARK VINA RESULT:    -6.726      0.000      0.000
REMARK INTER + INTRA:          -8.039
REMARK INTER:                  -8.102
REMARK INTRA:                   0.064
REMARK UNBOUND:                 0.064
REMARK SMILES O=c1c(O)c(-c2ccc(O)c(O)c2)oc2cc(O)cc(O)c12
REMARK SMILES IDX 5 1 3 2 2 3 1 4 22 5 20 6 19 7 17 8 16 9 15 10 14 11 6 12
REMARK SMILES IDX 7 13 8 14 9 15 13 16 11 17 10 18 12 20 4 22 21 24 18 26
REMARK H PARENT 10 19 12 21 4 23 21 25 18 27
REMARK Flexibility Score: inf
ROOT
ATOM      1  C   UNL     1     100.932 110.542 110.633  1.00  0.00     0.180 A 
ATOM      2  C   UNL     1      99.885 110.914 109.772  1.00  0.00     0.208 A 
ATOM      3  C   UNL     1      99.848 112.226 109.272  1.00  0.00     0.238 A 
ATOM      4  O   UNL     1      98.879 112.569 108.546  1.00  0.00    -0.285 OA
ATOM      5  C   UNL     1     100.867 113.144 109.625  1.00  0.00     0.111 A 
ATOM      6  C   UNL     1     100.952 114.485 109.145  1.00  0.00     0.134 A 
ATOM      7  C   UNL     1     101.930 115.343 109.663  1.00  0.00     0.093 A 
ATOM      8  C   UNL     1     102.867 114.889 110.594  1.00  0.00     0.123 A 
ATOM      9  C   UNL     1     102.829 113.564 111.024  1.00  0.00     0.094 A 
ATOM     10  C   UNL     1     101.843 112.694 110.553  1.00  0.00     0.146 A 
ATOM     11  O   UNL     1     101.837 111.443 110.997  1.00  0.00    -0.452 OA
ENDROOT
BRANCH   1  12
ATOM     12  C   UNL     1     101.052 109.171 111.179  1.00  0.00     0.025 A 
ATOM     13  C   UNL     1     101.430 108.992 112.519  1.00  0.00     0.016 A 
ATOM     14  C   UNL     1     101.570 107.707 113.050  1.00  0.00     0.051 A 
ATOM     15  C   UNL     1     101.349 106.583 112.249  1.00  0.00     0.157 A 
ATOM     16  C   UNL     1     100.851 108.039 110.369  1.00  0.00     0.062 A 
ATOM     17  C   UNL     1     100.992 106.748 110.900  1.00  0.00     0.158 A 
BRANCH  15  18
ATOM     18  O   UNL     1     101.493 105.314 112.808  1.00  0.00    -0.504 OA
ATOM     19  H   UNL     1     101.316 104.469 112.277  1.00  0.00     0.293 HD
ENDBRANCH  15  18
BRANCH  17  20
ATOM     20  O   UNL     1     100.784 105.632 110.092  1.00  0.00    -0.504 OA
ATOM     21  H   UNL     1     101.498 104.921 109.976  1.00  0.00     0.293 HD
ENDBRANCH  17  20
ENDBRANCH   1  12
BRANCH   2  22
ATOM     22  O   UNL     1      98.877 110.000 109.454  1.00  0.00    -0.502 OA
ATOM     23  H   UNL     1      98.096 110.238 108.854  1.00  0.00     0.293 HD
ENDBRANCH   2  22
BRANCH   6  24
ATOM     24  O   UNL     1     100.124 115.011 108.149  1.00  0.00    -0.507 OA
ATOM     25  H   UNL     1     100.359 115.052 107.169  1.00  0.00     0.293 HD
ENDBRANCH   6  24
BRANCH   8  26
ATOM     26  O   UNL     1     103.847 115.744 111.092  1.00  0.00    -0.508 OA
ATOM     27  H   UNL     1     104.820 115.646 110.827  1.00  0.00     0.293 HD
ENDBRANCH   8  26
TORSDOF 6
ENDMDL
MODEL 2
REMARK VINA RESULT:    -6.571      1.541      7.130
REMARK INTER + INTRA:          -7.852
REMARK INTER:                  -7.818
REMARK INTRA:                  -0.034
REMARK UNBOUND:                 0.064
REMARK SMILES O=c1c(O)c(-c2ccc(O)c(O)c2)oc2cc(O)cc(O)c12
REMARK SMILES IDX 5 1 3 2 2 3 1 4 22 5 20 6 19 7 17 8 16 9 15 10 14 11 6 12
REMARK SMILES IDX 7 13 8 14 9 15 13 16 11 17 10 18 12 20 4 22 21 24 18 26
REMARK H PARENT 10 19 12 21 4 23 21 25 18 27
REMARK Flexibility Score: inf
ROOT
ATOM      1  C   UNL     1     101.284 111.835 110.803  1.00  0.00     0.180 A 
ATOM      2  C   UNL     1     101.573 111.882 112.178  1.00  0.00     0.208 A 
ATOM      3  C   UNL     1     101.645 110.679 112.900  1.00  0.00     0.238 A 
ATOM      4  O   UNL     1     101.850 110.731 114.141  1.00  0.00    -0.285 OA
ATOM      5  C   UNL     1     101.443 109.445 112.235  1.00  0.00     0.111 A 
ATOM      6  C   UNL     1     101.533 108.165 112.859  1.00  0.00     0.134 A 
ATOM      7  C   UNL     1     101.185 107.017 112.135  1.00  0.00     0.093 A 
ATOM      8  C   UNL     1     100.816 107.100 110.790  1.00  0.00     0.123 A 
ATOM      9  C   UNL     1     100.783 108.339 110.156  1.00  0.00     0.094 A 
ATOM     10  C   UNL     1     101.089 109.505 110.863  1.00  0.00     0.146 A 
ATOM     11  O   UNL     1     101.035 110.667 110.222  1.00  0.00    -0.452 OA
ENDROOT
BRANCH   1  12
ATOM     12  C   UNL     1     101.216 113.057 109.970  1.00  0.00     0.025 A 
ATOM     13  C   UNL     1     102.298 113.952 109.969  1.00  0.00     0.016 A 
ATOM     14  C   UNL     1     102.248 115.123 109.207  1.00  0.00     0.051 A 
ATOM     15  C   UNL     1     101.113 115.424 108.448  1.00  0.00     0.157 A 
ATOM     16  C   UNL     1     100.067 113.372 109.223  1.00  0.00     0.062 A 
ATOM     17  C   UNL     1     100.015 114.547 108.458  1.00  0.00     0.158 A 
BRANCH  15  18
ATOM     18  O   UNL     1     101.093 116.598 107.696  1.00  0.00    -0.504 OA
ATOM     19  H   UNL     1     100.853 117.494 108.103  1.00  0.00     0.293 HD
ENDBRANCH  15  18
BRANCH  17  20
ATOM     20  O   UNL     1      98.875 114.849 107.715  1.00  0.00    -0.504 OA
ATOM     21  H   UNL     1      98.592 115.807 107.542  1.00  0.00     0.293 HD
ENDBRANCH  17  20
ENDBRANCH   1  12
BRANCH   2  22
ATOM     22  O   UNL     1     101.747 113.111 112.818  1.00  0.00    -0.502 OA
ATOM     23  H   UNL     1     100.971 113.645 113.191  1.00  0.00     0.293 HD
ENDBRANCH   2  22
BRANCH   6  24
ATOM     24  O   UNL     1     101.980 107.964 114.169  1.00  0.00    -0.507 OA
ATOM     25  H   UNL     1     101.534 107.362 114.843  1.00  0.00     0.293 HD
ENDBRANCH   6  24
BRANCH   8  26
ATOM     26  O   UNL     1     100.488 105.952 110.072  1.00  0.00    -0.508 OA
ATOM     27  H   UNL     1     101.016 105.669 109.255  1.00  0.00     0.293 HD
ENDBRANCH   8  26
TORSDOF 6
ENDMDL
MODEL 3
REMARK VINA RESULT:    -6.443      2.334      7.207
REMARK INTER + INTRA:          -7.697
REMARK INTER:                  -7.413
REMARK INTRA:                  -0.284
REMARK UNBOUND:                 0.064
REMARK SMILES O=c1c(O)c(-c2ccc(O)c(O)c2)oc2cc(O)cc(O)c12
REMARK SMILES IDX 5 1 3 2 2 3 1 4 22 5 20 6 19 7 17 8 16 9 15 10 14 11 6 12
REMARK SMILES IDX 7 13 8 14 9 15 13 16 11 17 10 18 12 20 4 22 21 24 18 26
REMARK H PARENT 10 19 12 21 4 23 21 25 18 27
REMARK Flexibility Score: inf
ROOT
ATOM      1  C   UNL     1     102.537 110.937 112.000  1.00  0.00     0.180 A 
ATOM      2  C   UNL     1     102.794 110.060 113.068  1.00  0.00     0.208 A 
ATOM      3  C   UNL     1     102.237 108.771 113.040  1.00  0.00     0.238 A 
ATOM      4  O   UNL     1     102.424 108.010 114.024  1.00  0.00    -0.285 OA
ATOM      5  C   UNL     1     101.445 108.370 111.936  1.00  0.00     0.111 A 
ATOM      6  C   UNL     1     100.864 107.076 111.783  1.00  0.00     0.134 A 
ATOM      7  C   UNL     1      99.992 106.831 110.715  1.00  0.00     0.093 A 
ATOM      8  C   UNL     1      99.732 107.816 109.759  1.00  0.00     0.123 A 
ATOM      9  C   UNL     1     100.341 109.064 109.867  1.00  0.00     0.094 A 
ATOM     10  C   UNL     1     101.187 109.349 110.941  1.00  0.00     0.146 A 
ATOM     11  O   UNL     1     101.738 110.555 111.011  1.00  0.00    -0.452 OA
ENDROOT
BRANCH   1  12
ATOM     12  C   UNL     1     103.110 112.302 111.947  1.00  0.00     0.025 A 
ATOM     13  C   UNL     1     104.458 112.472 111.590  1.00  0.00     0.016 A 
ATOM     14  C   UNL     1     105.025 113.748 111.554  1.00  0.00     0.051 A 
ATOM     15  C   UNL     1     104.261 114.871 111.887  1.00  0.00     0.157 A 
ATOM     16  C   UNL     1     102.349 113.430 112.301  1.00  0.00     0.062 A 
ATOM     17  C   UNL     1     102.917 114.712 112.266  1.00  0.00     0.158 A 
BRANCH  15  18
ATOM     18  O   UNL     1     104.853 116.133 111.838  1.00  0.00    -0.504 OA
ATOM     19  H   UNL     1     105.847 116.266 111.985  1.00  0.00     0.293 HD
ENDBRANCH  15  18
BRANCH  17  20
ATOM     20  O   UNL     1     102.154 115.826 112.612  1.00  0.00    -0.504 OA
ATOM     21  H   UNL     1     101.288 116.046 112.134  1.00  0.00     0.293 HD
ENDBRANCH  17  20
ENDBRANCH   1  12
BRANCH   2  22
ATOM     22  O   UNL     1     103.560 110.484 114.157  1.00  0.00    -0.502 OA
ATOM     23  H   UNL     1     103.590 111.451 114.458  1.00  0.00     0.293 HD
ENDBRANCH   2  22
BRANCH   6  24
ATOM     24  O   UNL     1     101.132 105.996 112.630  1.00  0.00    -0.507 OA
ATOM     25  H   UNL     1     101.961 105.900 113.196  1.00  0.00     0.293 HD
ENDBRANCH   6  24
BRANCH   8  26
ATOM     26  O   UNL     1      98.876 107.560 108.690  1.00  0.00    -0.508 OA
ATOM     27  H   UNL     1      97.919 107.259 108.837  1.00  0.00     0.293 HD
ENDBRANCH   8  26
TORSDOF 6
ENDMDL
MODEL 4
REMARK VINA RESULT:    -6.349      2.432      3.597
REMARK INTER + INTRA:          -7.584
REMARK INTER:                  -7.309
REMARK INTRA:                  -0.276
REMARK UNBOUND:                 0.064
REMARK SMILES O=c1c(O)c(-c2ccc(O)c(O)c2)oc2cc(O)cc(O)c12
REMARK SMILES IDX 5 1 3 2 2 3 1 4 22 5 20 6 19 7 17 8 16 9 15 10 14 11 6 12
REMARK SMILES IDX 7 13 8 14 9 15 13 16 11 17 10 18 12 20 4 22 21 24 18 26
REMARK H PARENT 10 19 12 21 4 23 21 25 18 27
REMARK Flexibility Score: inf
ROOT
ATOM      1  C   UNL     1     102.153 111.070 111.725  1.00  0.00     0.180 A 
ATOM      2  C   UNL     1     101.431 112.173 112.212  1.00  0.00     0.208 A 
ATOM      3  C   UNL     1     102.126 113.347 112.545  1.00  0.00     0.238 A 
ATOM      4  O   UNL     1     101.482 114.313 113.032  1.00  0.00    -0.285 OA
ATOM      5  C   UNL     1     103.530 113.409 112.372  1.00  0.00     0.111 A 
ATOM      6  C   UNL     1     104.330 114.560 112.638  1.00  0.00     0.134 A 
ATOM      7  C   UNL     1     105.725 114.467 112.555  1.00  0.00     0.093 A 
ATOM      8  C   UNL     1     106.344 113.282 112.152  1.00  0.00     0.123 A 
ATOM      9  C   UNL     1     105.569 112.170 111.831  1.00  0.00     0.094 A 
ATOM     10  C   UNL     1     104.177 112.222 111.940  1.00  0.00     0.146 A 
ATOM     11  O   UNL     1     103.476 111.136 111.635  1.00  0.00    -0.452 OA
ENDROOT
BRANCH   1  12
ATOM     12  C   UNL     1     101.489 109.807 111.329  1.00  0.00     0.025 A 
ATOM     13  C   UNL     1     100.785 109.748 110.116  1.00  0.00     0.016 A 
ATOM     14  C   UNL     1     100.133 108.573 109.731  1.00  0.00     0.051 A 
ATOM     15  C   UNL     1     100.161 107.447 110.559  1.00  0.00     0.157 A 
ATOM     16  C   UNL     1     101.498 108.679 112.170  1.00  0.00     0.062 A 
ATOM     17  C   UNL     1     100.842 107.500 111.786  1.00  0.00     0.158 A 
BRANCH  15  18
ATOM     18  O   UNL     1      99.503 106.288 110.147  1.00  0.00    -0.504 OA
ATOM     19  H   UNL     1      98.790 106.301 109.428  1.00  0.00     0.293 HD
ENDBRANCH  15  18
BRANCH  17  20
ATOM     20  O   UNL     1     100.862 106.384 112.622  1.00  0.00    -0.504 OA
ATOM     21  H   UNL     1     100.611 106.451 113.602  1.00  0.00     0.293 HD
ENDBRANCH  17  20
ENDBRANCH   1  12
BRANCH   2  22
ATOM     22  O   UNL     1     100.049 112.084 112.397  1.00  0.00    -0.502 OA
ATOM     23  H   UNL     1      99.462 112.901 112.513  1.00  0.00     0.293 HD
ENDBRANCH   2  22
BRANCH   6  24
ATOM     24  O   UNL     1     103.806 115.817 112.959  1.00  0.00    -0.507 OA
ATOM     25  H   UNL     1     102.960 115.970 113.485  1.00  0.00     0.293 HD
ENDBRANCH   6  24
BRANCH   8  26
ATOM     26  O   UNL     1     107.732 113.202 112.055  1.00  0.00    -0.508 OA
ATOM     27  H   UNL     1     108.320 114.014 112.201  1.00  0.00     0.293 HD
ENDBRANCH   8  26
TORSDOF 6
ENDMDL
MODEL 5
REMARK VINA RESULT:    -6.096     10.387     12.757
REMARK INTER + INTRA:          -7.279
REMARK INTER:                  -6.971
REMARK INTRA:                  -0.308
REMARK UNBOUND:                 0.064
REMARK SMILES O=c1c(O)c(-c2ccc(O)c(O)c2)oc2cc(O)cc(O)c12
REMARK SMILES IDX 5 1 3 2 2 3 1 4 22 5 20 6 19 7 17 8 16 9 15 10 14 11 6 12
REMARK SMILES IDX 7 13 8 14 9 15 13 16 11 17 10 18 12 20 4 22 21 24 18 26
REMARK H PARENT 10 19 12 21 4 23 21 25 18 27
REMARK Flexibility Score: inf
ROOT
ATOM      1  C   UNL     1     111.974 116.268 108.611  1.00  0.00     0.180 A 
ATOM      2  C   UNL     1     113.332 116.617 108.508  1.00  0.00     0.208 A 
ATOM      3  C   UNL     1     113.738 117.474 107.473  1.00  0.00     0.238 A 
ATOM      4  O   UNL     1     114.963 117.739 107.352  1.00  0.00    -0.285 OA
ATOM      5  C   UNL     1     112.779 117.986 106.565  1.00  0.00     0.111 A 
ATOM      6  C   UNL     1     113.071 118.894 105.503  1.00  0.00     0.134 A 
ATOM      7  C   UNL     1     112.068 119.232 104.587  1.00  0.00     0.093 A 
ATOM      8  C   UNL     1     110.767 118.745 104.733  1.00  0.00     0.123 A 
ATOM      9  C   UNL     1     110.457 117.906 105.800  1.00  0.00     0.094 A 
ATOM     10  C   UNL     1     111.446 117.523 106.710  1.00  0.00     0.146 A 
ATOM     11  O   UNL     1     111.110 116.712 107.707  1.00  0.00    -0.452 OA
ENDROOT
BRANCH   1  12
ATOM     12  C   UNL     1     111.467 115.390 109.690  1.00  0.00     0.025 A 
ATOM     13  C   UNL     1     111.202 115.934 110.957  1.00  0.00     0.016 A 
ATOM     14  C   UNL     1     110.743 115.121 111.996  1.00  0.00     0.051 A 
ATOM     15  C   UNL     1     110.555 113.751 111.790  1.00  0.00     0.157 A 
ATOM     16  C   UNL     1     111.297 114.008 109.491  1.00  0.00     0.062 A 
ATOM     17  C   UNL     1     110.837 113.189 110.533  1.00  0.00     0.158 A 
BRANCH  15  18
ATOM     18  O   UNL     1     110.092 112.964 112.845  1.00  0.00    -0.504 OA
ATOM     19  H   UNL     1     109.409 112.230 112.708  1.00  0.00     0.293 HD
ENDBRANCH  15  18
BRANCH  17  20
ATOM     20  O   UNL     1     110.665 111.822 110.326  1.00  0.00    -0.504 OA
ATOM     21  H   UNL     1     110.140 111.249 110.977  1.00  0.00     0.293 HD
ENDBRANCH  17  20
ENDBRANCH   1  12
BRANCH   2  22
ATOM     22  O   UNL     1     114.265 116.083 109.401  1.00  0.00    -0.502 OA
ATOM     23  H   UNL     1     115.264 116.129 109.236  1.00  0.00     0.293 HD
ENDBRANCH   2  22
BRANCH   6  24
ATOM     24  O   UNL     1     114.314 119.509 105.323  1.00  0.00    -0.507 OA
ATOM     25  H   UNL     1     114.447 120.448 104.978  1.00  0.00     0.293 HD
ENDBRANCH   6  24
BRANCH   8  26
ATOM     26  O   UNL     1     109.770 119.100 103.826  1.00  0.00    -0.508 OA
ATOM     27  H   UNL     1     108.884 119.481 104.136  1.00  0.00     0.293 HD
ENDBRANCH   8  26
TORSDOF 6
ENDMDL
MODEL 6
REMARK VINA RESULT:    -6.064     10.752     13.257
REMARK INTER + INTRA:          -7.241
REMARK INTER:                  -7.060
REMARK INTRA:                  -0.181
REMARK UNBOUND:                 0.064
REMARK SMILES O=c1c(O)c(-c2ccc(O)c(O)c2)oc2cc(O)cc(O)c12
REMARK SMILES IDX 5 1 3 2 2 3 1 4 22 5 20 6 19 7 17 8 16 9 15 10 14 11 6 12
REMARK SMILES IDX 7 13 8 14 9 15 13 16 11 17 10 18 12 20 4 22 21 24 18 26
REMARK H PARENT 10 19 12 21 4 23 21 25 18 27
REMARK Flexibility Score: inf
ROOT
ATOM      1  C   UNL     1     109.820 119.387 109.591  1.00  0.00     0.180 A 
ATOM      2  C   UNL     1     111.113 118.897 109.845  1.00  0.00     0.208 A 
ATOM      3  C   UNL     1     111.922 118.516 108.762  1.00  0.00     0.238 A 
ATOM      4  O   UNL     1     113.058 118.028 108.997  1.00  0.00    -0.285 OA
ATOM      5  C   UNL     1     111.434 118.645 107.438  1.00  0.00     0.111 A 
ATOM      6  C   UNL     1     112.181 118.328 106.265  1.00  0.00     0.134 A 
ATOM      7  C   UNL     1     111.553 118.370 105.013  1.00  0.00     0.093 A 
ATOM      8  C   UNL     1     110.224 118.781 104.889  1.00  0.00     0.123 A 
ATOM      9  C   UNL     1     109.504 119.150 106.023  1.00  0.00     0.094 A 
ATOM     10  C   UNL     1     110.093 119.084 107.288  1.00  0.00     0.146 A 
ATOM     11  O   UNL     1     109.367 119.434 108.344  1.00  0.00    -0.452 OA
ENDROOT
BRANCH   1  12
ATOM     12  C   UNL     1     108.919 119.832 110.679  1.00  0.00     0.025 A 
ATOM     13  C   UNL     1     109.261 120.960 111.441  1.00  0.00     0.016 A 
ATOM     14  C   UNL     1     108.437 121.386 112.485  1.00  0.00     0.051 A 
ATOM     15  C   UNL     1     107.268 120.684 112.794  1.00  0.00     0.157 A 
ATOM     16  C   UNL     1     107.753 119.115 111.003  1.00  0.00     0.062 A 
ATOM     17  C   UNL     1     106.925 119.540 112.053  1.00  0.00     0.158 A 
BRANCH  15  18
ATOM     18  O   UNL     1     106.463 121.135 113.840  1.00  0.00    -0.504 OA
ATOM     19  H   UNL     1     106.628 122.021 114.301  1.00  0.00     0.293 HD
ENDBRANCH  15  18
BRANCH  17  20
ATOM     20  O   UNL     1     105.768 118.828 112.365  1.00  0.00    -0.504 OA
ATOM     21  H   UNL     1     105.594 117.906 111.984  1.00  0.00     0.293 HD
ENDBRANCH  17  20
ENDBRANCH   1  12
BRANCH   2  22
ATOM     22  O   UNL     1     111.567 118.758 111.159  1.00  0.00    -0.502 OA
ATOM     23  H   UNL     1     111.398 117.922 111.707  1.00  0.00     0.293 HD
ENDBRANCH   2  22
BRANCH   6  24
ATOM     24  O   UNL     1     113.539 117.995 106.270  1.00  0.00    -0.507 OA
ATOM     25  H   UNL     1     114.254 118.504 106.766  1.00  0.00     0.293 HD
ENDBRANCH   6  24
BRANCH   8  26
ATOM     26  O   UNL     1     109.611 118.836 103.639  1.00  0.00    -0.508 OA
ATOM     27  H   UNL     1     109.428 119.720 103.177  1.00  0.00     0.293 HD
ENDBRANCH   8  26
TORSDOF 6
ENDMDL
MODEL 7
REMARK VINA RESULT:    -5.970      2.234      6.530
REMARK INTER + INTRA:          -7.128
REMARK INTER:                  -6.850
REMARK INTRA:                  -0.278
REMARK UNBOUND:                 0.064
REMARK SMILES O=c1c(O)c(-c2ccc(O)c(O)c2)oc2cc(O)cc(O)c12
REMARK SMILES IDX 5 1 3 2 2 3 1 4 22 5 20 6 19 7 17 8 16 9 15 10 14 11 6 12
REMARK SMILES IDX 7 13 8 14 9 15 13 16 11 17 10 18 12 20 4 22 21 24 18 26
REMARK H PARENT 10 19 12 21 4 23 21 25 18 27
REMARK Flexibility Score: inf
ROOT
ATOM      1  C   UNL     1     102.831 111.663 111.658  1.00  0.00     0.180 A 
ATOM      2  C   UNL     1     101.959 112.026 110.617  1.00  0.00     0.208 A 
ATOM      3  C   UNL     1     100.997 111.100 110.181  1.00  0.00     0.238 A 
ATOM      4  O   UNL     1     100.255 111.410 109.213  1.00  0.00    -0.285 OA
ATOM      5  C   UNL     1     100.908 109.831 110.803  1.00  0.00     0.111 A 
ATOM      6  C   UNL     1      99.945 108.831 110.470  1.00  0.00     0.134 A 
ATOM      7  C   UNL     1     100.033 107.564 111.060  1.00  0.00     0.093 A 
ATOM      8  C   UNL     1     101.009 107.283 112.019  1.00  0.00     0.123 A 
ATOM      9  C   UNL     1     101.916 108.271 112.395  1.00  0.00     0.094 A 
ATOM     10  C   UNL     1     101.875 109.533 111.797  1.00  0.00     0.146 A 
ATOM     11  O   UNL     1     102.766 110.443 112.177  1.00  0.00    -0.452 OA
ENDROOT
BRANCH   1  12
ATOM     12  C   UNL     1     103.854 112.593 112.189  1.00  0.00     0.025 A 
ATOM     13  C   UNL     1     103.461 113.644 113.033  1.00  0.00     0.016 A 
ATOM     14  C   UNL     1     104.406 114.546 113.528  1.00  0.00     0.051 A 
ATOM     15  C   UNL     1     105.753 114.422 113.177  1.00  0.00     0.157 A 
ATOM     16  C   UNL     1     105.207 112.482 111.820  1.00  0.00     0.062 A 
ATOM     17  C   UNL     1     106.157 113.388 112.315  1.00  0.00     0.158 A 
BRANCH  15  18
ATOM     18  O   UNL     1     106.674 115.335 113.690  1.00  0.00    -0.504 OA
ATOM     19  H   UNL     1     107.069 115.237 114.617  1.00  0.00     0.293 HD
ENDBRANCH  15  18
BRANCH  17  20
ATOM     20  O   UNL     1     107.497 113.267 111.951  1.00  0.00    -0.504 OA
ATOM     21  H   UNL     1     108.146 114.038 112.053  1.00  0.00     0.293 HD
ENDBRANCH  17  20
ENDBRANCH   1  12
BRANCH   2  22
ATOM     22  O   UNL     1     102.079 113.275 110.003  1.00  0.00    -0.502 OA
ATOM     23  H   UNL     1     102.565 113.404 109.123  1.00  0.00     0.293 HD
ENDBRANCH   2  22
BRANCH   6  24
ATOM     24  O   UNL     1      98.875 109.039 109.594  1.00  0.00    -0.507 OA
ATOM     25  H   UNL     1      98.610 108.412 108.851  1.00  0.00     0.293 HD
ENDBRANCH   6  24
BRANCH   8  26
ATOM     26  O   UNL     1     101.079 106.024 112.613  1.00  0.00    -0.508 OA
ATOM     27  H   UNL     1     100.456 105.274 112.340  1.00  0.00     0.293 HD
ENDBRANCH   8  26
TORSDOF 6
ENDMDL
MODEL 8
REMARK VINA RESULT:    -5.946      3.825      6.974
REMARK INTER + INTRA:          -7.098
REMARK INTER:                  -6.780
REMARK INTRA:                  -0.319
REMARK UNBOUND:                 0.064
REMARK SMILES O=c1c(O)c(-c2ccc(O)c(O)c2)oc2cc(O)cc(O)c12
REMARK SMILES IDX 5 1 3 2 2 3 1 4 22 5 20 6 19 7 17 8 16 9 15 10 14 11 6 12
REMARK SMILES IDX 7 13 8 14 9 15 13 16 11 17 10 18 12 20 4 22 21 24 18 26
REMARK H PARENT 10 19 12 21 4 23 21 25 18 27
REMARK Flexibility Score: inf
ROOT
ATOM      1  C   UNL     1     103.103 108.789 112.316  1.00  0.00     0.180 A 
ATOM      2  C   UNL     1     102.867 108.403 113.647  1.00  0.00     0.208 A 
ATOM      3  C   UNL     1     103.940 107.924 114.417  1.00  0.00     0.238 A 
ATOM      4  O   UNL     1     103.712 107.529 115.590  1.00  0.00    -0.285 OA
ATOM      5  C   UNL     1     105.237 107.854 113.852  1.00  0.00     0.111 A 
ATOM      6  C   UNL     1     106.403 107.423 114.552  1.00  0.00     0.134 A 
ATOM      7  C   UNL     1     107.609 107.269 113.857  1.00  0.00     0.093 A 
ATOM      8  C   UNL     1     107.705 107.593 112.502  1.00  0.00     0.123 A 
ATOM      9  C   UNL     1     106.586 108.071 111.823  1.00  0.00     0.094 A 
ATOM     10  C   UNL     1     105.360 108.201 112.482  1.00  0.00     0.146 A 
ATOM     11  O   UNL     1     104.316 108.650 111.795  1.00  0.00    -0.452 OA
ENDROOT
BRANCH   1  12
ATOM     12  C   UNL     1     102.029 109.328 111.450  1.00  0.00     0.025 A 
ATOM     13  C   UNL     1     101.810 110.713 111.402  1.00  0.00     0.016 A 
ATOM     14  C   UNL     1     100.789 111.242 110.608  1.00  0.00     0.051 A 
ATOM     15  C   UNL     1      99.962 110.395 109.864  1.00  0.00     0.157 A 
ATOM     16  C   UNL     1     101.184 108.476 110.716  1.00  0.00     0.062 A 
ATOM     17  C   UNL     1     100.157 109.004 109.920  1.00  0.00     0.158 A 
BRANCH  15  18
ATOM     18  O   UNL     1      98.953 110.952 109.078  1.00  0.00    -0.504 OA
ATOM     19  H   UNL     1      98.855 111.953 108.960  1.00  0.00     0.293 HD
ENDBRANCH  15  18
BRANCH  17  20
ATOM     20  O   UNL     1      99.327 108.154 109.191  1.00  0.00    -0.504 OA
ATOM     21  H   UNL     1      98.789 107.423 109.642  1.00  0.00     0.293 HD
ENDBRANCH  17  20
ENDBRANCH   1  12
BRANCH   2  22
ATOM     22  O   UNL     1     101.576 108.460 114.177  1.00  0.00    -0.502 OA
ATOM     23  H   UNL     1     101.064 109.330 114.270  1.00  0.00     0.293 HD
ENDBRANCH   2  22
BRANCH   6  24
ATOM     24  O   UNL     1     106.437 107.163 115.926  1.00  0.00    -0.507 OA
ATOM     25  H   UNL     1     106.098 106.318 116.360  1.00  0.00     0.293 HD
ENDBRANCH   6  24
BRANCH   8  26
ATOM     26  O   UNL     1     108.912 107.452 111.821  1.00  0.00    -0.508 OA
ATOM     27  H   UNL     1     109.643 108.151 111.889  1.00  0.00     0.293 HD
ENDBRANCH   8  26
TORSDOF 6
ENDMDL
MODEL 9
REMARK VINA RESULT:    -5.878      3.562      5.955
REMARK INTER + INTRA:          -7.017
REMARK INTER:                  -6.711
REMARK INTRA:                  -0.306
REMARK UNBOUND:                 0.064
REMARK SMILES O=c1c(O)c(-c2ccc(O)c(O)c2)oc2cc(O)cc(O)c12
REMARK SMILES IDX 5 1 3 2 2 3 1 4 22 5 20 6 19 7 17 8 16 9 15 10 14 11 6 12
REMARK SMILES IDX 7 13 8 14 9 15 13 16 11 17 10 18 12 20 4 22 21 24 18 26
REMARK H PARENT 10 19 12 21 4 23 21 25 18 27
REMARK Flexibility Score: inf
ROOT
ATOM      1  C   UNL     1     103.369 109.606 112.086  1.00  0.00     0.180 A 
ATOM      2  C   UNL     1     102.798 110.831 111.698  1.00  0.00     0.208 A 
ATOM      3  C   UNL     1     101.586 110.823 110.989  1.00  0.00     0.238 A 
ATOM      4  O   UNL     1     101.108 111.919 110.596  1.00  0.00    -0.285 OA
ATOM      5  C   UNL     1     100.952 109.592 110.691  1.00  0.00     0.111 A 
ATOM      6  C   UNL     1      99.703 109.467 110.013  1.00  0.00     0.134 A 
ATOM      7  C   UNL     1      99.233 108.197 109.657  1.00  0.00     0.093 A 
ATOM      8  C   UNL     1      99.938 107.044 110.012  1.00  0.00     0.123 A 
ATOM      9  C   UNL     1     101.129 107.153 110.726  1.00  0.00     0.094 A 
ATOM     10  C   UNL     1     101.640 108.409 111.064  1.00  0.00     0.146 A 
ATOM     11  O   UNL     1     102.784 108.467 111.736  1.00  0.00    -0.452 OA
ENDROOT
BRANCH   1  12
ATOM     12  C   UNL     1     104.630 109.536 112.858  1.00  0.00     0.025 A 
ATOM     13  C   UNL     1     104.579 109.439 114.258  1.00  0.00     0.016 A 
ATOM     14  C   UNL     1     105.757 109.392 115.008  1.00  0.00     0.051 A 
ATOM     15  C   UNL     1     107.002 109.455 114.374  1.00  0.00     0.157 A 
ATOM     16  C   UNL     1     105.883 109.620 112.224  1.00  0.00     0.062 A 
ATOM     17  C   UNL     1     107.066 109.574 112.976  1.00  0.00     0.158 A 
BRANCH  15  18
ATOM     18  O   UNL     1     108.160 109.402 115.150  1.00  0.00    -0.504 OA
ATOM     19  H   UNL     1     108.658 108.536 115.313  1.00  0.00     0.293 HD
ENDBRANCH  15  18
BRANCH  17  20
ATOM     20  O   UNL     1     108.304 109.651 112.340  1.00  0.00    -0.504 OA
ATOM     21  H   UNL     1     108.860 108.823 112.157  1.00  0.00     0.293 HD
ENDBRANCH  17  20
ENDBRANCH   1  12
BRANCH   2  22
ATOM     22  O   UNL     1     103.451 112.033 111.983  1.00  0.00    -0.502 OA
ATOM     23  H   UNL     1     104.244 112.362 111.444  1.00  0.00     0.293 HD
ENDBRANCH   2  22
BRANCH   6  24
ATOM     24  O   UNL     1      98.876 110.550 109.694  1.00  0.00    -0.507 OA
ATOM     25  H   UNL     1      97.896 110.613 109.924  1.00  0.00     0.293 HD
ENDBRANCH   6  24
BRANCH   8  26
ATOM     26  O   UNL     1      99.456 105.783 109.669  1.00  0.00    -0.508 OA
ATOM     27  H   UNL     1     100.055 104.965 109.683  1.00  0.00     0.293 HD
ENDBRANCH   8  26
TORSDOF 6
ENDMDL
