MODEL 1
REMARK VINA RESULT:    -6.388      0.000      0.000
REMARK INTER + INTRA:          -8.286
REMARK INTER:                  -8.816
REMARK INTRA:                   0.530
REMARK UNBOUND:                 0.530
REMARK SMILES O=c1c(O[C@@H]2O[C@H](CO)[C@H](O)[C@H](O)[C@@H]2O)c(-c2ccc(O)c(O)c2)oc2cc(O)cc(O)c12
REMARK SMILES IDX 4 1 3 2 16 3 25 4 2 5 26 6 1 7 33 8 27 9 31 10 28 11 30 12
REMARK SMILES IDX 17 13 18 14 19 15 20 16 24 17 22 18 21 19 23 21 32 23 29 25
REMARK SMILES IDX 5 27 14 28 6 29 12 30 7 31 10 32 15 33 13 35 8 37 9 38 11 40
REMARK H PARENT 21 20 23 22 32 24 29 26 15 34 13 36 9 39 11 41
REMARK Flexibility Score: inf
ROOT
ATOM      1  O   UNL     1      -0.925 -39.151 -32.487  1.00  0.00    -0.454 OA
ENDROOT
BRANCH   1   2
ATOM      2  C   UNL     1      -1.924 -39.991 -32.898  1.00  0.00     0.214 A 
ATOM      3  C   UNL     1      -2.292 -40.244 -34.505  1.00  0.00     0.180 A 
ATOM      4  O   UNL     1      -3.529 -41.094 -34.812  1.00  0.00    -0.452 OA
ATOM      5  C   UNL     1      -3.348 -40.941 -31.550  1.00  0.00     0.239 A 
ATOM      6  C   UNL     1      -4.524 -41.811 -33.928  1.00  0.00     0.146 A 
ATOM      7  O   UNL     1      -3.414 -40.799 -30.275  1.00  0.00    -0.285 OA
ATOM      8  C   UNL     1      -4.528 -41.775 -32.305  1.00  0.00     0.111 A 
ATOM      9  C   UNL     1      -5.547 -42.539 -34.550  1.00  0.00     0.094 A 
ATOM     10  C   UNL     1      -5.614 -42.319 -31.644  1.00  0.00     0.134 A 
ATOM     11  C   UNL     1      -6.500 -43.220 -33.757  1.00  0.00     0.123 A 
ATOM     12  C   UNL     1      -6.536 -43.079 -32.348  1.00  0.00     0.093 A 
BRANCH   3  13
ATOM     13  C   UNL     1      -1.631 -39.494 -35.630  1.00  0.00     0.025 A 
ATOM     14  C   UNL     1      -1.876 -38.126 -35.809  1.00  0.00     0.016 A 
ATOM     15  C   UNL     1      -0.953 -37.294 -36.488  1.00  0.00     0.051 A 
ATOM     16  C   UNL     1       0.225 -37.861 -36.970  1.00  0.00     0.157 A 
ATOM     17  C   UNL     1      -0.617 -40.064 -36.397  1.00  0.00     0.062 A 
ATOM     18  C   UNL     1       0.308 -39.288 -37.061  1.00  0.00     0.158 A 
BRANCH  16  19
ATOM     19  O   UNL     1       1.295 -37.078 -37.341  1.00  0.00    -0.504 OA
ATOM     20  H   UNL     1       1.761 -36.481 -36.624  1.00  0.00     0.293 HD
ENDBRANCH  16  19
BRANCH  18  21
ATOM     21  O   UNL     1       1.350 -39.888 -37.754  1.00  0.00    -0.504 OA
ATOM     22  H   UNL     1       2.317 -39.517 -37.628  1.00  0.00     0.293 HD
ENDBRANCH  18  21
ENDBRANCH   3  13
BRANCH  10  23
ATOM     23  O   UNL     1      -5.927 -41.951 -30.346  1.00  0.00    -0.507 OA
ATOM     24  H   UNL     1      -6.938 -41.875 -30.154  1.00  0.00     0.293 HD
ENDBRANCH  10  23
BRANCH  11  25
ATOM     25  O   UNL     1      -7.493 -44.012 -34.351  1.00  0.00    -0.508 OA
ATOM     26  H   UNL     1      -8.318 -44.345 -33.856  1.00  0.00     0.293 HD
ENDBRANCH  11  25
ENDBRANCH   1   2
BRANCH   1  27
ATOM     27  C   UNL     1      -0.523 -40.263 -31.823  1.00  0.00     0.339 C 
ATOM     28  C   UNL     1       1.127 -40.720 -32.607  1.00  0.00     0.214 C 
ATOM     29  O   UNL     1      -0.920 -39.833 -30.327  1.00  0.00    -0.332 OA
ATOM     30  C   UNL     1       2.310 -39.286 -32.410  1.00  0.00     0.180 C 
ATOM     31  C   UNL     1      -0.616 -38.394 -29.713  1.00  0.00     0.179 C 
ATOM     32  C   UNL     1       0.920 -37.492 -30.237  1.00  0.00     0.177 C 
BRANCH  28  33
ATOM     33  O   UNL     1       0.966 -41.022 -33.975  1.00  0.00    -0.384 OA
ATOM     34  H   UNL     1       0.875 -40.129 -34.414  1.00  0.00     0.211 HD
ENDBRANCH  28  33
BRANCH  30  35
ATOM     35  O   UNL     1       2.641 -38.798 -33.716  1.00  0.00    -0.387 OA
ATOM     36  H   UNL     1       2.912 -39.615 -34.230  1.00  0.00     0.211 HD
ENDBRANCH  30  35
BRANCH  31  37
ATOM     37  C   UNL     1      -1.940 -37.626 -29.870  1.00  0.00     0.191 C 
BRANCH  37  38
ATOM     38  O   UNL     1      -2.034 -37.009 -31.139  1.00  0.00    -0.394 OA
ATOM     39  H   UNL     1      -2.785 -37.438 -31.646  1.00  0.00     0.210 HD
ENDBRANCH  37  38
ENDBRANCH  31  37
BRANCH  32  40
ATOM     40  O   UNL     1       0.648 -36.110 -30.423  1.00  0.00    -0.387 OA
ATOM     41  H   UNL     1       1.343 -35.636 -30.944  1.00  0.00     0.211 HD
ENDBRANCH  32  40
ENDBRANCH   1  27
TORSDOF 12
ENDMDL
MODEL 2
REMARK VINA RESULT:    -6.060      3.735      6.270
REMARK INTER + INTRA:          -7.833
REMARK INTER:                  -8.327
REMARK INTRA:                   0.494
REMARK UNBOUND:                 0.530
REMARK SMILES O=c1c(O[C@@H]2O[C@H](CO)[C@H](O)[C@H](O)[C@@H]2O)c(-c2ccc(O)c(O)c2)oc2cc(O)cc(O)c12
REMARK SMILES IDX 4 1 3 2 16 3 25 4 2 5 26 6 1 7 33 8 27 9 31 10 28 11 30 12
REMARK SMILES IDX 17 13 18 14 19 15 20 16 24 17 22 18 21 19 23 21 32 23 29 25
REMARK SMILES IDX 5 27 14 28 6 29 12 30 7 31 10 32 15 33 13 35 8 37 9 38 11 40
REMARK H PARENT 21 20 23 22 32 24 29 26 15 34 13 36 9 39 11 41
REMARK Flexibility Score: inf
ROOT
ATOM      1  O   UNL     1      -3.521 -39.562 -30.543  1.00  0.00    -0.454 OA
ENDROOT
BRANCH   1   2
ATOM      2  C   UNL     1      -4.627 -38.783 -30.745  1.00  0.00     0.214 A 
ATOM      3  C   UNL     1      -5.645 -38.973 -32.052  1.00  0.00     0.180 A 
ATOM      4  O   UNL     1      -6.757 -37.934 -32.227  1.00  0.00    -0.452 OA
ATOM      5  C   UNL     1      -5.111 -37.025 -29.551  1.00  0.00     0.239 A 
ATOM      6  C   UNL     1      -7.168 -36.727 -31.415  1.00  0.00     0.146 A 
ATOM      7  O   UNL     1      -4.422 -36.537 -28.584  1.00  0.00    -0.285 OA
ATOM      8  C   UNL     1      -6.402 -36.186 -30.090  1.00  0.00     0.111 A 
ATOM      9  C   UNL     1      -8.277 -35.990 -31.853  1.00  0.00     0.094 A 
ATOM     10  C   UNL     1      -6.781 -34.962 -29.573  1.00  0.00     0.134 A 
ATOM     11  C   UNL     1      -8.691 -34.851 -31.122  1.00  0.00     0.123 A 
ATOM     12  C   UNL     1      -7.935 -34.348 -30.034  1.00  0.00     0.093 A 
BRANCH   3  13
ATOM     13  C   UNL     1      -5.377 -39.943 -33.171  1.00  0.00     0.025 A 
ATOM     14  C   UNL     1      -4.152 -39.919 -33.851  1.00  0.00     0.016 A 
ATOM     15  C   UNL     1      -3.662 -41.061 -34.528  1.00  0.00     0.051 A 
ATOM     16  C   UNL     1      -4.419 -42.231 -34.496  1.00  0.00     0.157 A 
ATOM     17  C   UNL     1      -6.231 -41.012 -33.436  1.00  0.00     0.062 A 
ATOM     18  C   UNL     1      -5.787 -42.147 -34.080  1.00  0.00     0.158 A 
BRANCH  16  19
ATOM     19  O   UNL     1      -3.872 -43.446 -34.841  1.00  0.00    -0.504 OA
ATOM     20  H   UNL     1      -3.374 -43.538 -35.753  1.00  0.00     0.293 HD
ENDBRANCH  16  19
BRANCH  18  21
ATOM     21  O   UNL     1      -6.643 -43.224 -34.261  1.00  0.00    -0.504 OA
ATOM     22  H   UNL     1      -7.071 -43.673 -33.423  1.00  0.00     0.293 HD
ENDBRANCH  18  21
ENDBRANCH   3  13
BRANCH  10  23
ATOM     23  O   UNL     1      -5.931 -34.227 -28.763  1.00  0.00    -0.507 OA
ATOM     24  H   UNL     1      -5.507 -34.762 -27.988  1.00  0.00     0.293 HD
ENDBRANCH  10  23
BRANCH  11  25
ATOM     25  O   UNL     1      -9.836 -34.135 -31.497  1.00  0.00    -0.508 OA
ATOM     26  H   UNL     1     -10.597 -33.915 -30.857  1.00  0.00     0.293 HD
ENDBRANCH  11  25
ENDBRANCH   1   2
BRANCH   1  27
ATOM     27  C   UNL     1      -4.077 -39.700 -29.314  1.00  0.00     0.339 C 
ATOM     28  C   UNL     1      -4.661 -41.488 -29.250  1.00  0.00     0.214 C 
ATOM     29  O   UNL     1      -2.996 -38.891 -28.445  1.00  0.00    -0.332 OA
ATOM     30  C   UNL     1      -3.194 -42.616 -29.517  1.00  0.00     0.180 C 
ATOM     31  C   UNL     1      -1.420 -39.055 -28.622  1.00  0.00     0.179 C 
ATOM     32  C   UNL     1      -0.730 -40.714 -29.093  1.00  0.00     0.177 C 
BRANCH  28  33
ATOM     33  O   UNL     1      -5.638 -41.734 -30.237  1.00  0.00    -0.384 OA
ATOM     34  H   UNL     1      -5.245 -42.463 -30.795  1.00  0.00     0.211 HD
ENDBRANCH  28  33
BRANCH  30  35
ATOM     35  O   UNL     1      -3.407 -43.344 -30.733  1.00  0.00    -0.387 OA
ATOM     36  H   UNL     1      -4.378 -43.591 -30.714  1.00  0.00     0.211 HD
ENDBRANCH  30  35
BRANCH  31  37
ATOM     37  C   UNL     1      -1.012 -37.872 -29.517  1.00  0.00     0.191 C 
BRANCH  37  38
ATOM     38  O   UNL     1      -1.185 -38.175 -30.887  1.00  0.00    -0.394 OA
ATOM     39  H   UNL     1      -0.995 -39.151 -31.024  1.00  0.00     0.210 HD
ENDBRANCH  37  38
ENDBRANCH  31  37
BRANCH  32  40
ATOM     40  O   UNL     1       0.316 -40.568 -30.043  1.00  0.00    -0.387 OA
ATOM     41  H   UNL     1       0.074 -40.878 -30.950  1.00  0.00     0.211 HD
ENDBRANCH  32  40
ENDBRANCH   1  27
TORSDOF 12
ENDMDL
MODEL 3
REMARK VINA RESULT:    -5.837      3.653      5.472
REMARK INTER + INTRA:          -7.525
REMARK INTER:                  -8.165
REMARK INTRA:                   0.640
REMARK UNBOUND:                 0.530
REMARK SMILES O=c1c(O[C@@H]2O[C@H](CO)[C@H](O)[C@H](O)[C@@H]2O)c(-c2ccc(O)c(O)c2)oc2cc(O)cc(O)c12
REMARK SMILES IDX 4 1 3 2 16 3 25 4 2 5 26 6 1 7 33 8 27 9 31 10 28 11 30 12
REMARK SMILES IDX 17 13 18 14 19 15 20 16 24 17 22 18 21 19 23 21 32 23 29 25
REMARK SMILES IDX 5 27 14 28 6 29 12 30 7 31 10 32 15 33 13 35 8 37 9 38 11 40
REMARK H PARENT 21 20 23 22 32 24 29 26 15 34 13 36 9 39 11 41
REMARK Flexibility Score: inf
ROOT
ATOM      1  O   UNL     1      -4.979 -36.717 -31.989  1.00  0.00    -0.454 OA
ENDROOT
BRANCH   1   2
ATOM      2  C   UNL     1      -4.605 -37.871 -31.356  1.00  0.00     0.214 A 
ATOM      3  C   UNL     1      -3.365 -38.843 -31.900  1.00  0.00     0.180 A 
ATOM      4  O   UNL     1      -3.156 -40.177 -31.177  1.00  0.00    -0.452 OA
ATOM      5  C   UNL     1      -5.703 -38.758 -29.695  1.00  0.00     0.239 A 
ATOM      6  C   UNL     1      -3.850 -40.825 -30.001  1.00  0.00     0.146 A 
ATOM      7  O   UNL     1      -6.790 -38.322 -29.170  1.00  0.00    -0.285 OA
ATOM      8  C   UNL     1      -5.132 -40.209 -29.217  1.00  0.00     0.111 A 
ATOM      9  C   UNL     1      -3.379 -42.071 -29.566  1.00  0.00     0.094 A 
ATOM     10  C   UNL     1      -5.775 -41.008 -28.290  1.00  0.00     0.134 A 
ATOM     11  C   UNL     1      -4.005 -42.710 -28.470  1.00  0.00     0.123 A 
ATOM     12  C   UNL     1      -5.186 -42.195 -27.881  1.00  0.00     0.093 A 
BRANCH   3  13
ATOM     13  C   UNL     1      -2.623 -38.592 -33.186  1.00  0.00     0.025 A 
ATOM     14  C   UNL     1      -1.270 -38.228 -33.162  1.00  0.00     0.016 A 
ATOM     15  C   UNL     1      -0.425 -38.459 -34.274  1.00  0.00     0.051 A 
ATOM     16  C   UNL     1      -0.962 -39.077 -35.402  1.00  0.00     0.157 A 
ATOM     17  C   UNL     1      -3.177 -38.902 -34.425  1.00  0.00     0.062 A 
ATOM     18  C   UNL     1      -2.387 -39.148 -35.527  1.00  0.00     0.158 A 
BRANCH  16  19
ATOM     19  O   UNL     1      -0.151 -39.622 -36.373  1.00  0.00    -0.504 OA
ATOM     20  H   UNL     1       0.871 -39.418 -36.353  1.00  0.00     0.293 HD
ENDBRANCH  16  19
BRANCH  18  21
ATOM     21  O   UNL     1      -2.968 -39.528 -36.729  1.00  0.00    -0.504 OA
ATOM     22  H   UNL     1      -3.918 -39.169 -36.964  1.00  0.00     0.293 HD
ENDBRANCH  18  21
ENDBRANCH   3  13
BRANCH  10  23
ATOM     23  O   UNL     1      -7.086 -40.769 -27.917  1.00  0.00    -0.507 OA
ATOM     24  H   UNL     1      -7.194 -40.297 -27.005  1.00  0.00     0.293 HD
ENDBRANCH  10  23
BRANCH  11  25
ATOM     25  O   UNL     1      -3.512 -43.924 -27.970  1.00  0.00    -0.508 OA
ATOM     26  H   UNL     1      -3.259 -44.714 -28.561  1.00  0.00     0.293 HD
ENDBRANCH  11  25
ENDBRANCH   1   2
BRANCH   1  27
ATOM     27  C   UNL     1      -4.886 -36.221 -30.730  1.00  0.00     0.339 C 
ATOM     28  C   UNL     1      -3.462 -34.992 -30.801  1.00  0.00     0.214 C 
ATOM     29  O   UNL     1      -6.449 -36.037 -30.406  1.00  0.00    -0.332 OA
ATOM     30  C   UNL     1      -3.855 -33.681 -32.074  1.00  0.00     0.180 C 
ATOM     31  C   UNL     1      -7.494 -35.404 -31.429  1.00  0.00     0.179 C 
ATOM     32  C   UNL     1      -6.932 -34.061 -32.582  1.00  0.00     0.177 C 
BRANCH  28  33
ATOM     33  O   UNL     1      -2.256 -35.640 -31.140  1.00  0.00    -0.384 OA
ATOM     34  H   UNL     1      -1.621 -34.893 -31.332  1.00  0.00     0.211 HD
ENDBRANCH  28  33
BRANCH  30  35
ATOM     35  O   UNL     1      -2.883 -33.772 -33.124  1.00  0.00    -0.387 OA
ATOM     36  H   UNL     1      -2.478 -34.682 -33.015  1.00  0.00     0.211 HD
ENDBRANCH  30  35
BRANCH  31  37
ATOM     37  C   UNL     1      -8.170 -36.621 -32.084  1.00  0.00     0.191 C 
BRANCH  37  38
ATOM     38  O   UNL     1      -8.852 -37.412 -31.129  1.00  0.00    -0.394 OA
ATOM     39  H   UNL     1      -8.171 -37.898 -30.576  1.00  0.00     0.210 HD
ENDBRANCH  37  38
ENDBRANCH  31  37
BRANCH  32  40
ATOM     40  O   UNL     1      -7.493 -34.246 -33.874  1.00  0.00    -0.387 OA
ATOM     41  H   UNL     1      -6.823 -34.449 -34.572  1.00  0.00     0.211 HD
ENDBRANCH  32  40
ENDBRANCH   1  27
TORSDOF 12
ENDMDL
MODEL 4
REMARK VINA RESULT:    -5.687      4.112      5.750
REMARK INTER + INTRA:          -7.318
REMARK INTER:                  -9.063
REMARK INTRA:                   1.745
REMARK UNBOUND:                 0.530
REMARK SMILES O=c1c(O[C@@H]2O[C@H](CO)[C@H](O)[C@H](O)[C@@H]2O)c(-c2ccc(O)c(O)c2)oc2cc(O)cc(O)c12
REMARK SMILES IDX 4 1 3 2 16 3 25 4 2 5 26 6 1 7 33 8 27 9 31 10 28 11 30 12
REMARK SMILES IDX 17 13 18 14 19 15 20 16 24 17 22 18 21 19 23 21 32 23 29 25
REMARK SMILES IDX 5 27 14 28 6 29 12 30 7 31 10 32 15 33 13 35 8 37 9 38 11 40
REMARK H PARENT 21 20 23 22 32 24 29 26 15 34 13 36 9 39 11 41
REMARK Flexibility Score: inf
ROOT
ATOM      1  O   UNL     1      -3.876 -39.903 -29.879  1.00  0.00    -0.454 OA
ENDROOT
BRANCH   1   2
ATOM      2  C   UNL     1      -4.882 -39.126 -30.386  1.00  0.00     0.214 A 
ATOM      3  C   UNL     1      -5.080 -38.848 -32.018  1.00  0.00     0.180 A 
ATOM      4  O   UNL     1      -6.158 -37.840 -32.428  1.00  0.00    -0.452 OA
ATOM      5  C   UNL     1      -6.232 -37.932 -29.160  1.00  0.00     0.239 A 
ATOM      6  C   UNL     1      -7.148 -37.019 -31.635  1.00  0.00     0.146 A 
ATOM      7  O   UNL     1      -6.212 -37.816 -27.882  1.00  0.00    -0.285 OA
ATOM      8  C   UNL     1      -7.245 -36.982 -30.014  1.00  0.00     0.111 A 
ATOM      9  C   UNL     1      -8.033 -36.196 -32.343  1.00  0.00     0.094 A 
ATOM     10  C   UNL     1      -8.070 -36.037 -29.433  1.00  0.00     0.134 A 
ATOM     11  C   UNL     1      -8.973 -35.409 -31.636  1.00  0.00     0.123 A 
ATOM     12  C   UNL     1      -8.957 -35.320 -30.222  1.00  0.00     0.093 A 
BRANCH   3  13
ATOM     13  C   UNL     1      -4.113 -39.340 -33.061  1.00  0.00     0.025 A 
ATOM     14  C   UNL     1      -4.400 -40.494 -33.804  1.00  0.00     0.016 A 
ATOM     15  C   UNL     1      -3.819 -40.715 -35.075  1.00  0.00     0.051 A 
ATOM     16  C   UNL     1      -2.956 -39.749 -35.591  1.00  0.00     0.157 A 
ATOM     17  C   UNL     1      -3.019 -38.580 -33.466  1.00  0.00     0.062 A 
ATOM     18  C   UNL     1      -2.435 -38.756 -34.702  1.00  0.00     0.158 A 
BRANCH  16  19
ATOM     19  O   UNL     1      -2.617 -39.734 -36.926  1.00  0.00    -0.504 OA
ATOM     20  H   UNL     1      -1.672 -40.068 -37.213  1.00  0.00     0.293 HD
ENDBRANCH  16  19
BRANCH  18  21
ATOM     21  O   UNL     1      -1.395 -37.930 -35.104  1.00  0.00    -0.504 OA
ATOM     22  H   UNL     1      -1.571 -37.228 -35.855  1.00  0.00     0.293 HD
ENDBRANCH  18  21
ENDBRANCH   3  13
BRANCH  10  23
ATOM     23  O   UNL     1      -7.888 -35.630 -28.122  1.00  0.00    -0.507 OA
ATOM     24  H   UNL     1      -7.826 -36.400 -27.438  1.00  0.00     0.293 HD
ENDBRANCH  10  23
BRANCH  11  25
ATOM     25  O   UNL     1      -9.915 -34.629 -32.320  1.00  0.00    -0.508 OA
ATOM     26  H   UNL     1     -10.457 -33.887 -31.881  1.00  0.00     0.293 HD
ENDBRANCH  11  25
ENDBRANCH   1   2
BRANCH   1  27
ATOM     27  C   UNL     1      -4.518 -39.639 -28.714  1.00  0.00     0.339 C 
ATOM     28  C   UNL     1      -5.102 -41.319 -28.096  1.00  0.00     0.214 C 
ATOM     29  O   UNL     1      -3.503 -38.560 -28.094  1.00  0.00    -0.332 OA
ATOM     30  C   UNL     1      -3.617 -42.434 -27.875  1.00  0.00     0.180 C 
ATOM     31  C   UNL     1      -1.918 -38.734 -28.101  1.00  0.00     0.179 C 
ATOM     32  C   UNL     1      -1.193 -40.436 -27.946  1.00  0.00     0.177 C 
BRANCH  28  33
ATOM     33  O   UNL     1      -6.005 -41.903 -29.008  1.00  0.00    -0.384 OA
ATOM     34  H   UNL     1      -5.587 -41.747 -29.902  1.00  0.00     0.211 HD
ENDBRANCH  28  33
BRANCH  30  35
ATOM     35  O   UNL     1      -3.742 -43.529 -28.791  1.00  0.00    -0.387 OA
ATOM     36  H   UNL     1      -4.693 -43.492 -29.102  1.00  0.00     0.211 HD
ENDBRANCH  30  35
BRANCH  31  37
ATOM     37  C   UNL     1      -1.450 -37.905 -29.310  1.00  0.00     0.191 C 
BRANCH  37  38
ATOM     38  O   UNL     1      -1.357 -38.698 -30.477  1.00  0.00    -0.394 OA
ATOM     39  H   UNL     1      -0.423 -39.060 -30.541  1.00  0.00     0.210 HD
ENDBRANCH  37  38
ENDBRANCH  31  37
BRANCH  32  40
ATOM     40  O   UNL     1      -0.083 -40.587 -28.819  1.00  0.00    -0.387 OA
ATOM     41  H   UNL     1       0.383 -39.738 -29.018  1.00  0.00     0.211 HD
ENDBRANCH  32  40
ENDBRANCH   1  27
TORSDOF 12
ENDMDL
MODEL 5
REMARK VINA RESULT:    -5.539      2.040      6.822
REMARK INTER + INTRA:          -7.113
REMARK INTER:                  -7.769
REMARK INTRA:                   0.656
REMARK UNBOUND:                 0.530
REMARK SMILES O=c1c(O[C@@H]2O[C@H](CO)[C@H](O)[C@H](O)[C@@H]2O)c(-c2ccc(O)c(O)c2)oc2cc(O)cc(O)c12
REMARK SMILES IDX 4 1 3 2 16 3 25 4 2 5 26 6 1 7 33 8 27 9 31 10 28 11 30 12
REMARK SMILES IDX 17 13 18 14 19 15 20 16 24 17 22 18 21 19 23 21 32 23 29 25
REMARK SMILES IDX 5 27 14 28 6 29 12 30 7 31 10 32 15 33 13 35 8 37 9 38 11 40
REMARK H PARENT 21 20 23 22 32 24 29 26 15 34 13 36 9 39 11 41
REMARK Flexibility Score: inf
ROOT
ATOM      1  O   UNL     1      -1.677 -39.241 -31.127  1.00  0.00    -0.454 OA
ENDROOT
BRANCH   1   2
ATOM      2  C   UNL     1      -1.522 -38.692 -32.370  1.00  0.00     0.214 A 
ATOM      3  C   UNL     1      -2.585 -38.971 -33.624  1.00  0.00     0.180 A 
ATOM      4  O   UNL     1      -2.205 -38.411 -34.998  1.00  0.00    -0.452 OA
ATOM      5  C   UNL     1       0.242 -37.575 -32.996  1.00  0.00     0.239 A 
ATOM      6  C   UNL     1      -1.027 -37.598 -35.483  1.00  0.00     0.146 A 
ATOM      7  O   UNL     1       1.294 -37.343 -32.298  1.00  0.00    -0.285 OA
ATOM      8  C   UNL     1       0.242 -37.156 -34.572  1.00  0.00     0.111 A 
ATOM      9  C   UNL     1      -1.002 -37.220 -36.832  1.00  0.00     0.094 A 
ATOM     10  C   UNL     1       1.330 -36.583 -35.204  1.00  0.00     0.134 A 
ATOM     11  C   UNL     1       0.086 -36.461 -37.325  1.00  0.00     0.123 A 
ATOM     12  C   UNL     1       1.225 -36.186 -36.528  1.00  0.00     0.093 A 
BRANCH   3  13
ATOM     13  C   UNL     1      -3.742 -39.928 -33.527  1.00  0.00     0.025 A 
ATOM     14  C   UNL     1      -4.085 -40.738 -34.618  1.00  0.00     0.016 A 
ATOM     15  C   UNL     1      -4.791 -41.951 -34.443  1.00  0.00     0.051 A 
ATOM     16  C   UNL     1      -5.134 -42.342 -33.150  1.00  0.00     0.157 A 
ATOM     17  C   UNL     1      -4.376 -40.193 -32.315  1.00  0.00     0.062 A 
ATOM     18  C   UNL     1      -5.062 -41.369 -32.102  1.00  0.00     0.158 A 
BRANCH  16  19
ATOM     19  O   UNL     1      -5.521 -43.635 -32.873  1.00  0.00    -0.504 OA
ATOM     20  H   UNL     1      -4.872 -44.257 -32.345  1.00  0.00     0.293 HD
ENDBRANCH  16  19
BRANCH  18  21
ATOM     21  O   UNL     1      -5.618 -41.635 -30.858  1.00  0.00    -0.504 OA
ATOM     22  H   UNL     1      -5.450 -42.566 -30.420  1.00  0.00     0.293 HD
ENDBRANCH  18  21
ENDBRANCH   3  13
BRANCH  10  23
ATOM     23  O   UNL     1       2.587 -36.589 -34.623  1.00  0.00    -0.507 OA
ATOM     24  H   UNL     1       3.369 -36.486 -35.290  1.00  0.00     0.293 HD
ENDBRANCH  10  23
BRANCH  11  25
ATOM     25  O   UNL     1       0.104 -36.012 -38.653  1.00  0.00    -0.508 OA
ATOM     26  H   UNL     1       0.127 -35.027 -38.913  1.00  0.00     0.293 HD
ENDBRANCH  11  25
ENDBRANCH   1   2
BRANCH   1  27
ATOM     27  C   UNL     1      -1.507 -37.950 -30.745  1.00  0.00     0.339 C 
ATOM     28  C   UNL     1      -3.182 -37.425 -30.066  1.00  0.00     0.214 C 
ATOM     29  O   UNL     1      -0.059 -38.069 -30.059  1.00  0.00    -0.332 OA
ATOM     30  C   UNL     1      -3.641 -38.552 -28.646  1.00  0.00     0.180 C 
ATOM     31  C   UNL     1       0.354 -39.248 -29.068  1.00  0.00     0.179 C 
ATOM     32  C   UNL     1      -0.931 -39.978 -27.945  1.00  0.00     0.177 C 
BRANCH  28  33
ATOM     33  O   UNL     1      -4.173 -37.492 -31.067  1.00  0.00    -0.384 OA
ATOM     34  H   UNL     1      -4.389 -38.465 -31.135  1.00  0.00     0.211 HD
ENDBRANCH  28  33
BRANCH  30  35
ATOM     35  O   UNL     1      -4.822 -39.276 -29.015  1.00  0.00    -0.387 OA
ATOM     36  H   UNL     1      -5.221 -38.744 -29.764  1.00  0.00     0.211 HD
ENDBRANCH  30  35
BRANCH  31  37
ATOM     37  C   UNL     1       1.122 -40.241 -29.958  1.00  0.00     0.191 C 
BRANCH  37  38
ATOM     38  O   UNL     1       0.257 -41.205 -30.525  1.00  0.00    -0.394 OA
ATOM     39  H   UNL     1       0.574 -42.117 -30.252  1.00  0.00     0.210 HD
ENDBRANCH  37  38
ENDBRANCH  31  37
BRANCH  32  40
ATOM     40  O   UNL     1      -0.788 -41.390 -27.875  1.00  0.00    -0.387 OA
ATOM     41  H   UNL     1      -0.016 -41.736 -28.388  1.00  0.00     0.211 HD
ENDBRANCH  32  40
ENDBRANCH   1  27
TORSDOF 12
ENDMDL
MODEL 6
REMARK VINA RESULT:    -5.458      3.685      6.444
REMARK INTER + INTRA:          -7.002
REMARK INTER:                  -7.680
REMARK INTRA:                   0.678
REMARK UNBOUND:                 0.530
REMARK SMILES O=c1c(O[C@@H]2O[C@H](CO)[C@H](O)[C@H](O)[C@@H]2O)c(-c2ccc(O)c(O)c2)oc2cc(O)cc(O)c12
REMARK SMILES IDX 4 1 3 2 16 3 25 4 2 5 26 6 1 7 33 8 27 9 31 10 28 11 30 12
REMARK SMILES IDX 17 13 18 14 19 15 20 16 24 17 22 18 21 19 23 21 32 23 29 25
REMARK SMILES IDX 5 27 14 28 6 29 12 30 7 31 10 32 15 33 13 35 8 37 9 38 11 40
REMARK H PARENT 21 20 23 22 32 24 29 26 15 34 13 36 9 39 11 41
REMARK Flexibility Score: inf
ROOT
ATOM      1  O   UNL     1      -2.250 -38.177 -31.956  1.00  0.00    -0.454 OA
ENDROOT
BRANCH   1   2
ATOM      2  C   UNL     1      -3.521 -37.680 -31.870  1.00  0.00     0.214 A 
ATOM      3  C   UNL     1      -4.878 -38.649 -31.875  1.00  0.00     0.180 A 
ATOM      4  O   UNL     1      -6.238 -37.945 -31.923  1.00  0.00    -0.452 OA
ATOM      5  C   UNL     1      -4.005 -35.556 -31.960  1.00  0.00     0.239 A 
ATOM      6  C   UNL     1      -6.637 -36.488 -31.943  1.00  0.00     0.146 A 
ATOM      7  O   UNL     1      -3.181 -34.585 -32.121  1.00  0.00    -0.285 OA
ATOM      8  C   UNL     1      -5.604 -35.236 -31.985  1.00  0.00     0.111 A 
ATOM      9  C   UNL     1      -8.005 -36.183 -31.961  1.00  0.00     0.094 A 
ATOM     10  C   UNL     1      -6.121 -33.971 -32.196  1.00  0.00     0.134 A 
ATOM     11  C   UNL     1      -8.418 -34.830 -31.983  1.00  0.00     0.123 A 
ATOM     12  C   UNL     1      -7.491 -33.769 -32.128  1.00  0.00     0.093 A 
BRANCH   3  13
ATOM     13  C   UNL     1      -4.826 -40.139 -32.079  1.00  0.00     0.025 A 
ATOM     14  C   UNL     1      -4.949 -41.008 -30.986  1.00  0.00     0.016 A 
ATOM     15  C   UNL     1      -5.395 -42.341 -31.150  1.00  0.00     0.051 A 
ATOM     16  C   UNL     1      -5.727 -42.779 -32.431  1.00  0.00     0.157 A 
ATOM     17  C   UNL     1      -4.857 -40.709 -33.349  1.00  0.00     0.062 A 
ATOM     18  C   UNL     1      -5.298 -41.999 -33.551  1.00  0.00     0.158 A 
BRANCH  16  19
ATOM     19  O   UNL     1      -6.462 -43.928 -32.624  1.00  0.00    -0.504 OA
ATOM     20  H   UNL     1      -6.117 -44.643 -33.300  1.00  0.00     0.293 HD
ENDBRANCH  16  19
BRANCH  18  21
ATOM     21  O   UNL     1      -5.388 -42.510 -34.839  1.00  0.00    -0.504 OA
ATOM     22  H   UNL     1      -4.513 -42.797 -35.328  1.00  0.00     0.293 HD
ENDBRANCH  18  21
ENDBRANCH   3  13
BRANCH  10  23
ATOM     23  O   UNL     1      -5.333 -32.943 -32.685  1.00  0.00    -0.507 OA
ATOM     24  H   UNL     1      -4.439 -32.812 -32.186  1.00  0.00     0.293 HD
ENDBRANCH  10  23
BRANCH  11  25
ATOM     25  O   UNL     1      -9.778 -34.495 -31.933  1.00  0.00    -0.508 OA
ATOM     26  H   UNL     1     -10.391 -34.504 -32.746  1.00  0.00     0.293 HD
ENDBRANCH  11  25
ENDBRANCH   1   2
BRANCH   1  27
ATOM     27  C   UNL     1      -2.067 -37.374 -30.878  1.00  0.00     0.339 C 
ATOM     28  C   UNL     1      -1.825 -38.556 -29.433  1.00  0.00     0.214 C 
ATOM     29  O   UNL     1      -1.104 -36.270 -31.536  1.00  0.00    -0.332 OA
ATOM     30  C   UNL     1      -0.351 -39.651 -29.785  1.00  0.00     0.180 C 
ATOM     31  C   UNL     1       0.134 -36.625 -32.476  1.00  0.00     0.179 C 
ATOM     32  C   UNL     1       1.093 -38.183 -32.158  1.00  0.00     0.177 C 
BRANCH  28  33
ATOM     33  O   UNL     1      -2.973 -39.351 -29.237  1.00  0.00    -0.384 OA
ATOM     34  H   UNL     1      -2.642 -40.289 -29.330  1.00  0.00     0.211 HD
ENDBRANCH  28  33
BRANCH  30  35
ATOM     35  O   UNL     1      -0.813 -41.004 -29.882  1.00  0.00    -0.387 OA
ATOM     36  H   UNL     1      -1.359 -41.145 -29.054  1.00  0.00     0.211 HD
ENDBRANCH  30  35
BRANCH  31  37
ATOM     37  C   UNL     1      -0.408 -36.441 -33.904  1.00  0.00     0.191 C 
BRANCH  37  38
ATOM     38  O   UNL     1      -1.110 -35.221 -34.039  1.00  0.00    -0.394 OA
ATOM     39  H   UNL     1      -1.161 -34.783 -33.137  1.00  0.00     0.210 HD
ENDBRANCH  37  38
ENDBRANCH  31  37
BRANCH  32  40
ATOM     40  O   UNL     1       1.429 -38.820 -33.382  1.00  0.00    -0.387 OA
ATOM     41  H   UNL     1       0.725 -39.428 -33.719  1.00  0.00     0.211 HD
ENDBRANCH  32  40
ENDBRANCH   1  27
TORSDOF 12
ENDMDL
MODEL 7
REMARK VINA RESULT:    -5.378      4.023      6.888
REMARK INTER + INTRA:          -6.892
REMARK INTER:                  -7.499
REMARK INTRA:                   0.607
REMARK UNBOUND:                 0.530
REMARK SMILES O=c1c(O[C@@H]2O[C@H](CO)[C@H](O)[C@H](O)[C@@H]2O)c(-c2ccc(O)c(O)c2)oc2cc(O)cc(O)c12
REMARK SMILES IDX 4 1 3 2 16 3 25 4 2 5 26 6 1 7 33 8 27 9 31 10 28 11 30 12
REMARK SMILES IDX 17 13 18 14 19 15 20 16 24 17 22 18 21 19 23 21 32 23 29 25
REMARK SMILES IDX 5 27 14 28 6 29 12 30 7 31 10 32 15 33 13 35 8 37 9 38 11 40
REMARK H PARENT 21 20 23 22 32 24 29 26 15 34 13 36 9 39 11 41
REMARK Flexibility Score: inf
ROOT
ATOM      1  O   UNL     1      -2.600 -37.733 -31.130  1.00  0.00    -0.454 OA
ENDROOT
BRANCH   1   2
ATOM      2  C   UNL     1      -3.875 -37.279 -31.322  1.00  0.00     0.214 A 
ATOM      3  C   UNL     1      -5.211 -38.276 -31.276  1.00  0.00     0.180 A 
ATOM      4  O   UNL     1      -6.559 -37.656 -31.656  1.00  0.00    -0.452 OA
ATOM      5  C   UNL     1      -4.362 -35.252 -31.958  1.00  0.00     0.239 A 
ATOM      6  C   UNL     1      -6.965 -36.257 -32.060  1.00  0.00     0.146 A 
ATOM      7  O   UNL     1      -3.533 -34.311 -32.233  1.00  0.00    -0.285 OA
ATOM      8  C   UNL     1      -5.946 -35.008 -32.258  1.00  0.00     0.111 A 
ATOM      9  C   UNL     1      -8.321 -36.018 -32.321  1.00  0.00     0.094 A 
ATOM     10  C   UNL     1      -6.442 -33.846 -32.818  1.00  0.00     0.134 A 
ATOM     11  C   UNL     1      -8.740 -34.723 -32.706  1.00  0.00     0.123 A 
ATOM     12  C   UNL     1      -7.811 -33.686 -32.972  1.00  0.00     0.093 A 
BRANCH   3  13
ATOM     13  C   UNL     1      -5.119 -39.771 -31.123  1.00  0.00     0.025 A 
ATOM     14  C   UNL     1      -4.730 -40.571 -32.206  1.00  0.00     0.016 A 
ATOM     15  C   UNL     1      -4.162 -41.852 -32.011  1.00  0.00     0.051 A 
ATOM     16  C   UNL     1      -3.978 -42.307 -30.706  1.00  0.00     0.157 A 
ATOM     17  C   UNL     1      -5.214 -40.389 -29.878  1.00  0.00     0.062 A 
ATOM     18  C   UNL     1      -4.660 -41.630 -29.645  1.00  0.00     0.158 A 
BRANCH  16  19
ATOM     19  O   UNL     1      -3.151 -43.374 -30.431  1.00  0.00    -0.504 OA
ATOM     20  H   UNL     1      -3.317 -44.282 -30.915  1.00  0.00     0.293 HD
ENDBRANCH  16  19
BRANCH  18  21
ATOM     21  O   UNL     1      -4.707 -42.185 -28.374  1.00  0.00    -0.504 OA
ATOM     22  H   UNL     1      -5.423 -41.838 -27.700  1.00  0.00     0.293 HD
ENDBRANCH  18  21
ENDBRANCH   3  13
BRANCH  10  23
ATOM     23  O   UNL     1      -5.607 -32.925 -33.427  1.00  0.00    -0.507 OA
ATOM     24  H   UNL     1      -5.670 -32.904 -34.458  1.00  0.00     0.293 HD
ENDBRANCH  10  23
BRANCH  11  25
ATOM     25  O   UNL     1     -10.098 -34.438 -32.906  1.00  0.00    -0.508 OA
ATOM     26  H   UNL     1     -10.719 -35.022 -33.463  1.00  0.00     0.293 HD
ENDBRANCH  11  25
ENDBRANCH   1   2
BRANCH   1  27
ATOM     27  C   UNL     1      -2.538 -36.647 -30.320  1.00  0.00     0.339 C 
ATOM     28  C   UNL     1      -2.605 -37.346 -28.573  1.00  0.00     0.214 C 
ATOM     29  O   UNL     1      -1.414 -35.804 -31.098  1.00  0.00    -0.332 OA
ATOM     30  C   UNL     1      -1.168 -38.516 -28.332  1.00  0.00     0.180 C 
ATOM     31  C   UNL     1      -0.068 -36.442 -31.667  1.00  0.00     0.179 C 
ATOM     32  C   UNL     1       0.726 -37.847 -30.748  1.00  0.00     0.177 C 
BRANCH  28  33
ATOM     33  O   UNL     1      -3.819 -38.028 -28.351  1.00  0.00    -0.384 OA
ATOM     34  H   UNL     1      -4.340 -37.417 -27.757  1.00  0.00     0.211 HD
ENDBRANCH  28  33
BRANCH  30  35
ATOM     35  O   UNL     1      -1.695 -39.830 -28.106  1.00  0.00    -0.387 OA
ATOM     36  H   UNL     1      -2.177 -39.762 -27.230  1.00  0.00     0.211 HD
ENDBRANCH  30  35
BRANCH  31  37
ATOM     37  C   UNL     1      -0.364 -36.687 -33.157  1.00  0.00     0.191 C 
BRANCH  37  38
ATOM     38  O   UNL     1      -1.501 -35.964 -33.585  1.00  0.00    -0.394 OA
ATOM     39  H   UNL     1      -1.395 -35.007 -33.301  1.00  0.00     0.210 HD
ENDBRANCH  37  38
ENDBRANCH  31  37
BRANCH  32  40
ATOM     40  O   UNL     1       1.210 -38.826 -31.656  1.00  0.00    -0.387 OA
ATOM     41  H   UNL     1       1.676 -39.579 -31.215  1.00  0.00     0.211 HD
ENDBRANCH  32  40
ENDBRANCH   1  27
TORSDOF 12
ENDMDL
MODEL 8
REMARK VINA RESULT:    -5.354      3.508      6.507
REMARK INTER + INTRA:          -6.859
REMARK INTER:                  -8.141
REMARK INTRA:                   1.282
REMARK UNBOUND:                 0.530
REMARK SMILES O=c1c(O[C@@H]2O[C@H](CO)[C@H](O)[C@H](O)[C@@H]2O)c(-c2ccc(O)c(O)c2)oc2cc(O)cc(O)c12
REMARK SMILES IDX 4 1 3 2 16 3 25 4 2 5 26 6 1 7 33 8 27 9 31 10 28 11 30 12
REMARK SMILES IDX 17 13 18 14 19 15 20 16 24 17 22 18 21 19 23 21 32 23 29 25
REMARK SMILES IDX 5 27 14 28 6 29 12 30 7 31 10 32 15 33 13 35 8 37 9 38 11 40
REMARK H PARENT 21 20 23 22 32 24 29 26 15 34 13 36 9 39 11 41
REMARK Flexibility Score: inf
ROOT
ATOM      1  O   UNL     1      -2.168 -38.587 -32.324  1.00  0.00    -0.454 OA
ENDROOT
BRANCH   1   2
ATOM      2  C   UNL     1      -3.422 -38.069 -32.149  1.00  0.00     0.214 A 
ATOM      3  C   UNL     1      -4.807 -38.993 -32.235  1.00  0.00     0.180 A 
ATOM      4  O   UNL     1      -6.146 -38.252 -32.165  1.00  0.00    -0.452 OA
ATOM      5  C   UNL     1      -3.843 -35.937 -31.976  1.00  0.00     0.239 A 
ATOM      6  C   UNL     1      -6.501 -36.792 -32.003  1.00  0.00     0.146 A 
ATOM      7  O   UNL     1      -2.995 -34.977 -32.042  1.00  0.00    -0.285 OA
ATOM      8  C   UNL     1      -5.432 -35.573 -31.923  1.00  0.00     0.111 A 
ATOM      9  C   UNL     1      -7.859 -36.450 -31.951  1.00  0.00     0.094 A 
ATOM     10  C   UNL     1      -5.915 -34.279 -31.971  1.00  0.00     0.134 A 
ATOM     11  C   UNL     1      -8.232 -35.094 -31.804  1.00  0.00     0.123 A 
ATOM     12  C   UNL     1      -7.277 -34.048 -31.845  1.00  0.00     0.093 A 
BRANCH   3  13
ATOM     13  C   UNL     1      -4.804 -40.450 -32.614  1.00  0.00     0.025 A 
ATOM     14  C   UNL     1      -4.155 -41.391 -31.802  1.00  0.00     0.016 A 
ATOM     15  C   UNL     1      -4.521 -42.758 -31.821  1.00  0.00     0.051 A 
ATOM     16  C   UNL     1      -5.560 -43.158 -32.660  1.00  0.00     0.157 A 
ATOM     17  C   UNL     1      -5.596 -40.942 -33.648  1.00  0.00     0.062 A 
ATOM     18  C   UNL     1      -5.985 -42.263 -33.694  1.00  0.00     0.158 A 
BRANCH  16  19
ATOM     19  O   UNL     1      -6.180 -44.377 -32.498  1.00  0.00    -0.504 OA
ATOM     20  H   UNL     1      -5.860 -45.189 -33.069  1.00  0.00     0.293 HD
ENDBRANCH  16  19
BRANCH  18  21
ATOM     21  O   UNL     1      -6.836 -42.704 -34.697  1.00  0.00    -0.504 OA
ATOM     22  H   UNL     1      -7.498 -42.024 -35.130  1.00  0.00     0.293 HD
ENDBRANCH  18  21
ENDBRANCH   3  13
BRANCH  10  23
ATOM     23  O   UNL     1      -5.108 -33.221 -32.355  1.00  0.00    -0.507 OA
ATOM     24  H   UNL     1      -5.477 -32.663 -33.142  1.00  0.00     0.293 HD
ENDBRANCH  10  23
BRANCH  11  25
ATOM     25  O   UNL     1      -9.581 -34.730 -31.680  1.00  0.00    -0.508 OA
ATOM     26  H   UNL     1     -10.060 -34.642 -30.786  1.00  0.00     0.293 HD
ENDBRANCH  11  25
ENDBRANCH   1   2
BRANCH   1  27
ATOM     27  C   UNL     1      -1.924 -37.339 -32.794  1.00  0.00     0.339 C 
ATOM     28  C   UNL     1      -0.476 -36.713 -31.767  1.00  0.00     0.214 C 
ATOM     29  O   UNL     1      -2.085 -37.615 -34.368  1.00  0.00    -0.332 OA
ATOM     30  C   UNL     1       0.973 -37.872 -31.992  1.00  0.00     0.180 C 
ATOM     31  C   UNL     1      -1.454 -38.876 -35.112  1.00  0.00     0.179 C 
ATOM     32  C   UNL     1       0.169 -39.557 -34.519  1.00  0.00     0.177 C 
BRANCH  28  33
ATOM     33  O   UNL     1      -0.823 -36.642 -30.402  1.00  0.00    -0.384 OA
ATOM     34  H   UNL     1      -0.194 -35.963 -30.024  1.00  0.00     0.211 HD
ENDBRANCH  28  33
BRANCH  30  35
ATOM     35  O   UNL     1       1.264 -38.474 -30.724  1.00  0.00    -0.387 OA
ATOM     36  H   UNL     1       0.974 -37.793 -30.048  1.00  0.00     0.211 HD
ENDBRANCH  30  35
BRANCH  31  37
ATOM     37  C   UNL     1      -2.615 -39.880 -35.211  1.00  0.00     0.191 C 
BRANCH  37  38
ATOM     38  O   UNL     1      -3.591 -39.453 -36.141  1.00  0.00    -0.394 OA
ATOM     39  H   UNL     1      -4.247 -40.200 -36.279  1.00  0.00     0.210 HD
ENDBRANCH  37  38
ENDBRANCH  31  37
BRANCH  32  40
ATOM     40  O   UNL     1       0.150 -40.977 -34.537  1.00  0.00    -0.387 OA
ATOM     41  H   UNL     1       1.021 -41.388 -34.310  1.00  0.00     0.211 HD
ENDBRANCH  32  40
ENDBRANCH   1  27
TORSDOF 12
ENDMDL
MODEL 9
REMARK VINA RESULT:    -5.349      3.829      6.209
REMARK INTER + INTRA:          -6.852
REMARK INTER:                  -7.498
REMARK INTRA:                   0.646
REMARK UNBOUND:                 0.530
REMARK SMILES O=c1c(O[C@@H]2O[C@H](CO)[C@H](O)[C@H](O)[C@@H]2O)c(-c2ccc(O)c(O)c2)oc2cc(O)cc(O)c12
REMARK SMILES IDX 4 1 3 2 16 3 25 4 2 5 26 6 1 7 33 8 27 9 31 10 28 11 30 12
REMARK SMILES IDX 17 13 18 14 19 15 20 16 24 17 22 18 21 19 23 21 32 23 29 25
REMARK SMILES IDX 5 27 14 28 6 29 12 30 7 31 10 32 15 33 13 35 8 37 9 38 11 40
REMARK H PARENT 21 20 23 22 32 24 29 26 15 34 13 36 9 39 11 41
REMARK Flexibility Score: inf
ROOT
ATOM      1  O   UNL     1      -2.908 -38.273 -30.023  1.00  0.00    -0.454 OA
ENDROOT
BRANCH   1   2
ATOM      2  C   UNL     1      -4.114 -37.801 -30.463  1.00  0.00     0.214 A 
ATOM      3  C   UNL     1      -5.091 -38.647 -31.516  1.00  0.00     0.180 A 
ATOM      4  O   UNL     1      -6.341 -37.930 -32.037  1.00  0.00    -0.452 OA
ATOM      5  C   UNL     1      -4.848 -35.787 -30.069  1.00  0.00     0.239 A 
ATOM      6  C   UNL     1      -6.923 -36.561 -31.770  1.00  0.00     0.146 A 
ATOM      7  O   UNL     1      -4.239 -34.856 -29.428  1.00  0.00    -0.285 OA
ATOM      8  C   UNL     1      -6.245 -35.424 -30.829  1.00  0.00     0.111 A 
ATOM      9  C   UNL     1      -8.125 -36.224 -32.407  1.00  0.00     0.094 A 
ATOM     10  C   UNL     1      -6.797 -34.157 -30.839  1.00  0.00     0.134 A 
ATOM     11  C   UNL     1      -8.699 -34.950 -32.185  1.00  0.00     0.123 A 
ATOM     12  C   UNL     1      -8.026 -33.947 -31.445  1.00  0.00     0.093 A 
BRANCH   3  13
ATOM     13  C   UNL     1      -4.685 -39.949 -32.152  1.00  0.00     0.025 A 
ATOM     14  C   UNL     1      -5.192 -41.162 -31.667  1.00  0.00     0.016 A 
ATOM     15  C   UNL     1      -5.253 -42.315 -32.485  1.00  0.00     0.051 A 
ATOM     16  C   UNL     1      -4.809 -42.222 -33.803  1.00  0.00     0.157 A 
ATOM     17  C   UNL     1      -3.969 -39.992 -33.346  1.00  0.00     0.062 A 
ATOM     18  C   UNL     1      -4.015 -41.091 -34.176  1.00  0.00     0.158 A 
BRANCH  16  19
ATOM     19  O   UNL     1      -5.132 -43.183 -34.735  1.00  0.00    -0.504 OA
ATOM     20  H   UNL     1      -5.210 -42.910 -35.739  1.00  0.00     0.293 HD
ENDBRANCH  16  19
BRANCH  18  21
ATOM     21  O   UNL     1      -3.350 -41.072 -35.394  1.00  0.00    -0.504 OA
ATOM     22  H   UNL     1      -2.308 -41.018 -35.398  1.00  0.00     0.293 HD
ENDBRANCH  18  21
ENDBRANCH   3  13
BRANCH  10  23
ATOM     23  O   UNL     1      -6.063 -33.048 -30.452  1.00  0.00    -0.507 OA
ATOM     24  H   UNL     1      -6.571 -32.391 -29.838  1.00  0.00     0.293 HD
ENDBRANCH  10  23
BRANCH  11  25
ATOM     25  O   UNL     1      -9.934 -34.611 -32.755  1.00  0.00    -0.508 OA
ATOM     26  H   UNL     1     -10.824 -34.993 -32.438  1.00  0.00     0.293 HD
ENDBRANCH  11  25
ENDBRANCH   1   2
BRANCH   1  27
ATOM     27  C   UNL     1      -3.481 -38.058 -28.812  1.00  0.00     0.339 C 
ATOM     28  C   UNL     1      -3.623 -39.768 -28.038  1.00  0.00     0.214 C 
ATOM     29  O   UNL     1      -2.672 -36.743 -28.371  1.00  0.00    -0.332 OA
ATOM     30  C   UNL     1      -1.917 -40.522 -27.914  1.00  0.00     0.180 C 
ATOM     31  C   UNL     1      -1.096 -36.577 -28.540  1.00  0.00     0.179 C 
ATOM     32  C   UNL     1      -0.005 -38.070 -28.364  1.00  0.00     0.177 C 
BRANCH  28  33
ATOM     33  O   UNL     1      -4.458 -40.602 -28.811  1.00  0.00    -0.384 OA
ATOM     34  H   UNL     1      -3.844 -41.308 -29.161  1.00  0.00     0.211 HD
ENDBRANCH  28  33
BRANCH  30  35
ATOM     35  O   UNL     1      -1.884 -41.690 -28.745  1.00  0.00    -0.387 OA
ATOM     36  H   UNL     1      -0.937 -41.744 -29.067  1.00  0.00     0.211 HD
ENDBRANCH  30  35
BRANCH  31  37
ATOM     37  C   UNL     1      -0.935 -35.768 -29.839  1.00  0.00     0.191 C 
BRANCH  37  38
ATOM     38  O   UNL     1      -0.917 -36.611 -30.975  1.00  0.00    -0.394 OA
ATOM     39  H   UNL     1      -1.075 -37.554 -30.673  1.00  0.00     0.210 HD
ENDBRANCH  37  38
ENDBRANCH  31  37
BRANCH  32  40
ATOM     40  O   UNL     1       1.025 -38.053 -29.342  1.00  0.00    -0.387 OA
ATOM     41  H   UNL     1       0.997 -37.261 -29.934  1.00  0.00     0.211 HD
ENDBRANCH  32  40
ENDBRANCH   1  27
TORSDOF 12
ENDMDL
