MODEL 1
REMARK VINA RESULT:    -2.574      0.000      0.000
REMARK INTER + INTRA:          -5.517
REMARK INTER:                  -4.981
REMARK INTRA:                  -0.536
REMARK UNBOUND:                -0.536
REMARK SMILES CCCCCCCCCCCCCCCCCC(=O)[O-]
REMARK SMILES IDX 10 1 11 2 12 3 13 4 14 5 15 6 16 7 17 8 18 9 19 10 20 11
REMARK SMILES IDX 9 12 8 13 7 14 6 15 5 16 4 17 3 18 2 19 1 20
REMARK H PARENT
REMARK Flexibility Score: inf
ROOT
ATOM      1  C   UNL     1       1.078 -22.122 -15.877  1.00  0.00     0.000 C 
ENDROOT
BRANCH   1   2
ATOM      2  C   UNL     1      -0.179 -22.848 -15.368  1.00  0.00     0.000 C 
BRANCH   2   3
ATOM      3  C   UNL     1      -1.468 -22.055 -15.640  1.00  0.00     0.000 C 
BRANCH   3   4
ATOM      4  C   UNL     1      -2.660 -22.554 -14.805  1.00  0.00     0.000 C 
BRANCH   4   5
ATOM      5  C   UNL     1      -3.882 -22.904 -15.669  1.00  0.00     0.000 C 
BRANCH   5   6
ATOM      6  C   UNL     1      -4.470 -21.679 -16.383  1.00  0.00     0.000 C 
BRANCH   6   7
ATOM      7  C   UNL     1      -5.825 -22.014 -17.023  1.00  0.00     0.006 C 
BRANCH   7   8
ATOM      8  C   UNL     1      -6.856 -20.896 -16.821  1.00  0.00     0.053 C 
BRANCH   8   9
ATOM      9  C   UNL     1      -7.900 -21.277 -15.818  1.00  0.00     0.041 C 
ATOM     10  O   UNL     1      -8.529 -22.360 -15.937  1.00  0.00    -0.550 OA
ATOM     11  O   UNL     1      -8.200 -20.418 -14.767  1.00  0.00    -0.550 OA
ENDBRANCH   8   9
ENDBRANCH   7   8
ENDBRANCH   6   7
ENDBRANCH   5   6
ENDBRANCH   4   5
ENDBRANCH   3   4
ENDBRANCH   2   3
ENDBRANCH   1   2
BRANCH   1  12
ATOM     12  C   UNL     1       2.339 -23.000 -15.800  1.00  0.00     0.000 C 
BRANCH  12  13
ATOM     13  C   UNL     1       3.625 -22.212 -16.108  1.00  0.00    -0.000 C 
BRANCH  13  14
ATOM     14  C   UNL     1       4.740 -23.104 -16.680  1.00  0.00    -0.000 C 
BRANCH  14  15
ATOM     15  C   UNL     1       6.140 -22.494 -16.492  1.00  0.00    -0.000 C 
BRANCH  15  16
ATOM     16  C   UNL     1       6.113 -20.957 -16.455  1.00  0.00    -0.000 C 
BRANCH  16  17
ATOM     17  C   UNL     1       7.039 -20.374 -15.374  1.00  0.00    -0.000 C 
BRANCH  17  18
ATOM     18  C   UNL     1       8.418 -21.056 -15.337  1.00  0.00    -0.000 C 
BRANCH  18  19
ATOM     19  C   UNL     1       9.403 -20.461 -14.315  1.00  0.00    -0.003 C 
ATOM     20  C   UNL     1      10.834 -20.375 -14.844  1.00  0.00     0.004 C 
ENDBRANCH  18  19
ENDBRANCH  17  18
ENDBRANCH  16  17
ENDBRANCH  15  16
ENDBRANCH  14  15
ENDBRANCH  13  14
ENDBRANCH  12  13
ENDBRANCH   1  12
TORSDOF 16
ENDMDL
MODEL 2
REMARK VINA RESULT:    -2.551      1.016      1.651
REMARK INTER + INTRA:          -5.473
REMARK INTER:                  -4.848
REMARK INTRA:                  -0.626
REMARK UNBOUND:                -0.536
REMARK SMILES CCCCCCCCCCCCCCCCCC(=O)[O-]
REMARK SMILES IDX 10 1 11 2 12 3 13 4 14 5 15 6 16 7 17 8 18 9 19 10 20 11
REMARK SMILES IDX 9 12 8 13 7 14 6 15 5 16 4 17 3 18 2 19 1 20
REMARK H PARENT
REMARK Flexibility Score: inf
ROOT
ATOM      1  C   UNL     1      -0.201 -22.381 -15.984  1.00  0.00     0.000 C 
ENDROOT
BRANCH   1   2
ATOM      2  C   UNL     1      -1.130 -23.124 -15.009  1.00  0.00     0.000 C 
BRANCH   2   3
ATOM      3  C   UNL     1      -2.474 -22.403 -14.811  1.00  0.00     0.000 C 
BRANCH   3   4
ATOM      4  C   UNL     1      -3.536 -22.833 -15.838  1.00  0.00     0.000 C 
BRANCH   4   5
ATOM      5  C   UNL     1      -4.954 -22.393 -15.442  1.00  0.00     0.000 C 
BRANCH   5   6
ATOM      6  C   UNL     1      -5.683 -21.661 -16.578  1.00  0.00     0.000 C 
BRANCH   6   7
ATOM      7  C   UNL     1      -7.111 -21.280 -16.157  1.00  0.00     0.006 C 
BRANCH   7   8
ATOM      8  C   UNL     1      -7.509 -21.909 -14.816  1.00  0.00     0.053 C 
BRANCH   8   9
ATOM      9  C   UNL     1      -8.297 -20.959 -13.969  1.00  0.00     0.041 C 
ATOM     10  O   UNL     1      -8.645 -19.839 -14.427  1.00  0.00    -0.550 OA
ATOM     11  O   UNL     1      -8.620 -21.298 -12.661  1.00  0.00    -0.550 OA
ENDBRANCH   8   9
ENDBRANCH   7   8
ENDBRANCH   6   7
ENDBRANCH   5   6
ENDBRANCH   4   5
ENDBRANCH   3   4
ENDBRANCH   2   3
ENDBRANCH   1   2
BRANCH   1  12
ATOM     12  C   UNL     1       1.282 -22.727 -15.766  1.00  0.00     0.000 C 
BRANCH  12  13
ATOM     13  C   UNL     1       2.205 -21.510 -15.953  1.00  0.00    -0.000 C 
BRANCH  13  14
ATOM     14  C   UNL     1       3.607 -21.737 -15.365  1.00  0.00    -0.000 C 
BRANCH  14  15
ATOM     15  C   UNL     1       4.569 -22.398 -16.367  1.00  0.00    -0.000 C 
BRANCH  15  16
ATOM     16  C   UNL     1       6.030 -21.970 -16.151  1.00  0.00    -0.000 C 
BRANCH  16  17
ATOM     17  C   UNL     1       6.207 -20.442 -16.149  1.00  0.00    -0.000 C 
BRANCH  17  18
ATOM     18  C   UNL     1       7.354 -19.976 -15.234  1.00  0.00    -0.000 C 
BRANCH  18  19
ATOM     19  C   UNL     1       8.516 -20.977 -15.098  1.00  0.00    -0.003 C 
ATOM     20  C   UNL     1       9.743 -20.378 -14.412  1.00  0.00     0.004 C 
ENDBRANCH  18  19
ENDBRANCH  17  18
ENDBRANCH  16  17
ENDBRANCH  15  16
ENDBRANCH  14  15
ENDBRANCH  13  14
ENDBRANCH  12  13
ENDBRANCH   1  12
TORSDOF 16
ENDMDL
MODEL 3
REMARK VINA RESULT:    -2.382      5.446     12.488
REMARK INTER + INTRA:          -5.146
REMARK INTER:                  -4.538
REMARK INTRA:                  -0.608
REMARK UNBOUND:                -0.536
REMARK SMILES CCCCCCCCCCCCCCCCCC(=O)[O-]
REMARK SMILES IDX 10 1 11 2 12 3 13 4 14 5 15 6 16 7 17 8 18 9 19 10 20 11
REMARK SMILES IDX 9 12 8 13 7 14 6 15 5 16 4 17 3 18 2 19 1 20
REMARK H PARENT
REMARK Flexibility Score: inf
ROOT
ATOM      1  C   UNL     1      -2.108 -22.111 -15.168  1.00  0.00     0.000 C 
ENDROOT
BRANCH   1   2
ATOM      2  C   UNL     1      -0.788 -22.893 -15.271  1.00  0.00     0.000 C 
BRANCH   2   3
ATOM      3  C   UNL     1       0.348 -22.053 -15.877  1.00  0.00     0.000 C 
BRANCH   3   4
ATOM      4  C   UNL     1       1.672 -22.833 -15.982  1.00  0.00     0.000 C 
BRANCH   4   5
ATOM      5  C   UNL     1       2.895 -21.968 -15.640  1.00  0.00     0.000 C 
BRANCH   5   6
ATOM      6  C   UNL     1       4.215 -22.607 -16.095  1.00  0.00     0.000 C 
BRANCH   6   7
ATOM      7  C   UNL     1       5.361 -21.585 -16.058  1.00  0.00     0.006 C 
BRANCH   7   8
ATOM      8  C   UNL     1       6.677 -22.168 -16.589  1.00  0.00     0.053 C 
BRANCH   8   9
ATOM      9  C   UNL     1       7.864 -21.397 -16.101  1.00  0.00     0.041 C 
ATOM     10  O   UNL     1       7.717 -20.472 -15.260  1.00  0.00    -0.550 OA
ATOM     11  O   UNL     1       9.130 -21.679 -16.601  1.00  0.00    -0.550 OA
ENDBRANCH   8   9
ENDBRANCH   7   8
ENDBRANCH   6   7
ENDBRANCH   5   6
ENDBRANCH   4   5
ENDBRANCH   3   4
ENDBRANCH   2   3
ENDBRANCH   1   2
BRANCH   1  12
ATOM     12  C   UNL     1      -3.344 -23.021 -15.269  1.00  0.00     0.000 C 
BRANCH  12  13
ATOM     13  C   UNL     1      -4.288 -22.608 -16.413  1.00  0.00    -0.000 C 
BRANCH  13  14
ATOM     14  C   UNL     1      -5.513 -21.824 -15.912  1.00  0.00    -0.000 C 
BRANCH  14  15
ATOM     15  C   UNL     1      -6.526 -21.531 -17.032  1.00  0.00    -0.000 C 
BRANCH  15  16
ATOM     16  C   UNL     1      -7.951 -21.318 -16.497  1.00  0.00    -0.000 C 
BRANCH  16  17
ATOM     17  C   UNL     1      -8.265 -22.200 -15.276  1.00  0.00    -0.000 C 
BRANCH  17  18
ATOM     18  C   UNL     1      -9.042 -21.448 -14.181  1.00  0.00    -0.000 C 
BRANCH  18  19
ATOM     19  C   UNL     1      -8.789 -19.930 -14.139  1.00  0.00    -0.003 C 
ATOM     20  C   UNL     1      -8.800 -19.361 -12.720  1.00  0.00     0.004 C 
ENDBRANCH  18  19
ENDBRANCH  17  18
ENDBRANCH  16  17
ENDBRANCH  15  16
ENDBRANCH  14  15
ENDBRANCH  13  14
ENDBRANCH  12  13
ENDBRANCH   1  12
TORSDOF 16
ENDMDL
MODEL 4
REMARK VINA RESULT:    -2.280      3.905      6.231
REMARK INTER + INTRA:          -4.949
REMARK INTER:                  -4.007
REMARK INTRA:                  -0.942
REMARK UNBOUND:                -0.536
REMARK SMILES CCCCCCCCCCCCCCCCCC(=O)[O-]
REMARK SMILES IDX 10 1 11 2 12 3 13 4 14 5 15 6 16 7 17 8 18 9 19 10 20 11
REMARK SMILES IDX 9 12 8 13 7 14 6 15 5 16 4 17 3 18 2 19 1 20
REMARK H PARENT
REMARK Flexibility Score: inf
ROOT
ATOM      1  C   UNL     1       6.850 -20.500 -15.764  1.00  0.00     0.000 C 
ENDROOT
BRANCH   1   2
ATOM      2  C   UNL     1       5.412 -21.035 -15.653  1.00  0.00     0.000 C 
BRANCH   2   3
ATOM      3  C   UNL     1       5.175 -22.273 -16.534  1.00  0.00     0.000 C 
BRANCH   3   4
ATOM      4  C   UNL     1       3.749 -22.836 -16.394  1.00  0.00     0.000 C 
BRANCH   4   5
ATOM      5  C   UNL     1       2.870 -21.993 -15.457  1.00  0.00     0.000 C 
BRANCH   5   6
ATOM      6  C   UNL     1       1.539 -21.586 -16.105  1.00  0.00     0.000 C 
BRANCH   6   7
ATOM      7  C   UNL     1       0.404 -22.523 -15.662  1.00  0.00     0.006 C 
BRANCH   7   8
ATOM      8  C   UNL     1      -0.982 -21.943 -15.973  1.00  0.00     0.053 C 
BRANCH   8   9
ATOM      9  C   UNL     1      -2.042 -22.543 -15.102  1.00  0.00     0.041 C 
ATOM     10  O   UNL     1      -3.188 -22.776 -15.568  1.00  0.00    -0.550 OA
ATOM     11  O   UNL     1      -1.774 -22.815 -13.766  1.00  0.00    -0.550 OA
ENDBRANCH   8   9
ENDBRANCH   7   8
ENDBRANCH   6   7
ENDBRANCH   5   6
ENDBRANCH   4   5
ENDBRANCH   3   4
ENDBRANCH   2   3
ENDBRANCH   1   2
BRANCH   1  12
ATOM     12  C   UNL     1       7.906 -21.612 -15.630  1.00  0.00     0.000 C 
BRANCH  12  13
ATOM     13  C   UNL     1       8.850 -21.678 -16.843  1.00  0.00    -0.000 C 
BRANCH  13  14
ATOM     14  C   UNL     1       8.705 -22.990 -17.632  1.00  0.00    -0.000 C 
BRANCH  14  15
ATOM     15  C   UNL     1       7.900 -22.814 -18.931  1.00  0.00    -0.000 C 
BRANCH  15  16
ATOM     16  C   UNL     1       8.770 -22.965 -20.189  1.00  0.00    -0.000 C 
BRANCH  16  17
ATOM     17  C   UNL     1       7.948 -22.923 -21.488  1.00  0.00    -0.000 C 
BRANCH  17  18
ATOM     18  C   UNL     1       8.286 -21.707 -22.370  1.00  0.00    -0.000 C 
BRANCH  18  19
ATOM     19  C   UNL     1       9.633 -21.803 -23.110  1.00  0.00    -0.003 C 
ATOM     20  C   UNL     1      10.732 -20.962 -22.462  1.00  0.00     0.004 C 
ENDBRANCH  18  19
ENDBRANCH  17  18
ENDBRANCH  16  17
ENDBRANCH  15  16
ENDBRANCH  14  15
ENDBRANCH  13  14
ENDBRANCH  12  13
ENDBRANCH   1  12
TORSDOF 16
ENDMDL
MODEL 5
REMARK VINA RESULT:    -2.226      6.589     12.156
REMARK INTER + INTRA:          -4.845
REMARK INTER:                  -4.066
REMARK INTRA:                  -0.778
REMARK UNBOUND:                -0.536
REMARK SMILES CCCCCCCCCCCCCCCCCC(=O)[O-]
REMARK SMILES IDX 10 1 11 2 12 3 13 4 14 5 15 6 16 7 17 8 18 9 19 10 20 11
REMARK SMILES IDX 9 12 8 13 7 14 6 15 5 16 4 17 3 18 2 19 1 20
REMARK H PARENT
REMARK Flexibility Score: inf
ROOT
ATOM      1  C   UNL     1       6.628 -20.531 -16.221  1.00  0.00     0.000 C 
ENDROOT
BRANCH   1   2
ATOM      2  C   UNL     1       7.832 -20.703 -15.278  1.00  0.00     0.000 C 
BRANCH   2   3
ATOM      3  C   UNL     1       9.069 -21.264 -15.999  1.00  0.00     0.000 C 
BRANCH   3   4
ATOM      4  C   UNL     1       8.725 -21.908 -17.354  1.00  0.00     0.000 C 
BRANCH   4   5
ATOM      5  C   UNL     1       9.975 -22.251 -18.179  1.00  0.00     0.000 C 
BRANCH   5   6
ATOM      6  C   UNL     1       9.647 -22.559 -19.647  1.00  0.00     0.000 C 
BRANCH   6   7
ATOM      7  C   UNL     1      10.758 -22.049 -20.577  1.00  0.00     0.006 C 
BRANCH   7   8
ATOM      8  C   UNL     1      10.401 -22.222 -22.059  1.00  0.00     0.053 C 
BRANCH   8   9
ATOM      9  C   UNL     1       9.243 -21.359 -22.456  1.00  0.00     0.041 C 
ATOM     10  O   UNL     1       8.323 -21.825 -23.177  1.00  0.00    -0.550 OA
ATOM     11  O   UNL     1       9.197 -20.029 -22.055  1.00  0.00    -0.550 OA
ENDBRANCH   8   9
ENDBRANCH   7   8
ENDBRANCH   6   7
ENDBRANCH   5   6
ENDBRANCH   4   5
ENDBRANCH   3   4
ENDBRANCH   2   3
ENDBRANCH   1   2
BRANCH   1  12
ATOM     12  C   UNL     1       5.365 -21.238 -15.700  1.00  0.00     0.000 C 
BRANCH  12  13
ATOM     13  C   UNL     1       4.946 -22.426 -16.585  1.00  0.00    -0.000 C 
BRANCH  13  14
ATOM     14  C   UNL     1       3.554 -22.969 -16.223  1.00  0.00    -0.000 C 
BRANCH  14  15
ATOM     15  C   UNL     1       2.668 -21.915 -15.537  1.00  0.00    -0.000 C 
BRANCH  15  16
ATOM     16  C   UNL     1       1.279 -21.801 -16.185  1.00  0.00    -0.000 C 
BRANCH  16  17
ATOM     17  C   UNL     1       0.286 -22.847 -15.649  1.00  0.00    -0.000 C 
BRANCH  17  18
ATOM     18  C   UNL     1      -1.167 -22.339 -15.635  1.00  0.00    -0.000 C 
BRANCH  18  19
ATOM     19  C   UNL     1      -2.061 -22.973 -14.554  1.00  0.00    -0.003 C 
ATOM     20  C   UNL     1      -3.518 -23.116 -14.992  1.00  0.00     0.004 C 
ENDBRANCH  18  19
ENDBRANCH  17  18
ENDBRANCH  16  17
ENDBRANCH  15  16
ENDBRANCH  14  15
ENDBRANCH  13  14
ENDBRANCH  12  13
ENDBRANCH   1  12
TORSDOF 16
ENDMDL
MODEL 6
REMARK VINA RESULT:    -2.095      1.526      1.883
REMARK INTER + INTRA:          -4.590
REMARK INTER:                  -3.937
REMARK INTRA:                  -0.653
REMARK UNBOUND:                -0.536
REMARK SMILES CCCCCCCCCCCCCCCCCC(=O)[O-]
REMARK SMILES IDX 10 1 11 2 12 3 13 4 14 5 15 6 16 7 17 8 18 9 19 10 20 11
REMARK SMILES IDX 9 12 8 13 7 14 6 15 5 16 4 17 3 18 2 19 1 20
REMARK H PARENT
REMARK Flexibility Score: inf
ROOT
ATOM      1  C   UNL     1       1.777 -23.125 -16.022  1.00  0.00     0.000 C 
ENDROOT
BRANCH   1   2
ATOM      2  C   UNL     1       0.530 -22.235 -15.886  1.00  0.00     0.000 C 
BRANCH   2   3
ATOM      3  C   UNL     1      -0.582 -22.902 -15.059  1.00  0.00     0.000 C 
BRANCH   3   4
ATOM      4  C   UNL     1      -1.975 -22.318 -15.356  1.00  0.00     0.000 C 
BRANCH   4   5
ATOM      5  C   UNL     1      -3.058 -22.864 -14.412  1.00  0.00     0.000 C 
BRANCH   5   6
ATOM      6  C   UNL     1      -4.444 -22.270 -14.699  1.00  0.00     0.000 C 
BRANCH   6   7
ATOM      7  C   UNL     1      -5.550 -23.125 -14.062  1.00  0.00     0.006 C 
BRANCH   7   8
ATOM      8  C   UNL     1      -6.091 -22.504 -12.767  1.00  0.00     0.053 C 
BRANCH   8   9
ATOM      9  C   UNL     1      -7.240 -21.581 -13.031  1.00  0.00     0.041 C 
ATOM     10  O   UNL     1      -7.848 -21.624 -14.133  1.00  0.00    -0.550 OA
ATOM     11  O   UNL     1      -7.619 -20.651 -12.071  1.00  0.00    -0.550 OA
ENDBRANCH   8   9
ENDBRANCH   7   8
ENDBRANCH   6   7
ENDBRANCH   5   6
ENDBRANCH   4   5
ENDBRANCH   3   4
ENDBRANCH   2   3
ENDBRANCH   1   2
BRANCH   1  12
ATOM     12  C   UNL     1       3.087 -22.323 -15.936  1.00  0.00     0.000 C 
BRANCH  12  13
ATOM     13  C   UNL     1       4.217 -22.948 -16.774  1.00  0.00    -0.000 C 
BRANCH  13  14
ATOM     14  C   UNL     1       5.611 -22.663 -16.191  1.00  0.00    -0.000 C 
BRANCH  14  15
ATOM     15  C   UNL     1       6.670 -22.422 -17.280  1.00  0.00    -0.000 C 
BRANCH  15  16
ATOM     16  C   UNL     1       7.264 -21.005 -17.221  1.00  0.00    -0.000 C 
BRANCH  16  17
ATOM     17  C   UNL     1       6.707 -20.176 -16.051  1.00  0.00    -0.000 C 
BRANCH  17  18
ATOM     18  C   UNL     1       7.730 -19.980 -14.918  1.00  0.00    -0.000 C 
BRANCH  18  19
ATOM     19  C   UNL     1       8.962 -20.900 -14.997  1.00  0.00    -0.003 C 
ATOM     20  C   UNL     1      10.218 -20.269 -14.397  1.00  0.00     0.004 C 
ENDBRANCH  18  19
ENDBRANCH  17  18
ENDBRANCH  16  17
ENDBRANCH  15  16
ENDBRANCH  14  15
ENDBRANCH  13  14
ENDBRANCH  12  13
ENDBRANCH   1  12
TORSDOF 16
ENDMDL
MODEL 7
REMARK VINA RESULT:    -2.009      5.765     12.189
REMARK INTER + INTRA:          -4.425
REMARK INTER:                  -3.730
REMARK INTRA:                  -0.695
REMARK UNBOUND:                -0.536
REMARK SMILES CCCCCCCCCCCCCCCCCC(=O)[O-]
REMARK SMILES IDX 10 1 11 2 12 3 13 4 14 5 15 6 16 7 17 8 18 9 19 10 20 11
REMARK SMILES IDX 9 12 8 13 7 14 6 15 5 16 4 17 3 18 2 19 1 20
REMARK H PARENT
REMARK Flexibility Score: inf
ROOT
ATOM      1  C   UNL     1       1.701 -21.790 -15.741  1.00  0.00     0.000 C 
ENDROOT
BRANCH   1   2
ATOM      2  C   UNL     1       3.075 -22.368 -16.118  1.00  0.00     0.000 C 
BRANCH   2   3
ATOM      3  C   UNL     1       4.238 -21.498 -15.614  1.00  0.00     0.000 C 
BRANCH   3   4
ATOM      4  C   UNL     1       5.580 -21.856 -16.278  1.00  0.00     0.000 C 
BRANCH   4   5
ATOM      5  C   UNL     1       6.611 -20.721 -16.178  1.00  0.00     0.000 C 
BRANCH   5   6
ATOM      6  C   UNL     1       8.017 -21.230 -15.830  1.00  0.00     0.000 C 
BRANCH   6   7
ATOM      7  C   UNL     1       8.251 -22.634 -16.409  1.00  0.00     0.006 C 
BRANCH   7   8
ATOM      8  C   UNL     1       9.226 -22.619 -17.594  1.00  0.00     0.053 C 
BRANCH   8   9
ATOM      9  C   UNL     1       8.585 -22.079 -18.834  1.00  0.00     0.041 C 
ATOM     10  O   UNL     1       9.197 -21.246 -19.554  1.00  0.00    -0.550 OA
ATOM     11  O   UNL     1       7.297 -22.470 -19.178  1.00  0.00    -0.550 OA
ENDBRANCH   8   9
ENDBRANCH   7   8
ENDBRANCH   6   7
ENDBRANCH   5   6
ENDBRANCH   4   5
ENDBRANCH   3   4
ENDBRANCH   2   3
ENDBRANCH   1   2
BRANCH   1  12
ATOM     12  C   UNL     1       0.610 -22.871 -15.647  1.00  0.00     0.000 C 
BRANCH  12  13
ATOM     13  C   UNL     1      -0.810 -22.277 -15.639  1.00  0.00    -0.000 C 
BRANCH  13  14
ATOM     14  C   UNL     1      -1.798 -23.125 -14.822  1.00  0.00    -0.000 C 
BRANCH  14  15
ATOM     15  C   UNL     1      -2.381 -22.360 -13.621  1.00  0.00    -0.000 C 
BRANCH  15  16
ATOM     16  C   UNL     1      -3.741 -22.917 -13.170  1.00  0.00    -0.000 C 
BRANCH  16  17
ATOM     17  C   UNL     1      -4.723 -23.103 -14.339  1.00  0.00    -0.000 C 
BRANCH  17  18
ATOM     18  C   UNL     1      -6.172 -22.743 -13.965  1.00  0.00    -0.000 C 
BRANCH  18  19
ATOM     19  C   UNL     1      -6.433 -22.614 -12.453  1.00  0.00    -0.003 C 
ATOM     20  C   UNL     1      -7.884 -22.903 -12.071  1.00  0.00     0.004 C 
ENDBRANCH  18  19
ENDBRANCH  17  18
ENDBRANCH  16  17
ENDBRANCH  15  16
ENDBRANCH  14  15
ENDBRANCH  13  14
ENDBRANCH  12  13
ENDBRANCH   1  12
TORSDOF 16
ENDMDL
MODEL 8
REMARK VINA RESULT:    -1.969      3.116      6.152
REMARK INTER + INTRA:          -4.347
REMARK INTER:                  -3.151
REMARK INTRA:                  -1.196
REMARK UNBOUND:                -0.536
REMARK SMILES CCCCCCCCCCCCCCCCCC(=O)[O-]
REMARK SMILES IDX 10 1 11 2 12 3 13 4 14 5 15 6 16 7 17 8 18 9 19 10 20 11
REMARK SMILES IDX 9 12 8 13 7 14 6 15 5 16 4 17 3 18 2 19 1 20
REMARK H PARENT
REMARK Flexibility Score: inf
ROOT
ATOM      1  C   UNL     1       7.068 -21.138 -16.090  1.00  0.00     0.000 C 
ENDROOT
BRANCH   1   2
ATOM      2  C   UNL     1       6.542 -22.531 -16.476  1.00  0.00     0.000 C 
BRANCH   2   3
ATOM      3  C   UNL     1       5.067 -22.503 -16.909  1.00  0.00     0.000 C 
BRANCH   3   4
ATOM      4  C   UNL     1       4.128 -22.026 -15.787  1.00  0.00     0.000 C 
BRANCH   4   5
ATOM      5  C   UNL     1       2.696 -22.561 -15.947  1.00  0.00     0.000 C 
BRANCH   5   6
ATOM      6  C   UNL     1       1.649 -21.439 -16.000  1.00  0.00     0.000 C 
BRANCH   6   7
ATOM      7  C   UNL     1       0.260 -22.000 -16.340  1.00  0.00     0.006 C 
BRANCH   7   8
ATOM      8  C   UNL     1      -0.273 -22.934 -15.247  1.00  0.00     0.053 C 
BRANCH   8   9
ATOM      9  C   UNL     1      -1.672 -22.581 -14.847  1.00  0.00     0.041 C 
ATOM     10  O   UNL     1      -2.547 -22.365 -15.724  1.00  0.00    -0.550 OA
ATOM     11  O   UNL     1      -2.000 -22.458 -13.502  1.00  0.00    -0.550 OA
ENDBRANCH   8   9
ENDBRANCH   7   8
ENDBRANCH   6   7
ENDBRANCH   5   6
ENDBRANCH   4   5
ENDBRANCH   3   4
ENDBRANCH   2   3
ENDBRANCH   1   2
BRANCH   1  12
ATOM     12  C   UNL     1       7.956 -21.170 -14.833  1.00  0.00     0.000 C 
BRANCH  12  13
ATOM     13  C   UNL     1       9.088 -20.128 -14.884  1.00  0.00    -0.000 C 
BRANCH  13  14
ATOM     14  C   UNL     1      10.484 -20.772 -14.867  1.00  0.00    -0.000 C 
BRANCH  14  15
ATOM     15  C   UNL     1      11.125 -20.830 -16.264  1.00  0.00    -0.000 C 
BRANCH  15  16
ATOM     16  C   UNL     1      10.641 -22.037 -17.085  1.00  0.00    -0.000 C 
BRANCH  16  17
ATOM     17  C   UNL     1      11.005 -21.926 -18.575  1.00  0.00    -0.000 C 
BRANCH  17  18
ATOM     18  C   UNL     1      10.003 -22.652 -19.490  1.00  0.00    -0.000 C 
BRANCH  18  19
ATOM     19  C   UNL     1       8.609 -22.002 -19.561  1.00  0.00    -0.003 C 
ATOM     20  C   UNL     1       7.642 -22.761 -20.469  1.00  0.00     0.004 C 
ENDBRANCH  18  19
ENDBRANCH  17  18
ENDBRANCH  16  17
ENDBRANCH  15  16
ENDBRANCH  14  15
ENDBRANCH  13  14
ENDBRANCH  12  13
ENDBRANCH   1  12
TORSDOF 16
ENDMDL
