MODEL 1
REMARK VINA RESULT:    29.947      0.000      0.000
REMARK INTER + INTRA:          37.308
REMARK INTER:                  36.950
REMARK INTRA:                   0.358
REMARK UNBOUND:                 0.358
REMARK SMILES Oc1cc(O)c2cc(O)c(-c3cc(O)c(O)c(O)c3)[o+]c2c1
REMARK SMILES IDX 10 1 20 2 21 3 22 4 2 5 3 6 4 7 6 8 7 9 8 10 11 11 12 12
REMARK SMILES IDX 13 13 19 14 15 15 17 16 14 17 16 19 18 21 9 23 1 25 5 27
REMARK H PARENT 14 18 16 20 18 22 9 24 1 26 5 28
REMARK Flexibility Score: inf
ROOT
ATOM      1  C   UNL     1      17.309   3.331  13.276  1.00  0.00     0.402 A 
ATOM      2  O   UNL     1      16.113   3.871  13.040  1.00  0.00    -0.202 OA
ATOM      3  C   UNL     1      15.202   4.064  13.988  1.00  0.00     0.368 A 
ATOM      4  C   UNL     1      13.972   4.641  13.658  1.00  0.00     0.162 A 
ATOM      5  C   UNL     1      13.005   4.853  14.647  1.00  0.00     0.128 A 
ATOM      6  C   UNL     1      13.269   4.483  15.972  1.00  0.00     0.093 A 
ATOM      7  C   UNL     1      14.498   3.901  16.318  1.00  0.00     0.136 A 
ATOM      8  C   UNL     1      15.471   3.689  15.322  1.00  0.00     0.125 A 
ATOM      9  C   UNL     1      16.710   3.106  15.607  1.00  0.00     0.078 A 
ATOM     10  C   UNL     1      17.639   2.911  14.580  1.00  0.00     0.223 A 
ENDROOT
BRANCH   1  11
ATOM     11  C   UNL     1      18.244   3.176  12.138  1.00  0.00     0.091 A 
ATOM     12  C   UNL     1      18.001   3.872  10.945  1.00  0.00     0.068 A 
ATOM     13  C   UNL     1      18.874   3.765   9.856  1.00  0.00     0.162 A 
ATOM     14  C   UNL     1      19.402   2.391  12.245  1.00  0.00     0.068 A 
ATOM     15  C   UNL     1      20.027   2.952   9.964  1.00  0.00     0.200 A 
ATOM     16  C   UNL     1      20.285   2.274  11.165  1.00  0.00     0.162 A 
BRANCH  13  17
ATOM     17  O   UNL     1      18.559   4.478   8.698  1.00  0.00    -0.504 OA
ATOM     18  H   UNL     1      18.155   5.402   8.695  1.00  0.00     0.293 HD
ENDBRANCH  13  17
BRANCH  15  19
ATOM     19  O   UNL     1      20.937   2.796   8.915  1.00  0.00    -0.502 OA
ATOM     20  H   UNL     1      20.693   2.436   8.004  1.00  0.00     0.293 HD
ENDBRANCH  15  19
BRANCH  16  21
ATOM     21  O   UNL     1      21.429   1.487  11.277  1.00  0.00    -0.504 OA
ATOM     22  H   UNL     1      22.124   1.658  11.995  1.00  0.00     0.293 HD
ENDBRANCH  16  21
ENDBRANCH   1  11
BRANCH  10  23
ATOM     23  O   UNL     1      18.856   2.285  14.847  1.00  0.00    -0.500 OA
ATOM     24  H   UNL     1      19.685   2.480  14.297  1.00  0.00     0.294 HD
ENDBRANCH  10  23
BRANCH   5  25
ATOM     25  O   UNL     1      11.786   5.430  14.300  1.00  0.00    -0.507 OA
ATOM     26  H   UNL     1      11.200   5.885  14.991  1.00  0.00     0.293 HD
ENDBRANCH   5  25
BRANCH   7  27
ATOM     27  O   UNL     1      14.750   3.536  17.641  1.00  0.00    -0.507 OA
ATOM     28  H   UNL     1      14.611   4.186  18.407  1.00  0.00     0.293 HD
ENDBRANCH   7  27
TORSDOF 7
ENDMDL
MODEL 2
REMARK VINA RESULT:    30.280      5.333      8.174
REMARK INTER + INTRA:          37.718
REMARK INTER:                  37.334
REMARK INTRA:                   0.384
REMARK UNBOUND:                 0.358
REMARK SMILES Oc1cc(O)c2cc(O)c(-c3cc(O)c(O)c(O)c3)[o+]c2c1
REMARK SMILES IDX 10 1 20 2 21 3 22 4 2 5 3 6 4 7 6 8 7 9 8 10 11 11 12 12
REMARK SMILES IDX 13 13 19 14 15 15 17 16 14 17 16 19 18 21 9 23 1 25 5 27
REMARK H PARENT 14 18 16 20 18 22 9 24 1 26 5 28
REMARK Flexibility Score: inf
ROOT
ATOM      1  C   UNL     1      15.428   8.105  16.416  1.00  0.00     0.402 A 
ATOM      2  O   UNL     1      15.678   6.905  16.938  1.00  0.00    -0.202 OA
ATOM      3  C   UNL     1      15.131   5.783  16.480  1.00  0.00     0.368 A 
ATOM      4  C   UNL     1      15.449   4.562  17.081  1.00  0.00     0.162 A 
ATOM      5  C   UNL     1      14.883   3.374  16.606  1.00  0.00     0.128 A 
ATOM      6  C   UNL     1      13.992   3.409  15.526  1.00  0.00     0.093 A 
ATOM      7  C   UNL     1      13.661   4.627  14.914  1.00  0.00     0.136 A 
ATOM      8  C   UNL     1      14.233   5.822  15.391  1.00  0.00     0.125 A 
ATOM      9  C   UNL     1      13.934   7.066  14.826  1.00  0.00     0.078 A 
ATOM     10  C   UNL     1      14.524   8.224  15.342  1.00  0.00     0.223 A 
ENDROOT
BRANCH   1  11
ATOM     11  C   UNL     1      16.107   9.281  17.008  1.00  0.00     0.091 A 
ATOM     12  C   UNL     1      17.118   9.087  17.961  1.00  0.00     0.068 A 
ATOM     13  C   UNL     1      17.794  10.175  18.527  1.00  0.00     0.162 A 
ATOM     14  C   UNL     1      15.802  10.586  16.594  1.00  0.00     0.068 A 
ATOM     15  C   UNL     1      17.464  11.489  18.121  1.00  0.00     0.200 A 
ATOM     16  C   UNL     1      16.470  11.683  17.150  1.00  0.00     0.162 A 
BRANCH  13  17
ATOM     17  O   UNL     1      18.779   9.904  19.478  1.00  0.00    -0.504 OA
ATOM     18  H   UNL     1      19.218   9.003  19.598  1.00  0.00     0.293 HD
ENDBRANCH  13  17
BRANCH  15  19
ATOM     19  O   UNL     1      18.095  12.618  18.649  1.00  0.00    -0.502 OA
ATOM     20  H   UNL     1      17.810  13.568  18.455  1.00  0.00     0.293 HD
ENDBRANCH  15  19
BRANCH  16  21
ATOM     21  O   UNL     1      16.156  12.978  16.739  1.00  0.00    -0.504 OA
ATOM     22  H   UNL     1      16.676  13.781  17.072  1.00  0.00     0.293 HD
ENDBRANCH  16  21
ENDBRANCH   1  11
BRANCH  10  23
ATOM     23  O   UNL     1      14.192   9.472  14.817  1.00  0.00    -0.500 OA
ATOM     24  H   UNL     1      14.035   9.606  13.824  1.00  0.00     0.294 HD
ENDBRANCH  10  23
BRANCH   5  25
ATOM     25  O   UNL     1      15.212   2.167  17.217  1.00  0.00    -0.507 OA
ATOM     26  H   UNL     1      15.292   2.088  18.225  1.00  0.00     0.293 HD
ENDBRANCH   5  25
BRANCH   7  27
ATOM     27  O   UNL     1      12.771   4.649  13.839  1.00  0.00    -0.507 OA
ATOM     28  H   UNL     1      12.855   5.333  13.095  1.00  0.00     0.293 HD
ENDBRANCH   7  27
TORSDOF 7
ENDMDL
MODEL 3
REMARK VINA RESULT:    30.344      1.065      7.040
REMARK INTER + INTRA:          37.799
REMARK INTER:                  37.568
REMARK INTRA:                   0.230
REMARK UNBOUND:                 0.358
REMARK SMILES Oc1cc(O)c2cc(O)c(-c3cc(O)c(O)c(O)c3)[o+]c2c1
REMARK SMILES IDX 10 1 20 2 21 3 22 4 2 5 3 6 4 7 6 8 7 9 8 10 11 11 12 12
REMARK SMILES IDX 13 13 19 14 15 15 17 16 14 17 16 19 18 21 9 23 1 25 5 27
REMARK H PARENT 14 18 16 20 18 22 9 24 1 26 5 28
REMARK Flexibility Score: inf
ROOT
ATOM      1  C   UNL     1      16.667   3.758  13.398  1.00  0.00     0.402 A 
ATOM      2  O   UNL     1      16.757   4.103  12.114  1.00  0.00    -0.202 OA
ATOM      3  C   UNL     1      17.816   3.828  11.359  1.00  0.00     0.368 A 
ATOM      4  C   UNL     1      17.829   4.222  10.017  1.00  0.00     0.162 A 
ATOM      5  C   UNL     1      18.935   3.936   9.210  1.00  0.00     0.128 A 
ATOM      6  C   UNL     1      20.035   3.254   9.748  1.00  0.00     0.093 A 
ATOM      7  C   UNL     1      20.036   2.855  11.093  1.00  0.00     0.136 A 
ATOM      8  C   UNL     1      18.922   3.142  11.905  1.00  0.00     0.125 A 
ATOM      9  C   UNL     1      18.871   2.775  13.254  1.00  0.00     0.078 A 
ATOM     10  C   UNL     1      17.744   3.091  14.017  1.00  0.00     0.223 A 
ENDROOT
BRANCH   1  11
ATOM     11  C   UNL     1      15.432   4.111  14.134  1.00  0.00     0.091 A 
ATOM     12  C   UNL     1      15.506   4.425  15.499  1.00  0.00     0.068 A 
ATOM     13  C   UNL     1      14.361   4.782  16.220  1.00  0.00     0.162 A 
ATOM     14  C   UNL     1      14.192   4.196  13.481  1.00  0.00     0.068 A 
ATOM     15  C   UNL     1      13.111   4.843  15.560  1.00  0.00     0.200 A 
ATOM     16  C   UNL     1      13.038   4.553  14.190  1.00  0.00     0.162 A 
BRANCH  13  17
ATOM     17  O   UNL     1      14.512   5.069  17.579  1.00  0.00    -0.504 OA
ATOM     18  H   UNL     1      14.430   5.993  17.974  1.00  0.00     0.293 HD
ENDBRANCH  13  17
BRANCH  15  19
ATOM     19  O   UNL     1      11.929   5.187  16.221  1.00  0.00    -0.502 OA
ATOM     20  H   UNL     1      11.110   5.559  15.760  1.00  0.00     0.293 HD
ENDBRANCH  15  19
BRANCH  16  21
ATOM     21  O   UNL     1      11.810   4.629  13.537  1.00  0.00    -0.504 OA
ATOM     22  H   UNL     1      11.375   3.810  13.128  1.00  0.00     0.293 HD
ENDBRANCH  16  21
ENDBRANCH   1  11
BRANCH  10  23
ATOM     23  O   UNL     1      17.707   2.773  15.374  1.00  0.00    -0.500 OA
ATOM     24  H   UNL     1      17.737   1.812  15.696  1.00  0.00     0.294 HD
ENDBRANCH  10  23
BRANCH   5  25
ATOM     25  O   UNL     1      18.931   4.335   7.876  1.00  0.00    -0.507 OA
ATOM     26  H   UNL     1      18.740   5.295   7.611  1.00  0.00     0.293 HD
ENDBRANCH   5  25
BRANCH   7  27
ATOM     27  O   UNL     1      21.137   2.177  11.619  1.00  0.00    -0.507 OA
ATOM     28  H   UNL     1      21.654   2.539  12.413  1.00  0.00     0.293 HD
ENDBRANCH   7  27
TORSDOF 7
ENDMDL
MODEL 4
REMARK VINA RESULT:    30.362      5.176      7.718
REMARK INTER + INTRA:          37.820
REMARK INTER:                  37.477
REMARK INTRA:                   0.343
REMARK UNBOUND:                 0.358
REMARK SMILES Oc1cc(O)c2cc(O)c(-c3cc(O)c(O)c(O)c3)[o+]c2c1
REMARK SMILES IDX 10 1 20 2 21 3 22 4 2 5 3 6 4 7 6 8 7 9 8 10 11 11 12 12
REMARK SMILES IDX 13 13 19 14 15 15 17 16 14 17 16 19 18 21 9 23 1 25 5 27
REMARK H PARENT 14 18 16 20 18 22 9 24 1 26 5 28
REMARK Flexibility Score: inf
ROOT
ATOM      1  C   UNL     1      15.440   7.487  16.450  1.00  0.00     0.402 A 
ATOM      2  O   UNL     1      16.328   7.721  17.415  1.00  0.00    -0.202 OA
ATOM      3  C   UNL     1      16.808   8.932  17.685  1.00  0.00     0.368 A 
ATOM      4  C   UNL     1      17.734   9.094  18.719  1.00  0.00     0.162 A 
ATOM      5  C   UNL     1      18.245  10.362  19.015  1.00  0.00     0.128 A 
ATOM      6  C   UNL     1      17.827  11.474  18.272  1.00  0.00     0.093 A 
ATOM      7  C   UNL     1      16.899  11.326  17.230  1.00  0.00     0.136 A 
ATOM      8  C   UNL     1      16.385  10.049  16.933  1.00  0.00     0.125 A 
ATOM      9  C   UNL     1      15.464   9.841  15.901  1.00  0.00     0.078 A 
ATOM     10  C   UNL     1      14.990   8.551  15.643  1.00  0.00     0.223 A 
ENDROOT
BRANCH   1  11
ATOM     11  C   UNL     1      14.973   6.096  16.252  1.00  0.00     0.091 A 
ATOM     12  C   UNL     1      14.460   5.711  15.004  1.00  0.00     0.068 A 
ATOM     13  C   UNL     1      14.027   4.399  14.776  1.00  0.00     0.162 A 
ATOM     14  C   UNL     1      15.084   5.136  17.270  1.00  0.00     0.068 A 
ATOM     15  C   UNL     1      14.121   3.443  15.815  1.00  0.00     0.200 A 
ATOM     16  C   UNL     1      14.655   3.820  17.056  1.00  0.00     0.162 A 
BRANCH  13  17
ATOM     17  O   UNL     1      13.518   4.093  13.513  1.00  0.00    -0.504 OA
ATOM     18  H   UNL     1      12.907   4.700  12.987  1.00  0.00     0.293 HD
ENDBRANCH  13  17
BRANCH  15  19
ATOM     19  O   UNL     1      13.703   2.119  15.657  1.00  0.00    -0.502 OA
ATOM     20  H   UNL     1      12.996   1.677  16.227  1.00  0.00     0.293 HD
ENDBRANCH  15  19
BRANCH  16  21
ATOM     21  O   UNL     1      14.762   2.874  18.073  1.00  0.00    -0.504 OA
ATOM     22  H   UNL     1      15.441   2.971  18.819  1.00  0.00     0.293 HD
ENDBRANCH  16  21
ENDBRANCH   1  11
BRANCH  10  23
ATOM     23  O   UNL     1      14.111   8.328  14.584  1.00  0.00    -0.500 OA
ATOM     24  H   UNL     1      13.724   7.409  14.400  1.00  0.00     0.294 HD
ENDBRANCH  10  23
BRANCH   5  25
ATOM     25  O   UNL     1      19.166  10.505  20.049  1.00  0.00    -0.507 OA
ATOM     26  H   UNL     1      19.707   9.718  20.389  1.00  0.00     0.293 HD
ENDBRANCH   5  25
BRANCH   7  27
ATOM     27  O   UNL     1      16.491  12.440  16.495  1.00  0.00    -0.507 OA
ATOM     28  H   UNL     1      16.716  13.384  16.792  1.00  0.00     0.293 HD
ENDBRANCH   7  27
TORSDOF 7
ENDMDL
