MODEL 1
REMARK VINA RESULT:    -4.059      0.000      0.000
REMARK INTER + INTRA:          -7.556
REMARK INTER:                  -6.907
REMARK INTRA:                  -0.649
REMARK UNBOUND:                -0.649
REMARK SMILES CCCCCCCCCCCCCC(=O)[O-]
REMARK SMILES IDX 8 1 9 2 10 3 11 4 12 5 13 6 14 7 15 8 16 9 7 10 6 11 5 12
REMARK SMILES IDX 4 13 3 14 2 15 1 16
REMARK H PARENT
REMARK Flexibility Score: inf
ROOT
ATOM      1  C   UNL     1     -16.370  -2.318  -3.798  1.00  0.00     0.000 C 
ENDROOT
BRANCH   1   2
ATOM      2  C   UNL     1     -16.921  -0.986  -3.249  1.00  0.00     0.000 C 
BRANCH   2   3
ATOM      3  C   UNL     1     -17.026  -0.904  -1.716  1.00  0.00     0.000 C 
BRANCH   3   4
ATOM      4  C   UNL     1     -16.320   0.334  -1.135  1.00  0.00     0.000 C 
BRANCH   4   5
ATOM      5  C   UNL     1     -16.739   0.631   0.317  1.00  0.00     0.006 C 
BRANCH   5   6
ATOM      6  C   UNL     1     -16.794  -0.606   1.228  1.00  0.00     0.053 C 
BRANCH   6   7
ATOM      7  C   UNL     1     -15.833  -0.504   2.372  1.00  0.00     0.041 C 
ATOM      8  O   UNL     1     -16.259  -0.462   3.556  1.00  0.00    -0.550 OA
ATOM      9  O   UNL     1     -14.465  -0.485   2.131  1.00  0.00    -0.550 OA
ENDBRANCH   6   7
ENDBRANCH   5   6
ENDBRANCH   4   5
ENDBRANCH   3   4
ENDBRANCH   2   3
ENDBRANCH   1   2
BRANCH   1  10
ATOM     10  C   UNL     1     -16.374  -3.492  -2.799  1.00  0.00     0.000 C 
BRANCH  10  11
ATOM     11  C   UNL     1     -15.244  -4.520  -2.994  1.00  0.00    -0.000 C 
BRANCH  11  12
ATOM     12  C   UNL     1     -13.943  -3.882  -3.512  1.00  0.00    -0.000 C 
BRANCH  12  13
ATOM     13  C   UNL     1     -12.924  -4.930  -3.992  1.00  0.00    -0.000 C 
BRANCH  13  14
ATOM     14  C   UNL     1     -12.946  -5.123  -5.516  1.00  0.00    -0.000 C 
BRANCH  14  15
ATOM     15  C   UNL     1     -14.178  -4.452  -6.134  1.00  0.00    -0.003 C 
ATOM     16  C   UNL     1     -14.541  -5.092  -7.471  1.00  0.00     0.004 C 
ENDBRANCH  14  15
ENDBRANCH  13  14
ENDBRANCH  12  13
ENDBRANCH  11  12
ENDBRANCH  10  11
ENDBRANCH   1  10
TORSDOF 12
ENDMDL
MODEL 2
REMARK VINA RESULT:    -3.412      3.906      8.055
REMARK INTER + INTRA:          -6.455
REMARK INTER:                  -5.778
REMARK INTRA:                  -0.676
REMARK UNBOUND:                -0.649
REMARK SMILES CCCCCCCCCCCCCC(=O)[O-]
REMARK SMILES IDX 8 1 9 2 10 3 11 4 12 5 13 6 14 7 15 8 16 9 7 10 6 11 5 12
REMARK SMILES IDX 4 13 3 14 2 15 1 16
REMARK H PARENT
REMARK Flexibility Score: inf
ROOT
ATOM      1  C   UNL     1     -15.526  -3.465  -2.097  1.00  0.00     0.000 C 
ENDROOT
BRANCH   1   2
ATOM      2  C   UNL     1     -15.235  -4.191  -3.427  1.00  0.00     0.000 C 
BRANCH   2   3
ATOM      3  C   UNL     1     -14.410  -3.384  -4.446  1.00  0.00     0.000 C 
BRANCH   3   4
ATOM      4  C   UNL     1     -13.495  -4.271  -5.309  1.00  0.00     0.000 C 
BRANCH   4   5
ATOM      5  C   UNL     1     -14.279  -5.119  -6.328  1.00  0.00     0.006 C 
BRANCH   5   6
ATOM      6  C   UNL     1     -14.862  -4.319  -7.505  1.00  0.00     0.053 C 
BRANCH   6   7
ATOM      7  C   UNL     1     -16.356  -4.244  -7.448  1.00  0.00     0.041 C 
ATOM      8  O   UNL     1     -16.983  -4.791  -6.502  1.00  0.00    -0.550 OA
ATOM      9  O   UNL     1     -17.054  -3.542  -8.422  1.00  0.00    -0.550 OA
ENDBRANCH   6   7
ENDBRANCH   5   6
ENDBRANCH   4   5
ENDBRANCH   3   4
ENDBRANCH   2   3
ENDBRANCH   1   2
BRANCH   1  10
ATOM     10  C   UNL     1     -16.854  -2.684  -2.052  1.00  0.00     0.000 C 
BRANCH  10  11
ATOM     11  C   UNL     1     -16.796  -1.263  -2.644  1.00  0.00    -0.000 C 
BRANCH  11  12
ATOM     12  C   UNL     1     -16.833  -0.168  -1.565  1.00  0.00    -0.000 C 
BRANCH  12  13
ATOM     13  C   UNL     1     -17.093  -0.734  -0.158  1.00  0.00    -0.000 C 
BRANCH  13  14
ATOM     14  C   UNL     1     -16.578   0.189   0.956  1.00  0.00    -0.000 C 
BRANCH  14  15
ATOM     15  C   UNL     1     -16.397  -0.586   2.267  1.00  0.00    -0.003 C 
ATOM     16  C   UNL     1     -16.759   0.278   3.472  1.00  0.00     0.004 C 
ENDBRANCH  14  15
ENDBRANCH  13  14
ENDBRANCH  12  13
ENDBRANCH  11  12
ENDBRANCH  10  11
ENDBRANCH   1  10
TORSDOF 12
ENDMDL
MODEL 3
REMARK VINA RESULT:    -3.217      1.319      1.900
REMARK INTER + INTRA:          -6.123
REMARK INTER:                  -5.683
REMARK INTRA:                  -0.441
REMARK UNBOUND:                -0.649
REMARK SMILES CCCCCCCCCCCCCC(=O)[O-]
REMARK SMILES IDX 8 1 9 2 10 3 11 4 12 5 13 6 14 7 15 8 16 9 7 10 6 11 5 12
REMARK SMILES IDX 4 13 3 14 2 15 1 16
REMARK H PARENT
REMARK Flexibility Score: inf
ROOT
ATOM      1  C   UNL     1     -16.091  -1.400  -3.281  1.00  0.00     0.000 C 
ENDROOT
BRANCH   1   2
ATOM      2  C   UNL     1     -17.122  -0.754  -2.333  1.00  0.00     0.000 C 
BRANCH   2   3
ATOM      3  C   UNL     1     -16.996  -1.160  -0.854  1.00  0.00     0.000 C 
BRANCH   3   4
ATOM      4  C   UNL     1     -15.983  -0.296  -0.083  1.00  0.00     0.000 C 
BRANCH   4   5
ATOM      5  C   UNL     1     -16.008  -0.561   1.434  1.00  0.00     0.006 C 
BRANCH   5   6
ATOM      6  C   UNL     1     -17.090   0.221   2.197  1.00  0.00     0.053 C 
BRANCH   6   7
ATOM      7  C   UNL     1     -17.092  -0.105   3.659  1.00  0.00     0.041 C 
ATOM      8  O   UNL     1     -17.106   0.818   4.515  1.00  0.00    -0.550 OA
ATOM      9  O   UNL     1     -17.110  -1.430   4.074  1.00  0.00    -0.550 OA
ENDBRANCH   6   7
ENDBRANCH   5   6
ENDBRANCH   4   5
ENDBRANCH   3   4
ENDBRANCH   2   3
ENDBRANCH   1   2
BRANCH   1  10
ATOM     10  C   UNL     1     -16.566  -2.684  -3.991  1.00  0.00     0.000 C 
BRANCH  10  11
ATOM     11  C   UNL     1     -16.994  -3.828  -3.054  1.00  0.00    -0.000 C 
BRANCH  11  12
ATOM     12  C   UNL     1     -15.801  -4.510  -2.363  1.00  0.00    -0.000 C 
BRANCH  12  13
ATOM     13  C   UNL     1     -14.450  -3.915  -2.796  1.00  0.00    -0.000 C 
BRANCH  13  14
ATOM     14  C   UNL     1     -13.459  -4.983  -3.281  1.00  0.00    -0.000 C 
BRANCH  14  15
ATOM     15  C   UNL     1     -12.679  -4.490  -4.505  1.00  0.00    -0.003 C 
ATOM     16  C   UNL     1     -13.519  -4.598  -5.774  1.00  0.00     0.004 C 
ENDBRANCH  14  15
ENDBRANCH  13  14
ENDBRANCH  12  13
ENDBRANCH  11  12
ENDBRANCH  10  11
ENDBRANCH   1  10
TORSDOF 12
ENDMDL
MODEL 4
REMARK VINA RESULT:    -3.189      1.330      2.420
REMARK INTER + INTRA:          -6.075
REMARK INTER:                  -5.199
REMARK INTRA:                  -0.877
REMARK UNBOUND:                -0.649
REMARK SMILES CCCCCCCCCCCCCC(=O)[O-]
REMARK SMILES IDX 8 1 9 2 10 3 11 4 12 5 13 6 14 7 15 8 16 9 7 10 6 11 5 12
REMARK SMILES IDX 4 13 3 14 2 15 1 16
REMARK H PARENT
REMARK Flexibility Score: inf
ROOT
ATOM      1  C   UNL     1     -15.807  -0.761  -3.528  1.00  0.00     0.000 C 
ENDROOT
BRANCH   1   2
ATOM      2  C   UNL     1     -16.803  -0.575  -2.364  1.00  0.00     0.000 C 
BRANCH   2   3
ATOM      3  C   UNL     1     -16.611   0.710  -1.538  1.00  0.00     0.000 C 
BRANCH   3   4
ATOM      4  C   UNL     1     -17.099   0.563  -0.086  1.00  0.00     0.000 C 
BRANCH   4   5
ATOM      5  C   UNL     1     -16.672  -0.771   0.553  1.00  0.00     0.006 C 
BRANCH   5   6
ATOM      6  C   UNL     1     -15.690  -0.627   1.728  1.00  0.00     0.053 C 
BRANCH   6   7
ATOM      7  C   UNL     1     -16.397  -0.363   3.021  1.00  0.00     0.041 C 
ATOM      8  O   UNL     1     -16.360   0.783   3.542  1.00  0.00    -0.550 OA
ATOM      9  O   UNL     1     -17.123  -1.375   3.635  1.00  0.00    -0.550 OA
ENDBRANCH   6   7
ENDBRANCH   5   6
ENDBRANCH   4   5
ENDBRANCH   3   4
ENDBRANCH   2   3
ENDBRANCH   1   2
BRANCH   1  10
ATOM     10  C   UNL     1     -15.956  -2.079  -4.315  1.00  0.00     0.000 C 
BRANCH  10  11
ATOM     11  C   UNL     1     -14.728  -2.481  -5.153  1.00  0.00    -0.000 C 
BRANCH  11  12
ATOM     12  C   UNL     1     -14.873  -3.874  -5.789  1.00  0.00    -0.000 C 
BRANCH  12  13
ATOM     13  C   UNL     1     -14.358  -4.997  -4.873  1.00  0.00    -0.000 C 
BRANCH  13  14
ATOM     14  C   UNL     1     -13.078  -4.607  -4.120  1.00  0.00    -0.000 C 
BRANCH  14  15
ATOM     15  C   UNL     1     -13.120  -5.111  -2.672  1.00  0.00    -0.003 C 
ATOM     16  C   UNL     1     -14.311  -4.526  -1.919  1.00  0.00     0.004 C 
ENDBRANCH  14  15
ENDBRANCH  13  14
ENDBRANCH  12  13
ENDBRANCH  11  12
ENDBRANCH  10  11
ENDBRANCH   1  10
TORSDOF 12
ENDMDL
MODEL 5
REMARK VINA RESULT:    -1.951      3.508      7.836
REMARK INTER + INTRA:          -3.970
REMARK INTER:                  -4.143
REMARK INTRA:                   0.173
REMARK UNBOUND:                -0.649
REMARK SMILES CCCCCCCCCCCCCC(=O)[O-]
REMARK SMILES IDX 8 1 9 2 10 3 11 4 12 5 13 6 14 7 15 8 16 9 7 10 6 11 5 12
REMARK SMILES IDX 4 13 3 14 2 15 1 16
REMARK H PARENT
REMARK Flexibility Score: inf
ROOT
ATOM      1  C   UNL     1     -17.010   0.950  -1.417  1.00  0.00     0.000 C 
ENDROOT
BRANCH   1   2
ATOM      2  C   UNL     1     -17.125  -0.588  -1.434  1.00  0.00     0.000 C 
BRANCH   2   3
ATOM      3  C   UNL     1     -16.784  -1.254  -2.779  1.00  0.00     0.000 C 
BRANCH   3   4
ATOM      4  C   UNL     1     -17.066  -2.767  -2.784  1.00  0.00     0.000 C 
BRANCH   4   5
ATOM      5  C   UNL     1     -16.849  -3.408  -4.167  1.00  0.00     0.006 C 
BRANCH   5   6
ATOM      6  C   UNL     1     -15.549  -4.220  -4.293  1.00  0.00     0.053 C 
BRANCH   6   7
ATOM      7  C   UNL     1     -14.667  -3.700  -5.386  1.00  0.00     0.041 C 
ATOM      8  O   UNL     1     -14.917  -2.593  -5.930  1.00  0.00    -0.550 OA
ATOM      9  O   UNL     1     -13.551  -4.426  -5.782  1.00  0.00    -0.550 OA
ENDBRANCH   6   7
ENDBRANCH   5   6
ENDBRANCH   4   5
ENDBRANCH   3   4
ENDBRANCH   2   3
ENDBRANCH   1   2
BRANCH   1  10
ATOM     10  C   UNL     1     -16.382   1.548  -0.141  1.00  0.00     0.000 C 
BRANCH  10  11
ATOM     11  C   UNL     1     -15.116   0.831   0.362  1.00  0.00    -0.000 C 
BRANCH  11  12
ATOM     12  C   UNL     1     -15.407  -0.578   0.907  1.00  0.00    -0.000 C 
BRANCH  12  13
ATOM     13  C   UNL     1     -16.713  -0.639   1.717  1.00  0.00    -0.000 C 
BRANCH  13  14
ATOM     14  C   UNL     1     -16.488  -0.424   3.221  1.00  0.00    -0.000 C 
BRANCH  14  15
ATOM     15  C   UNL     1     -17.124   0.890   3.687  1.00  0.00    -0.003 C 
ATOM     16  C   UNL     1     -17.035   1.040   5.203  1.00  0.00     0.004 C 
ENDBRANCH  14  15
ENDBRANCH  13  14
ENDBRANCH  12  13
ENDBRANCH  11  12
ENDBRANCH  10  11
ENDBRANCH   1  10
TORSDOF 12
ENDMDL
