MODEL 1
REMARK VINA RESULT:    -5.570      0.000      0.000
REMARK INTER + INTRA:          -6.572
REMARK INTER:                  -6.710
REMARK INTRA:                   0.138
REMARK UNBOUND:                 0.138
REMARK SMILES O=c1c(O)c(-c2ccc(O)c(O)c2)oc2cc(O)cc(O)c12
REMARK SMILES IDX 5 1 3 2 2 3 1 4 22 5 20 6 19 7 17 8 16 9 15 10 14 11 6 12
REMARK SMILES IDX 7 13 8 14 9 15 13 16 11 17 10 18 12 20 4 22 21 24 18 26
REMARK H PARENT 10 19 12 21 4 23 21 25 18 27
REMARK Flexibility Score: inf
ROOT
ATOM      1  C   UNL     1      -1.366  -1.241  -9.550  1.00  0.00     0.180 A 
ATOM      2  C   UNL     1      -1.400  -2.629  -9.772  1.00  0.00     0.208 A 
ATOM      3  C   UNL     1      -0.190  -3.333  -9.872  1.00  0.00     0.238 A 
ATOM      4  O   UNL     1      -0.226  -4.566 -10.125  1.00  0.00    -0.285 OA
ATOM      5  C   UNL     1       1.040  -2.644  -9.732  1.00  0.00     0.111 A 
ATOM      6  C   UNL     1       2.325  -3.263  -9.775  1.00  0.00     0.134 A 
ATOM      7  C   UNL     1       3.476  -2.467  -9.755  1.00  0.00     0.093 A 
ATOM      8  C   UNL     1       3.389  -1.078  -9.629  1.00  0.00     0.123 A 
ATOM      9  C   UNL     1       2.141  -0.469  -9.527  1.00  0.00     0.094 A 
ATOM     10  C   UNL     1       0.973  -1.235  -9.580  1.00  0.00     0.146 A 
ATOM     11  O   UNL     1      -0.197  -0.614  -9.489  1.00  0.00    -0.452 OA
ENDROOT
BRANCH   1  12
ATOM     12  C   UNL     1      -2.599  -0.435  -9.409  1.00  0.00     0.025 A 
ATOM     13  C   UNL     1      -2.631   0.874  -9.914  1.00  0.00     0.016 A 
ATOM     14  C   UNL     1      -3.778   1.661  -9.775  1.00  0.00     0.051 A 
ATOM     15  C   UNL     1      -4.904   1.154  -9.112  1.00  0.00     0.157 A 
ATOM     16  C   UNL     1      -3.725  -0.931  -8.727  1.00  0.00     0.062 A 
ATOM     17  C   UNL     1      -4.876  -0.142  -8.584  1.00  0.00     0.158 A 
BRANCH  15  18
ATOM     18  O   UNL     1      -6.051   1.933  -8.971  1.00  0.00    -0.504 OA
ATOM     19  H   UNL     1      -6.627   2.177  -9.769  1.00  0.00     0.293 HD
ENDBRANCH  15  18
BRANCH  17  20
ATOM     20  O   UNL     1      -5.992  -0.639  -7.913  1.00  0.00    -0.504 OA
ATOM     21  H   UNL     1      -6.864  -0.126  -7.881  1.00  0.00     0.293 HD
ENDBRANCH  17  20
ENDBRANCH   1  12
BRANCH   2  22
ATOM     22  O   UNL     1      -2.624  -3.285  -9.929  1.00  0.00    -0.502 OA
ATOM     23  H   UNL     1      -3.509  -2.792  -9.929  1.00  0.00     0.293 HD
ENDBRANCH   2  22
BRANCH   6  24
ATOM     24  O   UNL     1       2.524  -4.647  -9.808  1.00  0.00    -0.507 OA
ATOM     25  H   UNL     1       2.603  -5.236  -8.993  1.00  0.00     0.293 HD
ENDBRANCH   6  24
BRANCH   8  26
ATOM     26  O   UNL     1       4.541  -0.294  -9.595  1.00  0.00    -0.508 OA
ATOM     27  H   UNL     1       4.586   0.556  -9.044  1.00  0.00     0.293 HD
ENDBRANCH   8  26
TORSDOF 6
ENDMDL
MODEL 2
REMARK VINA RESULT:    -4.673      1.276      2.930
REMARK INTER + INTRA:          -5.491
REMARK INTER:                  -5.739
REMARK INTRA:                   0.248
REMARK UNBOUND:                 0.138
REMARK SMILES O=c1c(O)c(-c2ccc(O)c(O)c2)oc2cc(O)cc(O)c12
REMARK SMILES IDX 5 1 3 2 2 3 1 4 22 5 20 6 19 7 17 8 16 9 15 10 14 11 6 12
REMARK SMILES IDX 7 13 8 14 9 15 13 16 11 17 10 18 12 20 4 22 21 24 18 26
REMARK H PARENT 10 19 12 21 4 23 21 25 18 27
REMARK Flexibility Score: inf
ROOT
ATOM      1  C   UNL     1      -0.479  -0.859  -9.641  1.00  0.00     0.180 A 
ATOM      2  C   UNL     1       0.701  -0.104  -9.533  1.00  0.00     0.208 A 
ATOM      3  C   UNL     1       1.939  -0.760  -9.616  1.00  0.00     0.238 A 
ATOM      4  O   UNL     1       2.992  -0.086  -9.464  1.00  0.00    -0.285 OA
ATOM      5  C   UNL     1       1.983  -2.160  -9.824  1.00  0.00     0.111 A 
ATOM      6  C   UNL     1       3.182  -2.922  -9.964  1.00  0.00     0.134 A 
ATOM      7  C   UNL     1       3.109  -4.318 -10.035  1.00  0.00     0.093 A 
ATOM      8  C   UNL     1       1.876  -4.975 -10.036  1.00  0.00     0.123 A 
ATOM      9  C   UNL     1       0.697  -4.237  -9.959  1.00  0.00     0.094 A 
ATOM     10  C   UNL     1       0.740  -2.845  -9.850  1.00  0.00     0.146 A 
ATOM     11  O   UNL     1      -0.406  -2.179  -9.769  1.00  0.00    -0.452 OA
ENDROOT
BRANCH   1  12
ATOM     12  C   UNL     1      -1.821  -0.236  -9.587  1.00  0.00     0.025 A 
ATOM     13  C   UNL     1      -2.008   1.048 -10.124  1.00  0.00     0.016 A 
ATOM     14  C   UNL     1      -3.261   1.664 -10.066  1.00  0.00     0.051 A 
ATOM     15  C   UNL     1      -4.341   1.011  -9.456  1.00  0.00     0.157 A 
ATOM     16  C   UNL     1      -2.903  -0.878  -8.958  1.00  0.00     0.062 A 
ATOM     17  C   UNL     1      -4.160  -0.260  -8.897  1.00  0.00     0.158 A 
BRANCH  15  18
ATOM     18  O   UNL     1      -5.593   1.620  -9.398  1.00  0.00    -0.504 OA
ATOM     19  H   UNL     1      -6.312   1.295  -8.761  1.00  0.00     0.293 HD
ENDBRANCH  15  18
BRANCH  17  20
ATOM     20  O   UNL     1      -5.232  -0.901  -8.279  1.00  0.00    -0.504 OA
ATOM     21  H   UNL     1      -6.011  -0.382  -7.894  1.00  0.00     0.293 HD
ENDBRANCH  17  20
ENDBRANCH   1  12
BRANCH   2  22
ATOM     22  O   UNL     1       0.636   1.273  -9.306  1.00  0.00    -0.502 OA
ATOM     23  H   UNL     1       0.351   1.930 -10.024  1.00  0.00     0.293 HD
ENDBRANCH   2  22
BRANCH   6  24
ATOM     24  O   UNL     1       4.457  -2.358 -10.067  1.00  0.00    -0.507 OA
ATOM     25  H   UNL     1       4.651  -1.368 -10.051  1.00  0.00     0.293 HD
ENDBRANCH   6  24
BRANCH   8  26
ATOM     26  O   UNL     1       1.810  -6.365 -10.123  1.00  0.00    -0.508 OA
ATOM     27  H   UNL     1       1.406  -6.827 -10.930  1.00  0.00     0.293 HD
ENDBRANCH   8  26
TORSDOF 6
ENDMDL
MODEL 3
REMARK VINA RESULT:    -3.678      1.696      2.606
REMARK INTER + INTRA:          -4.293
REMARK INTER:                  -3.959
REMARK INTRA:                  -0.334
REMARK UNBOUND:                 0.138
REMARK SMILES O=c1c(O)c(-c2ccc(O)c(O)c2)oc2cc(O)cc(O)c12
REMARK SMILES IDX 5 1 3 2 2 3 1 4 22 5 20 6 19 7 17 8 16 9 15 10 14 11 6 12
REMARK SMILES IDX 7 13 8 14 9 15 13 16 11 17 10 18 12 20 4 22 21 24 18 26
REMARK H PARENT 10 19 12 21 4 23 21 25 18 27
REMARK Flexibility Score: inf
ROOT
ATOM      1  C   UNL     1      -3.647  -0.147  -9.283  1.00  0.00     0.180 A 
ATOM      2  C   UNL     1      -3.779  -1.507  -9.608  1.00  0.00     0.208 A 
ATOM      3  C   UNL     1      -2.621  -2.282  -9.780  1.00  0.00     0.238 A 
ATOM      4  O   UNL     1      -2.745  -3.487 -10.125  1.00  0.00    -0.285 OA
ATOM      5  C   UNL     1      -1.346  -1.691  -9.607  1.00  0.00     0.111 A 
ATOM      6  C   UNL     1      -0.107  -2.391  -9.717  1.00  0.00     0.134 A 
ATOM      7  C   UNL     1       1.097  -1.679  -9.656  1.00  0.00     0.093 A 
ATOM      8  C   UNL     1       1.107  -0.301  -9.423  1.00  0.00     0.123 A 
ATOM      9  C   UNL     1      -0.096   0.382  -9.256  1.00  0.00     0.094 A 
ATOM     10  C   UNL     1      -1.314  -0.297  -9.348  1.00  0.00     0.146 A 
ATOM     11  O   UNL     1      -2.437   0.393  -9.192  1.00  0.00    -0.452 OA
ENDROOT
BRANCH   1  12
ATOM     12  C   UNL     1      -4.821   0.728  -9.062  1.00  0.00     0.025 A 
ATOM     13  C   UNL     1      -5.319   1.498 -10.125  1.00  0.00     0.016 A 
ATOM     14  C   UNL     1      -6.413   2.346  -9.934  1.00  0.00     0.051 A 
ATOM     15  C   UNL     1      -7.015   2.449  -8.672  1.00  0.00     0.157 A 
ATOM     16  C   UNL     1      -5.415   0.851  -7.793  1.00  0.00     0.062 A 
ATOM     17  C   UNL     1      -6.512   1.703  -7.599  1.00  0.00     0.158 A 
BRANCH  15  18
ATOM     18  O   UNL     1      -8.107   3.292  -8.477  1.00  0.00    -0.504 OA
ATOM     19  H   UNL     1      -9.044   2.926  -8.356  1.00  0.00     0.293 HD
ENDBRANCH  15  18
BRANCH  17  20
ATOM     20  O   UNL     1      -7.103   1.817  -6.342  1.00  0.00    -0.504 OA
ATOM     21  H   UNL     1      -6.631   2.278  -5.574  1.00  0.00     0.293 HD
ENDBRANCH  17  20
ENDBRANCH   1  12
BRANCH   2  22
ATOM     22  O   UNL     1      -5.047  -2.065  -9.795  1.00  0.00    -0.502 OA
ATOM     23  H   UNL     1      -5.287  -2.606 -10.618  1.00  0.00     0.293 HD
ENDBRANCH   2  22
BRANCH   6  24
ATOM     24  O   UNL     1      -0.004  -3.778  -9.858  1.00  0.00    -0.507 OA
ATOM     25  H   UNL     1       0.767  -4.256 -10.299  1.00  0.00     0.293 HD
ENDBRANCH   6  24
BRANCH   8  26
ATOM     26  O   UNL     1       2.310   0.398  -9.348  1.00  0.00    -0.508 OA
ATOM     27  H   UNL     1       2.474   1.231  -9.902  1.00  0.00     0.293 HD
ENDBRANCH   8  26
TORSDOF 6
ENDMDL
MODEL 4
REMARK VINA RESULT:    -3.630      2.053      6.918
REMARK INTER + INTRA:          -4.235
REMARK INTER:                  -4.648
REMARK INTRA:                   0.413
REMARK UNBOUND:                 0.138
REMARK SMILES O=c1c(O)c(-c2ccc(O)c(O)c2)oc2cc(O)cc(O)c12
REMARK SMILES IDX 5 1 3 2 2 3 1 4 22 5 20 6 19 7 17 8 16 9 15 10 14 11 6 12
REMARK SMILES IDX 7 13 8 14 9 15 13 16 11 17 10 18 12 20 4 22 21 24 18 26
REMARK H PARENT 10 19 12 21 4 23 21 25 18 27
REMARK Flexibility Score: inf
ROOT
ATOM      1  C   UNL     1       1.081  -3.129  -9.712  1.00  0.00     0.180 A 
ATOM      2  C   UNL     1      -0.229  -3.600  -9.905  1.00  0.00     0.208 A 
ATOM      3  C   UNL     1      -1.297  -2.692  -9.832  1.00  0.00     0.238 A 
ATOM      4  O   UNL     1      -2.472  -3.129  -9.952  1.00  0.00    -0.285 OA
ATOM      5  C   UNL     1      -1.041  -1.321  -9.586  1.00  0.00     0.111 A 
ATOM      6  C   UNL     1      -2.043  -0.306  -9.533  1.00  0.00     0.134 A 
ATOM      7  C   UNL     1      -1.690   0.994  -9.153  1.00  0.00     0.093 A 
ATOM      8  C   UNL     1      -0.360   1.330  -8.887  1.00  0.00     0.123 A 
ATOM      9  C   UNL     1       0.634   0.360  -8.994  1.00  0.00     0.094 A 
ATOM     10  C   UNL     1       0.307  -0.954  -9.336  1.00  0.00     0.146 A 
ATOM     11  O   UNL     1       1.283  -1.850  -9.418  1.00  0.00    -0.452 OA
ENDROOT
BRANCH   1  12
ATOM     12  C   UNL     1       2.259  -4.021  -9.797  1.00  0.00     0.025 A 
ATOM     13  C   UNL     1       3.531  -3.467 -10.013  1.00  0.00     0.016 A 
ATOM     14  C   UNL     1       4.655  -4.291 -10.117  1.00  0.00     0.051 A 
ATOM     15  C   UNL     1       4.520  -5.683 -10.023  1.00  0.00     0.157 A 
ATOM     16  C   UNL     1       2.127  -5.420  -9.725  1.00  0.00     0.062 A 
ATOM     17  C   UNL     1       3.254  -6.248  -9.832  1.00  0.00     0.158 A 
BRANCH  15  18
ATOM     18  O   UNL     1       5.638  -6.509 -10.125  1.00  0.00    -0.504 OA
ATOM     19  H   UNL     1       6.221  -6.713  -9.321  1.00  0.00     0.293 HD
ENDBRANCH  15  18
BRANCH  17  20
ATOM     20  O   UNL     1       3.120  -7.633  -9.753  1.00  0.00    -0.504 OA
ATOM     21  H   UNL     1       3.770  -8.200  -9.222  1.00  0.00     0.293 HD
ENDBRANCH  17  20
ENDBRANCH   1  12
BRANCH   2  22
ATOM     22  O   UNL     1      -0.461  -4.960 -10.125  1.00  0.00    -0.502 OA
ATOM     23  H   UNL     1      -0.343  -5.657  -9.399  1.00  0.00     0.293 HD
ENDBRANCH   2  22
BRANCH   6  24
ATOM     24  O   UNL     1      -3.384  -0.515  -9.868  1.00  0.00    -0.507 OA
ATOM     25  H   UNL     1      -4.134   0.130  -9.669  1.00  0.00     0.293 HD
ENDBRANCH   6  24
BRANCH   8  26
ATOM     26  O   UNL     1      -0.014   2.631  -8.525  1.00  0.00    -0.508 OA
ATOM     27  H   UNL     1       0.038   3.376  -9.210  1.00  0.00     0.293 HD
ENDBRANCH   8  26
TORSDOF 6
ENDMDL
MODEL 5
REMARK VINA RESULT:    -3.023     11.798     13.779
REMARK INTER + INTRA:          -3.504
REMARK INTER:                  -3.364
REMARK INTRA:                  -0.140
REMARK UNBOUND:                 0.138
REMARK SMILES O=c1c(O)c(-c2ccc(O)c(O)c2)oc2cc(O)cc(O)c12
REMARK SMILES IDX 5 1 3 2 2 3 1 4 22 5 20 6 19 7 17 8 16 9 15 10 14 11 6 12
REMARK SMILES IDX 7 13 8 14 9 15 13 16 11 17 10 18 12 20 4 22 21 24 18 26
REMARK H PARENT 10 19 12 21 4 23 21 25 18 27
REMARK Flexibility Score: inf
ROOT
ATOM      1  C   UNL     1      -0.110   4.840   0.922  1.00  0.00     0.180 A 
ATOM      2  C   UNL     1       0.994   5.698   1.067  1.00  0.00     0.208 A 
ATOM      3  C   UNL     1       0.813   7.077   0.879  1.00  0.00     0.238 A 
ATOM      4  O   UNL     1       1.817   7.834   0.957  1.00  0.00    -0.285 OA
ATOM      5  C   UNL     1      -0.472   7.584   0.567  1.00  0.00     0.111 A 
ATOM      6  C   UNL     1      -0.777   8.967   0.395  1.00  0.00     0.134 A 
ATOM      7  C   UNL     1      -2.053   9.344  -0.041  1.00  0.00     0.093 A 
ATOM      8  C   UNL     1      -3.053   8.391  -0.249  1.00  0.00     0.123 A 
ATOM      9  C   UNL     1      -2.782   7.043  -0.028  1.00  0.00     0.094 A 
ATOM     10  C   UNL     1      -1.507   6.634   0.373  1.00  0.00     0.146 A 
ATOM     11  O   UNL     1      -1.288   5.338   0.564  1.00  0.00    -0.452 OA
ENDROOT
BRANCH   1  12
ATOM     12  C   UNL     1      -0.004   3.378   1.128  1.00  0.00     0.025 A 
ATOM     13  C   UNL     1      -0.685   2.780   2.201  1.00  0.00     0.016 A 
ATOM     14  C   UNL     1      -0.583   1.404   2.427  1.00  0.00     0.051 A 
ATOM     15  C   UNL     1       0.215   0.610   1.592  1.00  0.00     0.157 A 
ATOM     16  C   UNL     1       0.812   2.579   0.306  1.00  0.00     0.062 A 
ATOM     17  C   UNL     1       0.917   1.199   0.533  1.00  0.00     0.158 A 
BRANCH  15  18
ATOM     18  O   UNL     1       0.319  -0.763   1.812  1.00  0.00    -0.504 OA
ATOM     19  H   UNL     1      -0.152  -1.432   1.215  1.00  0.00     0.293 HD
ENDBRANCH  15  18
BRANCH  17  20
ATOM     20  O   UNL     1       1.721   0.409  -0.286  1.00  0.00    -0.504 OA
ATOM     21  H   UNL     1       2.382  -0.254   0.098  1.00  0.00     0.293 HD
ENDBRANCH  17  20
ENDBRANCH   1  12
BRANCH   2  22
ATOM     22  O   UNL     1       2.257   5.174   1.354  1.00  0.00    -0.502 OA
ATOM     23  H   UNL     1       2.728   5.342   2.236  1.00  0.00     0.293 HD
ENDBRANCH   2  22
BRANCH   6  24
ATOM     24  O   UNL     1       0.121  10.004   0.664  1.00  0.00    -0.507 OA
ATOM     25  H   UNL     1       1.055  10.070   0.287  1.00  0.00     0.293 HD
ENDBRANCH   6  24
BRANCH   8  26
ATOM     26  O   UNL     1      -4.326   8.775  -0.669  1.00  0.00    -0.508 OA
ATOM     27  H   UNL     1      -4.825   9.534  -0.219  1.00  0.00     0.293 HD
ENDBRANCH   8  26
TORSDOF 6
ENDMDL
