MODEL 1
REMARK VINA RESULT:    -2.066      0.000      0.000
REMARK INTER + INTRA:          -6.934
REMARK INTER:                  -3.998
REMARK INTRA:                  -2.936
REMARK UNBOUND:                -2.936
REMARK SMILES CCCCCCCCCCCCCCCCCC(=O)[O-]
REMARK SMILES IDX 10 1 11 2 12 3 13 4 14 5 15 6 16 7 17 8 18 9 19 10 20 11
REMARK SMILES IDX 9 12 8 13 7 14 6 15 5 16 4 17 3 18 2 19 1 20
REMARK H PARENT
REMARK Flexibility Score: inf
ROOT
ATOM      1  C   UNL     1      26.965   9.861  13.624  1.00  0.00     0.000 C 
ENDROOT
BRANCH   1   2
ATOM      2  C   UNL     1      28.151  10.203  12.704  1.00  0.00     0.000 C 
BRANCH   2   3
ATOM      3  C   UNL     1      28.136   9.408  11.387  1.00  0.00     0.000 C 
BRANCH   3   4
ATOM      4  C   UNL     1      27.566  10.164  10.173  1.00  0.00     0.000 C 
BRANCH   4   5
ATOM      5  C   UNL     1      27.811  11.679  10.238  1.00  0.00     0.000 C 
BRANCH   5   6
ATOM      6  C   UNL     1      26.497  12.454  10.067  1.00  0.00     0.000 C 
BRANCH   6   7
ATOM      7  C   UNL     1      26.407  13.686  10.987  1.00  0.00     0.006 C 
BRANCH   7   8
ATOM      8  C   UNL     1      26.113  13.356  12.459  1.00  0.00     0.053 C 
BRANCH   8   9
ATOM      9  C   UNL     1      27.260  13.715  13.354  1.00  0.00     0.041 C 
ATOM     10  O   UNL     1      27.102  13.754  14.602  1.00  0.00    -0.550 OA
ATOM     11  O   UNL     1      28.495  14.037  12.806  1.00  0.00    -0.550 OA
ENDBRANCH   8   9
ENDBRANCH   7   8
ENDBRANCH   6   7
ENDBRANCH   5   6
ENDBRANCH   4   5
ENDBRANCH   3   4
ENDBRANCH   2   3
ENDBRANCH   1   2
BRANCH   1  12
ATOM     12  C   UNL     1      26.342   8.495  13.298  1.00  0.00     0.000 C 
BRANCH  12  13
ATOM     13  C   UNL     1      24.915   8.613  12.731  1.00  0.00    -0.000 C 
BRANCH  13  14
ATOM     14  C   UNL     1      24.257   9.960  13.069  1.00  0.00    -0.000 C 
BRANCH  14  15
ATOM     15  C   UNL     1      23.731  10.691  11.822  1.00  0.00    -0.000 C 
BRANCH  15  16
ATOM     16  C   UNL     1      23.944   9.871  10.532  1.00  0.00    -0.000 C 
BRANCH  16  17
ATOM     17  C   UNL     1      22.635   9.354   9.909  1.00  0.00    -0.000 C 
BRANCH  17  18
ATOM     18  C   UNL     1      21.395   9.702  10.749  1.00  0.00    -0.000 C 
BRANCH  18  19
ATOM     19  C   UNL     1      20.653   8.454  11.250  1.00  0.00    -0.003 C 
ATOM     20  C   UNL     1      21.561   7.229  11.350  1.00  0.00     0.004 C 
ENDBRANCH  18  19
ENDBRANCH  17  18
ENDBRANCH  16  17
ENDBRANCH  15  16
ENDBRANCH  14  15
ENDBRANCH  13  14
ENDBRANCH  12  13
ENDBRANCH   1  12
TORSDOF 16
ENDMDL
MODEL 2
REMARK VINA RESULT:    -2.044     23.303     25.144
REMARK INTER + INTRA:          -6.892
REMARK INTER:                  -4.018
REMARK INTRA:                  -2.874
REMARK UNBOUND:                -2.936
REMARK SMILES CCCCCCCCCCCCCCCCCC(=O)[O-]
REMARK SMILES IDX 10 1 11 2 12 3 13 4 14 5 15 6 16 7 17 8 18 9 19 10 20 11
REMARK SMILES IDX 9 12 8 13 7 14 6 15 5 16 4 17 3 18 2 19 1 20
REMARK H PARENT
REMARK Flexibility Score: inf
ROOT
ATOM      1  C   UNL     1      13.190  23.468  28.843  1.00  0.00     0.000 C 
ENDROOT
BRANCH   1   2
ATOM      2  C   UNL     1      12.518  22.730  27.672  1.00  0.00     0.000 C 
BRANCH   2   3
ATOM      3  C   UNL     1      11.063  22.328  27.974  1.00  0.00     0.000 C 
BRANCH   3   4
ATOM      4  C   UNL     1      10.610  22.551  29.428  1.00  0.00     0.000 C 
BRANCH   4   5
ATOM      5  C   UNL     1      10.156  21.258  30.122  1.00  0.00     0.000 C 
BRANCH   5   6
ATOM      6  C   UNL     1      10.235  20.064  29.160  1.00  0.00     0.000 C 
BRANCH   6   7
ATOM      7  C   UNL     1      11.223  18.981  29.633  1.00  0.00     0.006 C 
BRANCH   7   8
ATOM      8  C   UNL     1      12.686  19.247  29.246  1.00  0.00     0.053 C 
BRANCH   8   9
ATOM      9  C   UNL     1      13.038  18.630  27.927  1.00  0.00     0.041 C 
ATOM     10  O   UNL     1      12.963  19.309  26.869  1.00  0.00    -0.550 OA
ATOM     11  O   UNL     1      13.417  17.296  27.863  1.00  0.00    -0.550 OA
ENDBRANCH   8   9
ENDBRANCH   7   8
ENDBRANCH   6   7
ENDBRANCH   5   6
ENDBRANCH   4   5
ENDBRANCH   3   4
ENDBRANCH   2   3
ENDBRANCH   1   2
BRANCH   1  12
ATOM     12  C   UNL     1      13.966  24.714  28.387  1.00  0.00     0.000 C 
BRANCH  12  13
ATOM     13  C   UNL     1      13.582  25.977  29.180  1.00  0.00    -0.000 C 
BRANCH  13  14
ATOM     14  C   UNL     1      12.139  25.925  29.707  1.00  0.00    -0.000 C 
BRANCH  14  15
ATOM     15  C   UNL     1      11.173  26.785  28.875  1.00  0.00    -0.000 C 
BRANCH  15  16
ATOM     16  C   UNL     1       9.944  25.984  28.396  1.00  0.00    -0.000 C 
BRANCH  16  17
ATOM     17  C   UNL     1       9.981  25.638  26.897  1.00  0.00    -0.000 C 
BRANCH  17  18
ATOM     18  C   UNL     1      11.067  26.414  26.133  1.00  0.00    -0.000 C 
BRANCH  18  19
ATOM     19  C   UNL     1      11.995  25.489  25.329  1.00  0.00    -0.003 C 
ATOM     20  C   UNL     1      11.763  25.587  23.822  1.00  0.00     0.004 C 
ENDBRANCH  18  19
ENDBRANCH  17  18
ENDBRANCH  16  17
ENDBRANCH  15  16
ENDBRANCH  14  15
ENDBRANCH  13  14
ENDBRANCH  12  13
ENDBRANCH   1  12
TORSDOF 16
ENDMDL
MODEL 3
REMARK VINA RESULT:    -1.996      2.996      5.903
REMARK INTER + INTRA:          -6.799
REMARK INTER:                  -3.909
REMARK INTRA:                  -2.890
REMARK UNBOUND:                -2.936
REMARK SMILES CCCCCCCCCCCCCCCCCC(=O)[O-]
REMARK SMILES IDX 10 1 11 2 12 3 13 4 14 5 15 6 16 7 17 8 18 9 19 10 20 11
REMARK SMILES IDX 9 12 8 13 7 14 6 15 5 16 4 17 3 18 2 19 1 20
REMARK H PARENT
REMARK Flexibility Score: inf
ROOT
ATOM      1  C   UNL     1      27.757  10.890  14.006  1.00  0.00     0.000 C 
ENDROOT
BRANCH   1   2
ATOM      2  C   UNL     1      26.395  10.266  14.358  1.00  0.00     0.000 C 
BRANCH   2   3
ATOM      3  C   UNL     1      25.206  11.153  13.948  1.00  0.00     0.000 C 
BRANCH   3   4
ATOM      4  C   UNL     1      24.365  10.618  12.775  1.00  0.00     0.000 C 
BRANCH   4   5
ATOM      5  C   UNL     1      23.439  11.682  12.165  1.00  0.00     0.000 C 
BRANCH   5   6
ATOM      6  C   UNL     1      22.947  11.248  10.777  1.00  0.00     0.000 C 
BRANCH   6   7
ATOM      7  C   UNL     1      23.300   9.785  10.448  1.00  0.00     0.006 C 
BRANCH   7   8
ATOM      8  C   UNL     1      22.133   8.966   9.875  1.00  0.00     0.053 C 
BRANCH   8   9
ATOM      9  C   UNL     1      20.975   8.902  10.823  1.00  0.00     0.041 C 
ATOM     10  O   UNL     1      19.822   9.233  10.439  1.00  0.00    -0.550 OA
ATOM     11  O   UNL     1      21.174   8.507  12.139  1.00  0.00    -0.550 OA
ENDBRANCH   8   9
ENDBRANCH   7   8
ENDBRANCH   6   7
ENDBRANCH   5   6
ENDBRANCH   4   5
ENDBRANCH   3   4
ENDBRANCH   2   3
ENDBRANCH   1   2
BRANCH   1  12
ATOM     12  C   UNL     1      28.404  10.239  12.773  1.00  0.00     0.000 C 
BRANCH  12  13
ATOM     13  C   UNL     1      27.591   9.045  12.238  1.00  0.00    -0.000 C 
BRANCH  13  14
ATOM     14  C   UNL     1      27.268   9.176  10.742  1.00  0.00    -0.000 C 
BRANCH  14  15
ATOM     15  C   UNL     1      27.700  10.532  10.159  1.00  0.00    -0.000 C 
BRANCH  15  16
ATOM     16  C   UNL     1      26.498  11.465   9.900  1.00  0.00    -0.000 C 
BRANCH  16  17
ATOM     17  C   UNL     1      26.865  12.959   9.907  1.00  0.00    -0.000 C 
BRANCH  17  18
ATOM     18  C   UNL     1      27.542  13.401  11.215  1.00  0.00    -0.000 C 
BRANCH  18  19
ATOM     19  C   UNL     1      26.548  14.005  12.219  1.00  0.00    -0.003 C 
ATOM     20  C   UNL     1      27.054  15.308  12.837  1.00  0.00     0.004 C 
ENDBRANCH  18  19
ENDBRANCH  17  18
ENDBRANCH  16  17
ENDBRANCH  15  16
ENDBRANCH  14  15
ENDBRANCH  13  14
ENDBRANCH  12  13
ENDBRANCH   1  12
TORSDOF 16
ENDMDL
MODEL 4
REMARK VINA RESULT:    -1.989     23.051     25.086
REMARK INTER + INTRA:          -6.786
REMARK INTER:                  -3.711
REMARK INTRA:                  -3.075
REMARK UNBOUND:                -2.936
REMARK SMILES CCCCCCCCCCCCCCCCCC(=O)[O-]
REMARK SMILES IDX 10 1 11 2 12 3 13 4 14 5 15 6 16 7 17 8 18 9 19 10 20 11
REMARK SMILES IDX 9 12 8 13 7 14 6 15 5 16 4 17 3 18 2 19 1 20
REMARK H PARENT
REMARK Flexibility Score: inf
ROOT
ATOM      1  C   UNL     1      11.470  23.422  26.668  1.00  0.00     0.000 C 
ENDROOT
BRANCH   1   2
ATOM      2  C   UNL     1      12.685  22.930  27.473  1.00  0.00     0.000 C 
BRANCH   2   3
ATOM      3  C   UNL     1      12.290  22.201  28.769  1.00  0.00     0.000 C 
BRANCH   3   4
ATOM      4  C   UNL     1      10.791  22.248  29.116  1.00  0.00     0.000 C 
BRANCH   4   5
ATOM      5  C   UNL     1      10.177  20.855  29.324  1.00  0.00     0.000 C 
BRANCH   5   6
ATOM      6  C   UNL     1      11.226  19.756  29.101  1.00  0.00     0.000 C 
BRANCH   6   7
ATOM      7  C   UNL     1      10.882  18.834  27.916  1.00  0.00     0.006 C 
BRANCH   7   8
ATOM      8  C   UNL     1      10.362  19.571  26.671  1.00  0.00     0.053 C 
BRANCH   8   9
ATOM      9  C   UNL     1      11.458  19.854  25.690  1.00  0.00     0.041 C 
ATOM     10  O   UNL     1      11.186  20.325  24.554  1.00  0.00    -0.550 OA
ATOM     11  O   UNL     1      12.777  19.567  26.018  1.00  0.00    -0.550 OA
ENDBRANCH   8   9
ENDBRANCH   7   8
ENDBRANCH   6   7
ENDBRANCH   5   6
ENDBRANCH   4   5
ENDBRANCH   3   4
ENDBRANCH   2   3
ENDBRANCH   1   2
BRANCH   1  12
ATOM     12  C   UNL     1      11.482  24.944  26.453  1.00  0.00     0.000 C 
BRANCH  12  13
ATOM     13  C   UNL     1      10.179  25.620  26.916  1.00  0.00    -0.000 C 
BRANCH  13  14
ATOM     14  C   UNL     1      10.141  25.848  28.436  1.00  0.00    -0.000 C 
BRANCH  14  15
ATOM     15  C   UNL     1      11.420  26.518  28.966  1.00  0.00    -0.000 C 
BRANCH  15  16
ATOM     16  C   UNL     1      12.161  25.632  29.989  1.00  0.00    -0.000 C 
BRANCH  16  17
ATOM     17  C   UNL     1      13.686  25.601  29.787  1.00  0.00    -0.000 C 
BRANCH  17  18
ATOM     18  C   UNL     1      14.152  26.493  28.624  1.00  0.00    -0.000 C 
BRANCH  18  19
ATOM     19  C   UNL     1      15.397  25.936  27.917  1.00  0.00    -0.003 C 
ATOM     20  C   UNL     1      15.126  25.550  26.463  1.00  0.00     0.004 C 
ENDBRANCH  18  19
ENDBRANCH  17  18
ENDBRANCH  16  17
ENDBRANCH  15  16
ENDBRANCH  14  15
ENDBRANCH  13  14
ENDBRANCH  12  13
ENDBRANCH   1  12
TORSDOF 16
ENDMDL
MODEL 5
REMARK VINA RESULT:    -1.911     23.768     25.695
REMARK INTER + INTRA:          -6.635
REMARK INTER:                  -4.305
REMARK INTRA:                  -2.330
REMARK UNBOUND:                -2.936
REMARK SMILES CCCCCCCCCCCCCCCCCC(=O)[O-]
REMARK SMILES IDX 10 1 11 2 12 3 13 4 14 5 15 6 16 7 17 8 18 9 19 10 20 11
REMARK SMILES IDX 9 12 8 13 7 14 6 15 5 16 4 17 3 18 2 19 1 20
REMARK H PARENT
REMARK Flexibility Score: inf
ROOT
ATOM      1  C   UNL     1      12.582  24.180  26.331  1.00  0.00     0.000 C 
ENDROOT
BRANCH   1   2
ATOM      2  C   UNL     1      11.908  22.802  26.456  1.00  0.00     0.000 C 
BRANCH   2   3
ATOM      3  C   UNL     1      12.832  21.736  27.070  1.00  0.00     0.000 C 
BRANCH   3   4
ATOM      4  C   UNL     1      12.286  21.044  28.332  1.00  0.00     0.000 C 
BRANCH   4   5
ATOM      5  C   UNL     1      10.751  21.036  28.397  1.00  0.00     0.000 C 
BRANCH   5   6
ATOM      6  C   UNL     1      10.265  21.052  29.854  1.00  0.00     0.000 C 
BRANCH   6   7
ATOM      7  C   UNL     1       9.159  20.016  30.125  1.00  0.00     0.006 C 
BRANCH   7   8
ATOM      8  C   UNL     1       9.099  18.872  29.101  1.00  0.00     0.053 C 
BRANCH   8   9
ATOM      9  C   UNL     1       9.734  17.619  29.623  1.00  0.00     0.041 C 
ATOM     10  O   UNL     1       9.020  16.638  29.958  1.00  0.00    -0.550 OA
ATOM     11  O   UNL     1      11.113  17.547  29.767  1.00  0.00    -0.550 OA
ENDBRANCH   8   9
ENDBRANCH   7   8
ENDBRANCH   6   7
ENDBRANCH   5   6
ENDBRANCH   4   5
ENDBRANCH   3   4
ENDBRANCH   2   3
ENDBRANCH   1   2
BRANCH   1  12
ATOM     12  C   UNL     1      11.863  25.099  25.330  1.00  0.00     0.000 C 
BRANCH  12  13
ATOM     13  C   UNL     1      11.038  26.200  26.022  1.00  0.00    -0.000 C 
BRANCH  13  14
ATOM     14  C   UNL     1       9.941  25.629  26.934  1.00  0.00    -0.000 C 
BRANCH  14  15
ATOM     15  C   UNL     1      10.092  26.082  28.397  1.00  0.00    -0.000 C 
BRANCH  15  16
ATOM     16  C   UNL     1      11.368  26.922  28.618  1.00  0.00    -0.000 C 
BRANCH  16  17
ATOM     17  C   UNL     1      12.385  26.258  29.563  1.00  0.00    -0.000 C 
BRANCH  17  18
ATOM     18  C   UNL     1      12.003  24.814  29.931  1.00  0.00    -0.000 C 
BRANCH  18  19
ATOM     19  C   UNL     1      13.232  23.911  30.125  1.00  0.00    -0.003 C 
ATOM     20  C   UNL     1      14.462  24.421  29.375  1.00  0.00     0.004 C 
ENDBRANCH  18  19
ENDBRANCH  17  18
ENDBRANCH  16  17
ENDBRANCH  15  16
ENDBRANCH  14  15
ENDBRANCH  13  14
ENDBRANCH  12  13
ENDBRANCH   1  12
TORSDOF 16
ENDMDL
MODEL 6
REMARK VINA RESULT:    -1.909      3.578      6.505
REMARK INTER + INTRA:          -6.630
REMARK INTER:                  -3.921
REMARK INTRA:                  -2.710
REMARK UNBOUND:                -2.936
REMARK SMILES CCCCCCCCCCCCCCCCCC(=O)[O-]
REMARK SMILES IDX 10 1 11 2 12 3 13 4 14 5 15 6 16 7 17 8 18 9 19 10 20 11
REMARK SMILES IDX 9 12 8 13 7 14 6 15 5 16 4 17 3 18 2 19 1 20
REMARK H PARENT
REMARK Flexibility Score: inf
ROOT
ATOM      1  C   UNL     1      27.883   9.548  12.101  1.00  0.00     0.000 C 
ENDROOT
BRANCH   1   2
ATOM      2  C   UNL     1      26.884   8.887  13.067  1.00  0.00     0.000 C 
BRANCH   2   3
ATOM      3  C   UNL     1      25.460   8.799  12.489  1.00  0.00     0.000 C 
BRANCH   3   4
ATOM      4  C   UNL     1      24.583  10.043  12.717  1.00  0.00     0.000 C 
BRANCH   4   5
ATOM      5  C   UNL     1      23.777  10.447  11.473  1.00  0.00     0.000 C 
BRANCH   5   6
ATOM      6  C   UNL     1      23.198   9.210  10.770  1.00  0.00     0.000 C 
BRANCH   6   7
ATOM      7  C   UNL     1      21.990   8.612  11.515  1.00  0.00     0.006 C 
BRANCH   7   8
ATOM      8  C   UNL     1      21.272   7.486  10.755  1.00  0.00     0.053 C 
BRANCH   8   9
ATOM      9  C   UNL     1      19.910   7.903  10.290  1.00  0.00     0.041 C 
ATOM     10  O   UNL     1      19.081   7.039   9.901  1.00  0.00    -0.550 OA
ATOM     11  O   UNL     1      19.568   9.249  10.259  1.00  0.00    -0.550 OA
ENDBRANCH   8   9
ENDBRANCH   7   8
ENDBRANCH   6   7
ENDBRANCH   5   6
ENDBRANCH   4   5
ENDBRANCH   3   4
ENDBRANCH   2   3
ENDBRANCH   1   2
BRANCH   1  12
ATOM     12  C   UNL     1      27.497   9.348  10.627  1.00  0.00     0.000 C 
BRANCH  12  13
ATOM     13  C   UNL     1      27.293  10.680   9.881  1.00  0.00    -0.000 C 
BRANCH  13  14
ATOM     14  C   UNL     1      27.785  11.890  10.690  1.00  0.00    -0.000 C 
BRANCH  14  15
ATOM     15  C   UNL     1      26.648  12.858  11.058  1.00  0.00    -0.000 C 
BRANCH  15  16
ATOM     16  C   UNL     1      26.602  13.154  12.572  1.00  0.00    -0.000 C 
BRANCH  16  17
ATOM     17  C   UNL     1      27.968  13.022  13.267  1.00  0.00    -0.000 C 
BRANCH  17  18
ATOM     18  C   UNL     1      27.847  12.687  14.762  1.00  0.00    -0.000 C 
BRANCH  18  19
ATOM     19  C   UNL     1      26.521  11.990  15.105  1.00  0.00    -0.003 C 
ATOM     20  C   UNL     1      26.673  10.946  16.211  1.00  0.00     0.004 C 
ENDBRANCH  18  19
ENDBRANCH  17  18
ENDBRANCH  16  17
ENDBRANCH  15  16
ENDBRANCH  14  15
ENDBRANCH  13  14
ENDBRANCH  12  13
ENDBRANCH   1  12
TORSDOF 16
ENDMDL
MODEL 7
REMARK VINA RESULT:    -1.889      2.040      4.078
REMARK INTER + INTRA:          -6.592
REMARK INTER:                  -3.209
REMARK INTRA:                  -3.384
REMARK UNBOUND:                -2.936
REMARK SMILES CCCCCCCCCCCCCCCCCC(=O)[O-]
REMARK SMILES IDX 10 1 11 2 12 3 13 4 14 5 15 6 16 7 17 8 18 9 19 10 20 11
REMARK SMILES IDX 9 12 8 13 7 14 6 15 5 16 4 17 3 18 2 19 1 20
REMARK H PARENT
REMARK Flexibility Score: inf
ROOT
ATOM      1  C   UNL     1      23.966  11.992  10.683  1.00  0.00     0.000 C 
ENDROOT
BRANCH   1   2
ATOM      2  C   UNL     1      24.348  10.585  10.192  1.00  0.00     0.000 C 
BRANCH   2   3
ATOM      3  C   UNL     1      24.429   9.554  11.331  1.00  0.00     0.000 C 
BRANCH   3   4
ATOM      4  C   UNL     1      25.854   9.126  11.727  1.00  0.00     0.000 C 
BRANCH   4   5
ATOM      5  C   UNL     1      26.935   9.699  10.797  1.00  0.00     0.000 C 
BRANCH   5   6
ATOM      6  C   UNL     1      28.069  10.343  11.607  1.00  0.00     0.000 C 
BRANCH   6   7
ATOM      7  C   UNL     1      28.020   9.972  13.101  1.00  0.00     0.006 C 
BRANCH   7   8
ATOM      8  C   UNL     1      28.974  10.789  13.987  1.00  0.00     0.053 C 
BRANCH   8   9
ATOM      9  C   UNL     1      28.605  10.701  15.436  1.00  0.00     0.041 C 
ATOM     10  O   UNL     1      28.364   9.582  15.961  1.00  0.00    -0.550 OA
ATOM     11  O   UNL     1      28.498  11.856  16.199  1.00  0.00    -0.550 OA
ENDBRANCH   8   9
ENDBRANCH   7   8
ENDBRANCH   6   7
ENDBRANCH   5   6
ENDBRANCH   4   5
ENDBRANCH   3   4
ENDBRANCH   2   3
ENDBRANCH   1   2
BRANCH   1  12
ATOM     12  C   UNL     1      25.099  13.012  10.490  1.00  0.00     0.000 C 
BRANCH  12  13
ATOM     13  C   UNL     1      25.884  13.280  11.788  1.00  0.00    -0.000 C 
BRANCH  13  14
ATOM     14  C   UNL     1      24.977  13.320  13.027  1.00  0.00    -0.000 C 
BRANCH  14  15
ATOM     15  C   UNL     1      25.613  12.635  14.249  1.00  0.00    -0.000 C 
BRANCH  15  16
ATOM     16  C   UNL     1      24.937  11.288  14.580  1.00  0.00    -0.000 C 
BRANCH  16  17
ATOM     17  C   UNL     1      23.403  11.324  14.461  1.00  0.00    -0.000 C 
BRANCH  17  18
ATOM     18  C   UNL     1      22.754   9.949  14.690  1.00  0.00    -0.000 C 
BRANCH  18  19
ATOM     19  C   UNL     1      21.620   9.659  13.695  1.00  0.00    -0.003 C 
ATOM     20  C   UNL     1      21.223  10.890  12.879  1.00  0.00     0.004 C 
ENDBRANCH  18  19
ENDBRANCH  17  18
ENDBRANCH  16  17
ENDBRANCH  15  16
ENDBRANCH  14  15
ENDBRANCH  13  14
ENDBRANCH  12  13
ENDBRANCH   1  12
TORSDOF 16
ENDMDL
MODEL 8
REMARK VINA RESULT:    -1.872      2.842      5.742
REMARK INTER + INTRA:          -6.559
REMARK INTER:                  -3.421
REMARK INTRA:                  -3.138
REMARK UNBOUND:                -2.936
REMARK SMILES CCCCCCCCCCCCCCCCCC(=O)[O-]
REMARK SMILES IDX 10 1 11 2 12 3 13 4 14 5 15 6 16 7 17 8 18 9 19 10 20 11
REMARK SMILES IDX 9 12 8 13 7 14 6 15 5 16 4 17 3 18 2 19 1 20
REMARK H PARENT
REMARK Flexibility Score: inf
ROOT
ATOM      1  C   UNL     1      24.182  12.612  12.319  1.00  0.00     0.000 C 
ENDROOT
BRANCH   1   2
ATOM      2  C   UNL     1      23.067  12.282  11.312  1.00  0.00     0.000 C 
BRANCH   2   3
ATOM      3  C   UNL     1      23.595  11.608  10.033  1.00  0.00     0.000 C 
BRANCH   3   4
ATOM      4  C   UNL     1      23.780  10.082  10.126  1.00  0.00     0.000 C 
BRANCH   4   5
ATOM      5  C   UNL     1      22.527   9.354  10.635  1.00  0.00     0.000 C 
BRANCH   5   6
ATOM      6  C   UNL     1      22.865   8.452  11.831  1.00  0.00     0.000 C 
BRANCH   6   7
ATOM      7  C   UNL     1      21.817   8.535  12.957  1.00  0.00     0.006 C 
BRANCH   7   8
ATOM      8  C   UNL     1      21.860   9.840  13.767  1.00  0.00     0.053 C 
BRANCH   8   9
ATOM      9  C   UNL     1      20.622  10.661  13.572  1.00  0.00     0.041 C 
ATOM     10  O   UNL     1      19.611  10.160  13.013  1.00  0.00    -0.550 OA
ATOM     11  O   UNL     1      20.596  11.988  13.979  1.00  0.00    -0.550 OA
ENDBRANCH   8   9
ENDBRANCH   7   8
ENDBRANCH   6   7
ENDBRANCH   5   6
ENDBRANCH   4   5
ENDBRANCH   3   4
ENDBRANCH   2   3
ENDBRANCH   1   2
BRANCH   1  12
ATOM     12  C   UNL     1      25.467  13.105  11.634  1.00  0.00     0.000 C 
BRANCH  12  13
ATOM     13  C   UNL     1      26.726  12.860  12.487  1.00  0.00    -0.000 C 
BRANCH  13  14
ATOM     14  C   UNL     1      27.868  12.220  11.681  1.00  0.00    -0.000 C 
BRANCH  14  15
ATOM     15  C   UNL     1      27.452  11.869  10.242  1.00  0.00    -0.000 C 
BRANCH  15  16
ATOM     16  C   UNL     1      27.530  10.353   9.966  1.00  0.00    -0.000 C 
BRANCH  16  17
ATOM     17  C   UNL     1      27.861   9.517  11.215  1.00  0.00    -0.000 C 
BRANCH  17  18
ATOM     18  C   UNL     1      26.616   8.883  11.856  1.00  0.00    -0.000 C 
BRANCH  18  19
ATOM     19  C   UNL     1      26.696   8.847  13.390  1.00  0.00    -0.003 C 
ATOM     20  C   UNL     1      25.588   9.661  14.057  1.00  0.00     0.004 C 
ENDBRANCH  18  19
ENDBRANCH  17  18
ENDBRANCH  16  17
ENDBRANCH  15  16
ENDBRANCH  14  15
ENDBRANCH  13  14
ENDBRANCH  12  13
ENDBRANCH   1  12
TORSDOF 16
ENDMDL
MODEL 9
REMARK VINA RESULT:    -1.826      2.917      5.649
REMARK INTER + INTRA:          -6.469
REMARK INTER:                  -3.455
REMARK INTRA:                  -3.015
REMARK UNBOUND:                -2.936
REMARK SMILES CCCCCCCCCCCCCCCCCC(=O)[O-]
REMARK SMILES IDX 10 1 11 2 12 3 13 4 14 5 15 6 16 7 17 8 18 9 19 10 20 11
REMARK SMILES IDX 9 12 8 13 7 14 6 15 5 16 4 17 3 18 2 19 1 20
REMARK H PARENT
REMARK Flexibility Score: inf
ROOT
ATOM      1  C   UNL     1      26.055  13.166  11.702  1.00  0.00     0.000 C 
ENDROOT
BRANCH   1   2
ATOM      2  C   UNL     1      26.714  13.128  10.312  1.00  0.00     0.000 C 
BRANCH   2   3
ATOM      3  C   UNL     1      27.855  12.100  10.217  1.00  0.00     0.000 C 
BRANCH   3   4
ATOM      4  C   UNL     1      27.409  10.651   9.950  1.00  0.00     0.000 C 
BRANCH   4   5
ATOM      5  C   UNL     1      27.946   9.655  10.990  1.00  0.00     0.000 C 
BRANCH   5   6
ATOM      6  C   UNL     1      26.805   9.086  11.844  1.00  0.00     0.000 C 
BRANCH   6   7
ATOM      7  C   UNL     1      25.414   9.534  11.357  1.00  0.00     0.006 C 
BRANCH   7   8
ATOM      8  C   UNL     1      24.421   9.854  12.486  1.00  0.00     0.053 C 
BRANCH   8   9
ATOM      9  C   UNL     1      23.606   8.657  12.870  1.00  0.00     0.041 C 
ATOM     10  O   UNL     1      22.734   8.205  12.081  1.00  0.00    -0.550 OA
ATOM     11  O   UNL     1      23.786   8.062  14.111  1.00  0.00    -0.550 OA
ENDBRANCH   8   9
ENDBRANCH   7   8
ENDBRANCH   6   7
ENDBRANCH   5   6
ENDBRANCH   4   5
ENDBRANCH   3   4
ENDBRANCH   2   3
ENDBRANCH   1   2
BRANCH   1  12
ATOM     12  C   UNL     1      27.061  13.478  12.822  1.00  0.00     0.000 C 
BRANCH  12  13
ATOM     13  C   UNL     1      27.308  12.275  13.751  1.00  0.00    -0.000 C 
BRANCH  13  14
ATOM     14  C   UNL     1      28.801  12.046  14.033  1.00  0.00    -0.000 C 
BRANCH  14  15
ATOM     15  C   UNL     1      29.107  10.602  14.469  1.00  0.00    -0.000 C 
BRANCH  15  16
ATOM     16  C   UNL     1      27.891   9.924  15.134  1.00  0.00    -0.000 C 
BRANCH  16  17
ATOM     17  C   UNL     1      27.878  10.052  16.668  1.00  0.00    -0.000 C 
BRANCH  17  18
ATOM     18  C   UNL     1      26.593  10.707  17.202  1.00  0.00    -0.000 C 
BRANCH  18  19
ATOM     19  C   UNL     1      25.365  10.387  16.335  1.00  0.00    -0.003 C 
ATOM     20  C   UNL     1      24.502  11.618  16.061  1.00  0.00     0.004 C 
ENDBRANCH  18  19
ENDBRANCH  17  18
ENDBRANCH  16  17
ENDBRANCH  15  16
ENDBRANCH  14  15
ENDBRANCH  13  14
ENDBRANCH  12  13
ENDBRANCH   1  12
TORSDOF 16
ENDMDL
