MODEL 1
REMARK VINA RESULT:    -4.805      0.000      0.000
REMARK INTER + INTRA:         -14.679
REMARK INTER:                 -10.984
REMARK INTRA:                  -3.695
REMARK UNBOUND:                -3.695
REMARK SMILES CCCCCCCCCCCCCCCCCCCCCCCC(=O)[O-]
REMARK SMILES IDX 13 1 14 2 15 3 16 4 17 5 18 6 19 7 20 8 21 9 22 10 23 11
REMARK SMILES IDX 24 12 25 13 26 14 12 15 11 16 10 17 9 18 8 19 7 20 6 21 5 22
REMARK SMILES IDX 4 23 3 24 2 25 1 26
REMARK H PARENT
REMARK Flexibility Score: inf
ROOT
ATOM      1  C   UNL     1      63.323  28.763   9.141  1.00  0.00     0.000 C 
ENDROOT
BRANCH   1   2
ATOM      2  C   UNL     1      63.774  30.235   9.018  1.00  0.00     0.000 C 
BRANCH   2   3
ATOM      3  C   UNL     1      64.505  30.767  10.265  1.00  0.00     0.000 C 
BRANCH   3   4
ATOM      4  C   UNL     1      65.506  31.901   9.983  1.00  0.00     0.000 C 
BRANCH   4   5
ATOM      5  C   UNL     1      65.468  33.034  11.035  1.00  0.00     0.000 C 
BRANCH   5   6
ATOM      6  C   UNL     1      64.675  32.641  12.292  1.00  0.00     0.000 C 
BRANCH   6   7
ATOM      7  C   UNL     1      65.420  32.967  13.599  1.00  0.00     0.000 C 
BRANCH   7   8
ATOM      8  C   UNL     1      64.721  34.000  14.502  1.00  0.00     0.000 C 
BRANCH   8   9
ATOM      9  C   UNL     1      64.591  33.531  15.961  1.00  0.00     0.000 C 
BRANCH   9  10
ATOM     10  C   UNL     1      63.705  34.458  16.806  1.00  0.00     0.006 C 
BRANCH  10  11
ATOM     11  C   UNL     1      63.121  33.755  18.039  1.00  0.00     0.053 C 
BRANCH  11  12
ATOM     12  C   UNL     1      61.719  34.211  18.308  1.00  0.00     0.041 C 
ATOM     13  O   UNL     1      61.132  33.855  19.365  1.00  0.00    -0.550 OA
ATOM     14  O   UNL     1      61.035  34.973  17.369  1.00  0.00    -0.550 OA
ENDBRANCH  11  12
ENDBRANCH  10  11
ENDBRANCH   9  10
ENDBRANCH   8   9
ENDBRANCH   7   8
ENDBRANCH   6   7
ENDBRANCH   5   6
ENDBRANCH   4   5
ENDBRANCH   3   4
ENDBRANCH   2   3
ENDBRANCH   1   2
BRANCH   1  15
ATOM     15  C   UNL     1      61.792  28.605   9.138  1.00  0.00     0.000 C 
BRANCH  15  16
ATOM     16  C   UNL     1      61.061  29.938   9.367  1.00  0.00     0.000 C 
BRANCH  16  17
ATOM     17  C   UNL     1      60.683  30.158  10.842  1.00  0.00     0.000 C 
BRANCH  17  18
ATOM     18  C   UNL     1      60.179  28.873  11.522  1.00  0.00    -0.000 C 
BRANCH  18  19
ATOM     19  C   UNL     1      61.048  28.379  12.695  1.00  0.00    -0.000 C 
BRANCH  19  20
ATOM     20  C   UNL     1      62.492  28.917  12.715  1.00  0.00    -0.000 C 
BRANCH  20  21
ATOM     21  C   UNL     1      62.793  29.937  13.828  1.00  0.00    -0.000 C 
BRANCH  21  22
ATOM     22  C   UNL     1      61.631  30.093  14.826  1.00  0.00    -0.000 C 
BRANCH  22  23
ATOM     23  C   UNL     1      61.675  31.442  15.576  1.00  0.00    -0.000 C 
BRANCH  23  24
ATOM     24  C   UNL     1      60.527  32.397  15.204  1.00  0.00    -0.000 C 
BRANCH  24  25
ATOM     25  C   UNL     1      60.963  33.511  14.244  1.00  0.00    -0.003 C 
ATOM     26  C   UNL     1      61.015  33.008  12.803  1.00  0.00     0.004 C 
ENDBRANCH  24  25
ENDBRANCH  23  24
ENDBRANCH  22  23
ENDBRANCH  21  22
ENDBRANCH  20  21
ENDBRANCH  19  20
ENDBRANCH  18  19
ENDBRANCH  17  18
ENDBRANCH  16  17
ENDBRANCH  15  16
ENDBRANCH   1  15
TORSDOF 22
ENDMDL
MODEL 2
REMARK VINA RESULT:    -4.551      1.452      4.207
REMARK INTER + INTRA:         -14.099
REMARK INTER:                 -10.765
REMARK INTRA:                  -3.334
REMARK UNBOUND:                -3.695
REMARK SMILES CCCCCCCCCCCCCCCCCCCCCCCC(=O)[O-]
REMARK SMILES IDX 13 1 14 2 15 3 16 4 17 5 18 6 19 7 20 8 21 9 22 10 23 11
REMARK SMILES IDX 24 12 25 13 26 14 12 15 11 16 10 17 9 18 8 19 7 20 6 21 5 22
REMARK SMILES IDX 4 23 3 24 2 25 1 26
REMARK H PARENT
REMARK Flexibility Score: inf
ROOT
ATOM      1  C   UNL     1      60.567  28.403  12.581  1.00  0.00     0.000 C 
ENDROOT
BRANCH   1   2
ATOM      2  C   UNL     1      62.033  28.635  13.011  1.00  0.00     0.000 C 
BRANCH   2   3
ATOM      3  C   UNL     1      62.364  30.106  13.323  1.00  0.00     0.000 C 
BRANCH   3   4
ATOM      4  C   UNL     1      62.188  30.500  14.800  1.00  0.00     0.000 C 
BRANCH   4   5
ATOM      5  C   UNL     1      60.920  31.343  15.068  1.00  0.00     0.000 C 
BRANCH   5   6
ATOM      6  C   UNL     1      60.904  32.651  14.261  1.00  0.00     0.000 C 
BRANCH   6   7
ATOM      7  C   UNL     1      61.132  33.899  15.133  1.00  0.00     0.000 C 
BRANCH   7   8
ATOM      8  C   UNL     1      61.575  33.605  16.579  1.00  0.00     0.000 C 
BRANCH   8   9
ATOM      9  C   UNL     1      62.314  34.787  17.230  1.00  0.00     0.000 C 
BRANCH   9  10
ATOM     10  C   UNL     1      63.563  34.348  18.008  1.00  0.00     0.006 C 
BRANCH  10  11
ATOM     11  C   UNL     1      63.220  33.611  19.311  1.00  0.00     0.053 C 
BRANCH  11  12
ATOM     12  C   UNL     1      63.880  34.259  20.489  1.00  0.00     0.041 C 
ATOM     13  O   UNL     1      64.609  35.273  20.325  1.00  0.00    -0.550 OA
ATOM     14  O   UNL     1      63.747  33.710  21.759  1.00  0.00    -0.550 OA
ENDBRANCH  11  12
ENDBRANCH  10  11
ENDBRANCH   9  10
ENDBRANCH   8   9
ENDBRANCH   7   8
ENDBRANCH   6   7
ENDBRANCH   5   6
ENDBRANCH   4   5
ENDBRANCH   3   4
ENDBRANCH   2   3
ENDBRANCH   1   2
BRANCH   1  15
ATOM     15  C   UNL     1      60.028  29.521  11.671  1.00  0.00     0.000 C 
BRANCH  15  16
ATOM     16  C   UNL     1      60.087  29.149  10.181  1.00  0.00     0.000 C 
BRANCH  16  17
ATOM     17  C   UNL     1      61.319  29.740   9.473  1.00  0.00     0.000 C 
BRANCH  17  18
ATOM     18  C   UNL     1      62.286  28.657   8.964  1.00  0.00    -0.000 C 
BRANCH  18  19
ATOM     19  C   UNL     1      63.759  28.864   9.367  1.00  0.00    -0.000 C 
BRANCH  19  20
ATOM     20  C   UNL     1      64.053  30.169  10.133  1.00  0.00    -0.000 C 
BRANCH  20  21
ATOM     21  C   UNL     1      65.244  30.985   9.598  1.00  0.00    -0.000 C 
BRANCH  21  22
ATOM     22  C   UNL     1      65.410  32.339  10.310  1.00  0.00    -0.000 C 
BRANCH  22  23
ATOM     23  C   UNL     1      64.681  32.384  11.670  1.00  0.00    -0.000 C 
BRANCH  23  24
ATOM     24  C   UNL     1      65.292  33.382  12.670  1.00  0.00    -0.000 C 
BRANCH  24  25
ATOM     25  C   UNL     1      64.500  33.475  13.980  1.00  0.00    -0.003 C 
ATOM     26  C   UNL     1      65.157  32.646  15.081  1.00  0.00     0.004 C 
ENDBRANCH  24  25
ENDBRANCH  23  24
ENDBRANCH  22  23
ENDBRANCH  21  22
ENDBRANCH  20  21
ENDBRANCH  19  20
ENDBRANCH  18  19
ENDBRANCH  17  18
ENDBRANCH  16  17
ENDBRANCH  15  16
ENDBRANCH   1  15
TORSDOF 22
ENDMDL
MODEL 3
REMARK VINA RESULT:    -4.480      2.601      6.323
REMARK INTER + INTRA:         -13.937
REMARK INTER:                 -10.044
REMARK INTRA:                  -3.894
REMARK UNBOUND:                -3.695
REMARK SMILES CCCCCCCCCCCCCCCCCCCCCCCC(=O)[O-]
REMARK SMILES IDX 13 1 14 2 15 3 16 4 17 5 18 6 19 7 20 8 21 9 22 10 23 11
REMARK SMILES IDX 24 12 25 13 26 14 12 15 11 16 10 17 9 18 8 19 7 20 6 21 5 22
REMARK SMILES IDX 4 23 3 24 2 25 1 26
REMARK H PARENT
REMARK Flexibility Score: inf
ROOT
ATOM      1  C   UNL     1      64.239  30.793  14.493  1.00  0.00     0.000 C 
ENDROOT
BRANCH   1   2
ATOM      2  C   UNL     1      63.912  30.164  13.121  1.00  0.00     0.000 C 
BRANCH   2   3
ATOM      3  C   UNL     1      63.440  31.183  12.067  1.00  0.00     0.000 C 
BRANCH   3   4
ATOM      4  C   UNL     1      64.574  31.846  11.267  1.00  0.00     0.000 C 
BRANCH   4   5
ATOM      5  C   UNL     1      65.197  30.920  10.196  1.00  0.00     0.000 C 
BRANCH   5   6
ATOM      6  C   UNL     1      64.192  30.530   9.100  1.00  0.00     0.000 C 
BRANCH   6   7
ATOM      7  C   UNL     1      63.885  29.022   9.075  1.00  0.00     0.000 C 
BRANCH   7   8
ATOM      8  C   UNL     1      62.444  28.649   9.472  1.00  0.00     0.000 C 
BRANCH   8   9
ATOM      9  C   UNL     1      61.451  29.809   9.283  1.00  0.00     0.000 C 
BRANCH   9  10
ATOM     10  C   UNL     1      60.452  29.928  10.443  1.00  0.00     0.006 C 
BRANCH  10  11
ATOM     11  C   UNL     1      59.743  28.602  10.752  1.00  0.00     0.053 C 
BRANCH  11  12
ATOM     12  C   UNL     1      59.766  28.305  12.220  1.00  0.00     0.041 C 
ATOM     13  O   UNL     1      58.699  28.004  12.819  1.00  0.00    -0.550 OA
ATOM     14  O   UNL     1      60.947  28.423  12.942  1.00  0.00    -0.550 OA
ENDBRANCH  11  12
ENDBRANCH  10  11
ENDBRANCH   9  10
ENDBRANCH   8   9
ENDBRANCH   7   8
ENDBRANCH   6   7
ENDBRANCH   5   6
ENDBRANCH   4   5
ENDBRANCH   3   4
ENDBRANCH   2   3
ENDBRANCH   1   2
BRANCH   1  15
ATOM     15  C   UNL     1      65.726  30.664  14.869  1.00  0.00     0.000 C 
BRANCH  15  16
ATOM     16  C   UNL     1      66.396  32.026  15.107  1.00  0.00     0.000 C 
BRANCH  16  17
ATOM     17  C   UNL     1      65.599  33.191  14.495  1.00  0.00     0.000 C 
BRANCH  17  18
ATOM     18  C   UNL     1      65.164  34.229  15.546  1.00  0.00    -0.000 C 
BRANCH  18  19
ATOM     19  C   UNL     1      65.208  33.730  17.003  1.00  0.00    -0.000 C 
BRANCH  19  20
ATOM     20  C   UNL     1      64.112  34.298  17.926  1.00  0.00    -0.000 C 
BRANCH  20  21
ATOM     21  C   UNL     1      62.701  34.341  17.313  1.00  0.00    -0.000 C 
BRANCH  21  22
ATOM     22  C   UNL     1      62.131  32.940  17.025  1.00  0.00    -0.000 C 
BRANCH  22  23
ATOM     23  C   UNL     1      61.133  32.940  15.847  1.00  0.00    -0.000 C 
BRANCH  23  24
ATOM     24  C   UNL     1      61.736  33.439  14.521  1.00  0.00    -0.000 C 
BRANCH  24  25
ATOM     25  C   UNL     1      60.830  33.167  13.313  1.00  0.00    -0.003 C 
ATOM     26  C   UNL     1      60.070  31.854  13.479  1.00  0.00     0.004 C 
ENDBRANCH  24  25
ENDBRANCH  23  24
ENDBRANCH  22  23
ENDBRANCH  21  22
ENDBRANCH  20  21
ENDBRANCH  19  20
ENDBRANCH  18  19
ENDBRANCH  17  18
ENDBRANCH  16  17
ENDBRANCH  15  16
ENDBRANCH   1  15
TORSDOF 22
ENDMDL
MODEL 4
REMARK VINA RESULT:    -4.442      1.780      5.002
REMARK INTER + INTRA:         -13.850
REMARK INTER:                 -10.283
REMARK INTRA:                  -3.567
REMARK UNBOUND:                -3.695
REMARK SMILES CCCCCCCCCCCCCCCCCCCCCCCC(=O)[O-]
REMARK SMILES IDX 13 1 14 2 15 3 16 4 17 5 18 6 19 7 20 8 21 9 22 10 23 11
REMARK SMILES IDX 24 12 25 13 26 14 12 15 11 16 10 17 9 18 8 19 7 20 6 21 5 22
REMARK SMILES IDX 4 23 3 24 2 25 1 26
REMARK H PARENT
REMARK Flexibility Score: inf
ROOT
ATOM      1  C   UNL     1      60.927  32.291  13.251  1.00  0.00     0.000 C 
ENDROOT
BRANCH   1   2
ATOM      2  C   UNL     1      60.376  32.705  14.633  1.00  0.00     0.000 C 
BRANCH   2   3
ATOM      3  C   UNL     1      60.732  34.147  15.038  1.00  0.00     0.000 C 
BRANCH   3   4
ATOM      4  C   UNL     1      61.491  34.268  16.371  1.00  0.00     0.000 C 
BRANCH   4   5
ATOM      5  C   UNL     1      62.159  32.948  16.823  1.00  0.00     0.000 C 
BRANCH   5   6
ATOM      6  C   UNL     1      63.692  33.001  16.719  1.00  0.00     0.000 C 
BRANCH   6   7
ATOM      7  C   UNL     1      64.202  34.250  15.978  1.00  0.00     0.000 C 
BRANCH   7   8
ATOM      8  C   UNL     1      65.495  34.859  16.550  1.00  0.00     0.000 C 
BRANCH   8   9
ATOM      9  C   UNL     1      65.233  35.899  17.652  1.00  0.00     0.000 C 
BRANCH   9  10
ATOM     10  C   UNL     1      65.718  35.436  19.033  1.00  0.00     0.006 C 
BRANCH  10  11
ATOM     11  C   UNL     1      64.663  35.637  20.129  1.00  0.00     0.053 C 
BRANCH  11  12
ATOM     12  C   UNL     1      64.144  34.322  20.628  1.00  0.00     0.041 C 
ATOM     13  O   UNL     1      63.130  33.800  20.092  1.00  0.00    -0.550 OA
ATOM     14  O   UNL     1      64.734  33.704  21.723  1.00  0.00    -0.550 OA
ENDBRANCH  11  12
ENDBRANCH  10  11
ENDBRANCH   9  10
ENDBRANCH   8   9
ENDBRANCH   7   8
ENDBRANCH   6   7
ENDBRANCH   5   6
ENDBRANCH   4   5
ENDBRANCH   3   4
ENDBRANCH   2   3
ENDBRANCH   1   2
BRANCH   1  15
ATOM     15  C   UNL     1      62.363  32.788  13.009  1.00  0.00     0.000 C 
BRANCH  15  16
ATOM     16  C   UNL     1      63.422  31.734  13.373  1.00  0.00     0.000 C 
BRANCH  16  17
ATOM     17  C   UNL     1      62.878  30.298  13.290  1.00  0.00     0.000 C 
BRANCH  17  18
ATOM     18  C   UNL     1      63.610  29.447  12.236  1.00  0.00    -0.000 C 
BRANCH  18  19
ATOM     19  C   UNL     1      64.430  30.254  11.210  1.00  0.00    -0.000 C 
BRANCH  19  20
ATOM     20  C   UNL     1      63.855  30.277   9.780  1.00  0.00    -0.000 C 
BRANCH  20  21
ATOM     21  C   UNL     1      63.511  28.896   9.194  1.00  0.00    -0.000 C 
BRANCH  21  22
ATOM     22  C   UNL     1      61.996  28.669   9.047  1.00  0.00    -0.000 C 
BRANCH  22  23
ATOM     23  C   UNL     1      61.186  29.973   9.209  1.00  0.00    -0.000 C 
BRANCH  23  24
ATOM     24  C   UNL     1      60.320  30.013  10.481  1.00  0.00    -0.000 C 
BRANCH  24  25
ATOM     25  C   UNL     1      59.949  28.616  10.996  1.00  0.00    -0.003 C 
ATOM     26  C   UNL     1      59.779  28.616  12.513  1.00  0.00     0.004 C 
ENDBRANCH  24  25
ENDBRANCH  23  24
ENDBRANCH  22  23
ENDBRANCH  21  22
ENDBRANCH  20  21
ENDBRANCH  19  20
ENDBRANCH  18  19
ENDBRANCH  17  18
ENDBRANCH  16  17
ENDBRANCH  15  16
ENDBRANCH   1  15
TORSDOF 22
ENDMDL
MODEL 5
REMARK VINA RESULT:    -4.386      2.068      5.449
REMARK INTER + INTRA:         -13.721
REMARK INTER:                 -10.490
REMARK INTRA:                  -3.231
REMARK UNBOUND:                -3.695
REMARK SMILES CCCCCCCCCCCCCCCCCCCCCCCC(=O)[O-]
REMARK SMILES IDX 13 1 14 2 15 3 16 4 17 5 18 6 19 7 20 8 21 9 22 10 23 11
REMARK SMILES IDX 24 12 25 13 26 14 12 15 11 16 10 17 9 18 8 19 7 20 6 21 5 22
REMARK SMILES IDX 4 23 3 24 2 25 1 26
REMARK H PARENT
REMARK Flexibility Score: inf
ROOT
ATOM      1  C   UNL     1      60.750  29.917  12.939  1.00  0.00     0.000 C 
ENDROOT
BRANCH   1   2
ATOM      2  C   UNL     1      60.338  28.693  12.092  1.00  0.00     0.000 C 
BRANCH   2   3
ATOM      3  C   UNL     1      60.064  29.025  10.613  1.00  0.00     0.000 C 
BRANCH   3   4
ATOM      4  C   UNL     1      61.002  28.323   9.616  1.00  0.00     0.000 C 
BRANCH   4   5
ATOM      5  C   UNL     1      62.102  29.248   9.046  1.00  0.00     0.000 C 
BRANCH   5   6
ATOM      6  C   UNL     1      63.449  29.072   9.765  1.00  0.00     0.000 C 
BRANCH   6   7
ATOM      7  C   UNL     1      64.556  29.979   9.200  1.00  0.00     0.000 C 
BRANCH   7   8
ATOM      8  C   UNL     1      65.235  30.894  10.236  1.00  0.00     0.000 C 
BRANCH   8   9
ATOM      9  C   UNL     1      64.329  31.216  11.436  1.00  0.00     0.000 C 
BRANCH   9  10
ATOM     10  C   UNL     1      64.592  32.611  12.021  1.00  0.00     0.006 C 
BRANCH  10  11
ATOM     11  C   UNL     1      64.133  32.736  13.481  1.00  0.00     0.053 C 
BRANCH  11  12
ATOM     12  C   UNL     1      64.576  31.556  14.291  1.00  0.00     0.041 C 
ATOM     13  O   UNL     1      65.800  31.382  14.535  1.00  0.00    -0.550 OA
ATOM     14  O   UNL     1      63.651  30.611  14.720  1.00  0.00    -0.550 OA
ENDBRANCH  11  12
ENDBRANCH  10  11
ENDBRANCH   9  10
ENDBRANCH   8   9
ENDBRANCH   7   8
ENDBRANCH   6   7
ENDBRANCH   5   6
ENDBRANCH   4   5
ENDBRANCH   3   4
ENDBRANCH   2   3
ENDBRANCH   1   2
BRANCH   1  15
ATOM     15  C   UNL     1      60.715  31.234  12.143  1.00  0.00     0.000 C 
BRANCH  15  16
ATOM     16  C   UNL     1      60.670  32.472  13.052  1.00  0.00     0.000 C 
BRANCH  16  17
ATOM     17  C   UNL     1      60.013  32.183  14.412  1.00  0.00     0.000 C 
BRANCH  17  18
ATOM     18  C   UNL     1      60.937  32.512  15.598  1.00  0.00    -0.000 C 
BRANCH  18  19
ATOM     19  C   UNL     1      61.414  33.976  15.660  1.00  0.00    -0.000 C 
BRANCH  19  20
ATOM     20  C   UNL     1      61.449  34.598  17.070  1.00  0.00    -0.000 C 
BRANCH  20  21
ATOM     21  C   UNL     1      61.735  33.606  18.212  1.00  0.00    -0.000 C 
BRANCH  21  22
ATOM     22  C   UNL     1      62.526  34.240  19.371  1.00  0.00    -0.000 C 
BRANCH  22  23
ATOM     23  C   UNL     1      63.884  34.814  18.912  1.00  0.00    -0.000 C 
BRANCH  23  24
ATOM     24  C   UNL     1      64.919  33.738  18.537  1.00  0.00    -0.000 C 
BRANCH  24  25
ATOM     25  C   UNL     1      65.313  33.779  17.055  1.00  0.00    -0.003 C 
ATOM     26  C   UNL     1      65.083  35.168  16.462  1.00  0.00     0.004 C 
ENDBRANCH  24  25
ENDBRANCH  23  24
ENDBRANCH  22  23
ENDBRANCH  21  22
ENDBRANCH  20  21
ENDBRANCH  19  20
ENDBRANCH  18  19
ENDBRANCH  17  18
ENDBRANCH  16  17
ENDBRANCH  15  16
ENDBRANCH   1  15
TORSDOF 22
ENDMDL
MODEL 6
REMARK VINA RESULT:    -4.361      1.565      5.110
REMARK INTER + INTRA:         -13.666
REMARK INTER:                 -10.178
REMARK INTRA:                  -3.488
REMARK UNBOUND:                -3.695
REMARK SMILES CCCCCCCCCCCCCCCCCCCCCCCC(=O)[O-]
REMARK SMILES IDX 13 1 14 2 15 3 16 4 17 5 18 6 19 7 20 8 21 9 22 10 23 11
REMARK SMILES IDX 24 12 25 13 26 14 12 15 11 16 10 17 9 18 8 19 7 20 6 21 5 22
REMARK SMILES IDX 4 23 3 24 2 25 1 26
REMARK H PARENT
REMARK Flexibility Score: inf
ROOT
ATOM      1  C   UNL     1      64.242  33.428  13.785  1.00  0.00     0.000 C 
ENDROOT
BRANCH   1   2
ATOM      2  C   UNL     1      64.656  32.519  14.963  1.00  0.00     0.000 C 
BRANCH   2   3
ATOM      3  C   UNL     1      65.190  33.290  16.185  1.00  0.00     0.000 C 
BRANCH   3   4
ATOM      4  C   UNL     1      65.410  34.793  15.946  1.00  0.00     0.000 C 
BRANCH   4   5
ATOM      5  C   UNL     1      64.897  35.684  17.101  1.00  0.00     0.000 C 
BRANCH   5   6
ATOM      6  C   UNL     1      65.276  35.127  18.484  1.00  0.00     0.000 C 
BRANCH   6   7
ATOM      7  C   UNL     1      64.105  35.152  19.483  1.00  0.00     0.000 C 
BRANCH   7   8
ATOM      8  C   UNL     1      63.157  33.942  19.399  1.00  0.00     0.000 C 
BRANCH   8   9
ATOM      9  C   UNL     1      61.881  34.235  18.591  1.00  0.00     0.000 C 
BRANCH   9  10
ATOM     10  C   UNL     1      61.778  33.384  17.317  1.00  0.00     0.006 C 
BRANCH  10  11
ATOM     11  C   UNL     1      61.350  34.204  16.092  1.00  0.00     0.053 C 
BRANCH  11  12
ATOM     12  C   UNL     1      60.779  33.322  15.023  1.00  0.00     0.041 C 
ATOM     13  O   UNL     1      60.314  32.190  15.322  1.00  0.00    -0.550 OA
ATOM     14  O   UNL     1      60.819  33.716  13.691  1.00  0.00    -0.550 OA
ENDBRANCH  11  12
ENDBRANCH  10  11
ENDBRANCH   9  10
ENDBRANCH   8   9
ENDBRANCH   7   8
ENDBRANCH   6   7
ENDBRANCH   5   6
ENDBRANCH   4   5
ENDBRANCH   3   4
ENDBRANCH   2   3
ENDBRANCH   1   2
BRANCH   1  15
ATOM     15  C   UNL     1      65.137  33.244  12.546  1.00  0.00     0.000 C 
BRANCH  15  16
ATOM     16  C   UNL     1      64.574  32.207  11.560  1.00  0.00     0.000 C 
BRANCH  16  17
ATOM     17  C   UNL     1      65.473  32.018  10.326  1.00  0.00     0.000 C 
BRANCH  17  18
ATOM     18  C   UNL     1      65.117  30.755   9.522  1.00  0.00    -0.000 C 
BRANCH  18  19
ATOM     19  C   UNL     1      63.619  30.391   9.520  1.00  0.00    -0.000 C 
BRANCH  19  20
ATOM     20  C   UNL     1      63.305  28.904   9.260  1.00  0.00    -0.000 C 
BRANCH  20  21
ATOM     21  C   UNL     1      61.860  28.478   9.577  1.00  0.00    -0.000 C 
BRANCH  21  22
ATOM     22  C   UNL     1      60.925  29.674   9.829  1.00  0.00    -0.000 C 
BRANCH  22  23
ATOM     23  C   UNL     1      60.329  29.668  11.253  1.00  0.00    -0.000 C 
BRANCH  23  24
ATOM     24  C   UNL     1      61.124  30.514  12.263  1.00  0.00    -0.000 C 
BRANCH  24  25
ATOM     25  C   UNL     1      61.734  29.678  13.396  1.00  0.00    -0.003 C 
ATOM     26  C   UNL     1      63.137  29.199  13.033  1.00  0.00     0.004 C 
ENDBRANCH  24  25
ENDBRANCH  23  24
ENDBRANCH  22  23
ENDBRANCH  21  22
ENDBRANCH  20  21
ENDBRANCH  19  20
ENDBRANCH  18  19
ENDBRANCH  17  18
ENDBRANCH  16  17
ENDBRANCH  15  16
ENDBRANCH   1  15
TORSDOF 22
ENDMDL
MODEL 7
REMARK VINA RESULT:    -4.348      1.723      4.805
REMARK INTER + INTRA:         -13.635
REMARK INTER:                 -10.121
REMARK INTRA:                  -3.515
REMARK UNBOUND:                -3.695
REMARK SMILES CCCCCCCCCCCCCCCCCCCCCCCC(=O)[O-]
REMARK SMILES IDX 13 1 14 2 15 3 16 4 17 5 18 6 19 7 20 8 21 9 22 10 23 11
REMARK SMILES IDX 24 12 25 13 26 14 12 15 11 16 10 17 9 18 8 19 7 20 6 21 5 22
REMARK SMILES IDX 4 23 3 24 2 25 1 26
REMARK H PARENT
REMARK Flexibility Score: inf
ROOT
ATOM      1  C   UNL     1      62.225  28.487   9.059  1.00  0.00     0.000 C 
ENDROOT
BRANCH   1   2
ATOM      2  C   UNL     1      61.210  29.647   8.967  1.00  0.00     0.000 C 
BRANCH   2   3
ATOM      3  C   UNL     1      60.283  29.761  10.191  1.00  0.00     0.000 C 
BRANCH   3   4
ATOM      4  C   UNL     1      60.325  28.550  11.139  1.00  0.00     0.000 C 
BRANCH   4   5
ATOM      5  C   UNL     1      60.746  28.909  12.582  1.00  0.00     0.000 C 
BRANCH   5   6
ATOM      6  C   UNL     1      62.246  28.678  12.831  1.00  0.00     0.000 C 
BRANCH   6   7
ATOM      7  C   UNL     1      63.059  29.985  12.857  1.00  0.00     0.000 C 
BRANCH   7   8
ATOM      8  C   UNL     1      64.040  30.113  14.036  1.00  0.00     0.000 C 
BRANCH   8   9
ATOM      9  C   UNL     1      63.605  31.171  15.065  1.00  0.00     0.000 C 
BRANCH   9  10
ATOM     10  C   UNL     1      62.119  31.060  15.437  1.00  0.00     0.006 C 
BRANCH  10  11
ATOM     11  C   UNL     1      61.373  32.395  15.299  1.00  0.00     0.053 C 
BRANCH  11  12
ATOM     12  C   UNL     1      60.578  32.441  14.030  1.00  0.00     0.041 C 
ATOM     13  O   UNL     1      61.059  32.993  13.004  1.00  0.00    -0.550 OA
ATOM     14  O   UNL     1      59.283  31.938  13.993  1.00  0.00    -0.550 OA
ENDBRANCH  11  12
ENDBRANCH  10  11
ENDBRANCH   9  10
ENDBRANCH   8   9
ENDBRANCH   7   8
ENDBRANCH   6   7
ENDBRANCH   5   6
ENDBRANCH   4   5
ENDBRANCH   3   4
ENDBRANCH   2   3
ENDBRANCH   1   2
BRANCH   1  15
ATOM     15  C   UNL     1      63.670  28.973   9.274  1.00  0.00     0.000 C 
BRANCH  15  16
ATOM     16  C   UNL     1      63.781  30.506   9.289  1.00  0.00     0.000 C 
BRANCH  16  17
ATOM     17  C   UNL     1      65.079  30.997   9.953  1.00  0.00     0.000 C 
BRANCH  17  18
ATOM     18  C   UNL     1      64.863  32.253  10.817  1.00  0.00    -0.000 C 
BRANCH  18  19
ATOM     19  C   UNL     1      66.133  33.086  11.075  1.00  0.00    -0.000 C 
BRANCH  19  20
ATOM     20  C   UNL     1      66.007  34.154  12.180  1.00  0.00    -0.000 C 
BRANCH  20  21
ATOM     21  C   UNL     1      65.627  33.611  13.570  1.00  0.00    -0.000 C 
BRANCH  21  22
ATOM     22  C   UNL     1      65.286  34.725  14.574  1.00  0.00    -0.000 C 
BRANCH  22  23
ATOM     23  C   UNL     1      65.350  34.239  16.038  1.00  0.00    -0.000 C 
BRANCH  23  24
ATOM     24  C   UNL     1      64.057  34.493  16.834  1.00  0.00    -0.000 C 
BRANCH  24  25
ATOM     25  C   UNL     1      64.041  33.778  18.192  1.00  0.00    -0.003 C 
ATOM     26  C   UNL     1      62.613  33.465  18.633  1.00  0.00     0.004 C 
ENDBRANCH  24  25
ENDBRANCH  23  24
ENDBRANCH  22  23
ENDBRANCH  21  22
ENDBRANCH  20  21
ENDBRANCH  19  20
ENDBRANCH  18  19
ENDBRANCH  17  18
ENDBRANCH  16  17
ENDBRANCH  15  16
ENDBRANCH   1  15
TORSDOF 22
ENDMDL
MODEL 8
REMARK VINA RESULT:    -4.248      1.611      2.110
REMARK INTER + INTRA:         -13.406
REMARK INTER:                 -10.382
REMARK INTRA:                  -3.024
REMARK UNBOUND:                -3.695
REMARK SMILES CCCCCCCCCCCCCCCCCCCCCCCC(=O)[O-]
REMARK SMILES IDX 13 1 14 2 15 3 16 4 17 5 18 6 19 7 20 8 21 9 22 10 23 11
REMARK SMILES IDX 24 12 25 13 26 14 12 15 11 16 10 17 9 18 8 19 7 20 6 21 5 22
REMARK SMILES IDX 4 23 3 24 2 25 1 26
REMARK H PARENT
REMARK Flexibility Score: inf
ROOT
ATOM      1  C   UNL     1      63.746  29.351  10.444  1.00  0.00     0.000 C 
ENDROOT
BRANCH   1   2
ATOM      2  C   UNL     1      64.117  30.782   9.995  1.00  0.00     0.000 C 
BRANCH   2   3
ATOM      3  C   UNL     1      64.669  31.666  11.130  1.00  0.00     0.000 C 
BRANCH   3   4
ATOM      4  C   UNL     1      65.715  32.701  10.681  1.00  0.00     0.000 C 
BRANCH   4   5
ATOM      5  C   UNL     1      66.035  33.762  11.760  1.00  0.00     0.000 C 
BRANCH   5   6
ATOM      6  C   UNL     1      65.329  33.473  13.095  1.00  0.00     0.000 C 
BRANCH   6   7
ATOM      7  C   UNL     1      65.847  34.349  14.250  1.00  0.00     0.000 C 
BRANCH   7   8
ATOM      8  C   UNL     1      64.936  34.388  15.491  1.00  0.00     0.000 C 
BRANCH   8   9
ATOM      9  C   UNL     1      65.690  34.085  16.797  1.00  0.00     0.000 C 
BRANCH   9  10
ATOM     10  C   UNL     1      64.746  33.813  17.977  1.00  0.00     0.006 C 
BRANCH  10  11
ATOM     11  C   UNL     1      65.420  34.034  19.338  1.00  0.00     0.053 C 
BRANCH  11  12
ATOM     12  C   UNL     1      64.463  34.631  20.325  1.00  0.00     0.041 C 
ATOM     13  O   UNL     1      63.930  35.748  20.091  1.00  0.00    -0.550 OA
ATOM     14  O   UNL     1      64.209  33.990  21.532  1.00  0.00    -0.550 OA
ENDBRANCH  11  12
ENDBRANCH  10  11
ENDBRANCH   9  10
ENDBRANCH   8   9
ENDBRANCH   7   8
ENDBRANCH   6   7
ENDBRANCH   5   6
ENDBRANCH   4   5
ENDBRANCH   3   4
ENDBRANCH   2   3
ENDBRANCH   1   2
BRANCH   1  15
ATOM     15  C   UNL     1      62.631  28.727   9.586  1.00  0.00     0.000 C 
BRANCH  15  16
ATOM     16  C   UNL     1      61.667  29.779   9.016  1.00  0.00     0.000 C 
BRANCH  16  17
ATOM     17  C   UNL     1      60.373  29.902   9.840  1.00  0.00     0.000 C 
BRANCH  17  18
ATOM     18  C   UNL     1      60.160  28.709  10.789  1.00  0.00    -0.000 C 
BRANCH  18  19
ATOM     19  C   UNL     1      59.999  29.086  12.274  1.00  0.00    -0.000 C 
BRANCH  19  20
ATOM     20  C   UNL     1      61.274  28.945  13.130  1.00  0.00    -0.000 C 
BRANCH  20  21
ATOM     21  C   UNL     1      61.866  30.270  13.641  1.00  0.00    -0.000 C 
BRANCH  21  22
ATOM     22  C   UNL     1      61.425  31.485  12.805  1.00  0.00    -0.000 C 
BRANCH  22  23
ATOM     23  C   UNL     1      61.899  32.822  13.412  1.00  0.00    -0.000 C 
BRANCH  23  24
ATOM     24  C   UNL     1      60.798  33.587  14.169  1.00  0.00    -0.000 C 
BRANCH  24  25
ATOM     25  C   UNL     1      61.218  33.990  15.588  1.00  0.00    -0.003 C 
ATOM     26  C   UNL     1      61.657  32.773  16.399  1.00  0.00     0.004 C 
ENDBRANCH  24  25
ENDBRANCH  23  24
ENDBRANCH  22  23
ENDBRANCH  21  22
ENDBRANCH  20  21
ENDBRANCH  19  20
ENDBRANCH  18  19
ENDBRANCH  17  18
ENDBRANCH  16  17
ENDBRANCH  15  16
ENDBRANCH   1  15
TORSDOF 22
ENDMDL
MODEL 9
REMARK VINA RESULT:    -4.209      2.756      7.279
REMARK INTER + INTRA:         -13.318
REMARK INTER:                  -9.990
REMARK INTRA:                  -3.327
REMARK UNBOUND:                -3.695
REMARK SMILES CCCCCCCCCCCCCCCCCCCCCCCC(=O)[O-]
REMARK SMILES IDX 13 1 14 2 15 3 16 4 17 5 18 6 19 7 20 8 21 9 22 10 23 11
REMARK SMILES IDX 24 12 25 13 26 14 12 15 11 16 10 17 9 18 8 19 7 20 6 21 5 22
REMARK SMILES IDX 4 23 3 24 2 25 1 26
REMARK H PARENT
REMARK Flexibility Score: inf
ROOT
ATOM      1  C   UNL     1      65.902  35.256  15.616  1.00  0.00     0.000 C 
ENDROOT
BRANCH   1   2
ATOM      2  C   UNL     1      66.097  33.898  14.906  1.00  0.00     0.000 C 
BRANCH   2   3
ATOM      3  C   UNL     1      65.317  33.771  13.584  1.00  0.00     0.000 C 
BRANCH   3   4
ATOM      4  C   UNL     1      64.835  32.345  13.262  1.00  0.00     0.000 C 
BRANCH   4   5
ATOM      5  C   UNL     1      63.891  32.274  12.040  1.00  0.00     0.000 C 
BRANCH   5   6
ATOM      6  C   UNL     1      63.303  30.868  11.833  1.00  0.00     0.000 C 
BRANCH   6   7
ATOM      7  C   UNL     1      64.150  29.996  10.889  1.00  0.00     0.000 C 
BRANCH   7   8
ATOM      8  C   UNL     1      63.341  29.041   9.991  1.00  0.00     0.000 C 
BRANCH   8   9
ATOM      9  C   UNL     1      61.992  29.633   9.549  1.00  0.00     0.000 C 
BRANCH   9  10
ATOM     10  C   UNL     1      60.796  28.773   9.982  1.00  0.00     0.006 C 
BRANCH  10  11
ATOM     11  C   UNL     1      59.981  29.419  11.111  1.00  0.00     0.053 C 
BRANCH  11  12
ATOM     12  C   UNL     1      59.944  28.540  12.324  1.00  0.00     0.041 C 
ATOM     13  O   UNL     1      58.882  27.938  12.635  1.00  0.00    -0.550 OA
ATOM     14  O   UNL     1      61.057  28.433  13.149  1.00  0.00    -0.550 OA
ENDBRANCH  11  12
ENDBRANCH  10  11
ENDBRANCH   9  10
ENDBRANCH   8   9
ENDBRANCH   7   8
ENDBRANCH   6   7
ENDBRANCH   5   6
ENDBRANCH   4   5
ENDBRANCH   3   4
ENDBRANCH   2   3
ENDBRANCH   1   2
BRANCH   1  15
ATOM     15  C   UNL     1      66.365  35.233  17.084  1.00  0.00     0.000 C 
BRANCH  15  16
ATOM     16  C   UNL     1      66.354  33.818  17.685  1.00  0.00     0.000 C 
BRANCH  16  17
ATOM     17  C   UNL     1      65.612  33.754  19.031  1.00  0.00     0.000 C 
BRANCH  17  18
ATOM     18  C   UNL     1      64.814  35.037  19.329  1.00  0.00    -0.000 C 
BRANCH  18  19
ATOM     19  C   UNL     1      63.341  34.805  19.718  1.00  0.00    -0.000 C 
BRANCH  19  20
ATOM     20  C   UNL     1      62.355  34.716  18.536  1.00  0.00    -0.000 C 
BRANCH  20  21
ATOM     21  C   UNL     1      61.996  33.287  18.093  1.00  0.00    -0.000 C 
BRANCH  21  22
ATOM     22  C   UNL     1      62.690  32.875  16.782  1.00  0.00    -0.000 C 
BRANCH  22  23
ATOM     23  C   UNL     1      62.477  33.906  15.653  1.00  0.00    -0.000 C 
BRANCH  23  24
ATOM     24  C   UNL     1      61.022  33.996  15.160  1.00  0.00    -0.000 C 
BRANCH  24  25
ATOM     25  C   UNL     1      60.841  33.466  13.732  1.00  0.00    -0.003 C 
ATOM     26  C   UNL     1      60.312  32.034  13.739  1.00  0.00     0.004 C 
ENDBRANCH  24  25
ENDBRANCH  23  24
ENDBRANCH  22  23
ENDBRANCH  21  22
ENDBRANCH  20  21
ENDBRANCH  19  20
ENDBRANCH  18  19
ENDBRANCH  17  18
ENDBRANCH  16  17
ENDBRANCH  15  16
ENDBRANCH   1  15
TORSDOF 22
ENDMDL
