MODEL 1
REMARK VINA RESULT:    -2.215      0.000      0.000
REMARK INTER + INTRA:          -7.872
REMARK INTER:                  -5.840
REMARK INTRA:                  -2.032
REMARK UNBOUND:                -2.032
REMARK SMILES CCCCCCCCCCCCCCCCCCCCCCCCCCCCCC(=O)[O-]
REMARK SMILES IDX 16 1 17 2 18 3 19 4 20 5 21 6 22 7 23 8 24 9 25 10 26 11
REMARK SMILES IDX 27 12 28 13 29 14 30 15 31 16 32 17 15 18 14 19 13 20 12 21
REMARK SMILES IDX 11 22 10 23 9 24 8 25 7 26 6 27 5 28 4 29 3 30 2 31 1 32
REMARK H PARENT
REMARK Flexibility Score: inf
ROOT
ATOM      1  C   UNL     1      -9.292 -21.503  34.258  1.00  0.00     0.000 C 
ENDROOT
BRANCH   1   2
ATOM      2  C   UNL     1     -10.087 -22.280  35.324  1.00  0.00     0.000 C 
BRANCH   2   3
ATOM      3  C   UNL     1     -11.279 -23.044  34.720  1.00  0.00     0.000 C 
BRANCH   3   4
ATOM      4  C   UNL     1     -12.272 -23.533  35.789  1.00  0.00     0.000 C 
BRANCH   4   5
ATOM      5  C   UNL     1     -13.382 -22.507  36.072  1.00  0.00     0.000 C 
BRANCH   5   6
ATOM      6  C   UNL     1     -13.197 -21.195  35.288  1.00  0.00     0.000 C 
BRANCH   6   7
ATOM      7  C   UNL     1     -13.522 -19.942  36.124  1.00  0.00     0.000 C 
BRANCH   7   8
ATOM      8  C   UNL     1     -13.947 -18.702  35.313  1.00  0.00     0.000 C 
BRANCH   8   9
ATOM      9  C   UNL     1     -13.806 -18.894  33.794  1.00  0.00     0.000 C 
BRANCH   9  10
ATOM     10  C   UNL     1     -12.667 -18.053  33.191  1.00  0.00     0.000 C 
BRANCH  10  11
ATOM     11  C   UNL     1     -12.218 -18.522  31.791  1.00  0.00     0.000 C 
BRANCH  11  12
ATOM     12  C   UNL     1     -12.047 -20.049  31.718  1.00  0.00     0.000 C 
BRANCH  12  13
ATOM     13  C   UNL     1     -10.910 -20.484  30.772  1.00  0.00     0.006 C 
BRANCH  13  14
ATOM     14  C   UNL     1     -10.527 -19.419  29.730  1.00  0.00     0.053 C 
BRANCH  14  15
ATOM     15  C   UNL     1     -10.105 -20.016  28.423  1.00  0.00     0.041 C 
ATOM     16  O   UNL     1     -10.131 -21.266  28.260  1.00  0.00    -0.550 OA
ATOM     17  O   UNL     1      -9.676 -19.196  27.385  1.00  0.00    -0.550 OA
ENDBRANCH  14  15
ENDBRANCH  13  14
ENDBRANCH  12  13
ENDBRANCH  11  12
ENDBRANCH  10  11
ENDBRANCH   9  10
ENDBRANCH   8   9
ENDBRANCH   7   8
ENDBRANCH   6   7
ENDBRANCH   5   6
ENDBRANCH   4   5
ENDBRANCH   3   4
ENDBRANCH   2   3
ENDBRANCH   1   2
BRANCH   1  18
ATOM     18  C   UNL     1      -9.746 -20.040  34.126  1.00  0.00     0.000 C 
BRANCH  18  19
ATOM     19  C   UNL     1      -8.797 -19.057  34.840  1.00  0.00     0.000 C 
BRANCH  19  20
ATOM     20  C   UNL     1      -8.378 -17.875  33.939  1.00  0.00     0.000 C 
BRANCH  20  21
ATOM     21  C   UNL     1      -9.043 -17.877  32.551  1.00  0.00     0.000 C 
BRANCH  21  22
ATOM     22  C   UNL     1      -8.173 -18.428  31.408  1.00  0.00     0.000 C 
BRANCH  22  23
ATOM     23  C   UNL     1      -6.674 -18.150  31.613  1.00  0.00     0.000 C 
BRANCH  23  24
ATOM     24  C   UNL     1      -6.112 -18.810  32.886  1.00  0.00    -0.000 C 
BRANCH  24  25
ATOM     25  C   UNL     1      -4.572 -18.888  32.961  1.00  0.00    -0.000 C 
BRANCH  25  26
ATOM     26  C   UNL     1      -3.938 -18.193  34.184  1.00  0.00    -0.000 C 
BRANCH  26  27
ATOM     27  C   UNL     1      -2.698 -18.902  34.762  1.00  0.00    -0.000 C 
BRANCH  27  28
ATOM     28  C   UNL     1      -2.628 -20.417  34.480  1.00  0.00    -0.000 C 
BRANCH  28  29
ATOM     29  C   UNL     1      -3.537 -21.288  35.370  1.00  0.00    -0.000 C 
BRANCH  29  30
ATOM     30  C   UNL     1      -4.687 -20.533  36.061  1.00  0.00    -0.000 C 
BRANCH  30  31
ATOM     31  C   UNL     1      -5.992 -21.339  36.102  1.00  0.00    -0.003 C 
ATOM     32  C   UNL     1      -6.003 -22.426  35.030  1.00  0.00     0.004 C 
ENDBRANCH  30  31
ENDBRANCH  29  30
ENDBRANCH  28  29
ENDBRANCH  27  28
ENDBRANCH  26  27
ENDBRANCH  25  26
ENDBRANCH  24  25
ENDBRANCH  23  24
ENDBRANCH  22  23
ENDBRANCH  21  22
ENDBRANCH  20  21
ENDBRANCH  19  20
ENDBRANCH  18  19
ENDBRANCH   1  18
TORSDOF 28
ENDMDL
MODEL 2
REMARK VINA RESULT:    -1.856     20.072     22.338
REMARK INTER + INTRA:          -6.925
REMARK INTER:                  -4.990
REMARK INTRA:                  -1.934
REMARK UNBOUND:                -2.032
REMARK SMILES CCCCCCCCCCCCCCCCCCCCCCCCCCCCCC(=O)[O-]
REMARK SMILES IDX 16 1 17 2 18 3 19 4 20 5 21 6 22 7 23 8 24 9 25 10 26 11
REMARK SMILES IDX 27 12 28 13 29 14 30 15 31 16 32 17 15 18 14 19 13 20 12 21
REMARK SMILES IDX 11 22 10 23 9 24 8 25 7 26 6 27 5 28 4 29 3 30 2 31 1 32
REMARK H PARENT
REMARK Flexibility Score: inf
ROOT
ATOM      1  C   UNL     1      -1.843 -30.888  24.120  1.00  0.00     0.000 C 
ENDROOT
BRANCH   1   2
ATOM      2  C   UNL     1      -2.608 -32.168  24.502  1.00  0.00     0.000 C 
BRANCH   2   3
ATOM      3  C   UNL     1      -3.222 -32.867  23.276  1.00  0.00     0.000 C 
BRANCH   3   4
ATOM      4  C   UNL     1      -3.636 -34.321  23.568  1.00  0.00     0.000 C 
BRANCH   4   5
ATOM      5  C   UNL     1      -2.723 -35.343  22.870  1.00  0.00     0.000 C 
BRANCH   5   6
ATOM      6  C   UNL     1      -1.850 -34.711  21.771  1.00  0.00     0.000 C 
BRANCH   6   7
ATOM      7  C   UNL     1      -0.396 -35.220  21.790  1.00  0.00     0.000 C 
BRANCH   7   8
ATOM      8  C   UNL     1       0.087 -35.880  20.484  1.00  0.00     0.000 C 
BRANCH   8   9
ATOM      9  C   UNL     1       0.400 -37.377  20.642  1.00  0.00     0.000 C 
BRANCH   9  10
ATOM     10  C   UNL     1      -0.344 -38.020  21.825  1.00  0.00     0.000 C 
BRANCH  10  11
ATOM     11  C   UNL     1      -1.870 -38.121  21.624  1.00  0.00     0.000 C 
BRANCH  11  12
ATOM     12  C   UNL     1      -2.260 -38.125  20.136  1.00  0.00     0.000 C 
BRANCH  12  13
ATOM     13  C   UNL     1      -3.749 -37.800  19.901  1.00  0.00     0.006 C 
BRANCH  13  14
ATOM     14  C   UNL     1      -3.989 -36.440  19.224  1.00  0.00     0.053 C 
BRANCH  14  15
ATOM     15  C   UNL     1      -4.787 -36.557  17.962  1.00  0.00     0.041 C 
ATOM     16  O   UNL     1      -4.781 -37.634  17.307  1.00  0.00    -0.550 OA
ATOM     17  O   UNL     1      -5.534 -35.477  17.504  1.00  0.00    -0.550 OA
ENDBRANCH  14  15
ENDBRANCH  13  14
ENDBRANCH  12  13
ENDBRANCH  11  12
ENDBRANCH  10  11
ENDBRANCH   9  10
ENDBRANCH   8   9
ENDBRANCH   7   8
ENDBRANCH   6   7
ENDBRANCH   5   6
ENDBRANCH   4   5
ENDBRANCH   3   4
ENDBRANCH   2   3
ENDBRANCH   1   2
BRANCH   1  18
ATOM     18  C   UNL     1      -0.318 -31.046  24.239  1.00  0.00     0.000 C 
BRANCH  18  19
ATOM     19  C   UNL     1       0.129 -32.521  24.218  1.00  0.00     0.000 C 
BRANCH  19  20
ATOM     20  C   UNL     1       1.599 -32.691  23.777  1.00  0.00     0.000 C 
BRANCH  20  21
ATOM     21  C   UNL     1       2.275 -33.962  24.322  1.00  0.00     0.000 C 
BRANCH  21  22
ATOM     22  C   UNL     1       2.875 -34.895  23.256  1.00  0.00     0.000 C 
BRANCH  22  23
ATOM     23  C   UNL     1       3.787 -35.978  23.858  1.00  0.00     0.000 C 
BRANCH  23  24
ATOM     24  C   UNL     1       3.877 -37.240  22.979  1.00  0.00    -0.000 C 
BRANCH  24  25
ATOM     25  C   UNL     1       5.293 -37.588  22.472  1.00  0.00    -0.000 C 
BRANCH  25  26
ATOM     26  C   UNL     1       5.817 -36.700  21.325  1.00  0.00    -0.000 C 
BRANCH  26  27
ATOM     27  C   UNL     1       5.885 -37.392  19.949  1.00  0.00    -0.000 C 
BRANCH  27  28
ATOM     28  C   UNL     1       4.579 -38.081  19.506  1.00  0.00    -0.000 C 
BRANCH  28  29
ATOM     29  C   UNL     1       4.349 -38.125  17.982  1.00  0.00    -0.000 C 
BRANCH  29  30
ATOM     30  C   UNL     1       3.088 -37.390  17.493  1.00  0.00    -0.000 C 
BRANCH  30  31
ATOM     31  C   UNL     1       2.360 -36.642  18.619  1.00  0.00    -0.003 C 
ATOM     32  C   UNL     1       2.932 -35.241  18.811  1.00  0.00     0.004 C 
ENDBRANCH  30  31
ENDBRANCH  29  30
ENDBRANCH  28  29
ENDBRANCH  27  28
ENDBRANCH  26  27
ENDBRANCH  25  26
ENDBRANCH  24  25
ENDBRANCH  23  24
ENDBRANCH  22  23
ENDBRANCH  21  22
ENDBRANCH  20  21
ENDBRANCH  19  20
ENDBRANCH  18  19
ENDBRANCH   1  18
TORSDOF 28
ENDMDL
MODEL 3
REMARK VINA RESULT:    -1.439     19.459     22.362
REMARK INTER + INTRA:          -5.827
REMARK INTER:                  -4.650
REMARK INTRA:                  -1.177
REMARK UNBOUND:                -2.032
REMARK SMILES CCCCCCCCCCCCCCCCCCCCCCCCCCCCCC(=O)[O-]
REMARK SMILES IDX 16 1 17 2 18 3 19 4 20 5 21 6 22 7 23 8 24 9 25 10 26 11
REMARK SMILES IDX 27 12 28 13 29 14 30 15 31 16 32 17 15 18 14 19 13 20 12 21
REMARK SMILES IDX 11 22 10 23 9 24 8 25 7 26 6 27 5 28 4 29 3 30 2 31 1 32
REMARK H PARENT
REMARK Flexibility Score: inf
ROOT
ATOM      1  C   UNL     1       4.924 -36.858  20.500  1.00  0.00     0.000 C 
ENDROOT
BRANCH   1   2
ATOM      2  C   UNL     1       4.834 -38.110  21.392  1.00  0.00     0.000 C 
BRANCH   2   3
ATOM      3  C   UNL     1       3.580 -38.102  22.283  1.00  0.00     0.000 C 
BRANCH   3   4
ATOM      4  C   UNL     1       3.587 -36.951  23.306  1.00  0.00     0.000 C 
BRANCH   4   5
ATOM      5  C   UNL     1       3.507 -35.569  22.636  1.00  0.00     0.000 C 
BRANCH   5   6
ATOM      6  C   UNL     1       2.329 -34.724  23.154  1.00  0.00     0.000 C 
BRANCH   6   7
ATOM      7  C   UNL     1       2.770 -33.360  23.719  1.00  0.00     0.000 C 
BRANCH   7   8
ATOM      8  C   UNL     1       1.683 -32.581  24.485  1.00  0.00     0.000 C 
BRANCH   8   9
ATOM      9  C   UNL     1       0.265 -32.832  23.945  1.00  0.00     0.000 C 
BRANCH   9  10
ATOM     10  C   UNL     1      -0.823 -32.648  25.018  1.00  0.00     0.000 C 
BRANCH  10  11
ATOM     11  C   UNL     1      -2.208 -33.186  24.604  1.00  0.00     0.000 C 
BRANCH  11  12
ATOM     12  C   UNL     1      -2.751 -32.484  23.348  1.00  0.00     0.000 C 
BRANCH  12  13
ATOM     13  C   UNL     1      -3.628 -31.258  23.675  1.00  0.00     0.006 C 
BRANCH  13  14
ATOM     14  C   UNL     1      -2.952 -30.243  24.612  1.00  0.00     0.053 C 
BRANCH  14  15
ATOM     15  C   UNL     1      -1.770 -29.574  23.982  1.00  0.00     0.041 C 
ATOM     16  O   UNL     1      -0.739 -30.243  23.702  1.00  0.00    -0.550 OA
ATOM     17  O   UNL     1      -1.801 -28.211  23.709  1.00  0.00    -0.550 OA
ENDBRANCH  14  15
ENDBRANCH  13  14
ENDBRANCH  12  13
ENDBRANCH  11  12
ENDBRANCH  10  11
ENDBRANCH   9  10
ENDBRANCH   8   9
ENDBRANCH   7   8
ENDBRANCH   6   7
ENDBRANCH   5   6
ENDBRANCH   4   5
ENDBRANCH   3   4
ENDBRANCH   2   3
ENDBRANCH   1   2
BRANCH   1  18
ATOM     18  C   UNL     1       5.092 -37.197  19.010  1.00  0.00     0.000 C 
BRANCH  18  19
ATOM     19  C   UNL     1       4.273 -36.267  18.093  1.00  0.00     0.000 C 
BRANCH  19  20
ATOM     20  C   UNL     1       2.846 -36.794  17.833  1.00  0.00     0.000 C 
BRANCH  20  21
ATOM     21  C   UNL     1       2.502 -38.082  18.604  1.00  0.00     0.000 C 
BRANCH  21  22
ATOM     22  C   UNL     1       1.219 -38.018  19.450  1.00  0.00     0.000 C 
BRANCH  22  23
ATOM     23  C   UNL     1       0.975 -36.626  20.058  1.00  0.00     0.000 C 
BRANCH  23  24
ATOM     24  C   UNL     1       0.138 -36.675  21.350  1.00  0.00    -0.000 C 
BRANCH  24  25
ATOM     25  C   UNL     1      -0.716 -35.420  21.628  1.00  0.00    -0.000 C 
BRANCH  25  26
ATOM     26  C   UNL     1      -2.191 -35.517  21.184  1.00  0.00    -0.000 C 
BRANCH  26  27
ATOM     27  C   UNL     1      -3.075 -36.422  22.065  1.00  0.00    -0.000 C 
BRANCH  27  28
ATOM     28  C   UNL     1      -3.394 -37.803  21.458  1.00  0.00    -0.000 C 
BRANCH  28  29
ATOM     29  C   UNL     1      -3.381 -37.856  19.917  1.00  0.00    -0.000 C 
BRANCH  29  30
ATOM     30  C   UNL     1      -4.763 -37.721  19.251  1.00  0.00    -0.000 C 
BRANCH  30  31
ATOM     31  C   UNL     1      -4.673 -37.443  17.744  1.00  0.00    -0.003 C 
ATOM     32  C   UNL     1      -4.807 -35.952  17.449  1.00  0.00     0.004 C 
ENDBRANCH  30  31
ENDBRANCH  29  30
ENDBRANCH  28  29
ENDBRANCH  27  28
ENDBRANCH  26  27
ENDBRANCH  25  26
ENDBRANCH  24  25
ENDBRANCH  23  24
ENDBRANCH  22  23
ENDBRANCH  21  22
ENDBRANCH  20  21
ENDBRANCH  19  20
ENDBRANCH  18  19
ENDBRANCH   1  18
TORSDOF 28
ENDMDL
MODEL 4
REMARK VINA RESULT:    -1.232      2.337      5.040
REMARK INTER + INTRA:          -5.279
REMARK INTER:                  -4.173
REMARK INTRA:                  -1.107
REMARK UNBOUND:                -2.032
REMARK SMILES CCCCCCCCCCCCCCCCCCCCCCCCCCCCCC(=O)[O-]
REMARK SMILES IDX 16 1 17 2 18 3 19 4 20 5 21 6 22 7 23 8 24 9 25 10 26 11
REMARK SMILES IDX 27 12 28 13 29 14 30 15 31 16 32 17 15 18 14 19 13 20 12 21
REMARK SMILES IDX 11 22 10 23 9 24 8 25 7 26 6 27 5 28 4 29 3 30 2 31 1 32
REMARK H PARENT
REMARK Flexibility Score: inf
ROOT
ATOM      1  C   UNL     1      -7.890 -19.283  28.347  1.00  0.00     0.000 C 
ENDROOT
BRANCH   1   2
ATOM      2  C   UNL     1      -9.061 -20.150  28.844  1.00  0.00     0.000 C 
BRANCH   2   3
ATOM      3  C   UNL     1     -10.418 -19.654  28.315  1.00  0.00     0.000 C 
BRANCH   3   4
ATOM      4  C   UNL     1     -10.800 -18.269  28.867  1.00  0.00     0.000 C 
BRANCH   4   5
ATOM      5  C   UNL     1     -11.168 -18.312  30.360  1.00  0.00     0.000 C 
BRANCH   5   6
ATOM      6  C   UNL     1     -11.291 -19.748  30.902  1.00  0.00     0.000 C 
BRANCH   6   7
ATOM      7  C   UNL     1     -10.873 -19.871  32.380  1.00  0.00     0.000 C 
BRANCH   7   8
ATOM      8  C   UNL     1     -11.747 -19.087  33.379  1.00  0.00     0.000 C 
BRANCH   8   9
ATOM      9  C   UNL     1     -13.033 -18.528  32.750  1.00  0.00     0.000 C 
BRANCH   9  10
ATOM     10  C   UNL     1     -14.122 -18.219  33.793  1.00  0.00     0.000 C 
BRANCH  10  11
ATOM     11  C   UNL     1     -13.579 -18.016  35.222  1.00  0.00     0.000 C 
BRANCH  11  12
ATOM     12  C   UNL     1     -13.848 -19.232  36.124  1.00  0.00     0.000 C 
BRANCH  12  13
ATOM     13  C   UNL     1     -14.125 -20.524  35.329  1.00  0.00     0.006 C 
BRANCH  13  14
ATOM     14  C   UNL     1     -13.635 -21.803  36.029  1.00  0.00     0.053 C 
BRANCH  14  15
ATOM     15  C   UNL     1     -12.267 -22.216  35.584  1.00  0.00     0.041 C 
ATOM     16  O   UNL     1     -12.058 -23.394  35.187  1.00  0.00    -0.550 OA
ATOM     17  O   UNL     1     -11.217 -21.304  35.611  1.00  0.00    -0.550 OA
ENDBRANCH  14  15
ENDBRANCH  13  14
ENDBRANCH  12  13
ENDBRANCH  11  12
ENDBRANCH  10  11
ENDBRANCH   9  10
ENDBRANCH   8   9
ENDBRANCH   7   8
ENDBRANCH   6   7
ENDBRANCH   5   6
ENDBRANCH   4   5
ENDBRANCH   3   4
ENDBRANCH   2   3
ENDBRANCH   1   2
BRANCH   1  18
ATOM     18  C   UNL     1      -7.372 -18.309  29.418  1.00  0.00     0.000 C 
BRANCH  18  19
ATOM     19  C   UNL     1      -8.251 -18.297  30.685  1.00  0.00     0.000 C 
BRANCH  19  20
ATOM     20  C   UNL     1      -7.532 -18.894  31.913  1.00  0.00     0.000 C 
BRANCH  20  21
ATOM     21  C   UNL     1      -6.697 -17.875  32.709  1.00  0.00     0.000 C 
BRANCH  21  22
ATOM     22  C   UNL     1      -6.870 -17.933  34.236  1.00  0.00     0.000 C 
BRANCH  22  23
ATOM     23  C   UNL     1      -5.530 -17.900  34.990  1.00  0.00     0.000 C 
BRANCH  23  24
ATOM     24  C   UNL     1      -4.353 -18.417  34.141  1.00  0.00    -0.000 C 
BRANCH  24  25
ATOM     25  C   UNL     1      -3.343 -19.311  34.891  1.00  0.00    -0.000 C 
BRANCH  25  26
ATOM     26  C   UNL     1      -3.948 -20.195  36.002  1.00  0.00    -0.000 C 
BRANCH  26  27
ATOM     27  C   UNL     1      -3.849 -21.712  35.750  1.00  0.00    -0.000 C 
BRANCH  27  28
ATOM     28  C   UNL     1      -5.204 -22.438  35.636  1.00  0.00    -0.000 C 
BRANCH  28  29
ATOM     29  C   UNL     1      -6.434 -21.513  35.543  1.00  0.00    -0.000 C 
BRANCH  29  30
ATOM     30  C   UNL     1      -6.993 -21.317  34.122  1.00  0.00    -0.000 C 
BRANCH  30  31
ATOM     31  C   UNL     1      -8.490 -21.639  34.019  1.00  0.00    -0.003 C 
ATOM     32  C   UNL     1      -8.749 -22.743  32.998  1.00  0.00     0.004 C 
ENDBRANCH  30  31
ENDBRANCH  29  30
ENDBRANCH  28  29
ENDBRANCH  27  28
ENDBRANCH  26  27
ENDBRANCH  25  26
ENDBRANCH  24  25
ENDBRANCH  23  24
ENDBRANCH  22  23
ENDBRANCH  21  22
ENDBRANCH  20  21
ENDBRANCH  19  20
ENDBRANCH  18  19
ENDBRANCH   1  18
TORSDOF 28
ENDMDL
MODEL 5
REMARK VINA RESULT:    -0.887      2.938      6.526
REMARK INTER + INTRA:          -4.371
REMARK INTER:                  -3.932
REMARK INTRA:                  -0.438
REMARK UNBOUND:                -2.032
REMARK SMILES CCCCCCCCCCCCCCCCCCCCCCCCCCCCCC(=O)[O-]
REMARK SMILES IDX 16 1 17 2 18 3 19 4 20 5 21 6 22 7 23 8 24 9 25 10 26 11
REMARK SMILES IDX 27 12 28 13 29 14 30 15 31 16 32 17 15 18 14 19 13 20 12 21
REMARK SMILES IDX 11 22 10 23 9 24 8 25 7 26 6 27 5 28 4 29 3 30 2 31 1 32
REMARK H PARENT
REMARK Flexibility Score: inf
ROOT
ATOM      1  C   UNL     1      -9.993 -18.985  34.199  1.00  0.00     0.000 C 
ENDROOT
BRANCH   1   2
ATOM      2  C   UNL     1     -10.725 -20.267  34.635  1.00  0.00     0.000 C 
BRANCH   2   3
ATOM      3  C   UNL     1     -11.535 -20.065  35.928  1.00  0.00     0.000 C 
BRANCH   3   4
ATOM      4  C   UNL     1     -12.677 -21.086  36.078  1.00  0.00     0.000 C 
BRANCH   4   5
ATOM      5  C   UNL     1     -12.179 -22.539  36.011  1.00  0.00     0.000 C 
BRANCH   5   6
ATOM      6  C   UNL     1     -11.427 -22.852  34.705  1.00  0.00     0.000 C 
BRANCH   6   7
ATOM      7  C   UNL     1     -10.109 -23.615  34.937  1.00  0.00     0.000 C 
BRANCH   7   8
ATOM      8  C   UNL     1      -9.007 -22.820  35.664  1.00  0.00     0.000 C 
BRANCH   8   9
ATOM      9  C   UNL     1      -7.968 -22.211  34.708  1.00  0.00     0.000 C 
BRANCH   9  10
ATOM     10  C   UNL     1      -6.822 -21.499  35.449  1.00  0.00     0.000 C 
BRANCH  10  11
ATOM     11  C   UNL     1      -6.417 -20.148  34.823  1.00  0.00     0.000 C 
BRANCH  11  12
ATOM     12  C   UNL     1      -5.587 -19.286  35.790  1.00  0.00     0.000 C 
BRANCH  12  13
ATOM     13  C   UNL     1      -4.149 -19.808  35.980  1.00  0.00     0.006 C 
BRANCH  13  14
ATOM     14  C   UNL     1      -3.210 -19.486  34.804  1.00  0.00     0.053 C 
BRANCH  14  15
ATOM     15  C   UNL     1      -2.045 -20.422  34.724  1.00  0.00     0.041 C 
ATOM     16  O   UNL     1      -1.107 -20.340  35.564  1.00  0.00    -0.550 OA
ATOM     17  O   UNL     1      -1.986 -21.381  33.719  1.00  0.00    -0.550 OA
ENDBRANCH  14  15
ENDBRANCH  13  14
ENDBRANCH  12  13
ENDBRANCH  11  12
ENDBRANCH  10  11
ENDBRANCH   9  10
ENDBRANCH   8   9
ENDBRANCH   7   8
ENDBRANCH   6   7
ENDBRANCH   5   6
ENDBRANCH   4   5
ENDBRANCH   3   4
ENDBRANCH   2   3
ENDBRANCH   1   2
BRANCH   1  18
ATOM     18  C   UNL     1     -10.954 -17.875  33.743  1.00  0.00     0.000 C 
BRANCH  18  19
ATOM     19  C   UNL     1     -12.311 -17.926  34.474  1.00  0.00     0.000 C 
BRANCH  19  20
ATOM     20  C   UNL     1     -13.510 -17.936  33.503  1.00  0.00     0.000 C 
BRANCH  20  21
ATOM     21  C   UNL     1     -13.914 -19.340  33.019  1.00  0.00     0.000 C 
BRANCH  21  22
ATOM     22  C   UNL     1     -13.351 -19.749  31.647  1.00  0.00     0.000 C 
BRANCH  22  23
ATOM     23  C   UNL     1     -12.174 -20.734  31.756  1.00  0.00     0.000 C 
BRANCH  23  24
ATOM     24  C   UNL     1     -10.839 -20.125  31.286  1.00  0.00    -0.000 C 
BRANCH  24  25
ATOM     25  C   UNL     1     -10.206 -20.802  30.052  1.00  0.00    -0.000 C 
BRANCH  25  26
ATOM     26  C   UNL     1     -10.418 -20.061  28.715  1.00  0.00    -0.000 C 
BRANCH  26  27
ATOM     27  C   UNL     1      -9.412 -18.927  28.436  1.00  0.00    -0.000 C 
BRANCH  27  28
ATOM     28  C   UNL     1      -8.267 -18.811  29.462  1.00  0.00    -0.000 C 
BRANCH  28  29
ATOM     29  C   UNL     1      -8.602 -17.987  30.722  1.00  0.00    -0.000 C 
BRANCH  29  30
ATOM     30  C   UNL     1      -7.497 -17.962  31.794  1.00  0.00    -0.000 C 
BRANCH  30  31
ATOM     31  C   UNL     1      -6.944 -19.357  32.114  1.00  0.00    -0.003 C 
ATOM     32  C   UNL     1      -5.470 -19.467  31.735  1.00  0.00     0.004 C 
ENDBRANCH  30  31
ENDBRANCH  29  30
ENDBRANCH  28  29
ENDBRANCH  27  28
ENDBRANCH  26  27
ENDBRANCH  25  26
ENDBRANCH  24  25
ENDBRANCH  23  24
ENDBRANCH  22  23
ENDBRANCH  21  22
ENDBRANCH  20  21
ENDBRANCH  19  20
ENDBRANCH  18  19
ENDBRANCH   1  18
TORSDOF 28
ENDMDL
MODEL 6
REMARK VINA RESULT:    -0.698     20.557     23.611
REMARK INTER + INTRA:          -3.871
REMARK INTER:                  -4.598
REMARK INTRA:                   0.727
REMARK UNBOUND:                -2.032
REMARK SMILES CCCCCCCCCCCCCCCCCCCCCCCCCCCCCC(=O)[O-]
REMARK SMILES IDX 16 1 17 2 18 3 19 4 20 5 21 6 22 7 23 8 24 9 25 10 26 11
REMARK SMILES IDX 27 12 28 13 29 14 30 15 31 16 32 17 15 18 14 19 13 20 12 21
REMARK SMILES IDX 11 22 10 23 9 24 8 25 7 26 6 27 5 28 4 29 3 30 2 31 1 32
REMARK H PARENT
REMARK Flexibility Score: inf
ROOT
ATOM      1  C   UNL     1       0.455 -35.495  21.774  1.00  0.00     0.000 C 
ENDROOT
BRANCH   1   2
ATOM      2  C   UNL     1      -0.227 -36.837  22.098  1.00  0.00     0.000 C 
BRANCH   2   3
ATOM      3  C   UNL     1      -0.821 -37.507  20.847  1.00  0.00     0.000 C 
BRANCH   3   4
ATOM      4  C   UNL     1       0.258 -37.944  19.839  1.00  0.00     0.000 C 
BRANCH   4   5
ATOM      5  C   UNL     1       1.637 -38.124  20.496  1.00  0.00     0.000 C 
BRANCH   5   6
ATOM      6  C   UNL     1       2.737 -37.294  19.810  1.00  0.00     0.000 C 
BRANCH   6   7
ATOM      7  C   UNL     1       2.294 -36.711  18.455  1.00  0.00     0.000 C 
BRANCH   7   8
ATOM      8  C   UNL     1       3.384 -36.673  17.366  1.00  0.00     0.000 C 
BRANCH   8   9
ATOM      9  C   UNL     1       4.811 -36.644  17.939  1.00  0.00     0.000 C 
BRANCH   9  10
ATOM     10  C   UNL     1       5.277 -38.020  18.448  1.00  0.00     0.000 C 
BRANCH  10  11
ATOM     11  C   UNL     1       6.053 -37.964  19.780  1.00  0.00     0.000 C 
BRANCH  11  12
ATOM     12  C   UNL     1       6.124 -36.537  20.350  1.00  0.00     0.000 C 
BRANCH  12  13
ATOM     13  C   UNL     1       4.802 -36.080  20.998  1.00  0.00     0.006 C 
BRANCH  13  14
ATOM     14  C   UNL     1       4.920 -35.772  22.501  1.00  0.00     0.053 C 
BRANCH  14  15
ATOM     15  C   UNL     1       4.769 -36.993  23.353  1.00  0.00     0.041 C 
ATOM     16  O   UNL     1       3.716 -37.685  23.289  1.00  0.00    -0.550 OA
ATOM     17  O   UNL     1       5.786 -37.369  24.224  1.00  0.00    -0.550 OA
ENDBRANCH  14  15
ENDBRANCH  13  14
ENDBRANCH  12  13
ENDBRANCH  11  12
ENDBRANCH  10  11
ENDBRANCH   9  10
ENDBRANCH   8   9
ENDBRANCH   7   8
ENDBRANCH   6   7
ENDBRANCH   5   6
ENDBRANCH   4   5
ENDBRANCH   3   4
ENDBRANCH   2   3
ENDBRANCH   1   2
BRANCH   1  18
ATOM     18  C   UNL     1       0.303 -34.461  22.901  1.00  0.00     0.000 C 
BRANCH  18  19
ATOM     19  C   UNL     1       1.659 -33.999  23.470  1.00  0.00     0.000 C 
BRANCH  19  20
ATOM     20  C   UNL     1       1.670 -32.500  23.838  1.00  0.00     0.000 C 
BRANCH  20  21
ATOM     21  C   UNL     1       0.397 -32.022  24.560  1.00  0.00     0.000 C 
BRANCH  21  22
ATOM     22  C   UNL     1      -0.878 -32.007  23.700  1.00  0.00     0.000 C 
BRANCH  22  23
ATOM     23  C   UNL     1      -2.165 -31.984  24.544  1.00  0.00     0.000 C 
BRANCH  23  24
ATOM     24  C   UNL     1      -3.171 -33.075  24.131  1.00  0.00    -0.000 C 
BRANCH  24  25
ATOM     25  C   UNL     1      -2.578 -34.242  23.314  1.00  0.00    -0.000 C 
BRANCH  25  26
ATOM     26  C   UNL     1      -3.562 -35.385  22.990  1.00  0.00    -0.000 C 
BRANCH  26  27
ATOM     27  C   UNL     1      -3.459 -35.942  21.557  1.00  0.00    -0.000 C 
BRANCH  27  28
ATOM     28  C   UNL     1      -3.706 -37.460  21.434  1.00  0.00    -0.000 C 
BRANCH  28  29
ATOM     29  C   UNL     1      -4.463 -37.896  20.164  1.00  0.00    -0.000 C 
BRANCH  29  30
ATOM     30  C   UNL     1      -3.875 -37.367  18.843  1.00  0.00    -0.000 C 
BRANCH  30  31
ATOM     31  C   UNL     1      -4.954 -37.007  17.812  1.00  0.00    -0.003 C 
ATOM     32  C   UNL     1      -4.983 -35.504  17.545  1.00  0.00     0.004 C 
ENDBRANCH  30  31
ENDBRANCH  29  30
ENDBRANCH  28  29
ENDBRANCH  27  28
ENDBRANCH  26  27
ENDBRANCH  25  26
ENDBRANCH  24  25
ENDBRANCH  23  24
ENDBRANCH  22  23
ENDBRANCH  21  22
ENDBRANCH  20  21
ENDBRANCH  19  20
ENDBRANCH  18  19
ENDBRANCH   1  18
TORSDOF 28
ENDMDL
MODEL 7
REMARK VINA RESULT:    -0.631      1.320      2.342
REMARK INTER + INTRA:          -3.695
REMARK INTER:                  -2.991
REMARK INTRA:                  -0.704
REMARK UNBOUND:                -2.032
REMARK SMILES CCCCCCCCCCCCCCCCCCCCCCCCCCCCCC(=O)[O-]
REMARK SMILES IDX 16 1 17 2 18 3 19 4 20 5 21 6 22 7 23 8 24 9 25 10 26 11
REMARK SMILES IDX 27 12 28 13 29 14 30 15 31 16 32 17 15 18 14 19 13 20 12 21
REMARK SMILES IDX 11 22 10 23 9 24 8 25 7 26 6 27 5 28 4 29 3 30 2 31 1 32
REMARK H PARENT
REMARK Flexibility Score: inf
ROOT
ATOM      1  C   UNL     1      -9.797 -22.987  33.689  1.00  0.00     0.000 C 
ENDROOT
BRANCH   1   2
ATOM      2  C   UNL     1     -10.790 -22.334  34.668  1.00  0.00     0.000 C 
BRANCH   2   3
ATOM      3  C   UNL     1     -12.242 -22.765  34.399  1.00  0.00     0.000 C 
BRANCH   3   4
ATOM      4  C   UNL     1     -13.118 -22.722  35.664  1.00  0.00     0.000 C 
BRANCH   4   5
ATOM      5  C   UNL     1     -13.414 -21.285  36.125  1.00  0.00     0.000 C 
BRANCH   5   6
ATOM      6  C   UNL     1     -13.664 -20.321  34.950  1.00  0.00     0.000 C 
BRANCH   6   7
ATOM      7  C   UNL     1     -12.779 -19.061  35.007  1.00  0.00     0.000 C 
BRANCH   7   8
ATOM      8  C   UNL     1     -12.464 -18.416  33.643  1.00  0.00     0.000 C 
BRANCH   8   9
ATOM      9  C   UNL     1     -11.494 -19.248  32.789  1.00  0.00     0.000 C 
BRANCH   9  10
ATOM     10  C   UNL     1     -11.982 -19.432  31.341  1.00  0.00     0.000 C 
BRANCH  10  11
ATOM     11  C   UNL     1     -11.187 -18.611  30.304  1.00  0.00     0.000 C 
BRANCH  11  12
ATOM     12  C   UNL     1      -9.668 -18.716  30.522  1.00  0.00     0.000 C 
BRANCH  12  13
ATOM     13  C   UNL     1      -8.882 -18.898  29.208  1.00  0.00     0.006 C 
BRANCH  13  14
ATOM     14  C   UNL     1      -9.629 -19.722  28.145  1.00  0.00     0.053 C 
BRANCH  14  15
ATOM     15  C   UNL     1      -9.282 -19.312  26.748  1.00  0.00     0.041 C 
ATOM     16  O   UNL     1      -8.454 -19.986  26.077  1.00  0.00    -0.550 OA
ATOM     17  O   UNL     1      -9.865 -18.182  26.186  1.00  0.00    -0.550 OA
ENDBRANCH  14  15
ENDBRANCH  13  14
ENDBRANCH  12  13
ENDBRANCH  11  12
ENDBRANCH  10  11
ENDBRANCH   9  10
ENDBRANCH   8   9
ENDBRANCH   7   8
ENDBRANCH   6   7
ENDBRANCH   5   6
ENDBRANCH   4   5
ENDBRANCH   3   4
ENDBRANCH   2   3
ENDBRANCH   1   2
BRANCH   1  18
ATOM     18  C   UNL     1      -8.714 -22.012  33.199  1.00  0.00     0.000 C 
BRANCH  18  19
ATOM     19  C   UNL     1      -7.542 -21.879  34.192  1.00  0.00     0.000 C 
BRANCH  19  20
ATOM     20  C   UNL     1      -6.920 -20.467  34.192  1.00  0.00     0.000 C 
BRANCH  20  21
ATOM     21  C   UNL     1      -7.932 -19.335  34.446  1.00  0.00     0.000 C 
BRANCH  21  22
ATOM     22  C   UNL     1      -8.200 -18.412  33.246  1.00  0.00     0.000 C 
BRANCH  22  23
ATOM     23  C   UNL     1      -6.906 -17.884  32.601  1.00  0.00     0.000 C 
BRANCH  23  24
ATOM     24  C   UNL     1      -5.922 -19.008  32.226  1.00  0.00    -0.000 C 
BRANCH  24  25
ATOM     25  C   UNL     1      -4.659 -19.096  33.108  1.00  0.00    -0.000 C 
BRANCH  25  26
ATOM     26  C   UNL     1      -4.407 -17.877  34.019  1.00  0.00    -0.000 C 
BRANCH  26  27
ATOM     27  C   UNL     1      -5.062 -17.962  35.411  1.00  0.00    -0.000 C 
BRANCH  27  28
ATOM     28  C   UNL     1      -4.895 -19.319  36.124  1.00  0.00    -0.000 C 
BRANCH  28  29
ATOM     29  C   UNL     1      -3.460 -19.883  36.125  1.00  0.00    -0.000 C 
BRANCH  29  30
ATOM     30  C   UNL     1      -3.275 -21.189  35.332  1.00  0.00    -0.000 C 
BRANCH  30  31
ATOM     31  C   UNL     1      -2.162 -21.096  34.280  1.00  0.00    -0.003 C 
ATOM     32  C   UNL     1      -0.935 -20.379  34.836  1.00  0.00     0.004 C 
ENDBRANCH  30  31
ENDBRANCH  29  30
ENDBRANCH  28  29
ENDBRANCH  27  28
ENDBRANCH  26  27
ENDBRANCH  25  26
ENDBRANCH  24  25
ENDBRANCH  23  24
ENDBRANCH  22  23
ENDBRANCH  21  22
ENDBRANCH  20  21
ENDBRANCH  19  20
ENDBRANCH  18  19
ENDBRANCH   1  18
TORSDOF 28
ENDMDL
MODEL 8
REMARK VINA RESULT:     0.154      1.203      2.901
REMARK INTER + INTRA:          -1.625
REMARK INTER:                  -1.620
REMARK INTRA:                  -0.004
REMARK UNBOUND:                -2.032
REMARK SMILES CCCCCCCCCCCCCCCCCCCCCCCCCCCCCC(=O)[O-]
REMARK SMILES IDX 16 1 17 2 18 3 19 4 20 5 21 6 22 7 23 8 24 9 25 10 26 11
REMARK SMILES IDX 27 12 28 13 29 14 30 15 31 16 32 17 15 18 14 19 13 20 12 21
REMARK SMILES IDX 11 22 10 23 9 24 8 25 7 26 6 27 5 28 4 29 3 30 2 31 1 32
REMARK H PARENT
REMARK Flexibility Score: inf
ROOT
ATOM      1  C   UNL     1      -9.649 -17.895  34.244  1.00  0.00     0.000 C 
ENDROOT
BRANCH   1   2
ATOM      2  C   UNL     1     -10.741 -18.490  35.151  1.00  0.00     0.000 C 
BRANCH   2   3
ATOM      3  C   UNL     1     -10.830 -20.022  35.028  1.00  0.00     0.000 C 
BRANCH   3   4
ATOM      4  C   UNL     1     -11.705 -20.655  36.125  1.00  0.00     0.000 C 
BRANCH   4   5
ATOM      5  C   UNL     1     -12.929 -21.388  35.550  1.00  0.00     0.000 C 
BRANCH   5   6
ATOM      6  C   UNL     1     -14.103 -20.441  35.246  1.00  0.00     0.000 C 
BRANCH   6   7
ATOM      7  C   UNL     1     -13.766 -18.960  35.507  1.00  0.00     0.000 C 
BRANCH   7   8
ATOM      8  C   UNL     1     -14.124 -17.992  34.363  1.00  0.00     0.000 C 
BRANCH   8   9
ATOM      9  C   UNL     1     -13.941 -18.608  32.966  1.00  0.00     0.000 C 
BRANCH   9  10
ATOM     10  C   UNL     1     -12.805 -19.645  32.917  1.00  0.00     0.000 C 
BRANCH  10  11
ATOM     11  C   UNL     1     -12.415 -20.077  31.488  1.00  0.00     0.000 C 
BRANCH  11  12
ATOM     12  C   UNL     1     -11.032 -19.543  31.078  1.00  0.00     0.000 C 
BRANCH  12  13
ATOM     13  C   UNL     1     -10.100 -20.642  30.527  1.00  0.00     0.006 C 
BRANCH  13  14
ATOM     14  C   UNL     1     -10.208 -20.843  29.005  1.00  0.00     0.053 C 
BRANCH  14  15
ATOM     15  C   UNL     1      -9.808 -19.624  28.233  1.00  0.00     0.041 C 
ATOM     16  O   UNL     1     -10.313 -19.397  27.101  1.00  0.00    -0.550 OA
ATOM     17  O   UNL     1      -8.871 -18.740  28.758  1.00  0.00    -0.550 OA
ENDBRANCH  14  15
ENDBRANCH  13  14
ENDBRANCH  12  13
ENDBRANCH  11  12
ENDBRANCH  10  11
ENDBRANCH   9  10
ENDBRANCH   8   9
ENDBRANCH   7   8
ENDBRANCH   6   7
ENDBRANCH   5   6
ENDBRANCH   4   5
ENDBRANCH   3   4
ENDBRANCH   2   3
ENDBRANCH   1   2
BRANCH   1  18
ATOM     18  C   UNL     1      -8.333 -18.688  34.296  1.00  0.00     0.000 C 
BRANCH  18  19
ATOM     19  C   UNL     1      -8.097 -19.532  33.028  1.00  0.00     0.000 C 
BRANCH  19  20
ATOM     20  C   UNL     1      -7.368 -18.746  31.917  1.00  0.00     0.000 C 
BRANCH  20  21
ATOM     21  C   UNL     1      -5.836 -18.721  32.067  1.00  0.00     0.000 C 
BRANCH  21  22
ATOM     22  C   UNL     1      -5.304 -17.877  33.237  1.00  0.00     0.000 C 
BRANCH  22  23
ATOM     23  C   UNL     1      -4.030 -18.467  33.866  1.00  0.00     0.000 C 
BRANCH  23  24
ATOM     24  C   UNL     1      -4.032 -18.392  35.405  1.00  0.00    -0.000 C 
BRANCH  24  25
ATOM     25  C   UNL     1      -4.463 -19.687  36.125  1.00  0.00    -0.000 C 
BRANCH  25  26
ATOM     26  C   UNL     1      -4.167 -20.994  35.361  1.00  0.00    -0.000 C 
BRANCH  26  27
ATOM     27  C   UNL     1      -5.162 -22.141  35.628  1.00  0.00    -0.000 C 
BRANCH  27  28
ATOM     28  C   UNL     1      -6.643 -21.780  35.395  1.00  0.00    -0.000 C 
BRANCH  28  29
ATOM     29  C   UNL     1      -7.408 -22.735  34.458  1.00  0.00    -0.000 C 
BRANCH  29  30
ATOM     30  C   UNL     1      -8.698 -22.155  33.851  1.00  0.00    -0.000 C 
BRANCH  30  31
ATOM     31  C   UNL     1      -9.917 -23.065  34.059  1.00  0.00    -0.003 C 
ATOM     32  C   UNL     1     -10.148 -23.349  35.541  1.00  0.00     0.004 C 
ENDBRANCH  30  31
ENDBRANCH  29  30
ENDBRANCH  28  29
ENDBRANCH  27  28
ENDBRANCH  26  27
ENDBRANCH  25  26
ENDBRANCH  24  25
ENDBRANCH  23  24
ENDBRANCH  22  23
ENDBRANCH  21  22
ENDBRANCH  20  21
ENDBRANCH  19  20
ENDBRANCH  18  19
ENDBRANCH   1  18
TORSDOF 28
ENDMDL
