MODEL 1
REMARK VINA RESULT:    10.531      0.000      0.000
REMARK INTER + INTRA:          20.058
REMARK INTER:                  20.381
REMARK INTRA:                  -0.323
REMARK UNBOUND:                -0.323
REMARK SMILES CCCCCCCCCCCCCCCCCC(=O)[O-]
REMARK SMILES IDX 10 1 11 2 12 3 13 4 14 5 15 6 16 7 17 8 18 9 19 10 20 11
REMARK SMILES IDX 9 12 8 13 7 14 6 15 5 16 4 17 3 18 2 19 1 20
REMARK H PARENT
REMARK Flexibility Score: inf
ROOT
ATOM      1  C   UNL     1      88.997  83.818  18.883  1.00  0.00     0.000 C 
ENDROOT
BRANCH   1   2
ATOM      2  C   UNL     1      90.008  84.759  19.555  1.00  0.00     0.000 C 
BRANCH   2   3
ATOM      3  C   UNL     1      90.399  85.952  18.665  1.00  0.00     0.000 C 
BRANCH   3   4
ATOM      4  C   UNL     1      91.235  85.593  17.419  1.00  0.00     0.000 C 
BRANCH   4   5
ATOM      5  C   UNL     1      90.809  86.301  16.120  1.00  0.00     0.000 C 
BRANCH   5   6
ATOM      6  C   UNL     1      91.462  87.677  15.886  1.00  0.00     0.000 C 
BRANCH   6   7
ATOM      7  C   UNL     1      92.485  88.072  16.973  1.00  0.00     0.006 C 
BRANCH   7   8
ATOM      8  C   UNL     1      91.933  89.123  17.945  1.00  0.00     0.053 C 
BRANCH   8   9
ATOM      9  C   UNL     1      92.762  89.171  19.189  1.00  0.00     0.041 C 
ATOM     10  O   UNL     1      92.897  88.142  19.901  1.00  0.00    -0.550 OA
ATOM     11  O   UNL     1      93.423  90.342  19.539  1.00  0.00    -0.550 OA
ENDBRANCH   8   9
ENDBRANCH   7   8
ENDBRANCH   6   7
ENDBRANCH   5   6
ENDBRANCH   4   5
ENDBRANCH   3   4
ENDBRANCH   2   3
ENDBRANCH   1   2
BRANCH   1  12
ATOM     12  C   UNL     1      89.529  82.380  18.841  1.00  0.00     0.000 C 
BRANCH  12  13
ATOM     13  C   UNL     1      88.373  81.370  18.778  1.00  0.00    -0.000 C 
BRANCH  13  14
ATOM     14  C   UNL     1      87.394  81.518  19.954  1.00  0.00    -0.000 C 
BRANCH  14  15
ATOM     15  C   UNL     1      85.946  81.173  19.562  1.00  0.00    -0.000 C 
BRANCH  15  16
ATOM     16  C   UNL     1      84.978  82.342  19.799  1.00  0.00    -0.000 C 
BRANCH  16  17
ATOM     17  C   UNL     1      83.648  82.175  19.044  1.00  0.00    -0.000 C 
BRANCH  17  18
ATOM     18  C   UNL     1      83.612  80.878  18.206  1.00  0.00    -0.000 C 
BRANCH  18  19
ATOM     19  C   UNL     1      84.610  80.875  17.034  1.00  0.00    -0.003 C 
ATOM     20  C   UNL     1      83.943  81.089  15.677  1.00  0.00     0.004 C 
ENDBRANCH  18  19
ENDBRANCH  17  18
ENDBRANCH  16  17
ENDBRANCH  15  16
ENDBRANCH  14  15
ENDBRANCH  13  14
ENDBRANCH  12  13
ENDBRANCH   1  12
TORSDOF 16
ENDMDL
MODEL 2
REMARK VINA RESULT:    11.284     15.925     19.035
REMARK INTER + INTRA:          21.517
REMARK INTER:                  22.393
REMARK INTRA:                  -0.876
REMARK UNBOUND:                -0.323
REMARK SMILES CCCCCCCCCCCCCCCCCC(=O)[O-]
REMARK SMILES IDX 10 1 11 2 12 3 13 4 14 5 15 6 16 7 17 8 18 9 19 10 20 11
REMARK SMILES IDX 9 12 8 13 7 14 6 15 5 16 4 17 3 18 2 19 1 20
REMARK H PARENT
REMARK Flexibility Score: inf
ROOT
ATOM      1  C   UNL     1     100.246 100.496  10.411  1.00  0.00     0.000 C 
ENDROOT
BRANCH   1   2
ATOM      2  C   UNL     1     101.659  99.941  10.642  1.00  0.00     0.000 C 
BRANCH   2   3
ATOM      3  C   UNL     1     101.946  98.672   9.821  1.00  0.00     0.000 C 
BRANCH   3   4
ATOM      4  C   UNL     1     102.001  97.363  10.637  1.00  0.00     0.000 C 
BRANCH   4   5
ATOM      5  C   UNL     1     100.766  96.454  10.501  1.00  0.00     0.000 C 
BRANCH   5   6
ATOM      6  C   UNL     1     101.073  94.945  10.457  1.00  0.00     0.000 C 
BRANCH   6   7
ATOM      7  C   UNL     1      99.955  94.065  11.058  1.00  0.00     0.006 C 
BRANCH   7   8
ATOM      8  C   UNL     1      98.616  94.808  11.162  1.00  0.00     0.053 C 
BRANCH   8   9
ATOM      9  C   UNL     1      98.330  95.175  12.583  1.00  0.00     0.041 C 
ATOM     10  O   UNL     1      98.476  94.324  13.500  1.00  0.00    -0.550 OA
ATOM     11  O   UNL     1      97.945  96.470  12.903  1.00  0.00    -0.550 OA
ENDBRANCH   8   9
ENDBRANCH   7   8
ENDBRANCH   6   7
ENDBRANCH   5   6
ENDBRANCH   4   5
ENDBRANCH   3   4
ENDBRANCH   2   3
ENDBRANCH   1   2
BRANCH   1  12
ATOM     12  C   UNL     1      99.191  99.613  11.090  1.00  0.00     0.000 C 
BRANCH  12  13
ATOM     13  C   UNL     1      98.287  98.939  10.046  1.00  0.00    -0.000 C 
BRANCH  13  14
ATOM     14  C   UNL     1      96.963  99.692   9.836  1.00  0.00    -0.000 C 
BRANCH  14  15
ATOM     15  C   UNL     1      96.221  99.237   8.567  1.00  0.00    -0.000 C 
BRANCH  15  16
ATOM     16  C   UNL     1      94.752  99.688   8.551  1.00  0.00    -0.000 C 
BRANCH  16  17
ATOM     17  C   UNL     1      93.866  98.796   7.664  1.00  0.00    -0.000 C 
BRANCH  17  18
ATOM     18  C   UNL     1      93.373  99.536   6.401  1.00  0.00    -0.000 C 
BRANCH  18  19
ATOM     19  C   UNL     1      92.039 100.278   6.604  1.00  0.00    -0.003 C 
ATOM     20  C   UNL     1      90.960  99.854   5.610  1.00  0.00     0.004 C 
ENDBRANCH  18  19
ENDBRANCH  17  18
ENDBRANCH  16  17
ENDBRANCH  15  16
ENDBRANCH  14  15
ENDBRANCH  13  14
ENDBRANCH  12  13
ENDBRANCH   1  12
TORSDOF 16
ENDMDL
MODEL 3
REMARK VINA RESULT:    11.630     15.057     18.544
REMARK INTER + INTRA:          22.185
REMARK INTER:                  23.375
REMARK INTRA:                  -1.189
REMARK UNBOUND:                -0.323
REMARK SMILES CCCCCCCCCCCCCCCCCC(=O)[O-]
REMARK SMILES IDX 10 1 11 2 12 3 13 4 14 5 15 6 16 7 17 8 18 9 19 10 20 11
REMARK SMILES IDX 9 12 8 13 7 14 6 15 5 16 4 17 3 18 2 19 1 20
REMARK H PARENT
REMARK Flexibility Score: inf
ROOT
ATOM      1  C   UNL     1     100.904  94.467  10.600  1.00  0.00     0.000 C 
ENDROOT
BRANCH   1   2
ATOM      2  C   UNL     1      99.647  93.779  11.150  1.00  0.00     0.000 C 
BRANCH   2   3
ATOM      3  C   UNL     1      98.484  94.757  11.390  1.00  0.00     0.000 C 
BRANCH   3   4
ATOM      4  C   UNL     1      98.310  95.223  12.851  1.00  0.00     0.000 C 
BRANCH   4   5
ATOM      5  C   UNL     1      98.722  94.194  13.919  1.00  0.00     0.000 C 
BRANCH   5   6
ATOM      6  C   UNL     1      98.488  94.641  15.375  1.00  0.00     0.000 C 
BRANCH   6   7
ATOM      7  C   UNL     1      99.751  95.204  16.062  1.00  0.00     0.006 C 
BRANCH   7   8
ATOM      8  C   UNL     1      99.483  95.653  17.505  1.00  0.00     0.053 C 
BRANCH   8   9
ATOM      9  C   UNL     1      99.836  97.096  17.678  1.00  0.00     0.041 C 
ATOM     10  O   UNL     1      98.943  97.938  17.956  1.00  0.00    -0.550 OA
ATOM     11  O   UNL     1     101.159  97.505  17.576  1.00  0.00    -0.550 OA
ENDBRANCH   8   9
ENDBRANCH   7   8
ENDBRANCH   6   7
ENDBRANCH   5   6
ENDBRANCH   4   5
ENDBRANCH   3   4
ENDBRANCH   2   3
ENDBRANCH   1   2
BRANCH   1  12
ATOM     12  C   UNL     1     100.658  95.965  10.379  1.00  0.00     0.000 C 
BRANCH  12  13
ATOM     13  C   UNL     1     101.982  96.711  10.150  1.00  0.00    -0.000 C 
BRANCH  13  14
ATOM     14  C   UNL     1     101.979  98.122  10.761  1.00  0.00    -0.000 C 
BRANCH  14  15
ATOM     15  C   UNL     1     102.044  99.227   9.692  1.00  0.00    -0.000 C 
BRANCH  15  16
ATOM     16  C   UNL     1     101.212 100.462  10.072  1.00  0.00    -0.000 C 
BRANCH  16  17
ATOM     17  C   UNL     1     100.133 100.150  11.123  1.00  0.00    -0.000 C 
BRANCH  17  18
ATOM     18  C   UNL     1      98.953  99.350  10.530  1.00  0.00    -0.000 C 
BRANCH  18  19
ATOM     19  C   UNL     1      98.306  98.375  11.529  1.00  0.00    -0.003 C 
ATOM     20  C   UNL     1      97.494  99.079  12.614  1.00  0.00     0.004 C 
ENDBRANCH  18  19
ENDBRANCH  17  18
ENDBRANCH  16  17
ENDBRANCH  15  16
ENDBRANCH  14  15
ENDBRANCH  13  14
ENDBRANCH  12  13
ENDBRANCH   1  12
TORSDOF 16
ENDMDL
MODEL 4
REMARK VINA RESULT:    11.739     15.372     18.145
REMARK INTER + INTRA:          22.397
REMARK INTER:                  23.304
REMARK INTRA:                  -0.907
REMARK UNBOUND:                -0.323
REMARK SMILES CCCCCCCCCCCCCCCCCC(=O)[O-]
REMARK SMILES IDX 10 1 11 2 12 3 13 4 14 5 15 6 16 7 17 8 18 9 19 10 20 11
REMARK SMILES IDX 9 12 8 13 7 14 6 15 5 16 4 17 3 18 2 19 1 20
REMARK H PARENT
REMARK Flexibility Score: inf
ROOT
ATOM      1  C   UNL     1      98.245  95.215  13.053  1.00  0.00     0.000 C 
ENDROOT
BRANCH   1   2
ATOM      2  C   UNL     1      98.683  95.111  11.585  1.00  0.00     0.000 C 
BRANCH   2   3
ATOM      3  C   UNL     1      99.754  94.030  11.354  1.00  0.00     0.000 C 
BRANCH   3   4
ATOM      4  C   UNL     1     100.907  94.441  10.414  1.00  0.00     0.000 C 
BRANCH   4   5
ATOM      5  C   UNL     1     100.928  95.927  10.015  1.00  0.00     0.000 C 
BRANCH   5   6
ATOM      6  C   UNL     1     101.612  96.862  11.032  1.00  0.00     0.000 C 
BRANCH   6   7
ATOM      7  C   UNL     1     102.067  98.209  10.429  1.00  0.00     0.006 C 
BRANCH   7   8
ATOM      8  C   UNL     1     101.111  99.359  10.772  1.00  0.00     0.053 C 
BRANCH   8   9
ATOM      9  C   UNL     1     101.417 100.561   9.936  1.00  0.00     0.041 C 
ATOM     10  O   UNL     1     100.510 101.110   9.258  1.00  0.00    -0.550 OA
ATOM     11  O   UNL     1     102.696 101.103   9.941  1.00  0.00    -0.550 OA
ENDBRANCH   8   9
ENDBRANCH   7   8
ENDBRANCH   6   7
ENDBRANCH   5   6
ENDBRANCH   4   5
ENDBRANCH   3   4
ENDBRANCH   2   3
ENDBRANCH   1   2
BRANCH   1  12
ATOM     12  C   UNL     1      98.305  93.846  13.743  1.00  0.00     0.000 C 
BRANCH  12  13
ATOM     13  C   UNL     1      98.619  94.000  15.239  1.00  0.00    -0.000 C 
BRANCH  13  14
ATOM     14  C   UNL     1      99.149  95.399  15.592  1.00  0.00    -0.000 C 
BRANCH  14  15
ATOM     15  C   UNL     1      99.389  95.574  17.102  1.00  0.00    -0.000 C 
BRANCH  15  16
ATOM     16  C   UNL     1     100.393  96.696  17.411  1.00  0.00    -0.000 C 
BRANCH  16  17
ATOM     17  C   UNL     1      99.776  97.832  18.247  1.00  0.00    -0.000 C 
BRANCH  17  18
ATOM     18  C   UNL     1      98.309  98.113  17.855  1.00  0.00    -0.000 C 
BRANCH  18  19
ATOM     19  C   UNL     1      97.668  99.261  18.654  1.00  0.00    -0.003 C 
ATOM     20  C   UNL     1      98.591  99.834  19.728  1.00  0.00     0.004 C 
ENDBRANCH  18  19
ENDBRANCH  17  18
ENDBRANCH  16  17
ENDBRANCH  15  16
ENDBRANCH  14  15
ENDBRANCH  13  14
ENDBRANCH  12  13
ENDBRANCH   1  12
TORSDOF 16
ENDMDL
MODEL 5
REMARK VINA RESULT:    11.965     16.483     19.030
REMARK INTER + INTRA:          22.834
REMARK INTER:                  24.056
REMARK INTRA:                  -1.223
REMARK UNBOUND:                -0.323
REMARK SMILES CCCCCCCCCCCCCCCCCC(=O)[O-]
REMARK SMILES IDX 10 1 11 2 12 3 13 4 14 5 15 6 16 7 17 8 18 9 19 10 20 11
REMARK SMILES IDX 9 12 8 13 7 14 6 15 5 16 4 17 3 18 2 19 1 20
REMARK H PARENT
REMARK Flexibility Score: inf
ROOT
ATOM      1  C   UNL     1      98.679  99.589  10.862  1.00  0.00     0.000 C 
ENDROOT
BRANCH   1   2
ATOM      2  C   UNL     1     100.028 100.152  11.334  1.00  0.00     0.000 C 
BRANCH   2   3
ATOM      3  C   UNL     1     101.030 100.351  10.184  1.00  0.00     0.000 C 
BRANCH   3   4
ATOM      4  C   UNL     1     101.852  99.100   9.807  1.00  0.00     0.000 C 
BRANCH   4   5
ATOM      5  C   UNL     1     101.635  97.877  10.717  1.00  0.00     0.000 C 
BRANCH   5   6
ATOM      6  C   UNL     1     102.101  96.534  10.120  1.00  0.00     0.000 C 
BRANCH   6   7
ATOM      7  C   UNL     1     101.112  95.372  10.357  1.00  0.00     0.006 C 
BRANCH   7   8
ATOM      8  C   UNL     1      99.728  95.861  10.807  1.00  0.00     0.053 C 
BRANCH   8   9
ATOM      9  C   UNL     1      99.009  94.782  11.551  1.00  0.00     0.041 C 
ATOM     10  O   UNL     1      98.325  95.062  12.570  1.00  0.00    -0.550 OA
ATOM     11  O   UNL     1      99.057  93.471  11.094  1.00  0.00    -0.550 OA
ENDBRANCH   8   9
ENDBRANCH   7   8
ENDBRANCH   6   7
ENDBRANCH   5   6
ENDBRANCH   4   5
ENDBRANCH   3   4
ENDBRANCH   2   3
ENDBRANCH   1   2
BRANCH   1  12
ATOM     12  C   UNL     1      98.115  98.588  11.878  1.00  0.00     0.000 C 
BRANCH  12  13
ATOM     13  C   UNL     1      96.951  99.206  12.668  1.00  0.00    -0.000 C 
BRANCH  13  14
ATOM     14  C   UNL     1      96.400 100.482  12.011  1.00  0.00    -0.000 C 
BRANCH  14  15
ATOM     15  C   UNL     1      95.002 100.275  11.404  1.00  0.00    -0.000 C 
BRANCH  15  16
ATOM     16  C   UNL     1      94.881 100.864   9.989  1.00  0.00    -0.000 C 
BRANCH  16  17
ATOM     17  C   UNL     1      94.971  99.792   8.889  1.00  0.00    -0.000 C 
BRANCH  17  18
ATOM     18  C   UNL     1      93.578  99.305   8.435  1.00  0.00    -0.000 C 
BRANCH  18  19
ATOM     19  C   UNL     1      93.350  99.420   6.917  1.00  0.00    -0.003 C 
ATOM     20  C   UNL     1      92.051 100.140   6.558  1.00  0.00     0.004 C 
ENDBRANCH  18  19
ENDBRANCH  17  18
ENDBRANCH  16  17
ENDBRANCH  15  16
ENDBRANCH  14  15
ENDBRANCH  13  14
ENDBRANCH  12  13
ENDBRANCH   1  12
TORSDOF 16
ENDMDL
MODEL 6
REMARK VINA RESULT:    12.008     16.520     19.854
REMARK INTER + INTRA:          22.918
REMARK INTER:                  23.694
REMARK INTRA:                  -0.776
REMARK UNBOUND:                -0.323
REMARK SMILES CCCCCCCCCCCCCCCCCC(=O)[O-]
REMARK SMILES IDX 10 1 11 2 12 3 13 4 14 5 15 6 16 7 17 8 18 9 19 10 20 11
REMARK SMILES IDX 9 12 8 13 7 14 6 15 5 16 4 17 3 18 2 19 1 20
REMARK H PARENT
REMARK Flexibility Score: inf
ROOT
ATOM      1  C   UNL     1      98.208  96.243  12.292  1.00  0.00     0.000 C 
ENDROOT
BRANCH   1   2
ATOM      2  C   UNL     1      98.335  96.831  10.880  1.00  0.00     0.000 C 
BRANCH   2   3
ATOM      3  C   UNL     1      97.949  98.320  10.814  1.00  0.00     0.000 C 
BRANCH   3   4
ATOM      4  C   UNL     1      97.745  98.881   9.391  1.00  0.00     0.000 C 
BRANCH   4   5
ATOM      5  C   UNL     1      96.432  99.653   9.175  1.00  0.00     0.000 C 
BRANCH   5   6
ATOM      6  C   UNL     1      95.719  99.362   7.839  1.00  0.00     0.000 C 
BRANCH   6   7
ATOM      7  C   UNL     1      94.180  99.318   7.953  1.00  0.00     0.006 C 
BRANCH   7   8
ATOM      8  C   UNL     1      93.492  99.260   6.582  1.00  0.00     0.053 C 
BRANCH   8   9
ATOM      9  C   UNL     1      92.194 100.003   6.617  1.00  0.00     0.041 C 
ATOM     10  O   UNL     1      92.005 100.985   5.853  1.00  0.00    -0.550 OA
ATOM     11  O   UNL     1      91.176  99.584   7.464  1.00  0.00    -0.550 OA
ENDBRANCH   8   9
ENDBRANCH   7   8
ENDBRANCH   6   7
ENDBRANCH   5   6
ENDBRANCH   4   5
ENDBRANCH   3   4
ENDBRANCH   2   3
ENDBRANCH   1   2
BRANCH   1  12
ATOM     12  C   UNL     1      98.728  94.800  12.335  1.00  0.00     0.000 C 
BRANCH  12  13
ATOM     13  C   UNL     1      99.197  94.345  10.945  1.00  0.00    -0.000 C 
BRANCH  13  14
ATOM     14  C   UNL     1     100.728  94.255  10.837  1.00  0.00    -0.000 C 
BRANCH  14  15
ATOM     15  C   UNL     1     101.321  95.348   9.931  1.00  0.00    -0.000 C 
BRANCH  15  16
ATOM     16  C   UNL     1     101.929  96.510  10.733  1.00  0.00    -0.000 C 
BRANCH  16  17
ATOM     17  C   UNL     1     101.204  97.845  10.488  1.00  0.00    -0.000 C 
BRANCH  17  18
ATOM     18  C   UNL     1     102.149  98.928   9.926  1.00  0.00    -0.000 C 
BRANCH  18  19
ATOM     19  C   UNL     1     101.812 100.350  10.409  1.00  0.00    -0.003 C 
ATOM     20  C   UNL     1     100.819 101.072   9.502  1.00  0.00     0.004 C 
ENDBRANCH  18  19
ENDBRANCH  17  18
ENDBRANCH  16  17
ENDBRANCH  15  16
ENDBRANCH  14  15
ENDBRANCH  13  14
ENDBRANCH  12  13
ENDBRANCH   1  12
TORSDOF 16
ENDMDL
