MODEL 1
REMARK VINA RESULT:    -3.648      0.000      0.000
REMARK INTER + INTRA:          -9.823
REMARK INTER:                  -7.060
REMARK INTRA:                  -2.763
REMARK UNBOUND:                -2.763
REMARK SMILES CCCCCCCCCCCCCCCCCC(=O)[O-]
REMARK SMILES IDX 10 1 11 2 12 3 13 4 14 5 15 6 16 7 17 8 18 9 19 10 20 11
REMARK SMILES IDX 9 12 8 13 7 14 6 15 5 16 4 17 3 18 2 19 1 20
REMARK H PARENT
REMARK Flexibility Score: inf
ROOT
ATOM      1  C   UNL     1     -42.536 -49.761  38.449  1.00  0.00     0.000 C 
ENDROOT
BRANCH   1   2
ATOM      2  C   UNL     1     -43.186 -48.436  38.014  1.00  0.00     0.000 C 
BRANCH   2   3
ATOM      3  C   UNL     1     -44.701 -48.404  38.265  1.00  0.00     0.000 C 
BRANCH   3   4
ATOM      4  C   UNL     1     -45.477 -48.497  36.942  1.00  0.00     0.000 C 
BRANCH   4   5
ATOM      5  C   UNL     1     -46.683 -49.445  37.026  1.00  0.00     0.000 C 
BRANCH   5   6
ATOM      6  C   UNL     1     -46.485 -50.562  38.062  1.00  0.00     0.000 C 
BRANCH   6   7
ATOM      7  C   UNL     1     -46.381 -51.958  37.420  1.00  0.00     0.006 C 
BRANCH   7   8
ATOM      8  C   UNL     1     -47.608 -52.855  37.648  1.00  0.00     0.053 C 
BRANCH   8   9
ATOM      9  C   UNL     1     -47.559 -53.548  38.973  1.00  0.00     0.041 C 
ATOM     10  O   UNL     1     -48.231 -53.109  39.945  1.00  0.00    -0.550 OA
ATOM     11  O   UNL     1     -46.746 -54.660  39.145  1.00  0.00    -0.550 OA
ENDBRANCH   8   9
ENDBRANCH   7   8
ENDBRANCH   6   7
ENDBRANCH   5   6
ENDBRANCH   4   5
ENDBRANCH   3   4
ENDBRANCH   2   3
ENDBRANCH   1   2
BRANCH   1  12
ATOM     12  C   UNL     1     -42.840 -50.965  37.536  1.00  0.00     0.000 C 
BRANCH  12  13
ATOM     13  C   UNL     1     -42.150 -50.889  36.156  1.00  0.00    -0.000 C 
BRANCH  13  14
ATOM     14  C   UNL     1     -43.161 -50.734  35.006  1.00  0.00    -0.000 C 
BRANCH  14  15
ATOM     15  C   UNL     1     -42.691 -49.741  33.931  1.00  0.00    -0.000 C 
BRANCH  15  16
ATOM     16  C   UNL     1     -42.823 -48.276  34.385  1.00  0.00    -0.000 C 
BRANCH  16  17
ATOM     17  C   UNL     1     -41.465 -47.557  34.452  1.00  0.00    -0.000 C 
BRANCH  17  18
ATOM     18  C   UNL     1     -40.285 -48.492  34.149  1.00  0.00    -0.000 C 
BRANCH  18  19
ATOM     19  C   UNL     1     -39.275 -48.490  35.303  1.00  0.00    -0.003 C 
ATOM     20  C   UNL     1     -39.834 -47.764  36.523  1.00  0.00     0.004 C 
ENDBRANCH  18  19
ENDBRANCH  17  18
ENDBRANCH  16  17
ENDBRANCH  15  16
ENDBRANCH  14  15
ENDBRANCH  13  14
ENDBRANCH  12  13
ENDBRANCH   1  12
TORSDOF 16
ENDMDL
MODEL 2
REMARK VINA RESULT:    -3.630      1.526      3.175
REMARK INTER + INTRA:          -9.789
REMARK INTER:                  -7.937
REMARK INTRA:                  -1.852
REMARK UNBOUND:                -2.763
REMARK SMILES CCCCCCCCCCCCCCCCCC(=O)[O-]
REMARK SMILES IDX 10 1 11 2 12 3 13 4 14 5 15 6 16 7 17 8 18 9 19 10 20 11
REMARK SMILES IDX 9 12 8 13 7 14 6 15 5 16 4 17 3 18 2 19 1 20
REMARK H PARENT
REMARK Flexibility Score: inf
ROOT
ATOM      1  C   UNL     1     -44.962 -50.807  39.333  1.00  0.00     0.000 C 
ENDROOT
BRANCH   1   2
ATOM      2  C   UNL     1     -46.424 -50.574  38.914  1.00  0.00     0.000 C 
BRANCH   2   3
ATOM      3  C   UNL     1     -46.646 -50.745  37.404  1.00  0.00     0.000 C 
BRANCH   3   4
ATOM      4  C   UNL     1     -46.636 -52.231  37.014  1.00  0.00     0.000 C 
BRANCH   4   5
ATOM      5  C   UNL     1     -47.762 -53.030  37.688  1.00  0.00     0.000 C 
BRANCH   5   6
ATOM      6  C   UNL     1     -47.271 -54.366  38.268  1.00  0.00     0.000 C 
BRANCH   6   7
ATOM      7  C   UNL     1     -46.578 -54.203  39.634  1.00  0.00     0.006 C 
BRANCH   7   8
ATOM      8  C   UNL     1     -47.529 -54.262  40.840  1.00  0.00     0.053 C 
BRANCH   8   9
ATOM      9  C   UNL     1     -47.839 -52.900  41.377  1.00  0.00     0.041 C 
ATOM     10  O   UNL     1     -47.054 -52.344  42.192  1.00  0.00    -0.550 OA
ATOM     11  O   UNL     1     -49.012 -52.256  41.005  1.00  0.00    -0.550 OA
ENDBRANCH   8   9
ENDBRANCH   7   8
ENDBRANCH   6   7
ENDBRANCH   5   6
ENDBRANCH   4   5
ENDBRANCH   3   4
ENDBRANCH   2   3
ENDBRANCH   1   2
BRANCH   1  12
ATOM     12  C   UNL     1     -44.249 -49.571  39.915  1.00  0.00     0.000 C 
BRANCH  12  13
ATOM     13  C   UNL     1     -44.225 -48.358  38.960  1.00  0.00    -0.000 C 
BRANCH  13  14
ATOM     14  C   UNL     1     -43.279 -48.575  37.765  1.00  0.00    -0.000 C 
BRANCH  14  15
ATOM     15  C   UNL     1     -43.975 -48.369  36.411  1.00  0.00    -0.000 C 
BRANCH  15  16
ATOM     16  C   UNL     1     -43.780 -49.566  35.461  1.00  0.00    -0.000 C 
BRANCH  16  17
ATOM     17  C   UNL     1     -42.940 -49.205  34.225  1.00  0.00    -0.000 C 
BRANCH  17  18
ATOM     18  C   UNL     1     -42.309 -47.808  34.327  1.00  0.00    -0.000 C 
BRANCH  18  19
ATOM     19  C   UNL     1     -40.930 -47.878  34.993  1.00  0.00    -0.003 C 
ATOM     20  C   UNL     1     -39.899 -48.509  34.062  1.00  0.00     0.004 C 
ENDBRANCH  18  19
ENDBRANCH  17  18
ENDBRANCH  16  17
ENDBRANCH  15  16
ENDBRANCH  14  15
ENDBRANCH  13  14
ENDBRANCH  12  13
ENDBRANCH   1  12
TORSDOF 16
ENDMDL
MODEL 3
REMARK VINA RESULT:    -3.624      3.501      6.556
REMARK INTER + INTRA:          -9.778
REMARK INTER:                  -7.205
REMARK INTRA:                  -2.573
REMARK UNBOUND:                -2.763
REMARK SMILES CCCCCCCCCCCCCCCCCC(=O)[O-]
REMARK SMILES IDX 10 1 11 2 12 3 13 4 14 5 15 6 16 7 17 8 18 9 19 10 20 11
REMARK SMILES IDX 9 12 8 13 7 14 6 15 5 16 4 17 3 18 2 19 1 20
REMARK H PARENT
REMARK Flexibility Score: inf
ROOT
ATOM      1  C   UNL     1     -47.211 -54.175  38.680  1.00  0.00     0.000 C 
ENDROOT
BRANCH   1   2
ATOM      2  C   UNL     1     -45.860 -53.891  38.000  1.00  0.00     0.000 C 
BRANCH   2   3
ATOM      3  C   UNL     1     -45.981 -52.920  36.817  1.00  0.00     0.000 C 
BRANCH   3   4
ATOM      4  C   UNL     1     -45.150 -51.651  37.064  1.00  0.00     0.000 C 
BRANCH   4   5
ATOM      5  C   UNL     1     -46.019 -50.398  37.251  1.00  0.00     0.000 C 
BRANCH   5   6
ATOM      6  C   UNL     1     -45.389 -49.143  36.626  1.00  0.00     0.000 C 
BRANCH   6   7
ATOM      7  C   UNL     1     -44.205 -49.472  35.697  1.00  0.00     0.006 C 
BRANCH   7   8
ATOM      8  C   UNL     1     -43.095 -48.409  35.684  1.00  0.00     0.053 C 
BRANCH   8   9
ATOM      9  C   UNL     1     -42.527 -48.207  34.314  1.00  0.00     0.041 C 
ATOM     10  O   UNL     1     -41.705 -47.276  34.098  1.00  0.00    -0.550 OA
ATOM     11  O   UNL     1     -42.929 -49.026  33.268  1.00  0.00    -0.550 OA
ENDBRANCH   8   9
ENDBRANCH   7   8
ENDBRANCH   6   7
ENDBRANCH   5   6
ENDBRANCH   4   5
ENDBRANCH   3   4
ENDBRANCH   2   3
ENDBRANCH   1   2
BRANCH   1  12
ATOM     12  C   UNL     1     -47.996 -52.921  39.113  1.00  0.00     0.000 C 
BRANCH  12  13
ATOM     13  C   UNL     1     -48.360 -52.901  40.613  1.00  0.00    -0.000 C 
BRANCH  13  14
ATOM     14  C   UNL     1     -47.375 -52.056  41.441  1.00  0.00    -0.000 C 
BRANCH  14  15
ATOM     15  C   UNL     1     -46.559 -51.080  40.579  1.00  0.00    -0.000 C 
BRANCH  15  16
ATOM     16  C   UNL     1     -45.043 -51.219  40.809  1.00  0.00    -0.000 C 
BRANCH  16  17
ATOM     17  C   UNL     1     -44.302 -49.879  40.667  1.00  0.00    -0.000 C 
BRANCH  17  18
ATOM     18  C   UNL     1     -43.156 -49.942  39.646  1.00  0.00    -0.000 C 
BRANCH  18  19
ATOM     19  C   UNL     1     -42.570 -48.548  39.394  1.00  0.00    -0.003 C 
ATOM     20  C   UNL     1     -43.658 -47.478  39.430  1.00  0.00     0.004 C 
ENDBRANCH  18  19
ENDBRANCH  17  18
ENDBRANCH  16  17
ENDBRANCH  15  16
ENDBRANCH  14  15
ENDBRANCH  13  14
ENDBRANCH  12  13
ENDBRANCH   1  12
TORSDOF 16
ENDMDL
MODEL 4
REMARK VINA RESULT:    -3.600      1.397      3.186
REMARK INTER + INTRA:          -9.730
REMARK INTER:                  -6.607
REMARK INTRA:                  -3.123
REMARK UNBOUND:                -2.763
REMARK SMILES CCCCCCCCCCCCCCCCCC(=O)[O-]
REMARK SMILES IDX 10 1 11 2 12 3 13 4 14 5 15 6 16 7 17 8 18 9 19 10 20 11
REMARK SMILES IDX 9 12 8 13 7 14 6 15 5 16 4 17 3 18 2 19 1 20
REMARK H PARENT
REMARK Flexibility Score: inf
ROOT
ATOM      1  C   UNL     1     -40.467 -49.412  37.591  1.00  0.00     0.000 C 
ENDROOT
BRANCH   1   2
ATOM      2  C   UNL     1     -40.676 -47.972  38.091  1.00  0.00     0.000 C 
BRANCH   2   3
ATOM      3  C   UNL     1     -42.148 -47.652  38.388  1.00  0.00     0.000 C 
BRANCH   3   4
ATOM      4  C   UNL     1     -43.013 -48.919  38.293  1.00  0.00     0.000 C 
BRANCH   4   5
ATOM      5  C   UNL     1     -44.494 -48.652  38.605  1.00  0.00     0.000 C 
BRANCH   5   6
ATOM      6  C   UNL     1     -45.311 -48.314  37.348  1.00  0.00     0.000 C 
BRANCH   6   7
ATOM      7  C   UNL     1     -46.212 -49.477  36.892  1.00  0.00     0.006 C 
BRANCH   7   8
ATOM      8  C   UNL     1     -46.524 -50.505  37.992  1.00  0.00     0.053 C 
BRANCH   8   9
ATOM      9  C   UNL     1     -46.452 -51.911  37.483  1.00  0.00     0.041 C 
ATOM     10  O   UNL     1     -45.338 -52.425  37.193  1.00  0.00    -0.550 OA
ATOM     11  O   UNL     1     -47.617 -52.643  37.296  1.00  0.00    -0.550 OA
ENDBRANCH   8   9
ENDBRANCH   7   8
ENDBRANCH   6   7
ENDBRANCH   5   6
ENDBRANCH   4   5
ENDBRANCH   3   4
ENDBRANCH   2   3
ENDBRANCH   1   2
BRANCH   1  12
ATOM     12  C   UNL     1     -39.513 -49.549  36.388  1.00  0.00     0.000 C 
BRANCH  12  13
ATOM     13  C   UNL     1     -39.386 -48.261  35.545  1.00  0.00    -0.000 C 
BRANCH  13  14
ATOM     14  C   UNL     1     -40.213 -48.329  34.248  1.00  0.00    -0.000 C 
BRANCH  14  15
ATOM     15  C   UNL     1     -41.430 -47.392  34.269  1.00  0.00    -0.000 C 
BRANCH  15  16
ATOM     16  C   UNL     1     -42.719 -48.112  34.707  1.00  0.00    -0.000 C 
BRANCH  16  17
ATOM     17  C   UNL     1     -42.857 -49.507  34.075  1.00  0.00    -0.000 C 
BRANCH  17  18
ATOM     18  C   UNL     1     -43.166 -50.598  35.111  1.00  0.00    -0.000 C 
BRANCH  18  19
ATOM     19  C   UNL     1     -42.270 -51.824  34.898  1.00  0.00    -0.003 C 
ATOM     20  C   UNL     1     -41.389 -51.655  33.664  1.00  0.00     0.004 C 
ENDBRANCH  18  19
ENDBRANCH  17  18
ENDBRANCH  16  17
ENDBRANCH  15  16
ENDBRANCH  14  15
ENDBRANCH  13  14
ENDBRANCH  12  13
ENDBRANCH   1  12
TORSDOF 16
ENDMDL
MODEL 5
REMARK VINA RESULT:    -3.591      3.417      6.433
REMARK INTER + INTRA:          -9.714
REMARK INTER:                  -7.487
REMARK INTRA:                  -2.226
REMARK UNBOUND:                -2.763
REMARK SMILES CCCCCCCCCCCCCCCCCC(=O)[O-]
REMARK SMILES IDX 10 1 11 2 12 3 13 4 14 5 15 6 16 7 17 8 18 9 19 10 20 11
REMARK SMILES IDX 9 12 8 13 7 14 6 15 5 16 4 17 3 18 2 19 1 20
REMARK H PARENT
REMARK Flexibility Score: inf
ROOT
ATOM      1  C   UNL     1     -41.407 -47.705  34.271  1.00  0.00     0.000 C 
ENDROOT
BRANCH   1   2
ATOM      2  C   UNL     1     -40.182 -48.616  34.462  1.00  0.00     0.000 C 
BRANCH   2   3
ATOM      3  C   UNL     1     -39.226 -48.109  35.551  1.00  0.00     0.000 C 
BRANCH   3   4
ATOM      4  C   UNL     1     -39.991 -47.783  36.843  1.00  0.00     0.000 C 
BRANCH   4   5
ATOM      5  C   UNL     1     -40.395 -49.040  37.629  1.00  0.00     0.000 C 
BRANCH   5   6
ATOM      6  C   UNL     1     -41.369 -48.731  38.776  1.00  0.00     0.000 C 
BRANCH   6   7
ATOM      7  C   UNL     1     -41.839 -47.264  38.780  1.00  0.00     0.006 C 
BRANCH   7   8
ATOM      8  C   UNL     1     -43.256 -47.053  39.338  1.00  0.00     0.053 C 
BRANCH   8   9
ATOM      9  C   UNL     1     -43.314 -45.911  40.304  1.00  0.00     0.041 C 
ATOM     10  O   UNL     1     -44.167 -44.996  40.154  1.00  0.00    -0.550 OA
ATOM     11  O   UNL     1     -42.405 -45.839  41.351  1.00  0.00    -0.550 OA
ENDBRANCH   8   9
ENDBRANCH   7   8
ENDBRANCH   6   7
ENDBRANCH   5   6
ENDBRANCH   4   5
ENDBRANCH   3   4
ENDBRANCH   2   3
ENDBRANCH   1   2
BRANCH   1  12
ATOM     12  C   UNL     1     -42.769 -48.424  34.344  1.00  0.00     0.000 C 
BRANCH  12  13
ATOM     13  C   UNL     1     -43.453 -48.324  35.725  1.00  0.00    -0.000 C 
BRANCH  13  14
ATOM     14  C   UNL     1     -44.440 -49.479  35.971  1.00  0.00    -0.000 C 
BRANCH  14  15
ATOM     15  C   UNL     1     -45.574 -49.096  36.936  1.00  0.00    -0.000 C 
BRANCH  15  16
ATOM     16  C   UNL     1     -46.541 -50.264  37.200  1.00  0.00    -0.000 C 
BRANCH  16  17
ATOM     17  C   UNL     1     -46.429 -50.807  38.635  1.00  0.00    -0.000 C 
BRANCH  17  18
ATOM     18  C   UNL     1     -44.985 -50.799  39.159  1.00  0.00    -0.000 C 
BRANCH  18  19
ATOM     19  C   UNL     1     -44.892 -50.052  40.495  1.00  0.00    -0.003 C 
ATOM     20  C   UNL     1     -43.630 -50.444  41.258  1.00  0.00     0.004 C 
ENDBRANCH  18  19
ENDBRANCH  17  18
ENDBRANCH  16  17
ENDBRANCH  15  16
ENDBRANCH  14  15
ENDBRANCH  13  14
ENDBRANCH  12  13
ENDBRANCH   1  12
TORSDOF 16
ENDMDL
MODEL 6
REMARK VINA RESULT:    -3.568      3.333      7.020
REMARK INTER + INTRA:          -9.669
REMARK INTER:                  -7.615
REMARK INTRA:                  -2.054
REMARK UNBOUND:                -2.763
REMARK SMILES CCCCCCCCCCCCCCCCCC(=O)[O-]
REMARK SMILES IDX 10 1 11 2 12 3 13 4 14 5 15 6 16 7 17 8 18 9 19 10 20 11
REMARK SMILES IDX 9 12 8 13 7 14 6 15 5 16 4 17 3 18 2 19 1 20
REMARK H PARENT
REMARK Flexibility Score: inf
ROOT
ATOM      1  C   UNL     1     -43.158 -49.270  34.375  1.00  0.00     0.000 C 
ENDROOT
BRANCH   1   2
ATOM      2  C   UNL     1     -42.364 -47.957  34.486  1.00  0.00     0.000 C 
BRANCH   2   3
ATOM      3  C   UNL     1     -40.916 -48.173  34.950  1.00  0.00     0.000 C 
BRANCH   3   4
ATOM      4  C   UNL     1     -40.725 -47.677  36.392  1.00  0.00     0.000 C 
BRANCH   4   5
ATOM      5  C   UNL     1     -40.545 -48.826  37.396  1.00  0.00     0.000 C 
BRANCH   5   6
ATOM      6  C   UNL     1     -41.551 -48.760  38.556  1.00  0.00     0.000 C 
BRANCH   6   7
ATOM      7  C   UNL     1     -42.114 -47.343  38.775  1.00  0.00     0.006 C 
BRANCH   7   8
ATOM      8  C   UNL     1     -43.007 -47.200  40.019  1.00  0.00     0.053 C 
BRANCH   8   9
ATOM      9  C   UNL     1     -43.036 -45.794  40.530  1.00  0.00     0.041 C 
ATOM     10  O   UNL     1     -42.165 -45.398  41.350  1.00  0.00    -0.550 OA
ATOM     11  O   UNL     1     -44.046 -44.930  40.128  1.00  0.00    -0.550 OA
ENDBRANCH   8   9
ENDBRANCH   7   8
ENDBRANCH   6   7
ENDBRANCH   5   6
ENDBRANCH   4   5
ENDBRANCH   3   4
ENDBRANCH   2   3
ENDBRANCH   1   2
BRANCH   1  12
ATOM     12  C   UNL     1     -43.813 -49.745  35.687  1.00  0.00     0.000 C 
BRANCH  12  13
ATOM     13  C   UNL     1     -44.571 -48.632  36.443  1.00  0.00    -0.000 C 
BRANCH  13  14
ATOM     14  C   UNL     1     -45.622 -49.199  37.415  1.00  0.00    -0.000 C 
BRANCH  14  15
ATOM     15  C   UNL     1     -45.038 -50.246  38.377  1.00  0.00    -0.000 C 
BRANCH  15  16
ATOM     16  C   UNL     1     -45.548 -51.667  38.078  1.00  0.00    -0.000 C 
BRANCH  16  17
ATOM     17  C   UNL     1     -46.980 -51.672  37.516  1.00  0.00    -0.000 C 
BRANCH  17  18
ATOM     18  C   UNL     1     -47.720 -52.988  37.796  1.00  0.00    -0.000 C 
BRANCH  18  19
ATOM     19  C   UNL     1     -47.444 -53.478  39.223  1.00  0.00    -0.003 C 
ATOM     20  C   UNL     1     -48.451 -52.895  40.210  1.00  0.00     0.004 C 
ENDBRANCH  18  19
ENDBRANCH  17  18
ENDBRANCH  16  17
ENDBRANCH  15  16
ENDBRANCH  14  15
ENDBRANCH  13  14
ENDBRANCH  12  13
ENDBRANCH   1  12
TORSDOF 16
ENDMDL
MODEL 7
REMARK VINA RESULT:    -3.562      1.807      3.487
REMARK INTER + INTRA:          -9.658
REMARK INTER:                  -7.991
REMARK INTRA:                  -1.666
REMARK UNBOUND:                -2.763
REMARK SMILES CCCCCCCCCCCCCCCCCC(=O)[O-]
REMARK SMILES IDX 10 1 11 2 12 3 13 4 14 5 15 6 16 7 17 8 18 9 19 10 20 11
REMARK SMILES IDX 9 12 8 13 7 14 6 15 5 16 4 17 3 18 2 19 1 20
REMARK H PARENT
REMARK Flexibility Score: inf
ROOT
ATOM      1  C   UNL     1     -43.918 -49.756  35.369  1.00  0.00     0.000 C 
ENDROOT
BRANCH   1   2
ATOM      2  C   UNL     1     -44.349 -48.701  36.403  1.00  0.00     0.000 C 
BRANCH   2   3
ATOM      3  C   UNL     1     -45.810 -48.861  36.844  1.00  0.00     0.000 C 
BRANCH   3   4
ATOM      4  C   UNL     1     -45.930 -49.894  37.976  1.00  0.00     0.000 C 
BRANCH   4   5
ATOM      5  C   UNL     1     -44.735 -49.860  38.941  1.00  0.00     0.000 C 
BRANCH   5   6
ATOM      6  C   UNL     1     -45.099 -50.354  40.350  1.00  0.00     0.000 C 
BRANCH   6   7
ATOM      7  C   UNL     1     -46.589 -50.715  40.487  1.00  0.00     0.006 C 
BRANCH   7   8
ATOM      8  C   UNL     1     -46.852 -52.144  40.990  1.00  0.00     0.053 C 
BRANCH   8   9
ATOM      9  C   UNL     1     -48.002 -52.787  40.279  1.00  0.00     0.041 C 
ATOM     10  O   UNL     1     -47.999 -52.880  39.022  1.00  0.00    -0.550 OA
ATOM     11  O   UNL     1     -49.092 -53.254  41.001  1.00  0.00    -0.550 OA
ENDBRANCH   8   9
ENDBRANCH   7   8
ENDBRANCH   6   7
ENDBRANCH   5   6
ENDBRANCH   4   5
ENDBRANCH   3   4
ENDBRANCH   2   3
ENDBRANCH   1   2
BRANCH   1  12
ATOM     12  C   UNL     1     -43.094 -49.208  34.187  1.00  0.00     0.000 C 
BRANCH  12  13
ATOM     13  C   UNL     1     -42.335 -47.903  34.509  1.00  0.00    -0.000 C 
BRANCH  13  14
ATOM     14  C   UNL     1     -40.822 -48.133  34.673  1.00  0.00    -0.000 C 
BRANCH  14  15
ATOM     15  C   UNL     1     -40.283 -47.610  36.014  1.00  0.00    -0.000 C 
BRANCH  15  16
ATOM     16  C   UNL     1     -40.682 -48.509  37.199  1.00  0.00    -0.000 C 
BRANCH  16  17
ATOM     17  C   UNL     1     -41.653 -47.811  38.165  1.00  0.00    -0.000 C 
BRANCH  17  18
ATOM     18  C   UNL     1     -40.931 -47.122  39.333  1.00  0.00    -0.000 C 
BRANCH  18  19
ATOM     19  C   UNL     1     -41.863 -46.133  40.045  1.00  0.00    -0.003 C 
ATOM     20  C   UNL     1     -43.319 -46.577  39.943  1.00  0.00     0.004 C 
ENDBRANCH  18  19
ENDBRANCH  17  18
ENDBRANCH  16  17
ENDBRANCH  15  16
ENDBRANCH  14  15
ENDBRANCH  13  14
ENDBRANCH  12  13
ENDBRANCH   1  12
TORSDOF 16
ENDMDL
MODEL 8
REMARK VINA RESULT:    -3.542      1.667      4.111
REMARK INTER + INTRA:          -9.618
REMARK INTER:                  -6.967
REMARK INTRA:                  -2.651
REMARK UNBOUND:                -2.763
REMARK SMILES CCCCCCCCCCCCCCCCCC(=O)[O-]
REMARK SMILES IDX 10 1 11 2 12 3 13 4 14 5 15 6 16 7 17 8 18 9 19 10 20 11
REMARK SMILES IDX 9 12 8 13 7 14 6 15 5 16 4 17 3 18 2 19 1 20
REMARK H PARENT
REMARK Flexibility Score: inf
ROOT
ATOM      1  C   UNL     1     -39.984 -47.738  36.501  1.00  0.00     0.000 C 
ENDROOT
BRANCH   1   2
ATOM      2  C   UNL     1     -40.436 -48.536  37.737  1.00  0.00     0.000 C 
BRANCH   2   3
ATOM      3  C   UNL     1     -41.033 -47.646  38.836  1.00  0.00     0.000 C 
BRANCH   3   4
ATOM      4  C   UNL     1     -42.545 -47.466  38.633  1.00  0.00     0.000 C 
BRANCH   4   5
ATOM      5  C   UNL     1     -43.367 -47.932  39.844  1.00  0.00     0.000 C 
BRANCH   5   6
ATOM      6  C   UNL     1     -43.236 -49.442  40.100  1.00  0.00     0.000 C 
BRANCH   6   7
ATOM      7  C   UNL     1     -44.509 -50.054  40.714  1.00  0.00     0.006 C 
BRANCH   7   8
ATOM      8  C   UNL     1     -45.006 -51.326  40.009  1.00  0.00     0.053 C 
BRANCH   8   9
ATOM      9  C   UNL     1     -46.499 -51.430  40.024  1.00  0.00     0.041 C 
ATOM     10  O   UNL     1     -47.191 -50.548  40.600  1.00  0.00    -0.550 OA
ATOM     11  O   UNL     1     -47.125 -52.518  39.432  1.00  0.00    -0.550 OA
ENDBRANCH   8   9
ENDBRANCH   7   8
ENDBRANCH   6   7
ENDBRANCH   5   6
ENDBRANCH   4   5
ENDBRANCH   3   4
ENDBRANCH   2   3
ENDBRANCH   1   2
BRANCH   1  12
ATOM     12  C   UNL     1     -40.266 -48.421  35.148  1.00  0.00     0.000 C 
BRANCH  12  13
ATOM     13  C   UNL     1     -41.320 -47.689  34.290  1.00  0.00    -0.000 C 
BRANCH  13  14
ATOM     14  C   UNL     1     -42.759 -48.034  34.712  1.00  0.00    -0.000 C 
BRANCH  14  15
ATOM     15  C   UNL     1     -43.174 -49.456  34.303  1.00  0.00    -0.000 C 
BRANCH  15  16
ATOM     16  C   UNL     1     -43.265 -50.412  35.507  1.00  0.00    -0.000 C 
BRANCH  16  17
ATOM     17  C   UNL     1     -44.198 -49.882  36.609  1.00  0.00    -0.000 C 
BRANCH  17  18
ATOM     18  C   UNL     1     -45.622 -50.447  36.500  1.00  0.00    -0.000 C 
BRANCH  18  19
ATOM     19  C   UNL     1     -46.653 -49.435  37.016  1.00  0.00    -0.003 C 
ATOM     20  C   UNL     1     -46.016 -48.068  37.246  1.00  0.00     0.004 C 
ENDBRANCH  18  19
ENDBRANCH  17  18
ENDBRANCH  16  17
ENDBRANCH  15  16
ENDBRANCH  14  15
ENDBRANCH  13  14
ENDBRANCH  12  13
ENDBRANCH   1  12
TORSDOF 16
ENDMDL
MODEL 9
REMARK VINA RESULT:    -3.517      3.293      7.802
REMARK INTER + INTRA:          -9.569
REMARK INTER:                  -6.958
REMARK INTRA:                  -2.611
REMARK UNBOUND:                -2.763
REMARK SMILES CCCCCCCCCCCCCCCCCC(=O)[O-]
REMARK SMILES IDX 10 1 11 2 12 3 13 4 14 5 15 6 16 7 17 8 18 9 19 10 20 11
REMARK SMILES IDX 9 12 8 13 7 14 6 15 5 16 4 17 3 18 2 19 1 20
REMARK H PARENT
REMARK Flexibility Score: inf
ROOT
ATOM      1  C   UNL     1     -47.434 -51.088  40.652  1.00  0.00     0.000 C 
ENDROOT
BRANCH   1   2
ATOM      2  C   UNL     1     -46.630 -51.715  39.499  1.00  0.00     0.000 C 
BRANCH   2   3
ATOM      3  C   UNL     1     -47.501 -52.554  38.553  1.00  0.00     0.000 C 
BRANCH   3   4
ATOM      4  C   UNL     1     -46.732 -52.907  37.271  1.00  0.00     0.000 C 
BRANCH   4   5
ATOM      5  C   UNL     1     -45.230 -53.116  37.517  1.00  0.00     0.000 C 
BRANCH   5   6
ATOM      6  C   UNL     1     -44.354 -52.323  36.533  1.00  0.00     0.000 C 
BRANCH   6   7
ATOM      7  C   UNL     1     -44.094 -50.878  36.999  1.00  0.00     0.006 C 
BRANCH   7   8
ATOM      8  C   UNL     1     -44.785 -49.803  36.145  1.00  0.00     0.053 C 
BRANCH   8   9
ATOM      9  C   UNL     1     -45.756 -48.990  36.943  1.00  0.00     0.041 C 
ATOM     10  O   UNL     1     -45.354 -48.010  37.626  1.00  0.00    -0.550 OA
ATOM     11  O   UNL     1     -47.101 -49.335  36.961  1.00  0.00    -0.550 OA
ENDBRANCH   8   9
ENDBRANCH   7   8
ENDBRANCH   6   7
ENDBRANCH   5   6
ENDBRANCH   4   5
ENDBRANCH   3   4
ENDBRANCH   2   3
ENDBRANCH   1   2
BRANCH   1  12
ATOM     12  C   UNL     1     -48.394 -52.053  41.375  1.00  0.00     0.000 C 
BRANCH  12  13
ATOM     13  C   UNL     1     -47.849 -52.582  42.720  1.00  0.00    -0.000 C 
BRANCH  13  14
ATOM     14  C   UNL     1     -47.237 -53.988  42.589  1.00  0.00    -0.000 C 
BRANCH  14  15
ATOM     15  C   UNL     1     -45.724 -53.956  42.317  1.00  0.00    -0.000 C 
BRANCH  15  16
ATOM     16  C   UNL     1     -45.336 -54.745  41.054  1.00  0.00    -0.000 C 
BRANCH  16  17
ATOM     17  C   UNL     1     -46.397 -55.788  40.663  1.00  0.00    -0.000 C 
BRANCH  17  18
ATOM     18  C   UNL     1     -46.264 -56.248  39.204  1.00  0.00    -0.000 C 
BRANCH  18  19
ATOM     19  C   UNL     1     -47.641 -56.355  38.537  1.00  0.00    -0.003 C 
ATOM     20  C   UNL     1     -47.933 -57.788  38.103  1.00  0.00     0.004 C 
ENDBRANCH  18  19
ENDBRANCH  17  18
ENDBRANCH  16  17
ENDBRANCH  15  16
ENDBRANCH  14  15
ENDBRANCH  13  14
ENDBRANCH  12  13
ENDBRANCH   1  12
TORSDOF 16
ENDMDL
