MODEL 1
REMARK VINA RESULT:    -1.279      0.000      0.000
REMARK INTER + INTRA:          -4.498
REMARK INTER:                  -3.222
REMARK INTRA:                  -1.276
REMARK UNBOUND:                -1.276
REMARK SMILES CCCCCCCCCCCCCCCCCCCCCCCCCCCC(=O)[O-]
REMARK SMILES IDX 15 1 16 2 17 3 18 4 19 5 20 6 21 7 22 8 23 9 24 10 25 11
REMARK SMILES IDX 26 12 27 13 28 14 29 15 30 16 14 17 13 18 12 19 11 20 10 21
REMARK SMILES IDX 9 22 8 23 7 24 6 25 5 26 4 27 3 28 2 29 1 30
REMARK H PARENT
REMARK Flexibility Score: inf
ROOT
ATOM      1  C   UNL     1       4.032   5.736  51.065  1.00  0.00     0.000 C 
ENDROOT
BRANCH   1   2
ATOM      2  C   UNL     1       5.355   5.099  50.617  1.00  0.00     0.000 C 
BRANCH   2   3
ATOM      3  C   UNL     1       5.254   3.574  50.436  1.00  0.00     0.000 C 
BRANCH   3   4
ATOM      4  C   UNL     1       6.511   2.808  50.901  1.00  0.00     0.000 C 
BRANCH   4   5
ATOM      5  C   UNL     1       7.742   3.726  51.007  1.00  0.00     0.000 C 
BRANCH   5   6
ATOM      6  C   UNL     1       9.056   2.944  51.157  1.00  0.00     0.000 C 
BRANCH   6   7
ATOM      7  C   UNL     1      10.213   3.578  50.372  1.00  0.00     0.000 C 
BRANCH   7   8
ATOM      8  C   UNL     1      11.468   3.714  51.248  1.00  0.00     0.000 C 
BRANCH   8   9
ATOM      9  C   UNL     1      11.135   4.227  52.665  1.00  0.00     0.000 C 
BRANCH   9  10
ATOM     10  C   UNL     1      10.868   5.740  52.726  1.00  0.00     0.000 C 
BRANCH  10  11
ATOM     11  C   UNL     1       9.458   6.080  53.237  1.00  0.00     0.000 C 
BRANCH  11  12
ATOM     12  C   UNL     1       8.863   4.968  54.116  1.00  0.00     0.006 C 
BRANCH  12  13
ATOM     13  C   UNL     1       8.145   5.514  55.359  1.00  0.00     0.053 C 
BRANCH  13  14
ATOM     14  C   UNL     1       7.093   4.561  55.836  1.00  0.00     0.041 C 
ATOM     15  O   UNL     1       7.078   4.180  57.036  1.00  0.00    -0.550 OA
ATOM     16  O   UNL     1       6.156   4.055  54.943  1.00  0.00    -0.550 OA
ENDBRANCH  13  14
ENDBRANCH  12  13
ENDBRANCH  11  12
ENDBRANCH  10  11
ENDBRANCH   9  10
ENDBRANCH   8   9
ENDBRANCH   7   8
ENDBRANCH   6   7
ENDBRANCH   5   6
ENDBRANCH   4   5
ENDBRANCH   3   4
ENDBRANCH   2   3
ENDBRANCH   1   2
BRANCH   1  17
ATOM     17  C   UNL     1       3.561   6.795  50.061  1.00  0.00     0.000 C 
BRANCH  17  18
ATOM     18  C   UNL     1       2.038   6.737  49.878  1.00  0.00     0.000 C 
BRANCH  18  19
ATOM     19  C   UNL     1       1.396   5.559  50.627  1.00  0.00     0.000 C 
BRANCH  19  20
ATOM     20  C   UNL     1      -0.047   5.282  50.167  1.00  0.00     0.000 C 
BRANCH  20  21
ATOM     21  C   UNL     1      -1.085   6.100  50.949  1.00  0.00     0.000 C 
BRANCH  21  22
ATOM     22  C   UNL     1      -2.365   6.360  50.140  1.00  0.00    -0.000 C 
BRANCH  22  23
ATOM     23  C   UNL     1      -3.602   5.843  50.889  1.00  0.00    -0.000 C 
BRANCH  23  24
ATOM     24  C   UNL     1      -4.909   6.490  50.396  1.00  0.00    -0.000 C 
BRANCH  24  25
ATOM     25  C   UNL     1      -6.048   5.501  50.076  1.00  0.00    -0.000 C 
BRANCH  25  26
ATOM     26  C   UNL     1      -5.791   4.050  50.519  1.00  0.00    -0.000 C 
BRANCH  26  27
ATOM     27  C   UNL     1      -4.525   3.449  49.883  1.00  0.00    -0.000 C 
BRANCH  27  28
ATOM     28  C   UNL     1      -3.960   2.269  50.688  1.00  0.00    -0.000 C 
BRANCH  28  29
ATOM     29  C   UNL     1      -3.345   2.707  52.024  1.00  0.00    -0.003 C 
ATOM     30  C   UNL     1      -2.106   1.880  52.357  1.00  0.00     0.004 C 
ENDBRANCH  28  29
ENDBRANCH  27  28
ENDBRANCH  26  27
ENDBRANCH  25  26
ENDBRANCH  24  25
ENDBRANCH  23  24
ENDBRANCH  22  23
ENDBRANCH  21  22
ENDBRANCH  20  21
ENDBRANCH  19  20
ENDBRANCH  18  19
ENDBRANCH  17  18
ENDBRANCH   1  17
TORSDOF 26
ENDMDL
MODEL 2
REMARK VINA RESULT:    -1.074     18.247     23.476
REMARK INTER + INTRA:          -3.981
REMARK INTER:                  -2.402
REMARK INTRA:                  -1.579
REMARK UNBOUND:                -1.276
REMARK SMILES CCCCCCCCCCCCCCCCCCCCCCCCCCCC(=O)[O-]
REMARK SMILES IDX 15 1 16 2 17 3 18 4 19 5 20 6 21 7 22 8 23 9 24 10 25 11
REMARK SMILES IDX 26 12 27 13 28 14 29 15 30 16 14 17 13 18 12 19 11 20 10 21
REMARK SMILES IDX 9 22 8 23 7 24 6 25 5 26 4 27 3 28 2 29 1 30
REMARK H PARENT
REMARK Flexibility Score: inf
ROOT
ATOM      1  C   UNL     1       5.166  15.329  67.501  1.00  0.00     0.000 C 
ENDROOT
BRANCH   1   2
ATOM      2  C   UNL     1       3.798  15.116  68.166  1.00  0.00     0.000 C 
BRANCH   2   3
ATOM      3  C   UNL     1       2.688  15.980  67.541  1.00  0.00     0.000 C 
BRANCH   3   4
ATOM      4  C   UNL     1       1.920  16.842  68.566  1.00  0.00     0.000 C 
BRANCH   4   5
ATOM      5  C   UNL     1       0.481  17.139  68.110  1.00  0.00     0.000 C 
BRANCH   5   6
ATOM      6  C   UNL     1       0.070  16.330  66.870  1.00  0.00     0.000 C 
BRANCH   6   7
ATOM      7  C   UNL     1      -1.332  16.698  66.363  1.00  0.00     0.000 C 
BRANCH   7   8
ATOM      8  C   UNL     1      -1.985  15.514  65.633  1.00  0.00     0.000 C 
BRANCH   8   9
ATOM      9  C   UNL     1      -3.026  15.976  64.591  1.00  0.00     0.000 C 
BRANCH   9  10
ATOM     10  C   UNL     1      -3.965  14.853  64.118  1.00  0.00     0.000 C 
BRANCH  10  11
ATOM     11  C   UNL     1      -5.378  15.357  63.780  1.00  0.00     0.000 C 
BRANCH  11  12
ATOM     12  C   UNL     1      -5.364  16.541  62.799  1.00  0.00     0.006 C 
BRANCH  12  13
ATOM     13  C   UNL     1      -5.555  16.103  61.339  1.00  0.00     0.053 C 
BRANCH  13  14
ATOM     14  C   UNL     1      -4.261  16.155  60.587  1.00  0.00     0.041 C 
ATOM     15  O   UNL     1      -3.201  16.505  61.169  1.00  0.00    -0.550 OA
ATOM     16  O   UNL     1      -4.234  15.865  59.228  1.00  0.00    -0.550 OA
ENDBRANCH  13  14
ENDBRANCH  12  13
ENDBRANCH  11  12
ENDBRANCH  10  11
ENDBRANCH   9  10
ENDBRANCH   8   9
ENDBRANCH   7   8
ENDBRANCH   6   7
ENDBRANCH   5   6
ENDBRANCH   4   5
ENDBRANCH   3   4
ENDBRANCH   2   3
ENDBRANCH   1   2
BRANCH   1  17
ATOM     17  C   UNL     1       5.985  16.387  68.250  1.00  0.00     0.000 C 
BRANCH  17  18
ATOM     18  C   UNL     1       5.506  16.523  69.703  1.00  0.00     0.000 C 
BRANCH  18  19
ATOM     19  C   UNL     1       5.070  17.955  70.051  1.00  0.00     0.000 C 
BRANCH  19  20
ATOM     20  C   UNL     1       6.103  19.009  69.616  1.00  0.00     0.000 C 
BRANCH  20  21
ATOM     21  C   UNL     1       5.579  19.927  68.501  1.00  0.00     0.000 C 
BRANCH  21  22
ATOM     22  C   UNL     1       5.907  21.407  68.751  1.00  0.00    -0.000 C 
BRANCH  22  23
ATOM     23  C   UNL     1       7.344  21.731  68.316  1.00  0.00    -0.000 C 
BRANCH  23  24
ATOM     24  C   UNL     1       8.254  22.103  69.500  1.00  0.00    -0.000 C 
BRANCH  24  25
ATOM     25  C   UNL     1       9.460  21.167  69.717  1.00  0.00    -0.000 C 
BRANCH  25  26
ATOM     26  C   UNL     1      10.780  21.652  69.091  1.00  0.00    -0.000 C 
BRANCH  26  27
ATOM     27  C   UNL     1      10.702  21.773  67.559  1.00  0.00    -0.000 C 
BRANCH  27  28
ATOM     28  C   UNL     1      12.010  21.363  66.866  1.00  0.00    -0.000 C 
BRANCH  28  29
ATOM     29  C   UNL     1      11.830  21.126  65.360  1.00  0.00    -0.003 C 
ATOM     30  C   UNL     1      12.967  20.278  64.795  1.00  0.00     0.004 C 
ENDBRANCH  28  29
ENDBRANCH  27  28
ENDBRANCH  26  27
ENDBRANCH  25  26
ENDBRANCH  24  25
ENDBRANCH  23  24
ENDBRANCH  22  23
ENDBRANCH  21  22
ENDBRANCH  20  21
ENDBRANCH  19  20
ENDBRANCH  18  19
ENDBRANCH  17  18
ENDBRANCH   1  17
TORSDOF 26
ENDMDL
MODEL 3
REMARK VINA RESULT:     0.003     17.632     22.562
REMARK INTER + INTRA:          -1.268
REMARK INTER:                   0.466
REMARK INTRA:                  -1.734
REMARK UNBOUND:                -1.276
REMARK SMILES CCCCCCCCCCCCCCCCCCCCCCCCCCCC(=O)[O-]
REMARK SMILES IDX 15 1 16 2 17 3 18 4 19 5 20 6 21 7 22 8 23 9 24 10 25 11
REMARK SMILES IDX 26 12 27 13 28 14 29 15 30 16 14 17 13 18 12 19 11 20 10 21
REMARK SMILES IDX 9 22 8 23 7 24 6 25 5 26 4 27 3 28 2 29 1 30
REMARK H PARENT
REMARK Flexibility Score: inf
ROOT
ATOM      1  C   UNL     1       4.782  19.775  67.372  1.00  0.00     0.000 C 
ENDROOT
BRANCH   1   2
ATOM      2  C   UNL     1       3.746  19.071  68.259  1.00  0.00     0.000 C 
BRANCH   2   3
ATOM      3  C   UNL     1       3.905  17.540  68.268  1.00  0.00     0.000 C 
BRANCH   3   4
ATOM      4  C   UNL     1       5.349  17.067  68.539  1.00  0.00     0.000 C 
BRANCH   4   5
ATOM      5  C   UNL     1       5.923  16.255  67.364  1.00  0.00     0.000 C 
BRANCH   5   6
ATOM      6  C   UNL     1       7.315  15.678  67.663  1.00  0.00     0.000 C 
BRANCH   6   7
ATOM      7  C   UNL     1       8.215  15.634  66.420  1.00  0.00     0.000 C 
BRANCH   7   8
ATOM      8  C   UNL     1       9.560  14.961  66.734  1.00  0.00     0.000 C 
BRANCH   8   9
ATOM      9  C   UNL     1      10.403  14.725  65.462  1.00  0.00     0.000 C 
BRANCH   9  10
ATOM     10  C   UNL     1      11.682  13.909  65.713  1.00  0.00     0.000 C 
BRANCH  10  11
ATOM     11  C   UNL     1      11.879  12.775  64.693  1.00  0.00     0.000 C 
BRANCH  11  12
ATOM     12  C   UNL     1      13.359  12.412  64.490  1.00  0.00     0.006 C 
BRANCH  12  13
ATOM     13  C   UNL     1      13.676  10.965  64.896  1.00  0.00     0.053 C 
BRANCH  13  14
ATOM     14  C   UNL     1      12.751  10.001  64.221  1.00  0.00     0.041 C 
ATOM     15  O   UNL     1      12.683   9.958  62.965  1.00  0.00    -0.550 OA
ATOM     16  O   UNL     1      11.924   9.182  64.982  1.00  0.00    -0.550 OA
ENDBRANCH  13  14
ENDBRANCH  12  13
ENDBRANCH  11  12
ENDBRANCH  10  11
ENDBRANCH   9  10
ENDBRANCH   8   9
ENDBRANCH   7   8
ENDBRANCH   6   7
ENDBRANCH   5   6
ENDBRANCH   4   5
ENDBRANCH   3   4
ENDBRANCH   2   3
ENDBRANCH   1   2
BRANCH   1  17
ATOM     17  C   UNL     1       4.811  21.283  67.647  1.00  0.00     0.000 C 
BRANCH  17  18
ATOM     18  C   UNL     1       4.459  21.579  69.112  1.00  0.00     0.000 C 
BRANCH  18  19
ATOM     19  C   UNL     1       5.645  21.354  70.063  1.00  0.00     0.000 C 
BRANCH  19  20
ATOM     20  C   UNL     1       6.910  22.108  69.617  1.00  0.00     0.000 C 
BRANCH  20  21
ATOM     21  C   UNL     1       7.938  21.191  68.935  1.00  0.00     0.000 C 
BRANCH  21  22
ATOM     22  C   UNL     1       9.125  20.853  69.849  1.00  0.00    -0.000 C 
BRANCH  22  23
ATOM     23  C   UNL     1      10.308  21.795  69.583  1.00  0.00    -0.000 C 
BRANCH  23  24
ATOM     24  C   UNL     1      11.622  21.038  69.316  1.00  0.00    -0.000 C 
BRANCH  24  25
ATOM     25  C   UNL     1      12.236  21.265  67.920  1.00  0.00    -0.000 C 
BRANCH  25  26
ATOM     26  C   UNL     1      11.261  21.813  66.863  1.00  0.00    -0.000 C 
BRANCH  26  27
ATOM     27  C   UNL     1      11.616  21.362  65.436  1.00  0.00    -0.000 C 
BRANCH  27  28
ATOM     28  C   UNL     1      12.844  20.439  65.394  1.00  0.00    -0.000 C 
BRANCH  28  29
ATOM     29  C   UNL     1      12.915  19.611  64.103  1.00  0.00    -0.003 C 
ATOM     30  C   UNL     1      11.758  18.618  64.022  1.00  0.00     0.004 C 
ENDBRANCH  28  29
ENDBRANCH  27  28
ENDBRANCH  26  27
ENDBRANCH  25  26
ENDBRANCH  24  25
ENDBRANCH  23  24
ENDBRANCH  22  23
ENDBRANCH  21  22
ENDBRANCH  20  21
ENDBRANCH  19  20
ENDBRANCH  18  19
ENDBRANCH  17  18
ENDBRANCH   1  17
TORSDOF 26
ENDMDL
MODEL 4
REMARK VINA RESULT:     0.111     18.188     22.496
REMARK INTER + INTRA:          -0.996
REMARK INTER:                   2.057
REMARK INTRA:                  -3.053
REMARK UNBOUND:                -1.276
REMARK SMILES CCCCCCCCCCCCCCCCCCCCCCCCCCCC(=O)[O-]
REMARK SMILES IDX 15 1 16 2 17 3 18 4 19 5 20 6 21 7 22 8 23 9 24 10 25 11
REMARK SMILES IDX 26 12 27 13 28 14 29 15 30 16 14 17 13 18 12 19 11 20 10 21
REMARK SMILES IDX 9 22 8 23 7 24 6 25 5 26 4 27 3 28 2 29 1 30
REMARK H PARENT
REMARK Flexibility Score: inf
ROOT
ATOM      1  C   UNL     1       1.729  18.617  70.125  1.00  0.00     0.000 C 
ENDROOT
BRANCH   1   2
ATOM      2  C   UNL     1       1.891  18.027  68.716  1.00  0.00     0.000 C 
BRANCH   2   3
ATOM      3  C   UNL     1       0.922  16.864  68.439  1.00  0.00     0.000 C 
BRANCH   3   4
ATOM      4  C   UNL     1       0.707  16.578  66.938  1.00  0.00     0.000 C 
BRANCH   4   5
ATOM      5  C   UNL     1      -0.515  15.676  66.689  1.00  0.00     0.000 C 
BRANCH   5   6
ATOM      6  C   UNL     1      -1.555  16.326  65.763  1.00  0.00     0.000 C 
BRANCH   6   7
ATOM      7  C   UNL     1      -2.045  15.372  64.664  1.00  0.00     0.000 C 
BRANCH   7   8
ATOM      8  C   UNL     1      -3.131  14.424  65.197  1.00  0.00     0.000 C 
BRANCH   8   9
ATOM      9  C   UNL     1      -4.453  14.555  64.410  1.00  0.00     0.000 C 
BRANCH   9  10
ATOM     10  C   UNL     1      -4.738  15.983  63.916  1.00  0.00     0.000 C 
BRANCH  10  11
ATOM     11  C   UNL     1      -6.038  16.087  63.101  1.00  0.00     0.000 C 
BRANCH  11  12
ATOM     12  C   UNL     1      -5.785  16.115  61.585  1.00  0.00     0.006 C 
BRANCH  12  13
ATOM     13  C   UNL     1      -4.793  17.212  61.169  1.00  0.00     0.053 C 
BRANCH  13  14
ATOM     14  C   UNL     1      -3.850  16.716  60.118  1.00  0.00     0.041 C 
ATOM     15  O   UNL     1      -4.185  15.769  59.358  1.00  0.00    -0.550 OA
ATOM     16  O   UNL     1      -2.579  17.268  60.007  1.00  0.00    -0.550 OA
ENDBRANCH  13  14
ENDBRANCH  12  13
ENDBRANCH  11  12
ENDBRANCH  10  11
ENDBRANCH   9  10
ENDBRANCH   8   9
ENDBRANCH   7   8
ENDBRANCH   6   7
ENDBRANCH   5   6
ENDBRANCH   4   5
ENDBRANCH   3   4
ENDBRANCH   2   3
ENDBRANCH   1   2
BRANCH   1  17
ATOM     17  C   UNL     1       0.727  19.777  70.125  1.00  0.00     0.000 C 
BRANCH  17  18
ATOM     18  C   UNL     1       1.097  20.820  69.060  1.00  0.00     0.000 C 
BRANCH  18  19
ATOM     19  C   UNL     1       1.987  21.943  69.615  1.00  0.00     0.000 C 
BRANCH  19  20
ATOM     20  C   UNL     1       3.483  21.585  69.573  1.00  0.00     0.000 C 
BRANCH  20  21
ATOM     21  C   UNL     1       4.039  21.524  68.142  1.00  0.00     0.000 C 
BRANCH  21  22
ATOM     22  C   UNL     1       4.889  20.270  67.891  1.00  0.00    -0.000 C 
BRANCH  22  23
ATOM     23  C   UNL     1       6.228  20.357  68.638  1.00  0.00    -0.000 C 
BRANCH  23  24
ATOM     24  C   UNL     1       6.506  19.116  69.505  1.00  0.00    -0.000 C 
BRANCH  24  25
ATOM     25  C   UNL     1       5.359  18.088  69.563  1.00  0.00    -0.000 C 
BRANCH  25  26
ATOM     26  C   UNL     1       5.806  16.618  69.647  1.00  0.00    -0.000 C 
BRANCH  26  27
ATOM     27  C   UNL     1       4.744  15.641  69.113  1.00  0.00    -0.000 C 
BRANCH  27  28
ATOM     28  C   UNL     1       5.020  15.197  67.669  1.00  0.00    -0.000 C 
BRANCH  28  29
ATOM     29  C   UNL     1       4.006  15.776  66.671  1.00  0.00    -0.003 C 
ATOM     30  C   UNL     1       4.443  17.152  66.177  1.00  0.00     0.004 C 
ENDBRANCH  28  29
ENDBRANCH  27  28
ENDBRANCH  26  27
ENDBRANCH  25  26
ENDBRANCH  24  25
ENDBRANCH  23  24
ENDBRANCH  22  23
ENDBRANCH  21  22
ENDBRANCH  20  21
ENDBRANCH  19  20
ENDBRANCH  18  19
ENDBRANCH  17  18
ENDBRANCH   1  17
TORSDOF 26
ENDMDL
MODEL 5
REMARK VINA RESULT:     0.254      2.727      3.650
REMARK INTER + INTRA:          -0.634
REMARK INTER:                   0.119
REMARK INTRA:                  -0.753
REMARK UNBOUND:                -1.276
REMARK SMILES CCCCCCCCCCCCCCCCCCCCCCCCCCCC(=O)[O-]
REMARK SMILES IDX 15 1 16 2 17 3 18 4 19 5 20 6 21 7 22 8 23 9 24 10 25 11
REMARK SMILES IDX 26 12 27 13 28 14 29 15 30 16 14 17 13 18 12 19 11 20 10 21
REMARK SMILES IDX 9 22 8 23 7 24 6 25 5 26 4 27 3 28 2 29 1 30
REMARK H PARENT
REMARK Flexibility Score: inf
ROOT
ATOM      1  C   UNL     1       4.366   6.635  51.299  1.00  0.00     0.000 C 
ENDROOT
BRANCH   1   2
ATOM      2  C   UNL     1       5.803   6.128  51.106  1.00  0.00     0.000 C 
BRANCH   2   3
ATOM      3  C   UNL     1       5.947   5.178  49.904  1.00  0.00     0.000 C 
BRANCH   3   4
ATOM      4  C   UNL     1       6.793   3.922  50.202  1.00  0.00     0.000 C 
BRANCH   4   5
ATOM      5  C   UNL     1       7.544   4.034  51.541  1.00  0.00     0.000 C 
BRANCH   5   6
ATOM      6  C   UNL     1       8.287   2.743  51.917  1.00  0.00     0.000 C 
BRANCH   6   7
ATOM      7  C   UNL     1       8.658   1.897  50.690  1.00  0.00     0.000 C 
BRANCH   7   8
ATOM      8  C   UNL     1      10.179   1.876  50.472  1.00  0.00     0.000 C 
BRANCH   8   9
ATOM      9  C   UNL     1      10.958   2.131  51.779  1.00  0.00     0.000 C 
BRANCH   9  10
ATOM     10  C   UNL     1      11.867   3.370  51.724  1.00  0.00     0.000 C 
BRANCH  10  11
ATOM     11  C   UNL     1      11.120   4.676  52.043  1.00  0.00     0.000 C 
BRANCH  11  12
ATOM     12  C   UNL     1      11.169   5.684  50.883  1.00  0.00     0.006 C 
BRANCH  12  13
ATOM     13  C   UNL     1      12.582   5.848  50.301  1.00  0.00     0.053 C 
BRANCH  13  14
ATOM     14  C   UNL     1      13.166   7.176  50.671  1.00  0.00     0.041 C 
ATOM     15  O   UNL     1      14.039   7.713  49.940  1.00  0.00    -0.550 OA
ATOM     16  O   UNL     1      12.782   7.800  51.852  1.00  0.00    -0.550 OA
ENDBRANCH  13  14
ENDBRANCH  12  13
ENDBRANCH  11  12
ENDBRANCH  10  11
ENDBRANCH   9  10
ENDBRANCH   8   9
ENDBRANCH   7   8
ENDBRANCH   6   7
ENDBRANCH   5   6
ENDBRANCH   4   5
ENDBRANCH   3   4
ENDBRANCH   2   3
ENDBRANCH   1   2
BRANCH   1  17
ATOM     17  C   UNL     1       3.787   7.165  49.982  1.00  0.00     0.000 C 
BRANCH  17  18
ATOM     18  C   UNL     1       2.258   7.285  50.065  1.00  0.00     0.000 C 
BRANCH  18  19
ATOM     19  C   UNL     1       1.638   6.279  51.048  1.00  0.00     0.000 C 
BRANCH  19  20
ATOM     20  C   UNL     1       0.464   5.499  50.432  1.00  0.00     0.000 C 
BRANCH  20  21
ATOM     21  C   UNL     1      -0.633   6.421  49.875  1.00  0.00     0.000 C 
BRANCH  21  22
ATOM     22  C   UNL     1      -2.021   5.762  49.888  1.00  0.00    -0.000 C 
BRANCH  22  23
ATOM     23  C   UNL     1      -2.841   6.234  51.097  1.00  0.00    -0.000 C 
BRANCH  23  24
ATOM     24  C   UNL     1      -3.266   7.710  50.987  1.00  0.00    -0.000 C 
BRANCH  24  25
ATOM     25  C   UNL     1      -4.688   7.941  50.437  1.00  0.00    -0.000 C 
BRANCH  25  26
ATOM     26  C   UNL     1      -5.489   6.659  50.148  1.00  0.00    -0.000 C 
BRANCH  26  27
ATOM     27  C   UNL     1      -5.250   5.559  51.197  1.00  0.00    -0.000 C 
BRANCH  27  28
ATOM     28  C   UNL     1      -5.926   4.230  50.827  1.00  0.00    -0.000 C 
BRANCH  28  29
ATOM     29  C   UNL     1      -5.700   3.139  51.883  1.00  0.00    -0.003 C 
ATOM     30  C   UNL     1      -4.258   2.638  51.858  1.00  0.00     0.004 C 
ENDBRANCH  28  29
ENDBRANCH  27  28
ENDBRANCH  26  27
ENDBRANCH  25  26
ENDBRANCH  24  25
ENDBRANCH  23  24
ENDBRANCH  22  23
ENDBRANCH  21  22
ENDBRANCH  20  21
ENDBRANCH  19  20
ENDBRANCH  18  19
ENDBRANCH  17  18
ENDBRANCH   1  17
TORSDOF 26
ENDMDL
MODEL 6
REMARK VINA RESULT:     0.262      3.792     11.659
REMARK INTER + INTRA:          -0.615
REMARK INTER:                  -4.404
REMARK INTRA:                   3.789
REMARK UNBOUND:                -1.276
REMARK SMILES CCCCCCCCCCCCCCCCCCCCCCCCCCCC(=O)[O-]
REMARK SMILES IDX 15 1 16 2 17 3 18 4 19 5 20 6 21 7 22 8 23 9 24 10 25 11
REMARK SMILES IDX 26 12 27 13 28 14 29 15 30 16 14 17 13 18 12 19 11 20 10 21
REMARK SMILES IDX 9 22 8 23 7 24 6 25 5 26 4 27 3 28 2 29 1 30
REMARK H PARENT
REMARK Flexibility Score: inf
ROOT
ATOM      1  C   UNL     1       5.855   4.720  53.639  1.00  0.00     0.000 C 
ENDROOT
BRANCH   1   2
ATOM      2  C   UNL     1       5.326   5.562  52.470  1.00  0.00     0.000 C 
BRANCH   2   3
ATOM      3  C   UNL     1       5.194   4.758  51.164  1.00  0.00     0.000 C 
BRANCH   3   4
ATOM      4  C   UNL     1       4.222   3.563  51.266  1.00  0.00     0.000 C 
BRANCH   4   5
ATOM      5  C   UNL     1       2.750   4.012  51.266  1.00  0.00     0.000 C 
BRANCH   5   6
ATOM      6  C   UNL     1       2.102   3.929  49.876  1.00  0.00     0.000 C 
BRANCH   6   7
ATOM      7  C   UNL     1       0.580   4.126  49.921  1.00  0.00     0.000 C 
BRANCH   7   8
ATOM      8  C   UNL     1       0.219   5.538  50.408  1.00  0.00     0.000 C 
BRANCH   8   9
ATOM      9  C   UNL     1      -1.153   6.004  49.876  1.00  0.00     0.000 C 
BRANCH   9  10
ATOM     10  C   UNL     1      -2.330   5.146  50.371  1.00  0.00     0.000 C 
BRANCH  10  11
ATOM     11  C   UNL     1      -1.915   3.709  50.729  1.00  0.00     0.000 C 
BRANCH  11  12
ATOM     12  C   UNL     1      -3.119   2.760  50.851  1.00  0.00     0.006 C 
BRANCH  12  13
ATOM     13  C   UNL     1      -4.317   3.210  50.002  1.00  0.00     0.053 C 
BRANCH  13  14
ATOM     14  C   UNL     1      -5.369   3.852  50.852  1.00  0.00     0.041 C 
ATOM     15  O   UNL     1      -5.545   5.099  50.814  1.00  0.00    -0.550 OA
ATOM     16  O   UNL     1      -6.125   3.079  51.725  1.00  0.00    -0.550 OA
ENDBRANCH  13  14
ENDBRANCH  12  13
ENDBRANCH  11  12
ENDBRANCH  10  11
ENDBRANCH   9  10
ENDBRANCH   8   9
ENDBRANCH   7   8
ENDBRANCH   6   7
ENDBRANCH   5   6
ENDBRANCH   4   5
ENDBRANCH   3   4
ENDBRANCH   2   3
ENDBRANCH   1   2
BRANCH   1  17
ATOM     17  C   UNL     1       7.094   3.916  53.224  1.00  0.00     0.000 C 
BRANCH  17  18
ATOM     18  C   UNL     1       8.142   4.826  52.567  1.00  0.00     0.000 C 
BRANCH  18  19
ATOM     19  C   UNL     1       7.837   5.109  51.088  1.00  0.00     0.000 C 
BRANCH  19  20
ATOM     20  C   UNL     1       8.732   6.215  50.502  1.00  0.00     0.000 C 
BRANCH  20  21
ATOM     21  C   UNL     1      10.025   5.664  49.882  1.00  0.00     0.000 C 
BRANCH  21  22
ATOM     22  C   UNL     1      11.246   5.857  50.794  1.00  0.00    -0.000 C 
BRANCH  22  23
ATOM     23  C   UNL     1      11.128   7.158  51.601  1.00  0.00    -0.000 C 
BRANCH  23  24
ATOM     24  C   UNL     1      11.138   6.918  53.121  1.00  0.00    -0.000 C 
BRANCH  24  25
ATOM     25  C   UNL     1      11.088   5.438  53.550  1.00  0.00    -0.000 C 
BRANCH  25  26
ATOM     26  C   UNL     1      11.291   4.424  52.409  1.00  0.00    -0.000 C 
BRANCH  26  27
ATOM     27  C   UNL     1      10.548   3.099  52.653  1.00  0.00    -0.000 C 
BRANCH  27  28
ATOM     28  C   UNL     1      11.058   1.961  51.756  1.00  0.00    -0.000 C 
BRANCH  28  29
ATOM     29  C   UNL     1      10.556   2.079  50.310  1.00  0.00    -0.003 C 
ATOM     30  C   UNL     1       9.034   1.984  50.246  1.00  0.00     0.004 C 
ENDBRANCH  28  29
ENDBRANCH  27  28
ENDBRANCH  26  27
ENDBRANCH  25  26
ENDBRANCH  24  25
ENDBRANCH  23  24
ENDBRANCH  22  23
ENDBRANCH  21  22
ENDBRANCH  20  21
ENDBRANCH  19  20
ENDBRANCH  18  19
ENDBRANCH  17  18
ENDBRANCH   1  17
TORSDOF 26
ENDMDL
MODEL 7
REMARK VINA RESULT:     0.332     18.462     20.881
REMARK INTER + INTRA:          -0.439
REMARK INTER:                   0.758
REMARK INTRA:                  -1.197
REMARK UNBOUND:                -1.276
REMARK SMILES CCCCCCCCCCCCCCCCCCCCCCCCCCCC(=O)[O-]
REMARK SMILES IDX 15 1 16 2 17 3 18 4 19 5 20 6 21 7 22 8 23 9 24 10 25 11
REMARK SMILES IDX 26 12 27 13 28 14 29 15 30 16 14 17 13 18 12 19 11 20 10 21
REMARK SMILES IDX 9 22 8 23 7 24 6 25 5 26 4 27 3 28 2 29 1 30
REMARK H PARENT
REMARK Flexibility Score: inf
ROOT
ATOM      1  C   UNL     1       3.896  18.858  68.937  1.00  0.00     0.000 C 
ENDROOT
BRANCH   1   2
ATOM      2  C   UNL     1       3.769  20.246  68.294  1.00  0.00     0.000 C 
BRANCH   2   3
ATOM      3  C   UNL     1       5.099  20.763  67.716  1.00  0.00     0.000 C 
BRANCH   3   4
ATOM      4  C   UNL     1       6.167  21.064  68.788  1.00  0.00     0.000 C 
BRANCH   4   5
ATOM      5  C   UNL     1       7.302  21.949  68.243  1.00  0.00     0.000 C 
BRANCH   5   6
ATOM      6  C   UNL     1       8.695  21.463  68.671  1.00  0.00     0.000 C 
BRANCH   6   7
ATOM      7  C   UNL     1       9.816  22.034  67.791  1.00  0.00     0.000 C 
BRANCH   7   8
ATOM      8  C   UNL     1      11.199  21.707  68.375  1.00  0.00     0.000 C 
BRANCH   8   9
ATOM      9  C   UNL     1      12.293  21.658  67.287  1.00  0.00     0.000 C 
BRANCH   9  10
ATOM     10  C   UNL     1      11.823  21.018  65.970  1.00  0.00     0.000 C 
BRANCH  10  11
ATOM     11  C   UNL     1      12.934  20.947  64.909  1.00  0.00     0.000 C 
BRANCH  11  12
ATOM     12  C   UNL     1      12.998  19.578  64.211  1.00  0.00     0.006 C 
BRANCH  12  13
ATOM     13  C   UNL     1      11.650  18.842  64.225  1.00  0.00     0.053 C 
BRANCH  13  14
ATOM     14  C   UNL     1      11.691  17.624  63.354  1.00  0.00     0.041 C 
ATOM     15  O   UNL     1      11.798  16.479  63.866  1.00  0.00    -0.550 OA
ATOM     16  O   UNL     1      11.662  17.758  61.971  1.00  0.00    -0.550 OA
ENDBRANCH  13  14
ENDBRANCH  12  13
ENDBRANCH  11  12
ENDBRANCH  10  11
ENDBRANCH   9  10
ENDBRANCH   8   9
ENDBRANCH   7   8
ENDBRANCH   6   7
ENDBRANCH   5   6
ENDBRANCH   4   5
ENDBRANCH   3   4
ENDBRANCH   2   3
ENDBRANCH   1   2
BRANCH   1  17
ATOM     17  C   UNL     1       3.026  17.829  68.206  1.00  0.00     0.000 C 
BRANCH  17  18
ATOM     18  C   UNL     1       2.769  16.601  69.091  1.00  0.00     0.000 C 
BRANCH  18  19
ATOM     19  C   UNL     1       1.579  16.796  70.043  1.00  0.00     0.000 C 
BRANCH  19  20
ATOM     20  C   UNL     1       0.792  18.085  69.748  1.00  0.00     0.000 C 
BRANCH  20  21
ATOM     21  C   UNL     1      -0.713  17.833  69.570  1.00  0.00     0.000 C 
BRANCH  21  22
ATOM     22  C   UNL     1      -1.178  18.028  68.119  1.00  0.00    -0.000 C 
BRANCH  22  23
ATOM     23  C   UNL     1      -0.795  16.819  67.254  1.00  0.00    -0.000 C 
BRANCH  23  24
ATOM     24  C   UNL     1      -1.687  16.674  66.007  1.00  0.00    -0.000 C 
BRANCH  24  25
ATOM     25  C   UNL     1      -1.917  15.225  65.534  1.00  0.00    -0.000 C 
BRANCH  25  26
ATOM     26  C   UNL     1      -3.230  14.993  64.765  1.00  0.00    -0.000 C 
BRANCH  26  27
ATOM     27  C   UNL     1      -3.500  16.077  63.708  1.00  0.00    -0.000 C 
BRANCH  27  28
ATOM     28  C   UNL     1      -4.737  15.773  62.850  1.00  0.00    -0.000 C 
BRANCH  28  29
ATOM     29  C   UNL     1      -4.878  16.731  61.658  1.00  0.00    -0.003 C 
ATOM     30  C   UNL     1      -3.567  16.842  60.883  1.00  0.00     0.004 C 
ENDBRANCH  28  29
ENDBRANCH  27  28
ENDBRANCH  26  27
ENDBRANCH  25  26
ENDBRANCH  24  25
ENDBRANCH  23  24
ENDBRANCH  22  23
ENDBRANCH  21  22
ENDBRANCH  20  21
ENDBRANCH  19  20
ENDBRANCH  18  19
ENDBRANCH  17  18
ENDBRANCH   1  17
TORSDOF 26
ENDMDL
