MODEL 1
REMARK VINA RESULT:    -6.724      0.000      0.000
REMARK INTER + INTRA:          -8.628
REMARK INTER:                  -8.297
REMARK INTRA:                  -0.331
REMARK UNBOUND:                -0.331
REMARK SMILES Oc1cc(O)c2cc(O)c(-c3cc(O)c(O)c(O)c3)[o+]c2c1
REMARK SMILES IDX 10 1 20 2 21 3 22 4 2 5 3 6 4 7 6 8 7 9 8 10 11 11 12 12
REMARK SMILES IDX 13 13 19 14 15 15 17 16 14 17 16 19 18 21 9 23 1 25 5 27
REMARK H PARENT 14 18 16 20 18 22 9 24 1 26 5 28
REMARK Flexibility Score: inf
ROOT
ATOM      1  C   UNL     1     -23.981  19.171 -19.196  1.00  0.00     0.402 A 
ATOM      2  O   UNL     1     -23.329  19.948 -18.333  1.00  0.00    -0.202 OA
ATOM      3  C   UNL     1     -23.342  21.275 -18.396  1.00  0.00     0.368 A 
ATOM      4  C   UNL     1     -22.634  22.020 -17.448  1.00  0.00     0.162 A 
ATOM      5  C   UNL     1     -22.643  23.418 -17.500  1.00  0.00     0.128 A 
ATOM      6  C   UNL     1     -23.363  24.075 -18.507  1.00  0.00     0.093 A 
ATOM      7  C   UNL     1     -24.077  23.341 -19.466  1.00  0.00     0.136 A 
ATOM      8  C   UNL     1     -24.068  21.935 -19.412  1.00  0.00     0.125 A 
ATOM      9  C   UNL     1     -24.755  21.152 -20.345  1.00  0.00     0.078 A 
ATOM     10  C   UNL     1     -24.709  19.757 -20.252  1.00  0.00     0.223 A 
ENDROOT
BRANCH   1  11
ATOM     11  C   UNL     1     -23.897  17.703 -19.018  1.00  0.00     0.091 A 
ATOM     12  C   UNL     1     -24.623  17.045 -18.010  1.00  0.00     0.068 A 
ATOM     13  C   UNL     1     -24.514  15.658 -17.843  1.00  0.00     0.162 A 
ATOM     14  C   UNL     1     -23.034  16.957 -19.834  1.00  0.00     0.068 A 
ATOM     15  C   UNL     1     -23.663  14.915 -18.680  1.00  0.00     0.200 A 
ATOM     16  C   UNL     1     -22.919  15.572 -19.676  1.00  0.00     0.162 A 
BRANCH  13  17
ATOM     17  O   UNL     1     -25.244  15.016 -16.844  1.00  0.00    -0.504 OA
ATOM     18  H   UNL     1     -26.256  14.987 -16.860  1.00  0.00     0.293 HD
ENDBRANCH  13  17
BRANCH  15  19
ATOM     19  O   UNL     1     -23.546  13.533 -18.531  1.00  0.00    -0.502 OA
ATOM     20  H   UNL     1     -23.012  13.116 -17.778  1.00  0.00     0.293 HD
ENDBRANCH  15  19
BRANCH  16  21
ATOM     21  O   UNL     1     -22.061  14.865 -20.516  1.00  0.00    -0.504 OA
ATOM     22  H   UNL     1     -21.054  14.899 -20.412  1.00  0.00     0.293 HD
ENDBRANCH  16  21
ENDBRANCH   1  11
BRANCH  10  23
ATOM     23  O   UNL     1     -25.349  18.970 -21.208  1.00  0.00    -0.500 OA
ATOM     24  H   UNL     1     -25.595  18.003 -21.025  1.00  0.00     0.294 HD
ENDBRANCH  10  23
BRANCH   5  25
ATOM     25  O   UNL     1     -21.932  24.144 -16.547  1.00  0.00    -0.507 OA
ATOM     26  H   UNL     1     -21.403  23.684 -15.817  1.00  0.00     0.293 HD
ENDBRANCH   5  25
BRANCH   7  27
ATOM     27  O   UNL     1     -24.790  24.006 -20.463  1.00  0.00    -0.507 OA
ATOM     28  H   UNL     1     -24.544  23.915 -21.443  1.00  0.00     0.293 HD
ENDBRANCH   7  27
TORSDOF 7
ENDMDL
MODEL 2
REMARK VINA RESULT:    -6.716      1.847      6.858
REMARK INTER + INTRA:          -8.617
REMARK INTER:                  -8.237
REMARK INTRA:                  -0.380
REMARK UNBOUND:                -0.331
REMARK SMILES Oc1cc(O)c2cc(O)c(-c3cc(O)c(O)c(O)c3)[o+]c2c1
REMARK SMILES IDX 10 1 20 2 21 3 22 4 2 5 3 6 4 7 6 8 7 9 8 10 11 11 12 12
REMARK SMILES IDX 13 13 19 14 15 15 17 16 14 17 16 19 18 21 9 23 1 25 5 27
REMARK H PARENT 14 18 16 20 18 22 9 24 1 26 5 28
REMARK Flexibility Score: inf
ROOT
ATOM      1  C   UNL     1     -23.914  20.911 -19.691  1.00  0.00     0.402 A 
ATOM      2  O   UNL     1     -23.651  19.765 -19.064  1.00  0.00    -0.202 OA
ATOM      3  C   UNL     1     -24.266  18.623 -19.348  1.00  0.00     0.368 A 
ATOM      4  C   UNL     1     -23.929  17.461 -18.646  1.00  0.00     0.162 A 
ATOM      5  C   UNL     1     -24.566  16.251 -18.937  1.00  0.00     0.128 A 
ATOM      6  C   UNL     1     -25.548  16.201 -19.937  1.00  0.00     0.093 A 
ATOM      7  C   UNL     1     -25.898  17.358 -20.649  1.00  0.00     0.136 A 
ATOM      8  C   UNL     1     -25.256  18.576 -20.355  1.00  0.00     0.125 A 
ATOM      9  C   UNL     1     -25.569  19.762 -21.026  1.00  0.00     0.078 A 
ATOM     10  C   UNL     1     -24.906  20.947 -20.692  1.00  0.00     0.223 A 
ENDROOT
BRANCH   1  11
ATOM     11  C   UNL     1     -23.156  22.118 -19.291  1.00  0.00     0.091 A 
ATOM     12  C   UNL     1     -23.601  22.952 -18.252  1.00  0.00     0.068 A 
ATOM     13  C   UNL     1     -22.881  24.103 -17.903  1.00  0.00     0.162 A 
ATOM     14  C   UNL     1     -21.997  22.471 -20.000  1.00  0.00     0.068 A 
ATOM     15  C   UNL     1     -21.709  24.436 -18.604  1.00  0.00     0.200 A 
ATOM     16  C   UNL     1     -21.272  23.616 -19.659  1.00  0.00     0.162 A 
BRANCH  13  17
ATOM     17  O   UNL     1     -23.329  24.920 -16.865  1.00  0.00    -0.504 OA
ATOM     18  H   UNL     1     -24.313  25.127 -16.739  1.00  0.00     0.293 HD
ENDBRANCH  13  17
BRANCH  15  19
ATOM     19  O   UNL     1     -20.977  25.576 -18.267  1.00  0.00    -0.502 OA
ATOM     20  H   UNL     1     -19.967  25.565 -18.194  1.00  0.00     0.293 HD
ENDBRANCH  15  19
BRANCH  16  21
ATOM     21  O   UNL     1     -20.118  23.925 -20.378  1.00  0.00    -0.504 OA
ATOM     22  H   UNL     1     -19.676  24.834 -20.325  1.00  0.00     0.293 HD
ENDBRANCH  16  21
ENDBRANCH   1  11
BRANCH  10  23
ATOM     23  O   UNL     1     -25.250  22.142 -21.322  1.00  0.00    -0.500 OA
ATOM     24  H   UNL     1     -25.313  23.015 -20.809  1.00  0.00     0.294 HD
ENDBRANCH  10  23
BRANCH   5  25
ATOM     25  O   UNL     1     -24.218  15.104 -18.228  1.00  0.00    -0.507 OA
ATOM     26  H   UNL     1     -23.823  15.156 -17.297  1.00  0.00     0.293 HD
ENDBRANCH   5  25
BRANCH   7  27
ATOM     27  O   UNL     1     -26.877  17.296 -21.641  1.00  0.00    -0.507 OA
ATOM     28  H   UNL     1     -27.642  16.633 -21.592  1.00  0.00     0.293 HD
ENDBRANCH   7  27
TORSDOF 7
ENDMDL
MODEL 3
REMARK VINA RESULT:    -6.655      1.852      7.069
REMARK INTER + INTRA:          -8.543
REMARK INTER:                  -8.159
REMARK INTRA:                  -0.384
REMARK UNBOUND:                -0.331
REMARK SMILES Oc1cc(O)c2cc(O)c(-c3cc(O)c(O)c(O)c3)[o+]c2c1
REMARK SMILES IDX 10 1 20 2 21 3 22 4 2 5 3 6 4 7 6 8 7 9 8 10 11 11 12 12
REMARK SMILES IDX 13 13 19 14 15 15 17 16 14 17 16 19 18 21 9 23 1 25 5 27
REMARK H PARENT 14 18 16 20 18 22 9 24 1 26 5 28
REMARK Flexibility Score: inf
ROOT
ATOM      1  C   UNL     1     -23.944  20.907 -19.773  1.00  0.00     0.402 A 
ATOM      2  O   UNL     1     -23.700  19.770 -19.122  1.00  0.00    -0.202 OA
ATOM      3  C   UNL     1     -24.325  18.629 -19.391  1.00  0.00     0.368 A 
ATOM      4  C   UNL     1     -24.008  17.478 -18.664  1.00  0.00     0.162 A 
ATOM      5  C   UNL     1     -24.657  16.270 -18.940  1.00  0.00     0.128 A 
ATOM      6  C   UNL     1     -25.629  16.212 -19.948  1.00  0.00     0.093 A 
ATOM      7  C   UNL     1     -25.959  17.360 -20.685  1.00  0.00     0.136 A 
ATOM      8  C   UNL     1     -25.305  18.575 -20.407  1.00  0.00     0.125 A 
ATOM      9  C   UNL     1     -25.598  19.752 -21.104  1.00  0.00     0.078 A 
ATOM     10  C   UNL     1     -24.925  20.936 -20.785  1.00  0.00     0.223 A 
ENDROOT
BRANCH   1  11
ATOM     11  C   UNL     1     -23.175  22.113 -19.388  1.00  0.00     0.091 A 
ATOM     12  C   UNL     1     -21.992  22.471 -20.057  1.00  0.00     0.068 A 
ATOM     13  C   UNL     1     -21.266  23.604 -19.664  1.00  0.00     0.162 A 
ATOM     14  C   UNL     1     -23.603  22.885 -18.297  1.00  0.00     0.068 A 
ATOM     15  C   UNL     1     -21.715  24.384 -18.584  1.00  0.00     0.200 A 
ATOM     16  C   UNL     1     -22.886  24.017 -17.899  1.00  0.00     0.162 A 
BRANCH  13  17
ATOM     17  O   UNL     1     -20.098  23.953 -20.339  1.00  0.00    -0.504 OA
ATOM     18  H   UNL     1     -19.342  23.292 -20.470  1.00  0.00     0.293 HD
ENDBRANCH  13  17
BRANCH  15  19
ATOM     19  O   UNL     1     -21.007  25.518 -18.183  1.00  0.00    -0.502 OA
ATOM     20  H   UNL     1     -20.866  25.747 -17.206  1.00  0.00     0.293 HD
ENDBRANCH  15  19
BRANCH  16  21
ATOM     21  O   UNL     1     -23.352  24.766 -16.819  1.00  0.00    -0.504 OA
ATOM     22  H   UNL     1     -23.767  24.335 -16.002  1.00  0.00     0.293 HD
ENDBRANCH  16  21
ENDBRANCH   1  11
BRANCH  10  23
ATOM     23  O   UNL     1     -25.249  22.123 -21.440  1.00  0.00    -0.500 OA
ATOM     24  H   UNL     1     -26.210  22.423 -21.553  1.00  0.00     0.294 HD
ENDBRANCH  10  23
BRANCH   5  25
ATOM     25  O   UNL     1     -24.328  15.132 -18.206  1.00  0.00    -0.507 OA
ATOM     26  H   UNL     1     -23.573  15.136 -17.531  1.00  0.00     0.293 HD
ENDBRANCH   5  25
BRANCH   7  27
ATOM     27  O   UNL     1     -26.928  17.291 -21.685  1.00  0.00    -0.507 OA
ATOM     28  H   UNL     1     -27.364  16.412 -21.943  1.00  0.00     0.293 HD
ENDBRANCH   7  27
TORSDOF 7
ENDMDL
MODEL 4
REMARK VINA RESULT:    -6.536      1.614      7.070
REMARK INTER + INTRA:          -8.396
REMARK INTER:                  -8.025
REMARK INTRA:                  -0.371
REMARK UNBOUND:                -0.331
REMARK SMILES Oc1cc(O)c2cc(O)c(-c3cc(O)c(O)c(O)c3)[o+]c2c1
REMARK SMILES IDX 10 1 20 2 21 3 22 4 2 5 3 6 4 7 6 8 7 9 8 10 11 11 12 12
REMARK SMILES IDX 13 13 19 14 15 15 17 16 14 17 16 19 18 21 9 23 1 25 5 27
REMARK H PARENT 14 18 16 20 18 22 9 24 1 26 5 28
REMARK Flexibility Score: inf
ROOT
ATOM      1  C   UNL     1     -23.967  19.838 -19.710  1.00  0.00     0.402 A 
ATOM      2  O   UNL     1     -24.100  18.919 -18.755  1.00  0.00    -0.202 OA
ATOM      3  C   UNL     1     -24.326  17.635 -19.007  1.00  0.00     0.368 A 
ATOM      4  C   UNL     1     -24.450  16.732 -17.946  1.00  0.00     0.162 A 
ATOM      5  C   UNL     1     -24.685  15.377 -18.198  1.00  0.00     0.128 A 
ATOM      6  C   UNL     1     -24.797  14.920 -19.518  1.00  0.00     0.093 A 
ATOM      7  C   UNL     1     -24.676  15.814 -20.593  1.00  0.00     0.136 A 
ATOM      8  C   UNL     1     -24.440  17.178 -20.339  1.00  0.00     0.125 A 
ATOM      9  C   UNL     1     -24.318  18.115 -21.369  1.00  0.00     0.078 A 
ATOM     10  C   UNL     1     -24.090  19.461 -21.063  1.00  0.00     0.223 A 
ENDROOT
BRANCH   1  11
ATOM     11  C   UNL     1     -23.708  21.238 -19.305  1.00  0.00     0.091 A 
ATOM     12  C   UNL     1     -22.412  21.782 -19.335  1.00  0.00     0.068 A 
ATOM     13  C   UNL     1     -22.184  23.103 -18.925  1.00  0.00     0.162 A 
ATOM     14  C   UNL     1     -24.767  22.025 -18.826  1.00  0.00     0.068 A 
ATOM     15  C   UNL     1     -23.255  23.891 -18.469  1.00  0.00     0.200 A 
ATOM     16  C   UNL     1     -24.549  23.344 -18.417  1.00  0.00     0.162 A 
BRANCH  13  17
ATOM     17  O   UNL     1     -20.895  23.633 -18.966  1.00  0.00    -0.504 OA
ATOM     18  H   UNL     1     -20.688  24.489 -19.466  1.00  0.00     0.293 HD
ENDBRANCH  13  17
BRANCH  15  19
ATOM     19  O   UNL     1     -23.046  25.209 -18.062  1.00  0.00    -0.502 OA
ATOM     20  H   UNL     1     -23.801  25.796 -17.730  1.00  0.00     0.293 HD
ENDBRANCH  15  19
BRANCH  16  21
ATOM     21  O   UNL     1     -25.630  24.097 -17.962  1.00  0.00    -0.504 OA
ATOM     22  H   UNL     1     -25.581  25.104 -17.859  1.00  0.00     0.293 HD
ENDBRANCH  16  21
ENDBRANCH   1  11
BRANCH  10  23
ATOM     23  O   UNL     1     -24.019  20.408 -22.084  1.00  0.00    -0.500 OA
ATOM     24  H   UNL     1     -23.724  20.159 -23.021  1.00  0.00     0.294 HD
ENDBRANCH  10  23
BRANCH   5  25
ATOM     25  O   UNL     1     -24.805  14.491 -17.129  1.00  0.00    -0.507 OA
ATOM     26  H   UNL     1     -24.744  14.808 -16.169  1.00  0.00     0.293 HD
ENDBRANCH   5  25
BRANCH   7  27
ATOM     27  O   UNL     1     -24.790  15.348 -21.903  1.00  0.00    -0.507 OA
ATOM     28  H   UNL     1     -24.060  15.506 -22.588  1.00  0.00     0.293 HD
ENDBRANCH   7  27
TORSDOF 7
ENDMDL
MODEL 5
REMARK VINA RESULT:    -6.336      4.597      7.260
REMARK INTER + INTRA:          -8.148
REMARK INTER:                  -7.766
REMARK INTRA:                  -0.382
REMARK UNBOUND:                -0.331
REMARK SMILES Oc1cc(O)c2cc(O)c(-c3cc(O)c(O)c(O)c3)[o+]c2c1
REMARK SMILES IDX 10 1 20 2 21 3 22 4 2 5 3 6 4 7 6 8 7 9 8 10 11 11 12 12
REMARK SMILES IDX 13 13 19 14 15 15 17 16 14 17 16 19 18 21 9 23 1 25 5 27
REMARK H PARENT 14 18 16 20 18 22 9 24 1 26 5 28
REMARK Flexibility Score: inf
ROOT
ATOM      1  C   UNL     1     -26.304  16.071 -21.044  1.00  0.00     0.402 A 
ATOM      2  O   UNL     1     -27.165  15.142 -21.457  1.00  0.00    -0.202 OA
ATOM      3  C   UNL     1     -28.271  15.426 -22.136  1.00  0.00     0.368 A 
ATOM      4  C   UNL     1     -29.122  14.392 -22.537  1.00  0.00     0.162 A 
ATOM      5  C   UNL     1     -30.287  14.677 -23.256  1.00  0.00     0.128 A 
ATOM      6  C   UNL     1     -30.604  16.004 -23.577  1.00  0.00     0.093 A 
ATOM      7  C   UNL     1     -29.760  17.052 -23.180  1.00  0.00     0.136 A 
ATOM      8  C   UNL     1     -28.588  16.765 -22.456  1.00  0.00     0.125 A 
ATOM      9  C   UNL     1     -27.714  17.769 -22.029  1.00  0.00     0.078 A 
ATOM     10  C   UNL     1     -26.564  17.431 -21.307  1.00  0.00     0.223 A 
ENDROOT
BRANCH   1  11
ATOM     11  C   UNL     1     -25.101  15.629 -20.301  1.00  0.00     0.091 A 
ATOM     12  C   UNL     1     -23.868  15.443 -20.949  1.00  0.00     0.068 A 
ATOM     13  C   UNL     1     -22.746  15.004 -20.233  1.00  0.00     0.162 A 
ATOM     14  C   UNL     1     -25.204  15.336 -18.933  1.00  0.00     0.068 A 
ATOM     15  C   UNL     1     -22.853  14.734 -18.858  1.00  0.00     0.200 A 
ATOM     16  C   UNL     1     -24.090  14.898 -18.210  1.00  0.00     0.162 A 
BRANCH  13  17
ATOM     17  O   UNL     1     -21.526  14.829 -20.886  1.00  0.00    -0.504 OA
ATOM     18  H   UNL     1     -21.356  15.215 -21.806  1.00  0.00     0.293 HD
ENDBRANCH  13  17
BRANCH  15  19
ATOM     19  O   UNL     1     -21.745  14.300 -18.129  1.00  0.00    -0.502 OA
ATOM     20  H   UNL     1     -21.822  13.609 -17.392  1.00  0.00     0.293 HD
ENDBRANCH  15  19
BRANCH  16  21
ATOM     21  O   UNL     1     -24.230  14.631 -16.849  1.00  0.00    -0.504 OA
ATOM     22  H   UNL     1     -24.845  13.905 -16.502  1.00  0.00     0.293 HD
ENDBRANCH  16  21
ENDBRANCH   1  11
BRANCH  10  23
ATOM     23  O   UNL     1     -25.716  18.431 -20.834  1.00  0.00    -0.500 OA
ATOM     24  H   UNL     1     -24.894  18.214 -20.281  1.00  0.00     0.294 HD
ENDBRANCH  10  23
BRANCH   5  25
ATOM     25  O   UNL     1     -31.124  13.634 -23.647  1.00  0.00    -0.507 OA
ATOM     26  H   UNL     1     -30.963  12.682 -23.342  1.00  0.00     0.293 HD
ENDBRANCH   5  25
BRANCH   7  27
ATOM     27  O   UNL     1     -30.086  18.370 -23.504  1.00  0.00    -0.507 OA
ATOM     28  H   UNL     1     -29.892  18.755 -24.422  1.00  0.00     0.293 HD
ENDBRANCH   7  27
TORSDOF 7
ENDMDL
MODEL 6
REMARK VINA RESULT:    -6.295      4.636      7.078
REMARK INTER + INTRA:          -8.098
REMARK INTER:                  -7.722
REMARK INTRA:                  -0.376
REMARK UNBOUND:                -0.331
REMARK SMILES Oc1cc(O)c2cc(O)c(-c3cc(O)c(O)c(O)c3)[o+]c2c1
REMARK SMILES IDX 10 1 20 2 21 3 22 4 2 5 3 6 4 7 6 8 7 9 8 10 11 11 12 12
REMARK SMILES IDX 13 13 19 14 15 15 17 16 14 17 16 19 18 21 9 23 1 25 5 27
REMARK H PARENT 14 18 16 20 18 22 9 24 1 26 5 28
REMARK Flexibility Score: inf
ROOT
ATOM      1  C   UNL     1     -26.296  16.002 -21.092  1.00  0.00     0.402 A 
ATOM      2  O   UNL     1     -27.139  15.080 -21.555  1.00  0.00    -0.202 OA
ATOM      3  C   UNL     1     -28.222  15.376 -22.265  1.00  0.00     0.368 A 
ATOM      4  C   UNL     1     -29.055  14.348 -22.718  1.00  0.00     0.162 A 
ATOM      5  C   UNL     1     -30.196  14.645 -23.470  1.00  0.00     0.128 A 
ATOM      6  C   UNL     1     -30.507  15.979 -23.771  1.00  0.00     0.093 A 
ATOM      7  C   UNL     1     -29.682  17.021 -23.322  1.00  0.00     0.136 A 
ATOM      8  C   UNL     1     -28.533  16.721 -22.565  1.00  0.00     0.125 A 
ATOM      9  C   UNL     1     -27.679  17.718 -22.086  1.00  0.00     0.078 A 
ATOM     10  C   UNL     1     -26.553  17.368 -21.332  1.00  0.00     0.223 A 
ENDROOT
BRANCH   1  11
ATOM     11  C   UNL     1     -25.117  15.549 -20.319  1.00  0.00     0.091 A 
ATOM     12  C   UNL     1     -25.191  15.328 -18.933  1.00  0.00     0.068 A 
ATOM     13  C   UNL     1     -24.059  14.920 -18.215  1.00  0.00     0.162 A 
ATOM     14  C   UNL     1     -23.885  15.389 -20.970  1.00  0.00     0.068 A 
ATOM     15  C   UNL     1     -22.833  14.741 -18.880  1.00  0.00     0.200 A 
ATOM     16  C   UNL     1     -22.750  14.981 -20.262  1.00  0.00     0.162 A 
BRANCH  13  17
ATOM     17  O   UNL     1     -24.146  14.698 -16.841  1.00  0.00    -0.504 OA
ATOM     18  H   UNL     1     -24.831  15.176 -16.268  1.00  0.00     0.293 HD
ENDBRANCH  13  17
BRANCH  15  19
ATOM     19  O   UNL     1     -21.697  14.331 -18.181  1.00  0.00    -0.502 OA
ATOM     20  H   UNL     1     -21.162  14.966 -17.601  1.00  0.00     0.293 HD
ENDBRANCH  15  19
BRANCH  16  21
ATOM     21  O   UNL     1     -21.547  14.820 -20.949  1.00  0.00    -0.504 OA
ATOM     22  H   UNL     1     -21.515  14.547 -21.924  1.00  0.00     0.293 HD
ENDBRANCH  16  21
ENDBRANCH   1  11
BRANCH  10  23
ATOM     23  O   UNL     1     -25.726  18.359 -20.808  1.00  0.00    -0.500 OA
ATOM     24  H   UNL     1     -24.761  18.170 -20.558  1.00  0.00     0.294 HD
ENDBRANCH  10  23
BRANCH   5  25
ATOM     25  O   UNL     1     -31.014  13.609 -23.913  1.00  0.00    -0.507 OA
ATOM     26  H   UNL     1     -30.639  12.695 -24.134  1.00  0.00     0.293 HD
ENDBRANCH   5  25
BRANCH   7  27
ATOM     27  O   UNL     1     -30.002  18.344 -23.627  1.00  0.00    -0.507 OA
ATOM     28  H   UNL     1     -29.370  19.107 -23.410  1.00  0.00     0.293 HD
ENDBRANCH   7  27
TORSDOF 7
ENDMDL
MODEL 7
REMARK VINA RESULT:    -5.898      5.285      8.151
REMARK INTER + INTRA:          -7.608
REMARK INTER:                  -7.228
REMARK INTRA:                  -0.380
REMARK UNBOUND:                -0.331
REMARK SMILES Oc1cc(O)c2cc(O)c(-c3cc(O)c(O)c(O)c3)[o+]c2c1
REMARK SMILES IDX 10 1 20 2 21 3 22 4 2 5 3 6 4 7 6 8 7 9 8 10 11 11 12 12
REMARK SMILES IDX 13 13 19 14 15 15 17 16 14 17 16 19 18 21 9 23 1 25 5 27
REMARK H PARENT 14 18 16 20 18 22 9 24 1 26 5 28
REMARK Flexibility Score: inf
ROOT
ATOM      1  C   UNL     1     -26.193  15.308 -21.912  1.00  0.00     0.402 A 
ATOM      2  O   UNL     1     -26.570  14.248 -22.625  1.00  0.00    -0.202 OA
ATOM      3  C   UNL     1     -27.531  14.292 -23.542  1.00  0.00     0.368 A 
ATOM      4  C   UNL     1     -27.865  13.134 -24.251  1.00  0.00     0.162 A 
ATOM      5  C   UNL     1     -28.872  13.168 -25.221  1.00  0.00     0.128 A 
ATOM      6  C   UNL     1     -29.550  14.366 -25.484  1.00  0.00     0.093 A 
ATOM      7  C   UNL     1     -29.226  15.536 -24.780  1.00  0.00     0.136 A 
ATOM      8  C   UNL     1     -28.213  15.501 -23.804  1.00  0.00     0.125 A 
ATOM      9  C   UNL     1     -27.854  16.633 -23.066  1.00  0.00     0.078 A 
ATOM     10  C   UNL     1     -26.844  16.545 -22.102  1.00  0.00     0.223 A 
ENDROOT
BRANCH   1  11
ATOM     11  C   UNL     1     -25.103  15.136 -20.924  1.00  0.00     0.091 A 
ATOM     12  C   UNL     1     -23.754  15.268 -21.293  1.00  0.00     0.068 A 
ATOM     13  C   UNL     1     -22.735  15.079 -20.349  1.00  0.00     0.162 A 
ATOM     14  C   UNL     1     -25.418  14.779 -19.605  1.00  0.00     0.068 A 
ATOM     15  C   UNL     1     -23.061  14.744 -19.024  1.00  0.00     0.200 A 
ATOM     16  C   UNL     1     -24.409  14.590 -18.655  1.00  0.00     0.162 A 
BRANCH  13  17
ATOM     17  O   UNL     1     -21.400  15.219 -20.725  1.00  0.00    -0.504 OA
ATOM     18  H   UNL     1     -21.068  14.910 -21.631  1.00  0.00     0.293 HD
ENDBRANCH  13  17
BRANCH  15  19
ATOM     19  O   UNL     1     -22.060  14.557 -18.069  1.00  0.00    -0.502 OA
ATOM     20  H   UNL     1     -21.916  15.206 -17.305  1.00  0.00     0.293 HD
ENDBRANCH  15  19
BRANCH  16  21
ATOM     21  O   UNL     1     -24.764  14.250 -17.351  1.00  0.00    -0.504 OA
ATOM     22  H   UNL     1     -24.082  14.188 -16.605  1.00  0.00     0.293 HD
ENDBRANCH  16  21
ENDBRANCH   1  11
BRANCH  10  23
ATOM     23  O   UNL     1     -26.516  17.656 -21.327  1.00  0.00    -0.500 OA
ATOM     24  H   UNL     1     -26.097  18.484 -21.735  1.00  0.00     0.294 HD
ENDBRANCH  10  23
BRANCH   5  25
ATOM     25  O   UNL     1     -29.192  12.005 -25.919  1.00  0.00    -0.507 OA
ATOM     26  H   UNL     1     -29.373  12.018 -26.915  1.00  0.00     0.293 HD
ENDBRANCH   5  25
BRANCH   7  27
ATOM     27  O   UNL     1     -29.908  16.723 -25.049  1.00  0.00    -0.507 OA
ATOM     28  H   UNL     1     -30.255  17.317 -24.305  1.00  0.00     0.293 HD
ENDBRANCH   7  27
TORSDOF 7
ENDMDL
MODEL 8
REMARK VINA RESULT:    -5.846      4.649      6.262
REMARK INTER + INTRA:          -7.544
REMARK INTER:                  -7.162
REMARK INTRA:                  -0.382
REMARK UNBOUND:                -0.331
REMARK SMILES Oc1cc(O)c2cc(O)c(-c3cc(O)c(O)c(O)c3)[o+]c2c1
REMARK SMILES IDX 10 1 20 2 21 3 22 4 2 5 3 6 4 7 6 8 7 9 8 10 11 11 12 12
REMARK SMILES IDX 13 13 19 14 15 15 17 16 14 17 16 19 18 21 9 23 1 25 5 27
REMARK H PARENT 14 18 16 20 18 22 9 24 1 26 5 28
REMARK Flexibility Score: inf
ROOT
ATOM      1  C   UNL     1     -23.433  22.823 -21.006  1.00  0.00     0.402 A 
ATOM      2  O   UNL     1     -22.487  23.595 -20.472  1.00  0.00    -0.202 OA
ATOM      3  C   UNL     1     -22.449  23.913 -19.183  1.00  0.00     0.368 A 
ATOM      4  C   UNL     1     -21.419  24.726 -18.701  1.00  0.00     0.162 A 
ATOM      5  C   UNL     1     -21.365  25.065 -17.345  1.00  0.00     0.128 A 
ATOM      6  C   UNL     1     -22.347  24.589 -16.465  1.00  0.00     0.093 A 
ATOM      7  C   UNL     1     -23.387  23.773 -16.935  1.00  0.00     0.136 A 
ATOM      8  C   UNL     1     -23.441  23.432 -18.300  1.00  0.00     0.125 A 
ATOM      9  C   UNL     1     -24.458  22.629 -18.825  1.00  0.00     0.078 A 
ATOM     10  C   UNL     1     -24.469  22.324 -20.190  1.00  0.00     0.223 A 
ENDROOT
BRANCH   1  11
ATOM     11  C   UNL     1     -23.364  22.532 -22.456  1.00  0.00     0.091 A 
ATOM     12  C   UNL     1     -22.627  21.441 -22.950  1.00  0.00     0.068 A 
ATOM     13  C   UNL     1     -22.555  21.195 -24.327  1.00  0.00     0.162 A 
ATOM     14  C   UNL     1     -23.999  23.392 -23.364  1.00  0.00     0.068 A 
ATOM     15  C   UNL     1     -23.214  22.049 -25.228  1.00  0.00     0.200 A 
ATOM     16  C   UNL     1     -23.934  23.154 -24.740  1.00  0.00     0.162 A 
BRANCH  13  17
ATOM     17  O   UNL     1     -21.826  20.106 -24.805  1.00  0.00    -0.504 OA
ATOM     18  H   UNL     1     -21.288  19.514 -24.184  1.00  0.00     0.293 HD
ENDBRANCH  13  17
BRANCH  15  19
ATOM     19  O   UNL     1     -23.157  21.816 -26.603  1.00  0.00    -0.502 OA
ATOM     20  H   UNL     1     -22.593  22.385 -27.223  1.00  0.00     0.293 HD
ENDBRANCH  15  19
BRANCH  16  21
ATOM     21  O   UNL     1     -24.592  24.024 -25.608  1.00  0.00    -0.504 OA
ATOM     22  H   UNL     1     -24.750  24.998 -25.379  1.00  0.00     0.293 HD
ENDBRANCH  16  21
ENDBRANCH   1  11
BRANCH  10  23
ATOM     23  O   UNL     1     -25.508  21.567 -20.730  1.00  0.00    -0.500 OA
ATOM     24  H   UNL     1     -25.394  21.046 -21.592  1.00  0.00     0.294 HD
ENDBRANCH  10  23
BRANCH   5  25
ATOM     25  O   UNL     1     -20.331  25.876 -16.881  1.00  0.00    -0.507 OA
ATOM     26  H   UNL     1     -20.337  26.878 -17.030  1.00  0.00     0.293 HD
ENDBRANCH   5  25
BRANCH   7  27
ATOM     27  O   UNL     1     -24.359  23.305 -16.051  1.00  0.00    -0.507 OA
ATOM     28  H   UNL     1     -24.213  22.471 -15.493  1.00  0.00     0.293 HD
ENDBRANCH   7  27
TORSDOF 7
ENDMDL
MODEL 9
REMARK VINA RESULT:    -5.840      5.388      7.244
REMARK INTER + INTRA:          -7.536
REMARK INTER:                  -7.203
REMARK INTRA:                  -0.333
REMARK UNBOUND:                -0.331
REMARK SMILES Oc1cc(O)c2cc(O)c(-c3cc(O)c(O)c(O)c3)[o+]c2c1
REMARK SMILES IDX 10 1 20 2 21 3 22 4 2 5 3 6 4 7 6 8 7 9 8 10 11 11 12 12
REMARK SMILES IDX 13 13 19 14 15 15 17 16 14 17 16 19 18 21 9 23 1 25 5 27
REMARK H PARENT 14 18 16 20 18 22 9 24 1 26 5 28
REMARK Flexibility Score: inf
ROOT
ATOM      1  C   UNL     1     -26.451  14.917 -22.495  1.00  0.00     0.402 A 
ATOM      2  O   UNL     1     -26.039  14.415 -21.332  1.00  0.00    -0.202 OA
ATOM      3  C   UNL     1     -25.430  15.141 -20.401  1.00  0.00     0.368 A 
ATOM      4  C   UNL     1     -25.031  14.539 -19.204  1.00  0.00     0.162 A 
ATOM      5  C   UNL     1     -24.392  15.293 -18.215  1.00  0.00     0.128 A 
ATOM      6  C   UNL     1     -24.148  16.658 -18.423  1.00  0.00     0.093 A 
ATOM      7  C   UNL     1     -24.542  17.275 -19.620  1.00  0.00     0.136 A 
ATOM      8  C   UNL     1     -25.185  16.516 -20.615  1.00  0.00     0.125 A 
ATOM      9  C   UNL     1     -25.592  17.077 -21.830  1.00  0.00     0.078 A 
ATOM     10  C   UNL     1     -26.222  16.277 -22.789  1.00  0.00     0.223 A 
ENDROOT
BRANCH   1  11
ATOM     11  C   UNL     1     -27.127  14.009 -23.450  1.00  0.00     0.091 A 
ATOM     12  C   UNL     1     -28.514  14.076 -23.667  1.00  0.00     0.068 A 
ATOM     13  C   UNL     1     -29.139  13.193 -24.558  1.00  0.00     0.162 A 
ATOM     14  C   UNL     1     -26.380  13.022 -24.110  1.00  0.00     0.068 A 
ATOM     15  C   UNL     1     -28.378  12.222 -25.233  1.00  0.00     0.200 A 
ATOM     16  C   UNL     1     -26.994  12.138 -25.002  1.00  0.00     0.162 A 
BRANCH  13  17
ATOM     17  O   UNL     1     -30.515  13.273 -24.771  1.00  0.00    -0.504 OA
ATOM     18  H   UNL     1     -30.929  14.044 -25.280  1.00  0.00     0.293 HD
ENDBRANCH  13  17
BRANCH  15  19
ATOM     19  O   UNL     1     -28.983  11.338 -26.127  1.00  0.00    -0.502 OA
ATOM     20  H   UNL     1     -28.446  10.778 -26.778  1.00  0.00     0.293 HD
ENDBRANCH  15  19
BRANCH  16  21
ATOM     21  O   UNL     1     -26.214  11.181 -25.650  1.00  0.00    -0.504 OA
ATOM     22  H   UNL     1     -25.543  10.606 -25.154  1.00  0.00     0.293 HD
ENDBRANCH  16  21
ENDBRANCH   1  11
BRANCH  10  23
ATOM     23  O   UNL     1     -26.584  16.817 -24.022  1.00  0.00    -0.500 OA
ATOM     24  H   UNL     1     -27.543  17.077 -24.228  1.00  0.00     0.294 HD
ENDBRANCH  10  23
BRANCH   5  25
ATOM     25  O   UNL     1     -24.001  14.677 -17.028  1.00  0.00    -0.507 OA
ATOM     26  H   UNL     1     -24.644  14.562 -16.254  1.00  0.00     0.293 HD
ENDBRANCH   5  25
BRANCH   7  27
ATOM     27  O   UNL     1     -24.294  18.634 -19.816  1.00  0.00    -0.507 OA
ATOM     28  H   UNL     1     -23.434  19.069 -19.501  1.00  0.00     0.293 HD
ENDBRANCH   7  27
TORSDOF 7
ENDMDL
