MODEL 1
REMARK VINA RESULT:    62.295      0.000      0.000
REMARK INTER + INTRA:         102.235
REMARK INTER:                 102.355
REMARK INTRA:                  -0.120
REMARK UNBOUND:                -0.120
REMARK SMILES C[C@@H]1O[C@H](OC[C@H]2O[C@H](Oc3c(-c4ccc(O)c(O)c4)oc4cc(O)cc(O)c4c3=O)[C@@H](O)[C@H](O)[C@@H]2O)[C@H](O)[C@H](O)[C@@H]1O
REMARK SMILES IDX 7 1 36 2 34 3 32 4 9 5 8 6 6 7 5 8 4 9 1 10 2 11 42 12 3 13
REMARK SMILES IDX 40 14 38 15 43 16 41 18 39 20 37 22 35 24 10 26 11 27 12 28
REMARK SMILES IDX 30 29 21 30 29 31 31 32 22 33 27 34 23 35 26 36 24 37 13 38
REMARK SMILES IDX 20 39 14 40 18 41 15 42 16 43 19 44 17 46 28 48 25 50 33 52
REMARK H PARENT 43 17 41 19 39 21 37 23 35 25 19 45 17 47 28 49 25 51 33 53
REMARK Flexibility Score: inf
ROOT
ATOM      1  C   UNL     1      23.729  25.408  15.801  1.00  0.00     0.180 C 
ATOM      2  C   UNL     1      23.938  24.659  17.096  1.00  0.00     0.177 C 
ATOM      3  C   UNL     1      23.702  23.138  16.930  1.00  0.00     0.180 C 
ATOM      4  C   UNL     1      22.308  22.988  16.463  1.00  0.00     0.214 C 
ATOM      5  C   UNL     1      22.050  23.728  15.144  1.00  0.00     0.339 C 
ATOM      6  O   UNL     1      22.497  25.109  15.105  1.00  0.00    -0.332 OA
ENDROOT
BRANCH   1   7
ATOM      7  C   UNL     1      24.965  25.558  14.906  1.00  0.00     0.198 C 
BRANCH   7   8
ATOM      8  O   UNL     1      25.918  26.499  15.605  1.00  0.00    -0.347 OA
BRANCH   8   9
ATOM      9  C   UNL     1      27.205  25.922  15.470  1.00  0.00     0.281 C 
ATOM     10  C   UNL     1      28.147  22.676  16.509  1.00  0.00     0.041 C 
ATOM     11  C   UNL     1      28.334  24.086  16.420  1.00  0.00     0.150 C 
ATOM     12  C   UNL     1      29.487  24.554  15.355  1.00  0.00     0.174 C 
ATOM     13  O   UNL     1      27.129  24.584  15.919  1.00  0.00    -0.344 OA
ATOM     14  C   UNL     1      28.940  24.645  13.863  1.00  0.00     0.179 C 
ATOM     15  C   UNL     1      27.764  25.808  14.024  1.00  0.00     0.202 C 
BRANCH  12  16
ATOM     16  O   UNL     1      30.680  23.907  15.326  1.00  0.00    -0.388 OA
ATOM     17  H   UNL     1      30.796  23.409  14.401  1.00  0.00     0.211 HD
ENDBRANCH  12  16
BRANCH  14  18
ATOM     18  O   UNL     1      28.519  23.297  13.485  1.00  0.00    -0.387 OA
ATOM     19  H   UNL     1      29.122  22.623  14.019  1.00  0.00     0.211 HD
ENDBRANCH  14  18
BRANCH  15  20
ATOM     20  O   UNL     1      26.672  25.589  13.154  1.00  0.00    -0.385 OA
ATOM     21  H   UNL     1      26.953  25.157  12.295  1.00  0.00     0.211 HD
ENDBRANCH  15  20
ENDBRANCH   8   9
ENDBRANCH   7   8
ENDBRANCH   1   7
BRANCH   2  22
ATOM     22  O   UNL     1      23.136  25.217  18.076  1.00  0.00    -0.387 OA
ATOM     23  H   UNL     1      23.532  26.117  18.249  1.00  0.00     0.211 HD
ENDBRANCH   2  22
BRANCH   3  24
ATOM     24  O   UNL     1      24.031  22.369  18.123  1.00  0.00    -0.387 OA
ATOM     25  H   UNL     1      23.684  21.452  17.922  1.00  0.00     0.211 HD
ENDBRANCH   3  24
BRANCH   5  26
ATOM     26  O   UNL     1      20.623  23.662  14.730  1.00  0.00    -0.454 OA
BRANCH  26  27
ATOM     27  C   UNL     1      20.159  23.457  13.478  1.00  0.00     0.214 A 
ATOM     28  C   UNL     1      18.942  23.988  13.052  1.00  0.00     0.180 A 
ATOM     29  C   UNL     1      20.774  22.505  12.617  1.00  0.00     0.239 A 
ATOM     30  O   UNL     1      18.378  23.561  11.988  1.00  0.00    -0.452 OA
ATOM     31  C   UNL     1      20.188  22.132  11.389  1.00  0.00     0.111 A 
ATOM     32  O   UNL     1      21.882  22.017  13.054  1.00  0.00    -0.285 OA
ATOM     33  C   UNL     1      18.887  22.652  11.161  1.00  0.00     0.146 A 
ATOM     34  C   UNL     1      20.658  21.088  10.518  1.00  0.00     0.134 A 
ATOM     35  C   UNL     1      18.153  22.202  10.020  1.00  0.00     0.094 A 
ATOM     36  C   UNL     1      19.876  20.645   9.397  1.00  0.00     0.093 A 
ATOM     37  C   UNL     1      18.666  21.277   9.139  1.00  0.00     0.123 A 
BRANCH  28  38
ATOM     38  C   UNL     1      18.322  25.111  13.793  1.00  0.00     0.025 A 
ATOM     39  C   UNL     1      18.812  26.385  13.543  1.00  0.00     0.062 A 
ATOM     40  C   UNL     1      17.135  24.953  14.435  1.00  0.00     0.016 A 
ATOM     41  C   UNL     1      18.160  27.526  13.999  1.00  0.00     0.158 A 
ATOM     42  C   UNL     1      16.522  26.036  15.039  1.00  0.00     0.051 A 
ATOM     43  C   UNL     1      16.972  27.315  14.842  1.00  0.00     0.157 A 
BRANCH  41  44
ATOM     44  O   UNL     1      18.726  28.768  13.787  1.00  0.00    -0.504 OA
ATOM     45  H   UNL     1      19.240  29.206  14.554  1.00  0.00     0.293 HD
ENDBRANCH  41  44
BRANCH  43  46
ATOM     46  O   UNL     1      16.433  28.364  15.545  1.00  0.00    -0.504 OA
ATOM     47  H   UNL     1      15.983  28.183  16.430  1.00  0.00     0.293 HD
ENDBRANCH  43  46
ENDBRANCH  28  38
BRANCH  34  48
ATOM     48  O   UNL     1      21.929  20.519  10.743  1.00  0.00    -0.507 OA
ATOM     49  H   UNL     1      22.686  20.907  11.384  1.00  0.00     0.293 HD
ENDBRANCH  34  48
BRANCH  37  50
ATOM     50  O   UNL     1      17.999  20.973   7.976  1.00  0.00    -0.508 OA
ATOM     51  H   UNL     1      18.571  20.894   7.131  1.00  0.00     0.293 HD
ENDBRANCH  37  50
ENDBRANCH  26  27
ENDBRANCH   5  26
BRANCH   4  52
ATOM     52  O   UNL     1      21.959  21.650  16.384  1.00  0.00    -0.384 OA
ATOM     53  H   UNL     1      21.462  21.359  15.550  1.00  0.00     0.211 HD
ENDBRANCH   4  52
TORSDOF 16
ENDMDL
MODEL 2
REMARK VINA RESULT:    62.759      0.741      1.367
REMARK INTER + INTRA:         102.998
REMARK INTER:                 104.492
REMARK INTRA:                  -1.495
REMARK UNBOUND:                -0.120
REMARK SMILES C[C@@H]1O[C@H](OC[C@H]2O[C@H](Oc3c(-c4ccc(O)c(O)c4)oc4cc(O)cc(O)c4c3=O)[C@@H](O)[C@H](O)[C@@H]2O)[C@H](O)[C@H](O)[C@@H]1O
REMARK SMILES IDX 7 1 36 2 34 3 32 4 9 5 8 6 6 7 5 8 4 9 1 10 2 11 42 12 3 13
REMARK SMILES IDX 40 14 38 15 43 16 41 18 39 20 37 22 35 24 10 26 11 27 12 28
REMARK SMILES IDX 30 29 21 30 29 31 31 32 22 33 27 34 23 35 26 36 24 37 13 38
REMARK SMILES IDX 20 39 14 40 18 41 15 42 16 43 19 44 17 46 28 48 25 50 33 52
REMARK H PARENT 43 17 41 19 39 21 37 23 35 25 19 45 17 47 28 49 25 51 33 53
REMARK Flexibility Score: inf
ROOT
ATOM      1  C   UNL     1      23.517  25.527  15.968  1.00  0.00     0.180 C 
ATOM      2  C   UNL     1      23.813  24.709  17.204  1.00  0.00     0.177 C 
ATOM      3  C   UNL     1      23.745  23.188  16.920  1.00  0.00     0.180 C 
ATOM      4  C   UNL     1      22.374  22.922  16.438  1.00  0.00     0.214 C 
ATOM      5  C   UNL     1      22.030  23.727  15.179  1.00  0.00     0.339 C 
ATOM      6  O   UNL     1      22.322  25.149  15.247  1.00  0.00    -0.332 OA
ENDROOT
BRANCH   1   7
ATOM      7  C   UNL     1      24.725  25.880  15.093  1.00  0.00     0.198 C 
BRANCH   7   8
ATOM      8  O   UNL     1      25.944  25.887  15.985  1.00  0.00    -0.347 OA
BRANCH   8   9
ATOM      9  C   UNL     1      26.984  25.292  15.229  1.00  0.00     0.281 C 
ATOM     10  C   UNL     1      30.274  26.539  14.878  1.00  0.00     0.041 C 
ATOM     11  C   UNL     1      29.056  26.005  14.366  1.00  0.00     0.150 C 
ATOM     12  C   UNL     1      29.138  24.430  13.922  1.00  0.00     0.174 C 
ATOM     13  O   UNL     1      28.158  26.052  15.434  1.00  0.00    -0.344 OA
ATOM     14  C   UNL     1      28.928  23.437  15.148  1.00  0.00     0.179 C 
ATOM     15  C   UNL     1      27.391  23.846  15.630  1.00  0.00     0.202 C 
BRANCH  12  16
ATOM     16  O   UNL     1      30.200  23.988  13.200  1.00  0.00    -0.388 OA
ATOM     17  H   UNL     1      30.412  24.669  12.420  1.00  0.00     0.211 HD
ENDBRANCH  12  16
BRANCH  14  18
ATOM     18  O   UNL     1      30.024  23.683  16.083  1.00  0.00    -0.387 OA
ATOM     19  H   UNL     1      29.963  24.690  16.374  1.00  0.00     0.211 HD
ENDBRANCH  14  18
BRANCH  15  20
ATOM     20  O   UNL     1      27.217  23.719  17.026  1.00  0.00    -0.385 OA
ATOM     21  H   UNL     1      26.290  23.963  17.316  1.00  0.00     0.211 HD
ENDBRANCH  15  20
ENDBRANCH   8   9
ENDBRANCH   7   8
ENDBRANCH   1   7
BRANCH   2  22
ATOM     22  O   UNL     1      22.958  25.099  18.220  1.00  0.00    -0.387 OA
ATOM     23  H   UNL     1      22.181  25.516  17.754  1.00  0.00     0.211 HD
ENDBRANCH   2  22
BRANCH   3  24
ATOM     24  O   UNL     1      24.162  22.372  18.052  1.00  0.00    -0.387 OA
ATOM     25  H   UNL     1      24.758  21.679  17.644  1.00  0.00     0.211 HD
ENDBRANCH   3  24
BRANCH   5  26
ATOM     26  O   UNL     1      20.617  23.536  14.754  1.00  0.00    -0.454 OA
BRANCH  26  27
ATOM     27  C   UNL     1      20.175  23.358  13.491  1.00  0.00     0.214 A 
ATOM     28  C   UNL     1      18.975  23.914  13.049  1.00  0.00     0.180 A 
ATOM     29  C   UNL     1      20.793  22.409  12.628  1.00  0.00     0.239 A 
ATOM     30  O   UNL     1      18.427  23.512  11.968  1.00  0.00    -0.452 OA
ATOM     31  C   UNL     1      20.226  22.064  11.383  1.00  0.00     0.111 A 
ATOM     32  O   UNL     1      21.884  21.897  13.079  1.00  0.00    -0.285 OA
ATOM     33  C   UNL     1      18.938  22.607  11.137  1.00  0.00     0.146 A 
ATOM     34  C   UNL     1      20.697  21.024  10.506  1.00  0.00     0.134 A 
ATOM     35  C   UNL     1      18.219  22.186   9.975  1.00  0.00     0.094 A 
ATOM     36  C   UNL     1      19.930  20.611   9.363  1.00  0.00     0.093 A 
ATOM     37  C   UNL     1      18.736  21.265   9.091  1.00  0.00     0.123 A 
BRANCH  28  38
ATOM     38  C   UNL     1      18.358  25.036  13.794  1.00  0.00     0.025 A 
ATOM     39  C   UNL     1      18.833  26.312  13.529  1.00  0.00     0.062 A 
ATOM     40  C   UNL     1      17.184  24.871  14.458  1.00  0.00     0.016 A 
ATOM     41  C   UNL     1      18.179  27.451  13.990  1.00  0.00     0.158 A 
ATOM     42  C   UNL     1      16.572  25.952  15.066  1.00  0.00     0.051 A 
ATOM     43  C   UNL     1      17.007  27.234  14.855  1.00  0.00     0.157 A 
BRANCH  41  44
ATOM     44  O   UNL     1      18.731  28.696  13.761  1.00  0.00    -0.504 OA
ATOM     45  H   UNL     1      19.128  29.205  14.553  1.00  0.00     0.293 HD
ENDBRANCH  41  44
BRANCH  43  46
ATOM     46  O   UNL     1      16.472  28.282  15.561  1.00  0.00    -0.504 OA
ATOM     47  H   UNL     1      15.692  28.790  15.171  1.00  0.00     0.293 HD
ENDBRANCH  43  46
ENDBRANCH  28  38
BRANCH  34  48
ATOM     48  O   UNL     1      21.953  20.432  10.748  1.00  0.00    -0.507 OA
ATOM     49  H   UNL     1      22.564  20.584  11.607  1.00  0.00     0.293 HD
ENDBRANCH  34  48
BRANCH  37  50
ATOM     50  O   UNL     1      18.087  20.989   7.910  1.00  0.00    -0.508 OA
ATOM     51  H   UNL     1      17.093  20.761   7.980  1.00  0.00     0.293 HD
ENDBRANCH  37  50
ENDBRANCH  26  27
ENDBRANCH   5  26
BRANCH   4  52
ATOM     52  O   UNL     1      22.174  21.564  16.255  1.00  0.00    -0.384 OA
ATOM     53  H   UNL     1      22.894  21.064  15.745  1.00  0.00     0.211 HD
ENDBRANCH   4  52
TORSDOF 16
ENDMDL
