MODEL 1
REMARK VINA RESULT:    -5.582      0.000      0.000
REMARK INTER + INTRA:          -5.582
REMARK INTER:                  -5.582
REMARK INTRA:                   0.000
REMARK UNBOUND:                 0.000
REMARK SMILES C=C1CC[C@H]2C[C@@H]1C2(C)C
REMARK SMILES IDX 9 1 8 2 5 3 4 4 3 5 2 6 1 7 7 8 6 9 10 10
REMARK H PARENT
REMARK Flexibility Score: inf
ROOT
ATOM      1  C   UNL     1       9.111   8.034  13.547  1.00  0.00     0.012 C 
ATOM      2  C   UNL     1       7.717   7.379  13.383  1.00  0.00    -0.026 C 
ATOM      3  C   UNL     1       7.808   5.980  12.722  1.00  0.00    -0.004 C 
ATOM      4  C   UNL     1       6.485   5.174  12.928  1.00  0.00     0.008 C 
ATOM      5  C   UNL     1       5.208   5.990  12.503  1.00  0.00     0.031 C 
ATOM      6  C   UNL     1       5.538   7.447  12.145  1.00  0.00    -0.074 C 
ATOM      7  C   UNL     1       4.573   8.339  11.895  1.00  0.00     0.008 C 
ATOM      8  C   UNL     1       7.013   7.830  12.081  1.00  0.00     0.021 C 
ATOM      9  C   UNL     1       7.695   6.664  11.349  1.00  0.00     0.012 C 
ATOM     10  C   UNL     1       6.948   7.520  14.725  1.00  0.00     0.012 C 
ENDROOT
TORSDOF 0
ENDMDL
MODEL 2
REMARK VINA RESULT:    -4.867      1.037      3.235
REMARK INTER + INTRA:          -4.867
REMARK INTER:                  -4.867
REMARK INTRA:                   0.000
REMARK UNBOUND:                 0.000
REMARK SMILES C=C1CC[C@H]2C[C@@H]1C2(C)C
REMARK SMILES IDX 9 1 8 2 5 3 4 4 3 5 2 6 1 7 7 8 6 9 10 10
REMARK H PARENT
REMARK Flexibility Score: inf
ROOT
ATOM      1  C   UNL     1       4.084   6.678  12.930  1.00  0.00     0.012 C 
ATOM      2  C   UNL     1       5.587   7.003  12.751  1.00  0.00    -0.026 C 
ATOM      3  C   UNL     1       6.419   5.739  12.415  1.00  0.00    -0.004 C 
ATOM      4  C   UNL     1       7.823   6.124  11.847  1.00  0.00     0.008 C 
ATOM      5  C   UNL     1       8.584   7.154  12.764  1.00  0.00     0.031 C 
ATOM      6  C   UNL     1       7.706   7.672  13.914  1.00  0.00    -0.074 C 
ATOM      7  C   UNL     1       8.121   8.658  14.718  1.00  0.00     0.008 C 
ATOM      8  C   UNL     1       6.344   7.011  14.101  1.00  0.00     0.021 C 
ATOM      9  C   UNL     1       6.605   5.508  13.924  1.00  0.00     0.012 C 
ATOM     10  C   UNL     1       5.714   8.245  11.826  1.00  0.00     0.012 C 
ENDROOT
TORSDOF 0
ENDMDL
MODEL 3
REMARK VINA RESULT:    -4.284      1.047      3.112
REMARK INTER + INTRA:          -4.284
REMARK INTER:                  -4.284
REMARK INTRA:                   0.000
REMARK UNBOUND:                 0.000
REMARK SMILES C=C1CC[C@H]2C[C@@H]1C2(C)C
REMARK SMILES IDX 9 1 8 2 5 3 4 4 3 5 2 6 1 7 7 8 6 9 10 10
REMARK H PARENT
REMARK Flexibility Score: inf
ROOT
ATOM      1  C   UNL     1       5.087   8.761  11.152  1.00  0.00     0.012 C 
ATOM      2  C   UNL     1       5.704   7.826  12.221  1.00  0.00    -0.026 C 
ATOM      3  C   UNL     1       6.530   8.611  13.272  1.00  0.00    -0.004 C 
ATOM      4  C   UNL     1       6.800   7.739  14.540  1.00  0.00     0.008 C 
ATOM      5  C   UNL     1       7.407   6.329  14.186  1.00  0.00     0.031 C 
ATOM      6  C   UNL     1       7.435   6.069  12.672  1.00  0.00    -0.074 C 
ATOM      7  C   UNL     1       7.783   4.876  12.177  1.00  0.00     0.008 C 
ATOM      8  C   UNL     1       7.057   7.231  11.760  1.00  0.00     0.021 C 
ATOM      9  C   UNL     1       7.761   8.456  12.364  1.00  0.00     0.012 C 
ATOM     10  C   UNL     1       4.600   6.852  12.717  1.00  0.00     0.012 C 
ENDROOT
TORSDOF 0
ENDMDL
MODEL 4
REMARK VINA RESULT:    -4.048      0.944      2.473
REMARK INTER + INTRA:          -4.048
REMARK INTER:                  -4.048
REMARK INTRA:                   0.000
REMARK UNBOUND:                 0.000
REMARK SMILES C=C1CC[C@H]2C[C@@H]1C2(C)C
REMARK SMILES IDX 9 1 8 2 5 3 4 4 3 5 2 6 1 7 7 8 6 9 10 10
REMARK H PARENT
REMARK Flexibility Score: inf
ROOT
ATOM      1  C   UNL     1       6.625   4.875  14.731  1.00  0.00     0.012 C 
ATOM      2  C   UNL     1       6.506   5.717  13.436  1.00  0.00    -0.026 C 
ATOM      3  C   UNL     1       7.855   6.371  13.043  1.00  0.00    -0.004 C 
ATOM      4  C   UNL     1       7.828   6.865  11.561  1.00  0.00     0.008 C 
ATOM      5  C   UNL     1       6.575   7.765  11.246  1.00  0.00     0.031 C 
ATOM      6  C   UNL     1       5.580   7.812  12.416  1.00  0.00    -0.074 C 
ATOM      7  C   UNL     1       4.388   8.406  12.293  1.00  0.00     0.008 C 
ATOM      8  C   UNL     1       6.013   7.156  13.723  1.00  0.00     0.021 C 
ATOM      9  C   UNL     1       7.477   7.581  13.914  1.00  0.00     0.012 C 
ATOM     10  C   UNL     1       5.748   4.875  12.373  1.00  0.00     0.012 C 
ENDROOT
TORSDOF 0
ENDMDL
MODEL 5
REMARK VINA RESULT:    -3.819      0.968      2.628
REMARK INTER + INTRA:          -3.819
REMARK INTER:                  -3.819
REMARK INTRA:                   0.000
REMARK UNBOUND:                 0.000
REMARK SMILES C=C1CC[C@H]2C[C@@H]1C2(C)C
REMARK SMILES IDX 9 1 8 2 5 3 4 4 3 5 2 6 1 7 7 8 6 9 10 10
REMARK H PARENT
REMARK Flexibility Score: inf
ROOT
ATOM      1  C   UNL     1       8.876   7.507  13.425  1.00  0.00     0.012 C 
ATOM      2  C   UNL     1       7.530   7.315  12.684  1.00  0.00    -0.026 C 
ATOM      3  C   UNL     1       6.626   8.570  12.790  1.00  0.00    -0.004 C 
ATOM      4  C   UNL     1       5.479   8.527  11.728  1.00  0.00     0.008 C 
ATOM      5  C   UNL     1       4.681   7.170  11.755  1.00  0.00     0.031 C 
ATOM      6  C   UNL     1       5.317   6.137  12.698  1.00  0.00    -0.074 C 
ATOM      7  C   UNL     1       4.870   4.877  12.753  1.00  0.00     0.008 C 
ATOM      8  C   UNL     1       6.475   6.611  13.570  1.00  0.00     0.021 C 
ATOM      9  C   UNL     1       6.041   7.991  14.089  1.00  0.00     0.012 C 
ATOM     10  C   UNL     1       7.825   6.726  11.277  1.00  0.00     0.012 C 
ENDROOT
TORSDOF 0
ENDMDL
MODEL 6
REMARK VINA RESULT:    -3.649      4.278      6.798
REMARK INTER + INTRA:          -3.649
REMARK INTER:                  -3.649
REMARK INTRA:                   0.000
REMARK UNBOUND:                 0.000
REMARK SMILES C=C1CC[C@H]2C[C@@H]1C2(C)C
REMARK SMILES IDX 9 1 8 2 5 3 4 4 3 5 2 6 1 7 7 8 6 9 10 10
REMARK H PARENT
REMARK Flexibility Score: inf
ROOT
ATOM      1  C   UNL     1       3.872  13.951  13.246  1.00  0.00     0.012 C 
ATOM      2  C   UNL     1       3.348  12.865  12.275  1.00  0.00    -0.026 C 
ATOM      3  C   UNL     1       1.811  12.692  12.372  1.00  0.00    -0.004 C 
ATOM      4  C   UNL     1       1.254  11.913  11.137  1.00  0.00     0.008 C 
ATOM      5  C   UNL     1       2.025  10.565  10.875  1.00  0.00     0.031 C 
ATOM      6  C   UNL     1       3.253  10.408  11.785  1.00  0.00    -0.074 C 
ATOM      7  C   UNL     1       4.117   9.400  11.621  1.00  0.00     0.008 C 
ATOM      8  C   UNL     1       3.439  11.447  12.886  1.00  0.00     0.021 C 
ATOM      9  C   UNL     1       2.037  11.651  13.480  1.00  0.00     0.012 C 
ATOM     10  C   UNL     1       3.984  13.109  10.878  1.00  0.00     0.012 C 
ENDROOT
TORSDOF 0
ENDMDL
MODEL 7
REMARK VINA RESULT:    -3.627      5.627      6.885
REMARK INTER + INTRA:          -3.627
REMARK INTER:                  -3.627
REMARK INTRA:                   0.000
REMARK UNBOUND:                 0.000
REMARK SMILES C=C1CC[C@H]2C[C@@H]1C2(C)C
REMARK SMILES IDX 9 1 8 2 5 3 4 4 3 5 2 6 1 7 7 8 6 9 10 10
REMARK H PARENT
REMARK Flexibility Score: inf
ROOT
ATOM      1  C   UNL     1       4.048  13.516  13.715  1.00  0.00     0.012 C 
ATOM      2  C   UNL     1       3.071  12.604  12.933  1.00  0.00    -0.026 C 
ATOM      3  C   UNL     1       3.816  11.659  11.955  1.00  0.00    -0.004 C 
ATOM      4  C   UNL     1       2.888  10.493  11.485  1.00  0.00     0.008 C 
ATOM      5  C   UNL     1       1.504  11.005  10.936  1.00  0.00     0.031 C 
ATOM      6  C   UNL     1       1.315  12.516  11.145  1.00  0.00    -0.074 C 
ATOM      7  C   UNL     1       0.151  13.116  10.875  1.00  0.00     0.008 C 
ATOM      8  C   UNL     1       2.514  13.300  11.668  1.00  0.00     0.021 C 
ATOM      9  C   UNL     1       3.718  12.756  10.882  1.00  0.00     0.012 C 
ATOM     10  C   UNL     1       2.062  11.988  13.941  1.00  0.00     0.012 C 
ENDROOT
TORSDOF 0
ENDMDL
MODEL 8
REMARK VINA RESULT:    -3.581      5.544      7.330
REMARK INTER + INTRA:          -3.581
REMARK INTER:                  -3.581
REMARK INTRA:                   0.000
REMARK UNBOUND:                 0.000
REMARK SMILES C=C1CC[C@H]2C[C@@H]1C2(C)C
REMARK SMILES IDX 9 1 8 2 5 3 4 4 3 5 2 6 1 7 7 8 6 9 10 10
REMARK H PARENT
REMARK Flexibility Score: inf
ROOT
ATOM      1  C   UNL     1      -0.078  10.819  12.027  1.00  0.00     0.012 C 
ATOM      2  C   UNL     1       1.245  11.620  11.942  1.00  0.00    -0.026 C 
ATOM      3  C   UNL     1       2.396  10.777  11.335  1.00  0.00    -0.004 C 
ATOM      4  C   UNL     1       3.583  11.688  10.884  1.00  0.00     0.008 C 
ATOM      5  C   UNL     1       4.053  12.673  12.019  1.00  0.00     0.031 C 
ATOM      6  C   UNL     1       3.131  12.632  13.247  1.00  0.00    -0.074 C 
ATOM      7  C   UNL     1       3.279  13.496  14.259  1.00  0.00     0.008 C 
ATOM      8  C   UNL     1       2.045  11.562  13.266  1.00  0.00     0.021 C 
ATOM      9  C   UNL     1       2.734  10.288  12.753  1.00  0.00     0.012 C 
ATOM     10  C   UNL     1       0.937  13.012  11.325  1.00  0.00     0.012 C 
ENDROOT
TORSDOF 0
ENDMDL
