MODEL 1
REMARK VINA RESULT:    -4.260      0.000      0.000
REMARK INTER + INTRA:          -5.155
REMARK INTER:                  -5.007
REMARK INTRA:                  -0.148
REMARK UNBOUND:                -0.148
REMARK SMILES O=C([O-])C=Cc1ccc(O)c(O)c1
REMARK SMILES IDX 6 1 13 2 7 3 11 4 8 5 9 6 5 7 4 8 2 9 1 10 3 11 12 12 10 14
REMARK H PARENT 12 13 10 15
REMARK Flexibility Score: inf
ROOT
ATOM      1  C   UNL     1       8.103 -15.301   6.103  1.00  0.00    -0.022 A 
ATOM      2  C   UNL     1       8.287 -14.967   7.456  1.00  0.00     0.058 A 
ATOM      3  C   UNL     1       6.801 -15.440   5.601  1.00  0.00     0.012 A 
ATOM      4  C   UNL     1       7.187 -14.827   8.310  1.00  0.00     0.157 A 
ATOM      5  C   UNL     1       5.700 -15.299   6.451  1.00  0.00     0.051 A 
ATOM      6  C   UNL     1       5.887 -14.998   7.807  1.00  0.00     0.157 A 
ENDROOT
BRANCH   1   7
ATOM      7  C   UNL     1       9.249 -15.402   5.176  1.00  0.00     0.010 C 
ATOM      8  C   UNL     1      10.252 -16.287   5.275  1.00  0.00     0.025 C 
BRANCH   8   9
ATOM      9  C   UNL     1      10.294 -17.432   6.204  1.00  0.00     0.064 C 
ATOM     10  O   UNL     1       9.645 -18.474   5.925  1.00  0.00    -0.545 OA
ATOM     11  O   UNL     1      10.975 -17.362   7.412  1.00  0.00    -0.545 OA
ENDBRANCH   8   9
ENDBRANCH   1   7
BRANCH   4  12
ATOM     12  O   UNL     1       7.407 -14.511   9.650  1.00  0.00    -0.504 OA
ATOM     13  H   UNL     1       7.110 -15.122  10.402  1.00  0.00     0.293 HD
ENDBRANCH   4  12
BRANCH   6  14
ATOM     14  O   UNL     1       4.787 -14.862   8.652  1.00  0.00    -0.504 OA
ATOM     15  H   UNL     1       4.262 -13.996   8.705  1.00  0.00     0.293 HD
ENDBRANCH   6  14
TORSDOF 4
ENDMDL
MODEL 2
REMARK VINA RESULT:    -4.247      0.821      2.093
REMARK INTER + INTRA:          -5.140
REMARK INTER:                  -4.884
REMARK INTRA:                  -0.256
REMARK UNBOUND:                -0.148
REMARK SMILES O=C([O-])C=Cc1ccc(O)c(O)c1
REMARK SMILES IDX 6 1 13 2 7 3 11 4 8 5 9 6 5 7 4 8 2 9 1 10 3 11 12 12 10 14
REMARK H PARENT 12 13 10 15
REMARK Flexibility Score: inf
ROOT
ATOM      1  C   UNL     1       8.195 -15.040   6.143  1.00  0.00    -0.022 A 
ATOM      2  C   UNL     1       6.956 -15.536   5.701  1.00  0.00     0.058 A 
ATOM      3  C   UNL     1       8.303 -14.527   7.443  1.00  0.00     0.012 A 
ATOM      4  C   UNL     1       5.828 -15.471   6.526  1.00  0.00     0.157 A 
ATOM      5  C   UNL     1       7.179 -14.460   8.271  1.00  0.00     0.051 A 
ATOM      6  C   UNL     1       5.938 -14.926   7.817  1.00  0.00     0.157 A 
ENDROOT
BRANCH   1   7
ATOM      7  C   UNL     1       9.406 -15.150   5.305  1.00  0.00     0.010 C 
ATOM      8  C   UNL     1      10.363 -16.080   5.441  1.00  0.00     0.025 C 
BRANCH   8   9
ATOM      9  C   UNL     1      10.286 -17.264   6.318  1.00  0.00     0.064 C 
ATOM     10  O   UNL     1      10.898 -17.254   7.418  1.00  0.00    -0.545 OA
ATOM     11  O   UNL     1       9.615 -18.415   5.927  1.00  0.00    -0.545 OA
ENDBRANCH   8   9
ENDBRANCH   1   7
BRANCH   4  12
ATOM     12  O   UNL     1       4.611 -15.957   6.050  1.00  0.00    -0.504 OA
ATOM     13  H   UNL     1       3.980 -15.383   5.503  1.00  0.00     0.293 HD
ENDBRANCH   4  12
BRANCH   6  14
ATOM     14  O   UNL     1       4.818 -14.855   8.644  1.00  0.00    -0.504 OA
ATOM     15  H   UNL     1       4.877 -14.486   9.586  1.00  0.00     0.293 HD
ENDBRANCH   6  14
TORSDOF 4
ENDMDL
MODEL 3
REMARK VINA RESULT:    -3.853      1.556      2.342
REMARK INTER + INTRA:          -4.677
REMARK INTER:                  -4.391
REMARK INTRA:                  -0.286
REMARK UNBOUND:                -0.148
REMARK SMILES O=C([O-])C=Cc1ccc(O)c(O)c1
REMARK SMILES IDX 6 1 13 2 7 3 11 4 8 5 9 6 5 7 4 8 2 9 1 10 3 11 12 12 10 14
REMARK H PARENT 12 13 10 15
REMARK Flexibility Score: inf
ROOT
ATOM      1  C   UNL     1       8.417 -14.600   7.204  1.00  0.00    -0.022 A 
ATOM      2  C   UNL     1       7.341 -14.553   8.108  1.00  0.00     0.058 A 
ATOM      3  C   UNL     1       8.196 -15.055   5.897  1.00  0.00     0.012 A 
ATOM      4  C   UNL     1       6.073 -15.007   7.727  1.00  0.00     0.157 A 
ATOM      5  C   UNL     1       6.930 -15.508   5.512  1.00  0.00     0.051 A 
ATOM      6  C   UNL     1       5.866 -15.492   6.424  1.00  0.00     0.157 A 
ENDROOT
BRANCH   1   7
ATOM      7  C   UNL     1       9.748 -14.076   7.572  1.00  0.00     0.010 C 
ATOM      8  C   UNL     1      10.697 -14.760   8.230  1.00  0.00     0.025 C 
BRANCH   8   9
ATOM      9  C   UNL     1      10.655 -16.203   8.535  1.00  0.00     0.064 C 
ATOM     10  O   UNL     1      10.430 -16.575   9.715  1.00  0.00    -0.545 OA
ATOM     11  O   UNL     1      10.930 -17.158   7.564  1.00  0.00    -0.545 OA
ENDBRANCH   8   9
ENDBRANCH   1   7
BRANCH   4  12
ATOM     12  O   UNL     1       5.032 -14.963   8.653  1.00  0.00    -0.504 OA
ATOM     13  H   UNL     1       4.869 -14.154   9.241  1.00  0.00     0.293 HD
ENDBRANCH   4  12
BRANCH   6  14
ATOM     14  O   UNL     1       4.607 -15.947   6.039  1.00  0.00    -0.504 OA
ATOM     15  H   UNL     1       4.433 -16.300   5.105  1.00  0.00     0.293 HD
ENDBRANCH   6  14
TORSDOF 4
ENDMDL
MODEL 4
REMARK VINA RESULT:    -3.733     14.936     16.976
REMARK INTER + INTRA:          -4.536
REMARK INTER:                  -4.262
REMARK INTRA:                  -0.273
REMARK UNBOUND:                -0.148
REMARK SMILES O=C([O-])C=Cc1ccc(O)c(O)c1
REMARK SMILES IDX 6 1 13 2 7 3 11 4 8 5 9 6 5 7 4 8 2 9 1 10 3 11 12 12 10 14
REMARK H PARENT 12 13 10 15
REMARK Flexibility Score: inf
ROOT
ATOM      1  C   UNL     1       1.889 -11.666  22.229  1.00  0.00    -0.022 A 
ATOM      2  C   UNL     1       2.448 -10.778  23.165  1.00  0.00     0.058 A 
ATOM      3  C   UNL     1       0.678 -11.333  21.605  1.00  0.00     0.012 A 
ATOM      4  C   UNL     1       1.779  -9.599  23.513  1.00  0.00     0.157 A 
ATOM      5  C   UNL     1       0.008 -10.156  21.950  1.00  0.00     0.051 A 
ATOM      6  C   UNL     1       0.551  -9.287  22.906  1.00  0.00     0.157 A 
ENDROOT
BRANCH   1   7
ATOM      7  C   UNL     1       2.605 -12.889  21.811  1.00  0.00     0.010 C 
ATOM      8  C   UNL     1       3.492 -12.964  20.808  1.00  0.00     0.025 C 
BRANCH   8   9
ATOM      9  C   UNL     1       4.050 -11.814  20.071  1.00  0.00     0.064 C 
ATOM     10  O   UNL     1       3.587 -11.527  18.937  1.00  0.00    -0.545 OA
ATOM     11  O   UNL     1       5.121 -11.083  20.569  1.00  0.00    -0.545 OA
ENDBRANCH   8   9
ENDBRANCH   1   7
BRANCH   4  12
ATOM     12  O   UNL     1       2.354  -8.749  24.456  1.00  0.00    -0.504 OA
ATOM     13  H   UNL     1       3.257  -8.313  24.309  1.00  0.00     0.293 HD
ENDBRANCH   4  12
BRANCH   6  14
ATOM     14  O   UNL     1      -0.122  -8.116  23.250  1.00  0.00    -0.504 OA
ATOM     15  H   UNL     1       0.363  -7.229  23.329  1.00  0.00     0.293 HD
ENDBRANCH   6  14
TORSDOF 4
ENDMDL
MODEL 5
REMARK VINA RESULT:    -3.730     14.665     16.781
REMARK INTER + INTRA:          -4.533
REMARK INTER:                  -4.288
REMARK INTRA:                  -0.244
REMARK UNBOUND:                -0.148
REMARK SMILES O=C([O-])C=Cc1ccc(O)c(O)c1
REMARK SMILES IDX 6 1 13 2 7 3 11 4 8 5 9 6 5 7 4 8 2 9 1 10 3 11 12 12 10 14
REMARK H PARENT 12 13 10 15
REMARK Flexibility Score: inf
ROOT
ATOM      1  C   UNL     1       3.576 -11.144  22.046  1.00  0.00    -0.022 A 
ATOM      2  C   UNL     1       3.183  -9.980  22.728  1.00  0.00     0.058 A 
ATOM      3  C   UNL     1       2.861 -12.333  22.248  1.00  0.00     0.012 A 
ATOM      4  C   UNL     1       2.123 -10.015  23.642  1.00  0.00     0.157 A 
ATOM      5  C   UNL     1       1.801 -12.371  23.159  1.00  0.00     0.051 A 
ATOM      6  C   UNL     1       1.431 -11.217  23.863  1.00  0.00     0.157 A 
ENDROOT
BRANCH   1   7
ATOM      7  C   UNL     1       4.658 -11.113  21.040  1.00  0.00     0.010 C 
ATOM      8  C   UNL     1       4.482 -11.118  19.710  1.00  0.00     0.025 C 
BRANCH   8   9
ATOM      9  C   UNL     1       3.188 -10.962  19.018  1.00  0.00     0.064 C 
ATOM     10  O   UNL     1       2.714  -9.808  18.853  1.00  0.00    -0.545 OA
ATOM     11  O   UNL     1       2.447 -12.063  18.609  1.00  0.00    -0.545 OA
ENDBRANCH   8   9
ENDBRANCH   1   7
BRANCH   4  12
ATOM     12  O   UNL     1       1.770  -8.846  24.314  1.00  0.00    -0.504 OA
ATOM     13  H   UNL     1       2.346  -8.013  24.284  1.00  0.00     0.293 HD
ENDBRANCH   4  12
BRANCH   6  14
ATOM     14  O   UNL     1       0.376 -11.260  24.772  1.00  0.00    -0.504 OA
ATOM     15  H   UNL     1      -0.566 -10.994  24.506  1.00  0.00     0.293 HD
ENDBRANCH   6  14
TORSDOF 4
ENDMDL
MODEL 6
REMARK VINA RESULT:    -3.728     15.775     17.219
REMARK INTER + INTRA:          -4.530
REMARK INTER:                  -4.248
REMARK INTRA:                  -0.282
REMARK UNBOUND:                -0.148
REMARK SMILES O=C([O-])C=Cc1ccc(O)c(O)c1
REMARK SMILES IDX 6 1 13 2 7 3 11 4 8 5 9 6 5 7 4 8 2 9 1 10 3 11 12 12 10 14
REMARK H PARENT 12 13 10 15
REMARK Flexibility Score: inf
ROOT
ATOM      1  C   UNL     1       3.798 -11.517  22.140  1.00  0.00    -0.022 A 
ATOM      2  C   UNL     1       3.799 -10.312  22.864  1.00  0.00     0.058 A 
ATOM      3  C   UNL     1       2.653 -12.325  22.154  1.00  0.00     0.012 A 
ATOM      4  C   UNL     1       2.690  -9.945  23.636  1.00  0.00     0.157 A 
ATOM      5  C   UNL     1       1.543 -11.962  22.923  1.00  0.00     0.051 A 
ATOM      6  C   UNL     1       1.557 -10.776  23.670  1.00  0.00     0.157 A 
ENDROOT
BRANCH   1   7
ATOM      7  C   UNL     1       4.938 -11.893  21.280  1.00  0.00     0.010 C 
ATOM      8  C   UNL     1       6.020 -12.578  21.679  1.00  0.00     0.025 C 
BRANCH   8   9
ATOM      9  C   UNL     1       6.178 -13.239  22.989  1.00  0.00     0.064 C 
ATOM     10  O   UNL     1       6.991 -12.763  23.823  1.00  0.00    -0.545 OA
ATOM     11  O   UNL     1       5.503 -14.414  23.295  1.00  0.00    -0.545 OA
ENDBRANCH   8   9
ENDBRANCH   1   7
BRANCH   4  12
ATOM     12  O   UNL     1       2.730  -8.752  24.355  1.00  0.00    -0.504 OA
ATOM     13  H   UNL     1       3.562  -8.175  24.395  1.00  0.00     0.293 HD
ENDBRANCH   4  12
BRANCH   6  14
ATOM     14  O   UNL     1       0.450 -10.419  24.438  1.00  0.00    -0.504 OA
ATOM     15  H   UNL     1       0.535 -10.206  25.425  1.00  0.00     0.293 HD
ENDBRANCH   6  14
TORSDOF 4
ENDMDL
MODEL 7
REMARK VINA RESULT:    -3.679      1.747      2.275
REMARK INTER + INTRA:          -4.472
REMARK INTER:                  -4.185
REMARK INTRA:                  -0.287
REMARK UNBOUND:                -0.148
REMARK SMILES O=C([O-])C=Cc1ccc(O)c(O)c1
REMARK SMILES IDX 6 1 13 2 7 3 11 4 8 5 9 6 5 7 4 8 2 9 1 10 3 11 12 12 10 14
REMARK H PARENT 12 13 10 15
REMARK Flexibility Score: inf
ROOT
ATOM      1  C   UNL     1       6.809 -14.601   5.961  1.00  0.00    -0.022 A 
ATOM      2  C   UNL     1       5.881 -15.153   6.861  1.00  0.00     0.058 A 
ATOM      3  C   UNL     1       7.123 -13.238   6.048  1.00  0.00     0.012 A 
ATOM      4  C   UNL     1       5.235 -14.342   7.802  1.00  0.00     0.157 A 
ATOM      5  C   UNL     1       6.480 -12.425   6.987  1.00  0.00     0.051 A 
ATOM      6  C   UNL     1       5.532 -12.970   7.863  1.00  0.00     0.157 A 
ENDROOT
BRANCH   1   7
ATOM      7  C   UNL     1       7.538 -15.451   4.997  1.00  0.00     0.010 C 
ATOM      8  C   UNL     1       8.721 -16.041   5.224  1.00  0.00     0.025 C 
BRANCH   8   9
ATOM      9  C   UNL     1       9.409 -16.106   6.527  1.00  0.00     0.064 C 
ATOM     10  O   UNL     1       9.116 -17.029   7.331  1.00  0.00    -0.545 OA
ATOM     11  O   UNL     1      10.321 -15.133   6.916  1.00  0.00    -0.545 OA
ENDBRANCH   8   9
ENDBRANCH   1   7
BRANCH   4  12
ATOM     12  O   UNL     1       4.308 -14.918   8.669  1.00  0.00    -0.504 OA
ATOM     13  H   UNL     1       4.518 -15.753   9.204  1.00  0.00     0.293 HD
ENDBRANCH   4  12
BRANCH   6  14
ATOM     14  O   UNL     1       4.891 -12.157   8.795  1.00  0.00    -0.504 OA
ATOM     15  H   UNL     1       5.342 -11.884   9.661  1.00  0.00     0.293 HD
ENDBRANCH   6  14
TORSDOF 4
ENDMDL
MODEL 8
REMARK VINA RESULT:    -3.630      3.538      4.435
REMARK INTER + INTRA:          -4.415
REMARK INTER:                  -4.167
REMARK INTRA:                  -0.248
REMARK UNBOUND:                -0.148
REMARK SMILES O=C([O-])C=Cc1ccc(O)c(O)c1
REMARK SMILES IDX 6 1 13 2 7 3 11 4 8 5 9 6 5 7 4 8 2 9 1 10 3 11 12 12 10 14
REMARK H PARENT 12 13 10 15
REMARK Flexibility Score: inf
ROOT
ATOM      1  C   UNL     1      11.523 -15.791   7.869  1.00  0.00    -0.022 A 
ATOM      2  C   UNL     1      12.238 -16.716   8.649  1.00  0.00     0.058 A 
ATOM      3  C   UNL     1      10.492 -15.047   8.460  1.00  0.00     0.012 A 
ATOM      4  C   UNL     1      11.892 -16.935   9.987  1.00  0.00     0.157 A 
ATOM      5  C   UNL     1      10.144 -15.263   9.796  1.00  0.00     0.051 A 
ATOM      6  C   UNL     1      10.837 -16.209  10.564  1.00  0.00     0.157 A 
ENDROOT
BRANCH   1   7
ATOM      7  C   UNL     1      11.909 -15.508   6.471  1.00  0.00     0.010 C 
ATOM      8  C   UNL     1      11.569 -16.251   5.407  1.00  0.00     0.025 C 
BRANCH   8   9
ATOM      9  C   UNL     1      10.600 -17.364   5.414  1.00  0.00     0.064 C 
ATOM     10  O   UNL     1      10.992 -18.522   5.115  1.00  0.00    -0.545 OA
ATOM     11  O   UNL     1       9.253 -17.152   5.674  1.00  0.00    -0.545 OA
ENDBRANCH   8   9
ENDBRANCH   1   7
BRANCH   4  12
ATOM     12  O   UNL     1      12.611 -17.873  10.727  1.00  0.00    -0.504 OA
ATOM     13  H   UNL     1      13.526 -18.200  10.438  1.00  0.00     0.293 HD
ENDBRANCH   4  12
BRANCH   6  14
ATOM     14  O   UNL     1      10.485 -16.424  11.895  1.00  0.00    -0.504 OA
ATOM     15  H   UNL     1      11.152 -16.295  12.648  1.00  0.00     0.293 HD
ENDBRANCH   6  14
TORSDOF 4
ENDMDL
MODEL 9
REMARK VINA RESULT:    -3.568     15.332     17.087
REMARK INTER + INTRA:          -4.342
REMARK INTER:                  -4.101
REMARK INTRA:                  -0.241
REMARK UNBOUND:                -0.148
REMARK SMILES O=C([O-])C=Cc1ccc(O)c(O)c1
REMARK SMILES IDX 6 1 13 2 7 3 11 4 8 5 9 6 5 7 4 8 2 9 1 10 3 11 12 12 10 14
REMARK H PARENT 12 13 10 15
REMARK Flexibility Score: inf
ROOT
ATOM      1  C   UNL     1       1.758 -11.451  21.886  1.00  0.00    -0.022 A 
ATOM      2  C   UNL     1       1.641 -10.335  21.040  1.00  0.00     0.058 A 
ATOM      3  C   UNL     1       1.198 -11.401  23.170  1.00  0.00     0.012 A 
ATOM      4  C   UNL     1       1.022  -9.163  21.491  1.00  0.00     0.157 A 
ATOM      5  C   UNL     1       0.578 -10.233  23.624  1.00  0.00     0.051 A 
ATOM      6  C   UNL     1       0.491  -9.109  22.791  1.00  0.00     0.157 A 
ENDROOT
BRANCH   1   7
ATOM      7  C   UNL     1       2.361 -12.713  21.409  1.00  0.00     0.010 C 
ATOM      8  C   UNL     1       3.670 -12.915  21.195  1.00  0.00     0.025 C 
BRANCH   8   9
ATOM      9  C   UNL     1       4.752 -11.988  21.575  1.00  0.00     0.064 C 
ATOM     10  O   UNL     1       5.202 -12.017  22.750  1.00  0.00    -0.545 OA
ATOM     11  O   UNL     1       5.237 -11.035  20.688  1.00  0.00    -0.545 OA
ENDBRANCH   8   9
ENDBRANCH   1   7
BRANCH   4  12
ATOM     12  O   UNL     1       0.938  -8.068  20.633  1.00  0.00    -0.504 OA
ATOM     13  H   UNL     1       1.639  -7.337  20.624  1.00  0.00     0.293 HD
ENDBRANCH   4  12
BRANCH   6  14
ATOM     14  O   UNL     1      -0.125  -7.945  23.248  1.00  0.00    -0.504 OA
ATOM     15  H   UNL     1      -0.905  -7.529  22.752  1.00  0.00     0.293 HD
ENDBRANCH   6  14
TORSDOF 4
ENDMDL
