MODEL 1
REMARK VINA RESULT:    -7.133      0.000      0.000
REMARK INTER + INTRA:          -8.876
REMARK INTER:                  -8.593
REMARK INTRA:                  -0.283
REMARK UNBOUND:                -0.283
REMARK SMILES O=c1c(O)c(-c2ccc(O)c(O)c2)oc2cc(O)cc(O)c12
REMARK SMILES IDX 5 1 3 2 2 3 1 4 22 5 20 6 19 7 17 8 16 9 15 10 14 11 6 12
REMARK SMILES IDX 7 13 8 14 9 15 13 16 11 17 10 18 12 20 4 22 21 24 18 26
REMARK H PARENT 10 19 12 21 4 23 21 25 18 27
REMARK Flexibility Score: inf
ROOT
ATOM      1  C   UNL     1      27.034 -16.746  23.252  1.00  0.00     0.180 A 
ATOM      2  C   UNL     1      26.680 -16.862  21.894  1.00  0.00     0.208 A 
ATOM      3  C   UNL     1      27.249 -17.895  21.131  1.00  0.00     0.238 A 
ATOM      4  O   UNL     1      26.948 -18.003  19.911  1.00  0.00    -0.285 OA
ATOM      5  C   UNL     1      28.139 -18.803  21.741  1.00  0.00     0.111 A 
ATOM      6  C   UNL     1      28.752 -19.873  21.044  1.00  0.00     0.134 A 
ATOM      7  C   UNL     1      29.621 -20.739  21.724  1.00  0.00     0.093 A 
ATOM      8  C   UNL     1      29.888 -20.555  23.085  1.00  0.00     0.123 A 
ATOM      9  C   UNL     1      29.287 -19.502  23.776  1.00  0.00     0.094 A 
ATOM     10  C   UNL     1      28.419 -18.627  23.116  1.00  0.00     0.146 A 
ATOM     11  O   UNL     1      27.866 -17.629  23.796  1.00  0.00    -0.452 OA
ENDROOT
BRANCH   1  12
ATOM     12  C   UNL     1      26.492 -15.673  24.117  1.00  0.00     0.025 A 
ATOM     13  C   UNL     1      25.432 -15.916  25.007  1.00  0.00     0.016 A 
ATOM     14  C   UNL     1      24.921 -14.882  25.796  1.00  0.00     0.051 A 
ATOM     15  C   UNL     1      25.452 -13.589  25.699  1.00  0.00     0.157 A 
ATOM     16  C   UNL     1      27.008 -14.371  24.008  1.00  0.00     0.062 A 
ATOM     17  C   UNL     1      26.499 -13.334  24.797  1.00  0.00     0.158 A 
BRANCH  15  18
ATOM     18  O   UNL     1      24.943 -12.561  26.489  1.00  0.00    -0.504 OA
ATOM     19  H   UNL     1      25.463 -12.186  27.273  1.00  0.00     0.293 HD
ENDBRANCH  15  18
BRANCH  17  20
ATOM     20  O   UNL     1      27.046 -12.057  24.672  1.00  0.00    -0.504 OA
ATOM     21  H   UNL     1      26.770 -11.291  25.275  1.00  0.00     0.293 HD
ENDBRANCH  17  20
ENDBRANCH   1  12
BRANCH   2  22
ATOM     22  O   UNL     1      25.757 -15.981  21.327  1.00  0.00    -0.502 OA
ATOM     23  H   UNL     1      25.509 -16.012  20.345  1.00  0.00     0.293 HD
ENDBRANCH   2  22
BRANCH   6  24
ATOM     24  O   UNL     1      28.503 -20.081  19.686  1.00  0.00    -0.507 OA
ATOM     25  H   UNL     1      27.654 -19.749  19.244  1.00  0.00     0.293 HD
ENDBRANCH   6  24
BRANCH   8  26
ATOM     26  O   UNL     1      30.751 -21.416  23.761  1.00  0.00    -0.508 OA
ATOM     27  H   UNL     1      31.665 -21.647  23.392  1.00  0.00     0.293 HD
ENDBRANCH   8  26
TORSDOF 6
ENDMDL
MODEL 2
REMARK VINA RESULT:    -6.950      4.680     10.866
REMARK INTER + INTRA:          -8.655
REMARK INTER:                  -8.344
REMARK INTRA:                  -0.311
REMARK UNBOUND:                -0.283
REMARK SMILES O=c1c(O)c(-c2ccc(O)c(O)c2)oc2cc(O)cc(O)c12
REMARK SMILES IDX 5 1 3 2 2 3 1 4 22 5 20 6 19 7 17 8 16 9 15 10 14 11 6 12
REMARK SMILES IDX 7 13 8 14 9 15 13 16 11 17 10 18 12 20 4 22 21 24 18 26
REMARK H PARENT 10 19 12 21 4 23 21 25 18 27
REMARK Flexibility Score: inf
ROOT
ATOM      1  C   UNL     1      24.310 -11.481  27.476  1.00  0.00     0.180 A 
ATOM      2  C   UNL     1      24.890 -11.017  28.673  1.00  0.00     0.208 A 
ATOM      3  C   UNL     1      24.202 -10.059  29.434  1.00  0.00     0.238 A 
ATOM      4  O   UNL     1      24.716  -9.629  30.502  1.00  0.00    -0.285 OA
ATOM      5  C   UNL     1      22.942  -9.598  29.000  1.00  0.00     0.111 A 
ATOM      6  C   UNL     1      22.182  -8.636  29.710  1.00  0.00     0.134 A 
ATOM      7  C   UNL     1      20.932  -8.235  29.217  1.00  0.00     0.093 A 
ATOM      8  C   UNL     1      20.428  -8.776  28.028  1.00  0.00     0.123 A 
ATOM      9  C   UNL     1      21.174  -9.722  27.324  1.00  0.00     0.094 A 
ATOM     10  C   UNL     1      22.422 -10.135  27.799  1.00  0.00     0.146 A 
ATOM     11  O   UNL     1      23.113 -11.033  27.106  1.00  0.00    -0.452 OA
ENDROOT
BRANCH   1  12
ATOM     12  C   UNL     1      24.981 -12.475  26.609  1.00  0.00     0.025 A 
ATOM     13  C   UNL     1      26.004 -12.100  25.722  1.00  0.00     0.016 A 
ATOM     14  C   UNL     1      26.607 -13.052  24.896  1.00  0.00     0.051 A 
ATOM     15  C   UNL     1      26.189 -14.389  24.934  1.00  0.00     0.157 A 
ATOM     16  C   UNL     1      24.551 -13.812  26.630  1.00  0.00     0.062 A 
ATOM     17  C   UNL     1      25.153 -14.768  25.804  1.00  0.00     0.158 A 
BRANCH  15  18
ATOM     18  O   UNL     1      26.794 -15.336  24.111  1.00  0.00    -0.504 OA
ATOM     19  H   UNL     1      27.316 -15.067  23.285  1.00  0.00     0.293 HD
ENDBRANCH  15  18
BRANCH  17  20
ATOM     20  O   UNL     1      24.709 -16.089  25.863  1.00  0.00    -0.504 OA
ATOM     21  H   UNL     1      24.048 -16.466  25.193  1.00  0.00     0.293 HD
ENDBRANCH  17  20
ENDBRANCH   1  12
BRANCH   2  22
ATOM     22  O   UNL     1      26.116 -11.527  29.107  1.00  0.00    -0.502 OA
ATOM     23  H   UNL     1      26.195 -12.418  29.584  1.00  0.00     0.293 HD
ENDBRANCH   2  22
BRANCH   6  24
ATOM     24  O   UNL     1      22.658  -8.081  30.899  1.00  0.00    -0.507 OA
ATOM     25  H   UNL     1      22.616  -7.084  31.075  1.00  0.00     0.293 HD
ENDBRANCH   6  24
BRANCH   8  26
ATOM     26  O   UNL     1      19.186  -8.377  27.538  1.00  0.00    -0.508 OA
ATOM     27  H   UNL     1      18.856  -8.674  26.627  1.00  0.00     0.293 HD
ENDBRANCH   8  26
TORSDOF 6
ENDMDL
MODEL 3
REMARK VINA RESULT:    -6.670      4.448      7.949
REMARK INTER + INTRA:          -8.317
REMARK INTER:                  -8.294
REMARK INTRA:                  -0.023
REMARK UNBOUND:                -0.283
REMARK SMILES O=c1c(O)c(-c2ccc(O)c(O)c2)oc2cc(O)cc(O)c12
REMARK SMILES IDX 5 1 3 2 2 3 1 4 22 5 20 6 19 7 17 8 16 9 15 10 14 11 6 12
REMARK SMILES IDX 7 13 8 14 9 15 13 16 11 17 10 18 12 20 4 22 21 24 18 26
REMARK H PARENT 10 19 12 21 4 23 21 25 18 27
REMARK Flexibility Score: inf
ROOT
ATOM      1  C   UNL     1      27.949 -11.837  25.060  1.00  0.00     0.180 A 
ATOM      2  C   UNL     1      28.409 -10.983  26.083  1.00  0.00     0.208 A 
ATOM      3  C   UNL     1      29.446 -10.081  25.798  1.00  0.00     0.238 A 
ATOM      4  O   UNL     1      29.873  -9.320  26.708  1.00  0.00    -0.285 OA
ATOM      5  C   UNL     1      29.990 -10.031  24.498  1.00  0.00     0.111 A 
ATOM      6  C   UNL     1      31.034  -9.149  24.128  1.00  0.00     0.134 A 
ATOM      7  C   UNL     1      31.515  -9.154  22.810  1.00  0.00     0.093 A 
ATOM      8  C   UNL     1      30.972 -10.023  21.857  1.00  0.00     0.123 A 
ATOM      9  C   UNL     1      29.944 -10.896  22.217  1.00  0.00     0.094 A 
ATOM     10  C   UNL     1      29.452 -10.907  23.525  1.00  0.00     0.146 A 
ATOM     11  O   UNL     1      28.477 -11.751  23.842  1.00  0.00    -0.452 OA
ENDROOT
BRANCH   1  12
ATOM     12  C   UNL     1      26.873 -12.828  25.286  1.00  0.00     0.025 A 
ATOM     13  C   UNL     1      25.637 -12.452  25.840  1.00  0.00     0.016 A 
ATOM     14  C   UNL     1      24.645 -13.410  26.067  1.00  0.00     0.051 A 
ATOM     15  C   UNL     1      24.877 -14.757  25.758  1.00  0.00     0.157 A 
ATOM     16  C   UNL     1      27.109 -14.182  24.997  1.00  0.00     0.062 A 
ATOM     17  C   UNL     1      26.117 -15.143  25.223  1.00  0.00     0.158 A 
BRANCH  15  18
ATOM     18  O   UNL     1      23.884 -15.708  25.983  1.00  0.00    -0.504 OA
ATOM     19  H   UNL     1      23.995 -16.436  26.679  1.00  0.00     0.293 HD
ENDBRANCH  15  18
BRANCH  17  20
ATOM     20  O   UNL     1      26.382 -16.476  24.909  1.00  0.00    -0.504 OA
ATOM     21  H   UNL     1      26.653 -16.767  23.977  1.00  0.00     0.293 HD
ENDBRANCH  17  20
ENDBRANCH   1  12
BRANCH   2  22
ATOM     22  O   UNL     1      27.819 -11.018  27.348  1.00  0.00    -0.502 OA
ATOM     23  H   UNL     1      28.216 -11.544  28.118  1.00  0.00     0.293 HD
ENDBRANCH   2  22
BRANCH   6  24
ATOM     24  O   UNL     1      31.593  -8.270  25.057  1.00  0.00    -0.507 OA
ATOM     25  H   UNL     1      31.057  -7.510  25.460  1.00  0.00     0.293 HD
ENDBRANCH   6  24
BRANCH   8  26
ATOM     26  O   UNL     1      31.450 -10.027  20.548  1.00  0.00    -0.508 OA
ATOM     27  H   UNL     1      31.283 -10.809  19.925  1.00  0.00     0.293 HD
ENDBRANCH   8  26
TORSDOF 6
ENDMDL
MODEL 4
REMARK VINA RESULT:    -6.619      6.243     11.309
REMARK INTER + INTRA:          -8.256
REMARK INTER:                  -7.993
REMARK INTRA:                  -0.263
REMARK UNBOUND:                -0.283
REMARK SMILES O=c1c(O)c(-c2ccc(O)c(O)c2)oc2cc(O)cc(O)c12
REMARK SMILES IDX 5 1 3 2 2 3 1 4 22 5 20 6 19 7 17 8 16 9 15 10 14 11 6 12
REMARK SMILES IDX 7 13 8 14 9 15 13 16 11 17 10 18 12 20 4 22 21 24 18 26
REMARK H PARENT 10 19 12 21 4 23 21 25 18 27
REMARK Flexibility Score: inf
ROOT
ATOM      1  C   UNL     1      22.872 -11.049  28.199  1.00  0.00     0.180 A 
ATOM      2  C   UNL     1      22.243  -9.947  27.588  1.00  0.00     0.208 A 
ATOM      3  C   UNL     1      21.016  -9.495  28.102  1.00  0.00     0.238 A 
ATOM      4  O   UNL     1      20.438  -8.516  27.557  1.00  0.00    -0.285 OA
ATOM      5  C   UNL     1      20.453 -10.136  29.225  1.00  0.00     0.111 A 
ATOM      6  C   UNL     1      19.223  -9.741  29.806  1.00  0.00     0.134 A 
ATOM      7  C   UNL     1      18.733 -10.424  30.929  1.00  0.00     0.093 A 
ATOM      8  C   UNL     1      19.448 -11.493  31.480  1.00  0.00     0.123 A 
ATOM      9  C   UNL     1      20.660 -11.887  30.911  1.00  0.00     0.094 A 
ATOM     10  C   UNL     1      21.165 -11.220  29.791  1.00  0.00     0.146 A 
ATOM     11  O   UNL     1      22.318 -11.619  29.266  1.00  0.00    -0.452 OA
ENDROOT
BRANCH   1  12
ATOM     12  C   UNL     1      24.156 -11.596  27.705  1.00  0.00     0.025 A 
ATOM     13  C   UNL     1      25.368 -11.327  28.365  1.00  0.00     0.016 A 
ATOM     14  C   UNL     1      26.571 -11.834  27.866  1.00  0.00     0.051 A 
ATOM     15  C   UNL     1      26.584 -12.604  26.696  1.00  0.00     0.157 A 
ATOM     16  C   UNL     1      24.176 -12.350  26.521  1.00  0.00     0.062 A 
ATOM     17  C   UNL     1      25.379 -12.860  26.019  1.00  0.00     0.158 A 
BRANCH  15  18
ATOM     18  O   UNL     1      27.784 -13.110  26.202  1.00  0.00    -0.504 OA
ATOM     19  H   UNL     1      28.662 -12.623  26.340  1.00  0.00     0.293 HD
ENDBRANCH  15  18
BRANCH  17  20
ATOM     20  O   UNL     1      25.357 -13.617  24.848  1.00  0.00    -0.504 OA
ATOM     21  H   UNL     1      24.674 -14.349  24.692  1.00  0.00     0.293 HD
ENDBRANCH  17  20
ENDBRANCH   1  12
BRANCH   2  22
ATOM     22  O   UNL     1      22.846  -9.299  26.509  1.00  0.00    -0.502 OA
ATOM     23  H   UNL     1      22.962  -9.742  25.605  1.00  0.00     0.293 HD
ENDBRANCH   2  22
BRANCH   6  24
ATOM     24  O   UNL     1      18.489  -8.678  29.278  1.00  0.00    -0.507 OA
ATOM     25  H   UNL     1      17.893  -8.101  29.860  1.00  0.00     0.293 HD
ENDBRANCH   6  24
BRANCH   8  26
ATOM     26  O   UNL     1      18.961 -12.171  32.597  1.00  0.00    -0.508 OA
ATOM     27  H   UNL     1      18.270 -12.906  32.510  1.00  0.00     0.293 HD
ENDBRANCH   8  26
TORSDOF 6
ENDMDL
MODEL 5
REMARK VINA RESULT:    -6.600      4.591     10.722
REMARK INTER + INTRA:          -8.233
REMARK INTER:                  -8.024
REMARK INTRA:                  -0.209
REMARK UNBOUND:                -0.283
REMARK SMILES O=c1c(O)c(-c2ccc(O)c(O)c2)oc2cc(O)cc(O)c12
REMARK SMILES IDX 5 1 3 2 2 3 1 4 22 5 20 6 19 7 17 8 16 9 15 10 14 11 6 12
REMARK SMILES IDX 7 13 8 14 9 15 13 16 11 17 10 18 12 20 4 22 21 24 18 26
REMARK H PARENT 10 19 12 21 4 23 21 25 18 27
REMARK Flexibility Score: inf
ROOT
ATOM      1  C   UNL     1      24.346 -11.583  27.519  1.00  0.00     0.180 A 
ATOM      2  C   UNL     1      25.002 -11.109  28.671  1.00  0.00     0.208 A 
ATOM      3  C   UNL     1      24.352 -10.165  29.482  1.00  0.00     0.238 A 
ATOM      4  O   UNL     1      24.934  -9.724  30.510  1.00  0.00    -0.285 OA
ATOM      5  C   UNL     1      23.055  -9.729  29.141  1.00  0.00     0.111 A 
ATOM      6  C   UNL     1      22.329  -8.784  29.907  1.00  0.00     0.134 A 
ATOM      7  C   UNL     1      21.039  -8.407  29.506  1.00  0.00     0.093 A 
ATOM      8  C   UNL     1      20.461  -8.958  28.357  1.00  0.00     0.123 A 
ATOM      9  C   UNL     1      21.172  -9.889  27.599  1.00  0.00     0.094 A 
ATOM     10  C   UNL     1      22.460 -10.277  27.980  1.00  0.00     0.146 A 
ATOM     11  O   UNL     1      23.116 -11.160  27.237  1.00  0.00    -0.452 OA
ENDROOT
BRANCH   1  12
ATOM     12  C   UNL     1      24.972 -12.564  26.603  1.00  0.00     0.025 A 
ATOM     13  C   UNL     1      24.515 -13.891  26.529  1.00  0.00     0.016 A 
ATOM     14  C   UNL     1      25.137 -14.806  25.676  1.00  0.00     0.051 A 
ATOM     15  C   UNL     1      26.232 -14.413  24.895  1.00  0.00     0.157 A 
ATOM     16  C   UNL     1      26.083 -12.180  25.835  1.00  0.00     0.062 A 
ATOM     17  C   UNL     1      26.708 -13.093  24.978  1.00  0.00     0.158 A 
BRANCH  15  18
ATOM     18  O   UNL     1      26.850 -15.327  24.043  1.00  0.00    -0.504 OA
ATOM     19  H   UNL     1      26.312 -15.920  23.421  1.00  0.00     0.293 HD
ENDBRANCH  15  18
BRANCH  17  20
ATOM     20  O   UNL     1      27.800 -12.672  24.219  1.00  0.00    -0.504 OA
ATOM     21  H   UNL     1      28.526 -13.312  23.919  1.00  0.00     0.293 HD
ENDBRANCH  17  20
ENDBRANCH   1  12
BRANCH   2  22
ATOM     22  O   UNL     1      26.266 -11.594  29.013  1.00  0.00    -0.502 OA
ATOM     23  H   UNL     1      26.426 -12.161  29.837  1.00  0.00     0.293 HD
ENDBRANCH   2  22
BRANCH   6  24
ATOM     24  O   UNL     1      22.880  -8.219  31.058  1.00  0.00    -0.507 OA
ATOM     25  H   UNL     1      23.209  -8.791  31.827  1.00  0.00     0.293 HD
ENDBRANCH   6  24
BRANCH   8  26
ATOM     26  O   UNL     1      19.178  -8.585  27.960  1.00  0.00    -0.508 OA
ATOM     27  H   UNL     1      18.905  -8.585  26.984  1.00  0.00     0.293 HD
ENDBRANCH   8  26
TORSDOF 6
ENDMDL
MODEL 6
REMARK VINA RESULT:    -6.528      1.481      7.031
REMARK INTER + INTRA:          -8.146
REMARK INTER:                  -7.872
REMARK INTRA:                  -0.274
REMARK UNBOUND:                -0.283
REMARK SMILES O=c1c(O)c(-c2ccc(O)c(O)c2)oc2cc(O)cc(O)c12
REMARK SMILES IDX 5 1 3 2 2 3 1 4 22 5 20 6 19 7 17 8 16 9 15 10 14 11 6 12
REMARK SMILES IDX 7 13 8 14 9 15 13 16 11 17 10 18 12 20 4 22 21 24 18 26
REMARK H PARENT 10 19 12 21 4 23 21 25 18 27
REMARK Flexibility Score: inf
ROOT
ATOM      1  C   UNL     1      27.776 -16.188  22.839  1.00  0.00     0.180 A 
ATOM      2  C   UNL     1      28.521 -14.994  22.769  1.00  0.00     0.208 A 
ATOM      3  C   UNL     1      28.111 -13.893  23.538  1.00  0.00     0.238 A 
ATOM      4  O   UNL     1      28.763 -12.815  23.475  1.00  0.00    -0.285 OA
ATOM      5  C   UNL     1      26.983 -14.009  24.376  1.00  0.00     0.111 A 
ATOM      6  C   UNL     1      26.507 -12.948  25.185  1.00  0.00     0.134 A 
ATOM      7  C   UNL     1      25.382 -13.146  25.999  1.00  0.00     0.093 A 
ATOM      8  C   UNL     1      24.725 -14.382  26.020  1.00  0.00     0.123 A 
ATOM      9  C   UNL     1      25.190 -15.429  25.223  1.00  0.00     0.094 A 
ATOM     10  C   UNL     1      26.309 -15.252  24.404  1.00  0.00     0.146 A 
ATOM     11  O   UNL     1      26.726 -16.264  23.652  1.00  0.00    -0.452 OA
ENDROOT
BRANCH   1  12
ATOM     12  C   UNL     1      28.133 -17.385  22.045  1.00  0.00     0.025 A 
ATOM     13  C   UNL     1      27.885 -17.447  20.663  1.00  0.00     0.016 A 
ATOM     14  C   UNL     1      28.207 -18.598  19.939  1.00  0.00     0.051 A 
ATOM     15  C   UNL     1      28.770 -19.707  20.585  1.00  0.00     0.157 A 
ATOM     16  C   UNL     1      28.677 -18.506  22.693  1.00  0.00     0.062 A 
ATOM     17  C   UNL     1      29.002 -19.660  21.970  1.00  0.00     0.158 A 
BRANCH  15  18
ATOM     18  O   UNL     1      29.093 -20.852  19.860  1.00  0.00    -0.504 OA
ATOM     19  H   UNL     1      29.430 -20.798  18.905  1.00  0.00     0.293 HD
ENDBRANCH  15  18
BRANCH  17  20
ATOM     20  O   UNL     1      29.554 -20.749  22.645  1.00  0.00    -0.504 OA
ATOM     21  H   UNL     1      30.343 -20.650  23.273  1.00  0.00     0.293 HD
ENDBRANCH  17  20
ENDBRANCH   1  12
BRANCH   2  22
ATOM     22  O   UNL     1      29.663 -14.921  21.969  1.00  0.00    -0.502 OA
ATOM     23  H   UNL     1      29.630 -15.035  20.963  1.00  0.00     0.293 HD
ENDBRANCH   2  22
BRANCH   6  24
ATOM     24  O   UNL     1      27.142 -11.706  25.186  1.00  0.00    -0.507 OA
ATOM     25  H   UNL     1      28.152 -11.624  25.160  1.00  0.00     0.293 HD
ENDBRANCH   6  24
BRANCH   8  26
ATOM     26  O   UNL     1      23.608 -14.578  26.830  1.00  0.00    -0.508 OA
ATOM     27  H   UNL     1      23.632 -14.378  27.823  1.00  0.00     0.293 HD
ENDBRANCH   8  26
TORSDOF 6
ENDMDL
MODEL 7
REMARK VINA RESULT:    -6.522      6.197      9.989
REMARK INTER + INTRA:          -8.139
REMARK INTER:                  -8.042
REMARK INTRA:                  -0.097
REMARK UNBOUND:                -0.283
REMARK SMILES O=c1c(O)c(-c2ccc(O)c(O)c2)oc2cc(O)cc(O)c12
REMARK SMILES IDX 5 1 3 2 2 3 1 4 22 5 20 6 19 7 17 8 16 9 15 10 14 11 6 12
REMARK SMILES IDX 7 13 8 14 9 15 13 16 11 17 10 18 12 20 4 22 21 24 18 26
REMARK H PARENT 10 19 12 21 4 23 21 25 18 27
REMARK Flexibility Score: inf
ROOT
ATOM      1  C   UNL     1      23.243 -10.127  28.541  1.00  0.00     0.180 A 
ATOM      2  C   UNL     1      24.133  -9.612  29.504  1.00  0.00     0.208 A 
ATOM      3  C   UNL     1      25.414 -10.177  29.616  1.00  0.00     0.238 A 
ATOM      4  O   UNL     1      26.215  -9.731  30.482  1.00  0.00    -0.285 OA
ATOM      5  C   UNL     1      25.790 -11.227  28.753  1.00  0.00     0.111 A 
ATOM      6  C   UNL     1      27.062 -11.848  28.797  1.00  0.00     0.134 A 
ATOM      7  C   UNL     1      27.363 -12.881  27.898  1.00  0.00     0.093 A 
ATOM      8  C   UNL     1      26.418 -13.305  26.957  1.00  0.00     0.123 A 
ATOM      9  C   UNL     1      25.163 -12.697  26.910  1.00  0.00     0.094 A 
ATOM     10  C   UNL     1      24.842 -11.666  27.798  1.00  0.00     0.146 A 
ATOM     11  O   UNL     1      23.638 -11.109  27.735  1.00  0.00    -0.452 OA
ENDROOT
BRANCH   1  12
ATOM     12  C   UNL     1      21.870  -9.599  28.376  1.00  0.00     0.025 A 
ATOM     13  C   UNL     1      21.451  -9.018  27.167  1.00  0.00     0.016 A 
ATOM     14  C   UNL     1      20.158  -8.503  27.041  1.00  0.00     0.051 A 
ATOM     15  C   UNL     1      19.269  -8.550  28.124  1.00  0.00     0.157 A 
ATOM     16  C   UNL     1      20.984  -9.625  29.465  1.00  0.00     0.062 A 
ATOM     17  C   UNL     1      19.688  -9.111  29.342  1.00  0.00     0.158 A 
BRANCH  15  18
ATOM     18  O   UNL     1      17.980  -8.039  27.995  1.00  0.00    -0.504 OA
ATOM     19  H   UNL     1      17.205  -8.621  27.698  1.00  0.00     0.293 HD
ENDBRANCH  15  18
BRANCH  17  20
ATOM     20  O   UNL     1      18.830  -9.168  30.441  1.00  0.00    -0.504 OA
ATOM     21  H   UNL     1      19.014  -9.766  31.238  1.00  0.00     0.293 HD
ENDBRANCH  17  20
ENDBRANCH   1  12
BRANCH   2  22
ATOM     22  O   UNL     1      23.753  -8.538  30.313  1.00  0.00    -0.502 OA
ATOM     23  H   UNL     1      23.919  -7.574  30.049  1.00  0.00     0.293 HD
ENDBRANCH   2  22
BRANCH   6  24
ATOM     24  O   UNL     1      28.025 -11.445  29.724  1.00  0.00    -0.507 OA
ATOM     25  H   UNL     1      29.016 -11.536  29.535  1.00  0.00     0.293 HD
ENDBRANCH   6  24
BRANCH   8  26
ATOM     26  O   UNL     1      26.718 -14.331  26.063  1.00  0.00    -0.508 OA
ATOM     27  H   UNL     1      26.242 -15.225  26.104  1.00  0.00     0.293 HD
ENDBRANCH   8  26
TORSDOF 6
ENDMDL
MODEL 8
REMARK VINA RESULT:    -6.251      5.122      8.894
REMARK INTER + INTRA:          -7.812
REMARK INTER:                  -7.599
REMARK INTRA:                  -0.213
REMARK UNBOUND:                -0.283
REMARK SMILES O=c1c(O)c(-c2ccc(O)c(O)c2)oc2cc(O)cc(O)c12
REMARK SMILES IDX 5 1 3 2 2 3 1 4 22 5 20 6 19 7 17 8 16 9 15 10 14 11 6 12
REMARK SMILES IDX 7 13 8 14 9 15 13 16 11 17 10 18 12 20 4 22 21 24 18 26
REMARK H PARENT 10 19 12 21 4 23 21 25 18 27
REMARK Flexibility Score: inf
ROOT
ATOM      1  C   UNL     1      23.532 -11.246  28.385  1.00  0.00     0.180 A 
ATOM      2  C   UNL     1      24.773 -10.816  28.895  1.00  0.00     0.208 A 
ATOM      3  C   UNL     1      25.952 -11.334  28.335  1.00  0.00     0.238 A 
ATOM      4  O   UNL     1      27.069 -10.965  28.791  1.00  0.00    -0.285 OA
ATOM      5  C   UNL     1      25.873 -12.252  27.268  1.00  0.00     0.111 A 
ATOM      6  C   UNL     1      27.013 -12.818  26.646  1.00  0.00     0.134 A 
ATOM      7  C   UNL     1      26.851 -13.718  25.583  1.00  0.00     0.093 A 
ATOM      8  C   UNL     1      25.572 -14.062  25.130  1.00  0.00     0.123 A 
ATOM      9  C   UNL     1      24.445 -13.508  25.740  1.00  0.00     0.094 A 
ATOM     10  C   UNL     1      24.586 -12.610  26.802  1.00  0.00     0.146 A 
ATOM     11  O   UNL     1      23.497 -12.102  27.368  1.00  0.00    -0.452 OA
ENDROOT
BRANCH   1  12
ATOM     12  C   UNL     1      22.245 -10.761  28.933  1.00  0.00     0.025 A 
ATOM     13  C   UNL     1      21.831  -9.430  28.759  1.00  0.00     0.016 A 
ATOM     14  C   UNL     1      20.624  -8.988  29.306  1.00  0.00     0.051 A 
ATOM     15  C   UNL     1      19.819  -9.865  30.047  1.00  0.00     0.157 A 
ATOM     16  C   UNL     1      21.447 -11.632  29.693  1.00  0.00     0.062 A 
ATOM     17  C   UNL     1      20.236 -11.193  30.243  1.00  0.00     0.158 A 
BRANCH  15  18
ATOM     18  O   UNL     1      18.615  -9.423  30.589  1.00  0.00    -0.504 OA
ATOM     19  H   UNL     1      18.463  -8.448  30.820  1.00  0.00     0.293 HD
ENDBRANCH  15  18
BRANCH  17  20
ATOM     20  O   UNL     1      19.462 -12.089  30.980  1.00  0.00    -0.504 OA
ATOM     21  H   UNL     1      18.578 -11.822  31.395  1.00  0.00     0.293 HD
ENDBRANCH  17  20
ENDBRANCH   1  12
BRANCH   2  22
ATOM     22  O   UNL     1      24.825  -9.868  29.919  1.00  0.00    -0.502 OA
ATOM     23  H   UNL     1      24.199  -9.072  29.954  1.00  0.00     0.293 HD
ENDBRANCH   2  22
BRANCH   6  24
ATOM     24  O   UNL     1      28.300 -12.491  27.076  1.00  0.00    -0.507 OA
ATOM     25  H   UNL     1      29.093 -12.515  26.446  1.00  0.00     0.293 HD
ENDBRANCH   6  24
BRANCH   8  26
ATOM     26  O   UNL     1      25.411 -14.956  24.073  1.00  0.00    -0.508 OA
ATOM     27  H   UNL     1      24.990 -15.868  24.210  1.00  0.00     0.293 HD
ENDBRANCH   8  26
TORSDOF 6
ENDMDL
MODEL 9
REMARK VINA RESULT:    -6.217      4.129     10.000
REMARK INTER + INTRA:          -7.771
REMARK INTER:                  -7.495
REMARK INTRA:                  -0.276
REMARK UNBOUND:                -0.283
REMARK SMILES O=c1c(O)c(-c2ccc(O)c(O)c2)oc2cc(O)cc(O)c12
REMARK SMILES IDX 5 1 3 2 2 3 1 4 22 5 20 6 19 7 17 8 16 9 15 10 14 11 6 12
REMARK SMILES IDX 7 13 8 14 9 15 13 16 11 17 10 18 12 20 4 22 21 24 18 26
REMARK H PARENT 10 19 12 21 4 23 21 25 18 27
REMARK Flexibility Score: inf
ROOT
ATOM      1  C   UNL     1      26.311 -12.123  27.475  1.00  0.00     0.180 A 
ATOM      2  C   UNL     1      27.315 -11.748  28.389  1.00  0.00     0.208 A 
ATOM      3  C   UNL     1      26.970 -10.935  29.480  1.00  0.00     0.238 A 
ATOM      4  O   UNL     1      27.862 -10.584  30.299  1.00  0.00    -0.285 OA
ATOM      5  C   UNL     1      25.630 -10.530  29.651  1.00  0.00     0.111 A 
ATOM      6  C   UNL     1      25.198  -9.714  30.725  1.00  0.00     0.134 A 
ATOM      7  C   UNL     1      23.845  -9.361  30.831  1.00  0.00     0.093 A 
ATOM      8  C   UNL     1      22.916  -9.808  29.884  1.00  0.00     0.123 A 
ATOM      9  C   UNL     1      23.337 -10.611  28.823  1.00  0.00     0.094 A 
ATOM     10  C   UNL     1      24.682 -10.973  28.699  1.00  0.00     0.146 A 
ATOM     11  O   UNL     1      25.055 -11.734  27.677  1.00  0.00    -0.452 OA
ENDROOT
BRANCH   1  12
ATOM     12  C   UNL     1      26.599 -12.962  26.289  1.00  0.00     0.025 A 
ATOM     13  C   UNL     1      27.258 -12.437  25.165  1.00  0.00     0.016 A 
ATOM     14  C   UNL     1      27.498 -13.242  24.047  1.00  0.00     0.051 A 
ATOM     15  C   UNL     1      27.072 -14.576  24.031  1.00  0.00     0.157 A 
ATOM     16  C   UNL     1      26.155 -14.294  26.262  1.00  0.00     0.062 A 
ATOM     17  C   UNL     1      26.394 -15.103  25.145  1.00  0.00     0.158 A 
BRANCH  15  18
ATOM     18  O   UNL     1      27.314 -15.377  22.917  1.00  0.00    -0.504 OA
ATOM     19  H   UNL     1      27.122 -16.372  22.926  1.00  0.00     0.293 HD
ENDBRANCH  15  18
BRANCH  17  20
ATOM     20  O   UNL     1      25.952 -16.425  25.159  1.00  0.00    -0.504 OA
ATOM     21  H   UNL     1      26.403 -17.151  24.614  1.00  0.00     0.293 HD
ENDBRANCH  17  20
ENDBRANCH   1  12
BRANCH   2  22
ATOM     22  O   UNL     1      28.625 -12.204  28.224  1.00  0.00    -0.502 OA
ATOM     23  H   UNL     1      29.136 -12.087  27.357  1.00  0.00     0.293 HD
ENDBRANCH   2  22
BRANCH   6  24
ATOM     24  O   UNL     1      26.102  -9.255  31.685  1.00  0.00    -0.507 OA
ATOM     25  H   UNL     1      27.102  -9.371  31.573  1.00  0.00     0.293 HD
ENDBRANCH   6  24
BRANCH   8  26
ATOM     26  O   UNL     1      21.571  -9.458  29.989  1.00  0.00    -0.508 OA
ATOM     27  H   UNL     1      21.279  -8.490  30.049  1.00  0.00     0.293 HD
ENDBRANCH   8  26
TORSDOF 6
ENDMDL
