MODEL 1
REMARK VINA RESULT:    -4.806      0.000      0.000
REMARK INTER + INTRA:         -13.877
REMARK INTER:                 -10.986
REMARK INTRA:                  -2.891
REMARK UNBOUND:                -2.891
REMARK SMILES CCCCCCCCCCCCCCCCCCCCCCCC(=O)[O-]
REMARK SMILES IDX 13 1 14 2 15 3 16 4 17 5 18 6 19 7 20 8 21 9 22 10 23 11
REMARK SMILES IDX 24 12 25 13 26 14 12 15 11 16 10 17 9 18 8 19 7 20 6 21 5 22
REMARK SMILES IDX 4 23 3 24 2 25 1 26
REMARK H PARENT
REMARK Flexibility Score: inf
ROOT
ATOM      1  C   UNL     1      -8.268  -7.244 -14.407  1.00  0.00     0.000 C 
ENDROOT
BRANCH   1   2
ATOM      2  C   UNL     1      -7.374  -7.131 -13.161  1.00  0.00     0.000 C 
BRANCH   2   3
ATOM      3  C   UNL     1      -7.743  -5.930 -12.276  1.00  0.00     0.000 C 
BRANCH   3   4
ATOM      4  C   UNL     1      -6.551  -5.403 -11.456  1.00  0.00     0.000 C 
BRANCH   4   5
ATOM      5  C   UNL     1      -6.725  -3.934 -11.044  1.00  0.00     0.000 C 
BRANCH   5   6
ATOM      6  C   UNL     1      -5.379  -3.212 -10.853  1.00  0.00     0.000 C 
BRANCH   6   7
ATOM      7  C   UNL     1      -5.486  -1.689 -11.053  1.00  0.00     0.000 C 
BRANCH   7   8
ATOM      8  C   UNL     1      -6.715  -1.035 -10.392  1.00  0.00     0.000 C 
BRANCH   8   9
ATOM      9  C   UNL     1      -6.456  -0.398  -9.012  1.00  0.00     0.000 C 
BRANCH   9  10
ATOM     10  C   UNL     1      -7.326   0.831  -8.692  1.00  0.00     0.006 C 
BRANCH  10  11
ATOM     11  C   UNL     1      -6.546   2.150  -8.769  1.00  0.00     0.053 C 
BRANCH  11  12
ATOM     12  C   UNL     1      -6.798   2.839 -10.075  1.00  0.00     0.041 C 
ATOM     13  O   UNL     1      -7.626   3.786 -10.142  1.00  0.00    -0.550 OA
ATOM     14  O   UNL     1      -6.117   2.438 -11.219  1.00  0.00    -0.550 OA
ENDBRANCH  11  12
ENDBRANCH  10  11
ENDBRANCH   9  10
ENDBRANCH   8   9
ENDBRANCH   7   8
ENDBRANCH   6   7
ENDBRANCH   5   6
ENDBRANCH   4   5
ENDBRANCH   3   4
ENDBRANCH   2   3
ENDBRANCH   1   2
BRANCH   1  15
ATOM     15  C   UNL     1      -9.769  -7.211 -14.070  1.00  0.00     0.000 C 
BRANCH  15  16
ATOM     16  C   UNL     1     -10.470  -5.903 -14.496  1.00  0.00     0.000 C 
BRANCH  16  17
ATOM     17  C   UNL     1      -9.871  -5.321 -15.788  1.00  0.00     0.000 C 
BRANCH  17  18
ATOM     18  C   UNL     1      -9.558  -3.821 -15.674  1.00  0.00    -0.000 C 
BRANCH  18  19
ATOM     19  C   UNL     1      -8.317  -3.539 -14.809  1.00  0.00    -0.000 C 
BRANCH  19  20
ATOM     20  C   UNL     1      -7.021  -4.063 -15.462  1.00  0.00    -0.000 C 
BRANCH  20  21
ATOM     21  C   UNL     1      -5.766  -3.848 -14.599  1.00  0.00    -0.000 C 
BRANCH  21  22
ATOM     22  C   UNL     1      -5.256  -2.399 -14.636  1.00  0.00    -0.000 C 
BRANCH  22  23
ATOM     23  C   UNL     1      -3.717  -2.321 -14.536  1.00  0.00    -0.000 C 
BRANCH  23  24
ATOM     24  C   UNL     1      -3.007  -2.384 -15.902  1.00  0.00    -0.000 C 
BRANCH  24  25
ATOM     25  C   UNL     1      -3.747  -1.662 -17.043  1.00  0.00    -0.003 C 
ATOM     26  C   UNL     1      -3.123  -1.926 -18.413  1.00  0.00     0.004 C 
ENDBRANCH  24  25
ENDBRANCH  23  24
ENDBRANCH  22  23
ENDBRANCH  21  22
ENDBRANCH  20  21
ENDBRANCH  19  20
ENDBRANCH  18  19
ENDBRANCH  17  18
ENDBRANCH  16  17
ENDBRANCH  15  16
ENDBRANCH   1  15
TORSDOF 22
ENDMDL
MODEL 2
REMARK VINA RESULT:    -4.799      3.518      7.504
REMARK INTER + INTRA:         -13.863
REMARK INTER:                 -11.094
REMARK INTRA:                  -2.769
REMARK UNBOUND:                -2.891
REMARK SMILES CCCCCCCCCCCCCCCCCCCCCCCC(=O)[O-]
REMARK SMILES IDX 13 1 14 2 15 3 16 4 17 5 18 6 19 7 20 8 21 9 22 10 23 11
REMARK SMILES IDX 24 12 25 13 26 14 12 15 11 16 10 17 9 18 8 19 7 20 6 21 5 22
REMARK SMILES IDX 4 23 3 24 2 25 1 26
REMARK H PARENT
REMARK Flexibility Score: inf
ROOT
ATOM      1  C   UNL     1      -6.276  -1.095  -9.725  1.00  0.00     0.000 C 
ENDROOT
BRANCH   1   2
ATOM      2  C   UNL     1      -7.011  -0.499 -10.937  1.00  0.00     0.000 C 
BRANCH   2   3
ATOM      3  C   UNL     1      -7.777  -1.560 -11.744  1.00  0.00     0.000 C 
BRANCH   3   4
ATOM      4  C   UNL     1      -7.209  -2.978 -11.554  1.00  0.00     0.000 C 
BRANCH   4   5
ATOM      5  C   UNL     1      -7.487  -3.888 -12.760  1.00  0.00     0.000 C 
BRANCH   5   6
ATOM      6  C   UNL     1      -8.279  -3.172 -13.869  1.00  0.00     0.000 C 
BRANCH   6   7
ATOM      7  C   UNL     1      -8.213  -3.908 -15.219  1.00  0.00     0.000 C 
BRANCH   7   8
ATOM      8  C   UNL     1      -9.485  -3.788 -16.084  1.00  0.00     0.000 C 
BRANCH   8   9
ATOM      9  C   UNL     1     -10.289  -5.093 -16.249  1.00  0.00     0.000 C 
BRANCH   9  10
ATOM     10  C   UNL     1     -11.432  -5.282 -15.235  1.00  0.00     0.006 C 
BRANCH  10  11
ATOM     11  C   UNL     1     -10.978  -5.988 -13.950  1.00  0.00     0.053 C 
BRANCH  11  12
ATOM     12  C   UNL     1     -10.296  -7.282 -14.269  1.00  0.00     0.041 C 
ATOM     13  O   UNL     1      -9.109  -7.482 -13.896  1.00  0.00    -0.550 OA
ATOM     14  O   UNL     1     -10.971  -8.272 -14.977  1.00  0.00    -0.550 OA
ENDBRANCH  11  12
ENDBRANCH  10  11
ENDBRANCH   9  10
ENDBRANCH   8   9
ENDBRANCH   7   8
ENDBRANCH   6   7
ENDBRANCH   5   6
ENDBRANCH   4   5
ENDBRANCH   3   4
ENDBRANCH   2   3
ENDBRANCH   1   2
BRANCH   1  15
ATOM     15  C   UNL     1      -5.701  -0.020  -8.787  1.00  0.00     0.000 C 
BRANCH  15  16
ATOM     16  C   UNL     1      -5.626   1.383  -9.427  1.00  0.00     0.000 C 
BRANCH  16  17
ATOM     17  C   UNL     1      -4.200   1.734  -9.886  1.00  0.00     0.000 C 
BRANCH  17  18
ATOM     18  C   UNL     1      -3.875   1.187 -11.284  1.00  0.00    -0.000 C 
BRANCH  18  19
ATOM     19  C   UNL     1      -2.827   0.061 -11.252  1.00  0.00    -0.000 C 
BRANCH  19  20
ATOM     20  C   UNL     1      -3.419  -1.297 -11.685  1.00  0.00    -0.000 C 
BRANCH  20  21
ATOM     21  C   UNL     1      -3.203  -1.615 -13.175  1.00  0.00    -0.000 C 
BRANCH  21  22
ATOM     22  C   UNL     1      -4.285  -2.543 -13.750  1.00  0.00    -0.000 C 
BRANCH  22  23
ATOM     23  C   UNL     1      -4.780  -2.071 -15.135  1.00  0.00    -0.000 C 
BRANCH  23  24
ATOM     24  C   UNL     1      -3.871  -2.514 -16.298  1.00  0.00    -0.000 C 
BRANCH  24  25
ATOM     25  C   UNL     1      -3.609  -1.428 -17.355  1.00  0.00    -0.003 C 
ATOM     26  C   UNL     1      -2.976  -1.984 -18.631  1.00  0.00     0.004 C 
ENDBRANCH  24  25
ENDBRANCH  23  24
ENDBRANCH  22  23
ENDBRANCH  21  22
ENDBRANCH  20  21
ENDBRANCH  19  20
ENDBRANCH  18  19
ENDBRANCH  17  18
ENDBRANCH  16  17
ENDBRANCH  15  16
ENDBRANCH   1  15
TORSDOF 22
ENDMDL
MODEL 3
REMARK VINA RESULT:    -4.781      3.179      7.060
REMARK INTER + INTRA:         -13.821
REMARK INTER:                 -11.095
REMARK INTRA:                  -2.726
REMARK UNBOUND:                -2.891
REMARK SMILES CCCCCCCCCCCCCCCCCCCCCCCC(=O)[O-]
REMARK SMILES IDX 13 1 14 2 15 3 16 4 17 5 18 6 19 7 20 8 21 9 22 10 23 11
REMARK SMILES IDX 24 12 25 13 26 14 12 15 11 16 10 17 9 18 8 19 7 20 6 21 5 22
REMARK SMILES IDX 4 23 3 24 2 25 1 26
REMARK H PARENT
REMARK Flexibility Score: inf
ROOT
ATOM      1  C   UNL     1      -5.092   2.082 -11.258  1.00  0.00     0.000 C 
ENDROOT
BRANCH   1   2
ATOM      2  C   UNL     1      -6.423   2.573 -10.665  1.00  0.00     0.000 C 
BRANCH   2   3
ATOM      3  C   UNL     1      -6.584   2.195  -9.184  1.00  0.00     0.000 C 
BRANCH   3   4
ATOM      4  C   UNL     1      -7.289   0.841  -8.986  1.00  0.00     0.000 C 
BRANCH   4   5
ATOM      5  C   UNL     1      -6.301  -0.296  -8.681  1.00  0.00     0.000 C 
BRANCH   5   6
ATOM      6  C   UNL     1      -6.190  -1.307  -9.836  1.00  0.00     0.000 C 
BRANCH   6   7
ATOM      7  C   UNL     1      -7.151  -0.993 -10.997  1.00  0.00     0.000 C 
BRANCH   7   8
ATOM      8  C   UNL     1      -6.940  -1.851 -12.261  1.00  0.00     0.000 C 
BRANCH   8   9
ATOM      9  C   UNL     1      -8.207  -2.541 -12.803  1.00  0.00     0.000 C 
BRANCH   9  10
ATOM     10  C   UNL     1      -8.098  -3.052 -14.251  1.00  0.00     0.006 C 
BRANCH  10  11
ATOM     11  C   UNL     1      -8.980  -4.279 -14.519  1.00  0.00     0.053 C 
BRANCH  11  12
ATOM     12  C   UNL     1     -10.109  -3.928 -15.439  1.00  0.00     0.041 C 
ATOM     13  O   UNL     1     -11.296  -4.202 -15.118  1.00  0.00    -0.550 OA
ATOM     14  O   UNL     1      -9.852  -3.296 -16.651  1.00  0.00    -0.550 OA
ENDBRANCH  11  12
ENDBRANCH  10  11
ENDBRANCH   9  10
ENDBRANCH   8   9
ENDBRANCH   7   8
ENDBRANCH   6   7
ENDBRANCH   5   6
ENDBRANCH   4   5
ENDBRANCH   3   4
ENDBRANCH   2   3
ENDBRANCH   1   2
BRANCH   1  15
ATOM     15  C   UNL     1      -3.958   2.031 -10.220  1.00  0.00     0.000 C 
BRANCH  15  16
ATOM     16  C   UNL     1      -2.674   1.347 -10.739  1.00  0.00     0.000 C 
BRANCH  16  17
ATOM     17  C   UNL     1      -2.674  -0.166 -10.464  1.00  0.00     0.000 C 
BRANCH  17  18
ATOM     18  C   UNL     1      -2.879  -1.001 -11.737  1.00  0.00    -0.000 C 
BRANCH  18  19
ATOM     19  C   UNL     1      -3.100  -2.494 -11.438  1.00  0.00    -0.000 C 
BRANCH  19  20
ATOM     20  C   UNL     1      -3.722  -3.241 -12.636  1.00  0.00    -0.000 C 
BRANCH  20  21
ATOM     21  C   UNL     1      -3.068  -2.896 -13.984  1.00  0.00    -0.000 C 
BRANCH  21  22
ATOM     22  C   UNL     1      -4.037  -2.209 -14.961  1.00  0.00    -0.000 C 
BRANCH  22  23
ATOM     23  C   UNL     1      -3.783  -2.629 -16.425  1.00  0.00    -0.000 C 
BRANCH  23  24
ATOM     24  C   UNL     1      -3.634  -1.438 -17.390  1.00  0.00    -0.000 C 
BRANCH  24  25
ATOM     25  C   UNL     1      -2.649  -1.672 -18.549  1.00  0.00    -0.003 C 
ATOM     26  C   UNL     1      -1.243  -1.153 -18.245  1.00  0.00     0.004 C 
ENDBRANCH  24  25
ENDBRANCH  23  24
ENDBRANCH  22  23
ENDBRANCH  21  22
ENDBRANCH  20  21
ENDBRANCH  19  20
ENDBRANCH  18  19
ENDBRANCH  17  18
ENDBRANCH  16  17
ENDBRANCH  15  16
ENDBRANCH   1  15
TORSDOF 22
ENDMDL
MODEL 4
REMARK VINA RESULT:    -4.765      3.380      6.586
REMARK INTER + INTRA:         -13.785
REMARK INTER:                 -10.232
REMARK INTRA:                  -3.553
REMARK UNBOUND:                -2.891
REMARK SMILES CCCCCCCCCCCCCCCCCCCCCCCC(=O)[O-]
REMARK SMILES IDX 13 1 14 2 15 3 16 4 17 5 18 6 19 7 20 8 21 9 22 10 23 11
REMARK SMILES IDX 24 12 25 13 26 14 12 15 11 16 10 17 9 18 8 19 7 20 6 21 5 22
REMARK SMILES IDX 4 23 3 24 2 25 1 26
REMARK H PARENT
REMARK Flexibility Score: inf
ROOT
ATOM      1  C   UNL     1      -5.896  -4.790  -9.406  1.00  0.00     0.000 C 
ENDROOT
BRANCH   1   2
ATOM      2  C   UNL     1      -4.794  -3.840  -9.904  1.00  0.00     0.000 C 
BRANCH   2   3
ATOM      3  C   UNL     1      -4.872  -2.452  -9.250  1.00  0.00     0.000 C 
BRANCH   3   4
ATOM      4  C   UNL     1      -6.028  -1.596  -9.800  1.00  0.00     0.000 C 
BRANCH   4   5
ATOM      5  C   UNL     1      -5.617  -0.779 -11.035  1.00  0.00     0.000 C 
BRANCH   5   6
ATOM      6  C   UNL     1      -4.115  -0.443 -11.046  1.00  0.00     0.000 C 
BRANCH   6   7
ATOM      7  C   UNL     1      -3.365  -1.105 -12.216  1.00  0.00     0.000 C 
BRANCH   7   8
ATOM      8  C   UNL     1      -4.251  -1.936 -13.166  1.00  0.00     0.000 C 
BRANCH   8   9
ATOM      9  C   UNL     1      -3.578  -2.360 -14.486  1.00  0.00     0.000 C 
BRANCH   9  10
ATOM     10  C   UNL     1      -4.441  -2.165 -15.745  1.00  0.00     0.006 C 
BRANCH  10  11
ATOM     11  C   UNL     1      -3.610  -1.824 -16.990  1.00  0.00     0.053 C 
BRANCH  11  12
ATOM     12  C   UNL     1      -2.919  -3.044 -17.516  1.00  0.00     0.041 C 
ATOM     13  O   UNL     1      -1.672  -3.035 -17.701  1.00  0.00    -0.550 OA
ATOM     14  O   UNL     1      -3.648  -4.193 -17.800  1.00  0.00    -0.550 OA
ENDBRANCH  11  12
ENDBRANCH  10  11
ENDBRANCH   9  10
ENDBRANCH   8   9
ENDBRANCH   7   8
ENDBRANCH   6   7
ENDBRANCH   5   6
ENDBRANCH   4   5
ENDBRANCH   3   4
ENDBRANCH   2   3
ENDBRANCH   1   2
BRANCH   1  15
ATOM     15  C   UNL     1      -7.047  -4.950 -10.415  1.00  0.00     0.000 C 
BRANCH  15  16
ATOM     16  C   UNL     1      -6.661  -5.762 -11.670  1.00  0.00     0.000 C 
BRANCH  16  17
ATOM     17  C   UNL     1      -6.670  -4.898 -12.943  1.00  0.00     0.000 C 
BRANCH  17  18
ATOM     18  C   UNL     1      -7.456  -3.590 -12.768  1.00  0.00    -0.000 C 
BRANCH  18  19
ATOM     19  C   UNL     1      -7.753  -2.893 -14.106  1.00  0.00    -0.000 C 
BRANCH  19  20
ATOM     20  C   UNL     1      -8.052  -3.902 -15.234  1.00  0.00    -0.000 C 
BRANCH  20  21
ATOM     21  C   UNL     1      -9.502  -3.845 -15.743  1.00  0.00    -0.000 C 
BRANCH  21  22
ATOM     22  C   UNL     1     -10.535  -4.112 -14.636  1.00  0.00    -0.000 C 
BRANCH  22  23
ATOM     23  C   UNL     1     -11.531  -5.226 -15.026  1.00  0.00    -0.000 C 
BRANCH  23  24
ATOM     24  C   UNL     1     -10.922  -6.641 -14.979  1.00  0.00    -0.000 C 
BRANCH  24  25
ATOM     25  C   UNL     1      -9.930  -6.873 -13.826  1.00  0.00    -0.003 C 
ATOM     26  C   UNL     1      -8.682  -7.639 -14.264  1.00  0.00     0.004 C 
ENDBRANCH  24  25
ENDBRANCH  23  24
ENDBRANCH  22  23
ENDBRANCH  21  22
ENDBRANCH  20  21
ENDBRANCH  19  20
ENDBRANCH  18  19
ENDBRANCH  17  18
ENDBRANCH  16  17
ENDBRANCH  15  16
ENDBRANCH   1  15
TORSDOF 22
ENDMDL
MODEL 5
REMARK VINA RESULT:    -4.714      1.529      3.904
REMARK INTER + INTRA:         -13.669
REMARK INTER:                 -10.786
REMARK INTRA:                  -2.883
REMARK UNBOUND:                -2.891
REMARK SMILES CCCCCCCCCCCCCCCCCCCCCCCC(=O)[O-]
REMARK SMILES IDX 13 1 14 2 15 3 16 4 17 5 18 6 19 7 20 8 21 9 22 10 23 11
REMARK SMILES IDX 24 12 25 13 26 14 12 15 11 16 10 17 9 18 8 19 7 20 6 21 5 22
REMARK SMILES IDX 4 23 3 24 2 25 1 26
REMARK H PARENT
REMARK Flexibility Score: inf
ROOT
ATOM      1  C   UNL     1      -9.574  -7.717 -13.864  1.00  0.00     0.000 C 
ENDROOT
BRANCH   1   2
ATOM      2  C   UNL     1     -10.572  -7.117 -14.868  1.00  0.00     0.000 C 
BRANCH   2   3
ATOM      3  C   UNL     1     -11.437  -6.007 -14.249  1.00  0.00     0.000 C 
BRANCH   3   4
ATOM      4  C   UNL     1     -11.242  -4.644 -14.938  1.00  0.00     0.000 C 
BRANCH   4   5
ATOM      5  C   UNL     1     -10.144  -4.681 -16.011  1.00  0.00     0.000 C 
BRANCH   5   6
ATOM      6  C   UNL     1      -8.885  -3.899 -15.594  1.00  0.00     0.000 C 
BRANCH   6   7
ATOM      7  C   UNL     1      -8.943  -3.410 -14.135  1.00  0.00     0.000 C 
BRANCH   7   8
ATOM      8  C   UNL     1      -7.725  -2.581 -13.682  1.00  0.00     0.000 C 
BRANCH   8   9
ATOM      9  C   UNL     1      -7.260  -2.837 -12.235  1.00  0.00     0.000 C 
BRANCH   9  10
ATOM     10  C   UNL     1      -6.221  -1.835 -11.701  1.00  0.00     0.006 C 
BRANCH  10  11
ATOM     11  C   UNL     1      -6.316  -1.628 -10.183  1.00  0.00     0.053 C 
BRANCH  11  12
ATOM     12  C   UNL     1      -6.633  -0.200  -9.863  1.00  0.00     0.041 C 
ATOM     13  O   UNL     1      -7.358   0.080  -8.871  1.00  0.00    -0.550 OA
ATOM     14  O   UNL     1      -6.128   0.823 -10.657  1.00  0.00    -0.550 OA
ENDBRANCH  11  12
ENDBRANCH  10  11
ENDBRANCH   9  10
ENDBRANCH   8   9
ENDBRANCH   7   8
ENDBRANCH   6   7
ENDBRANCH   5   6
ENDBRANCH   4   5
ENDBRANCH   3   4
ENDBRANCH   2   3
ENDBRANCH   1   2
BRANCH   1  15
ATOM     15  C   UNL     1      -8.122  -7.288 -14.136  1.00  0.00     0.000 C 
BRANCH  15  16
ATOM     16  C   UNL     1      -7.458  -6.562 -12.947  1.00  0.00     0.000 C 
BRANCH  16  17
ATOM     17  C   UNL     1      -5.969  -6.271 -13.205  1.00  0.00     0.000 C 
BRANCH  17  18
ATOM     18  C   UNL     1      -5.725  -5.573 -14.551  1.00  0.00    -0.000 C 
BRANCH  18  19
ATOM     19  C   UNL     1      -4.319  -4.956 -14.653  1.00  0.00    -0.000 C 
BRANCH  19  20
ATOM     20  C   UNL     1      -4.367  -3.420 -14.794  1.00  0.00    -0.000 C 
BRANCH  20  21
ATOM     21  C   UNL     1      -3.366  -2.865 -15.822  1.00  0.00    -0.000 C 
BRANCH  21  22
ATOM     22  C   UNL     1      -3.993  -1.827 -16.767  1.00  0.00    -0.000 C 
BRANCH  22  23
ATOM     23  C   UNL     1      -2.953  -1.213 -17.729  1.00  0.00    -0.000 C 
BRANCH  23  24
ATOM     24  C   UNL     1      -2.843  -1.957 -19.073  1.00  0.00    -0.000 C 
BRANCH  24  25
ATOM     25  C   UNL     1      -1.417  -2.039 -19.645  1.00  0.00    -0.003 C 
ATOM     26  C   UNL     1      -0.374  -1.401 -18.728  1.00  0.00     0.004 C 
ENDBRANCH  24  25
ENDBRANCH  23  24
ENDBRANCH  22  23
ENDBRANCH  21  22
ENDBRANCH  20  21
ENDBRANCH  19  20
ENDBRANCH  18  19
ENDBRANCH  17  18
ENDBRANCH  16  17
ENDBRANCH  15  16
ENDBRANCH   1  15
TORSDOF 22
ENDMDL
MODEL 6
REMARK VINA RESULT:    -4.709      3.697      7.251
REMARK INTER + INTRA:         -13.658
REMARK INTER:                 -10.624
REMARK INTRA:                  -3.034
REMARK UNBOUND:                -2.891
REMARK SMILES CCCCCCCCCCCCCCCCCCCCCCCC(=O)[O-]
REMARK SMILES IDX 13 1 14 2 15 3 16 4 17 5 18 6 19 7 20 8 21 9 22 10 23 11
REMARK SMILES IDX 24 12 25 13 26 14 12 15 11 16 10 17 9 18 8 19 7 20 6 21 5 22
REMARK SMILES IDX 4 23 3 24 2 25 1 26
REMARK H PARENT
REMARK Flexibility Score: inf
ROOT
ATOM      1  C   UNL     1      -8.496  -3.397 -13.855  1.00  0.00     0.000 C 
ENDROOT
BRANCH   1   2
ATOM      2  C   UNL     1      -7.956  -2.153 -13.129  1.00  0.00     0.000 C 
BRANCH   2   3
ATOM      3  C   UNL     1      -7.730  -2.397 -11.629  1.00  0.00     0.000 C 
BRANCH   3   4
ATOM      4  C   UNL     1      -6.252  -2.268 -11.219  1.00  0.00     0.000 C 
BRANCH   4   5
ATOM      5  C   UNL     1      -5.332  -1.988 -12.417  1.00  0.00     0.000 C 
BRANCH   5   6
ATOM      6  C   UNL     1      -4.186  -3.009 -12.533  1.00  0.00     0.000 C 
BRANCH   6   7
ATOM      7  C   UNL     1      -3.779  -3.286 -13.991  1.00  0.00     0.000 C 
BRANCH   7   8
ATOM      8  C   UNL     1      -4.288  -2.249 -15.013  1.00  0.00     0.000 C 
BRANCH   8   9
ATOM      9  C   UNL     1      -4.020  -2.599 -16.490  1.00  0.00     0.000 C 
BRANCH   9  10
ATOM     10  C   UNL     1      -3.463  -1.443 -17.339  1.00  0.00     0.006 C 
BRANCH  10  11
ATOM     11  C   UNL     1      -2.989  -1.896 -18.727  1.00  0.00     0.053 C 
BRANCH  11  12
ATOM     12  C   UNL     1      -1.501  -2.065 -18.749  1.00  0.00     0.041 C 
ATOM     13  O   UNL     1      -0.750  -1.055 -18.814  1.00  0.00    -0.550 OA
ATOM     14  O   UNL     1      -0.942  -3.337 -18.694  1.00  0.00    -0.550 OA
ENDBRANCH  11  12
ENDBRANCH  10  11
ENDBRANCH   9  10
ENDBRANCH   8   9
ENDBRANCH   7   8
ENDBRANCH   6   7
ENDBRANCH   5   6
ENDBRANCH   4   5
ENDBRANCH   3   4
ENDBRANCH   2   3
ENDBRANCH   1   2
BRANCH   1  15
ATOM     15  C   UNL     1      -7.598  -3.845 -15.021  1.00  0.00     0.000 C 
BRANCH  15  16
ATOM     16  C   UNL     1      -6.780  -5.119 -14.716  1.00  0.00     0.000 C 
BRANCH  16  17
ATOM     17  C   UNL     1      -7.104  -5.696 -13.328  1.00  0.00     0.000 C 
BRANCH  17  18
ATOM     18  C   UNL     1      -7.068  -7.232 -13.300  1.00  0.00    -0.000 C 
BRANCH  18  19
ATOM     19  C   UNL     1      -7.143  -7.852 -14.705  1.00  0.00    -0.000 C 
BRANCH  19  20
ATOM     20  C   UNL     1      -8.557  -7.746 -15.313  1.00  0.00    -0.000 C 
BRANCH  20  21
ATOM     21  C   UNL     1      -9.581  -8.688 -14.657  1.00  0.00    -0.000 C 
BRANCH  21  22
ATOM     22  C   UNL     1     -10.821  -7.948 -14.129  1.00  0.00    -0.000 C 
BRANCH  22  23
ATOM     23  C   UNL     1     -10.600  -6.422 -14.054  1.00  0.00    -0.000 C 
BRANCH  23  24
ATOM     24  C   UNL     1     -11.568  -5.615 -14.940  1.00  0.00    -0.000 C 
BRANCH  24  25
ATOM     25  C   UNL     1     -12.468  -4.630 -14.174  1.00  0.00    -0.003 C 
ATOM     26  C   UNL     1     -13.513  -3.963 -15.069  1.00  0.00     0.004 C 
ENDBRANCH  24  25
ENDBRANCH  23  24
ENDBRANCH  22  23
ENDBRANCH  21  22
ENDBRANCH  20  21
ENDBRANCH  19  20
ENDBRANCH  18  19
ENDBRANCH  17  18
ENDBRANCH  16  17
ENDBRANCH  15  16
ENDBRANCH   1  15
TORSDOF 22
ENDMDL
MODEL 7
REMARK VINA RESULT:    -4.708      3.295      7.132
REMARK INTER + INTRA:         -13.655
REMARK INTER:                  -9.779
REMARK INTRA:                  -3.876
REMARK UNBOUND:                -2.891
REMARK SMILES CCCCCCCCCCCCCCCCCCCCCCCC(=O)[O-]
REMARK SMILES IDX 13 1 14 2 15 3 16 4 17 5 18 6 19 7 20 8 21 9 22 10 23 11
REMARK SMILES IDX 24 12 25 13 26 14 12 15 11 16 10 17 9 18 8 19 7 20 6 21 5 22
REMARK SMILES IDX 4 23 3 24 2 25 1 26
REMARK H PARENT
REMARK Flexibility Score: inf
ROOT
ATOM      1  C   UNL     1      -2.367  -3.066 -13.460  1.00  0.00     0.000 C 
ENDROOT
BRANCH   1   2
ATOM      2  C   UNL     1      -3.316  -2.707 -14.616  1.00  0.00     0.000 C 
BRANCH   2   3
ATOM      3  C   UNL     1      -4.704  -2.266 -14.125  1.00  0.00     0.000 C 
BRANCH   3   4
ATOM      4  C   UNL     1      -5.852  -2.926 -14.911  1.00  0.00     0.000 C 
BRANCH   4   5
ATOM      5  C   UNL     1      -5.691  -4.450 -15.018  1.00  0.00     0.000 C 
BRANCH   5   6
ATOM      6  C   UNL     1      -6.869  -5.117 -15.751  1.00  0.00     0.000 C 
BRANCH   6   7
ATOM      7  C   UNL     1      -7.918  -5.700 -14.787  1.00  0.00     0.000 C 
BRANCH   7   8
ATOM      8  C   UNL     1      -9.018  -4.710 -14.353  1.00  0.00     0.000 C 
BRANCH   8   9
ATOM      9  C   UNL     1      -9.302  -3.568 -15.348  1.00  0.00     0.000 C 
BRANCH   9  10
ATOM     10  C   UNL     1     -10.505  -3.804 -16.279  1.00  0.00     0.006 C 
BRANCH  10  11
ATOM     11  C   UNL     1     -11.445  -4.906 -15.772  1.00  0.00     0.053 C 
BRANCH  11  12
ATOM     12  C   UNL     1     -12.620  -4.311 -15.058  1.00  0.00     0.041 C 
ATOM     13  O   UNL     1     -12.756  -4.476 -13.816  1.00  0.00    -0.550 OA
ATOM     14  O   UNL     1     -13.565  -3.573 -15.762  1.00  0.00    -0.550 OA
ENDBRANCH  11  12
ENDBRANCH  10  11
ENDBRANCH   9  10
ENDBRANCH   8   9
ENDBRANCH   7   8
ENDBRANCH   6   7
ENDBRANCH   5   6
ENDBRANCH   4   5
ENDBRANCH   3   4
ENDBRANCH   2   3
ENDBRANCH   1   2
BRANCH   1  15
ATOM     15  C   UNL     1      -3.108  -3.313 -12.135  1.00  0.00     0.000 C 
BRANCH  15  16
ATOM     16  C   UNL     1      -3.452  -4.798 -11.886  1.00  0.00     0.000 C 
BRANCH  16  17
ATOM     17  C   UNL     1      -4.605  -4.963 -10.881  1.00  0.00     0.000 C 
BRANCH  17  18
ATOM     18  C   UNL     1      -5.987  -4.918 -11.549  1.00  0.00    -0.000 C 
BRANCH  18  19
ATOM     19  C   UNL     1      -6.992  -4.046 -10.777  1.00  0.00    -0.000 C 
BRANCH  19  20
ATOM     20  C   UNL     1      -7.416  -2.798 -11.579  1.00  0.00    -0.000 C 
BRANCH  20  21
ATOM     21  C   UNL     1      -6.847  -1.483 -11.019  1.00  0.00    -0.000 C 
BRANCH  21  22
ATOM     22  C   UNL     1      -5.820  -1.706  -9.898  1.00  0.00    -0.000 C 
BRANCH  22  23
ATOM     23  C   UNL     1      -4.790  -0.558  -9.815  1.00  0.00    -0.000 C 
BRANCH  23  24
ATOM     24  C   UNL     1      -4.484   0.095 -11.176  1.00  0.00    -0.000 C 
BRANCH  24  25
ATOM     25  C   UNL     1      -4.551   1.632 -11.179  1.00  0.00    -0.003 C 
ATOM     26  C   UNL     1      -5.899   2.167 -10.694  1.00  0.00     0.004 C 
ENDBRANCH  24  25
ENDBRANCH  23  24
ENDBRANCH  22  23
ENDBRANCH  21  22
ENDBRANCH  20  21
ENDBRANCH  19  20
ENDBRANCH  18  19
ENDBRANCH  17  18
ENDBRANCH  16  17
ENDBRANCH  15  16
ENDBRANCH   1  15
TORSDOF 22
ENDMDL
MODEL 8
REMARK VINA RESULT:    -4.647      1.552      4.398
REMARK INTER + INTRA:         -13.515
REMARK INTER:                 -10.287
REMARK INTRA:                  -3.227
REMARK UNBOUND:                -2.891
REMARK SMILES CCCCCCCCCCCCCCCCCCCCCCCC(=O)[O-]
REMARK SMILES IDX 13 1 14 2 15 3 16 4 17 5 18 6 19 7 20 8 21 9 22 10 23 11
REMARK SMILES IDX 24 12 25 13 26 14 12 15 11 16 10 17 9 18 8 19 7 20 6 21 5 22
REMARK SMILES IDX 4 23 3 24 2 25 1 26
REMARK H PARENT
REMARK Flexibility Score: inf
ROOT
ATOM      1  C   UNL     1      -7.852  -4.018 -15.012  1.00  0.00     0.000 C 
ENDROOT
BRANCH   1   2
ATOM      2  C   UNL     1      -7.142  -3.439 -13.777  1.00  0.00     0.000 C 
BRANCH   2   3
ATOM      3  C   UNL     1      -5.615  -3.606 -13.842  1.00  0.00     0.000 C 
BRANCH   3   4
ATOM      4  C   UNL     1      -4.893  -2.320 -14.286  1.00  0.00     0.000 C 
BRANCH   4   5
ATOM      5  C   UNL     1      -4.222  -1.588 -13.115  1.00  0.00     0.000 C 
BRANCH   5   6
ATOM      6  C   UNL     1      -4.009  -2.501 -11.894  1.00  0.00     0.000 C 
BRANCH   6   7
ATOM      7  C   UNL     1      -4.448  -1.843 -10.573  1.00  0.00     0.000 C 
BRANCH   7   8
ATOM      8  C   UNL     1      -5.874  -2.206 -10.112  1.00  0.00     0.000 C 
BRANCH   8   9
ATOM      9  C   UNL     1      -7.000  -1.363 -10.741  1.00  0.00     0.000 C 
BRANCH   9  10
ATOM     10  C   UNL     1      -6.877   0.154 -10.517  1.00  0.00     0.006 C 
BRANCH  10  11
ATOM     11  C   UNL     1      -7.032   0.555  -9.043  1.00  0.00     0.053 C 
BRANCH  11  12
ATOM     12  C   UNL     1      -6.550   1.955  -8.822  1.00  0.00     0.041 C 
ATOM     13  O   UNL     1      -5.744   2.207  -7.887  1.00  0.00    -0.550 OA
ATOM     14  O   UNL     1      -6.988   2.984  -9.649  1.00  0.00    -0.550 OA
ENDBRANCH  11  12
ENDBRANCH  10  11
ENDBRANCH   9  10
ENDBRANCH   8   9
ENDBRANCH   7   8
ENDBRANCH   6   7
ENDBRANCH   5   6
ENDBRANCH   4   5
ENDBRANCH   3   4
ENDBRANCH   2   3
ENDBRANCH   1   2
BRANCH   1  15
ATOM     15  C   UNL     1      -9.300  -3.519 -15.157  1.00  0.00     0.000 C 
BRANCH  15  16
ATOM     16  C   UNL     1     -10.024  -4.074 -16.402  1.00  0.00     0.000 C 
BRANCH  16  17
ATOM     17  C   UNL     1     -11.401  -4.666 -16.055  1.00  0.00     0.000 C 
BRANCH  17  18
ATOM     18  C   UNL     1     -11.450  -5.266 -14.641  1.00  0.00    -0.000 C 
BRANCH  18  19
ATOM     19  C   UNL     1     -11.040  -6.748 -14.611  1.00  0.00    -0.000 C 
BRANCH  19  20
ATOM     20  C   UNL     1      -9.749  -6.978 -13.798  1.00  0.00    -0.000 C 
BRANCH  20  21
ATOM     21  C   UNL     1      -8.622  -7.643 -14.607  1.00  0.00    -0.000 C 
BRANCH  21  22
ATOM     22  C   UNL     1      -7.475  -8.158 -13.722  1.00  0.00    -0.000 C 
BRANCH  22  23
ATOM     23  C   UNL     1      -6.712  -7.007 -13.031  1.00  0.00    -0.000 C 
BRANCH  23  24
ATOM     24  C   UNL     1      -6.790  -7.053 -11.493  1.00  0.00    -0.000 C 
BRANCH  24  25
ATOM     25  C   UNL     1      -6.902  -5.676 -10.816  1.00  0.00    -0.003 C 
ATOM     26  C   UNL     1      -6.747  -5.749  -9.297  1.00  0.00     0.004 C 
ENDBRANCH  24  25
ENDBRANCH  23  24
ENDBRANCH  22  23
ENDBRANCH  21  22
ENDBRANCH  20  21
ENDBRANCH  19  20
ENDBRANCH  18  19
ENDBRANCH  17  18
ENDBRANCH  16  17
ENDBRANCH  15  16
ENDBRANCH   1  15
TORSDOF 22
ENDMDL
MODEL 9
REMARK VINA RESULT:    -4.644      1.551      4.682
REMARK INTER + INTRA:         -13.508
REMARK INTER:                 -10.056
REMARK INTRA:                  -3.452
REMARK UNBOUND:                -2.891
REMARK SMILES CCCCCCCCCCCCCCCCCCCCCCCC(=O)[O-]
REMARK SMILES IDX 13 1 14 2 15 3 16 4 17 5 18 6 19 7 20 8 21 9 22 10 23 11
REMARK SMILES IDX 24 12 25 13 26 14 12 15 11 16 10 17 9 18 8 19 7 20 6 21 5 22
REMARK SMILES IDX 4 23 3 24 2 25 1 26
REMARK H PARENT
REMARK Flexibility Score: inf
ROOT
ATOM      1  C   UNL     1      -5.072  -2.413 -14.887  1.00  0.00     0.000 C 
ENDROOT
BRANCH   1   2
ATOM      2  C   UNL     1      -3.965  -2.235 -13.835  1.00  0.00     0.000 C 
BRANCH   2   3
ATOM      3  C   UNL     1      -3.515  -3.569 -13.220  1.00  0.00     0.000 C 
BRANCH   3   4
ATOM      4  C   UNL     1      -3.932  -3.717 -11.745  1.00  0.00     0.000 C 
BRANCH   4   5
ATOM      5  C   UNL     1      -5.326  -4.342 -11.589  1.00  0.00     0.000 C 
BRANCH   5   6
ATOM      6  C   UNL     1      -6.134  -3.704 -10.445  1.00  0.00     0.000 C 
BRANCH   6   7
ATOM      7  C   UNL     1      -7.286  -2.817 -10.951  1.00  0.00     0.000 C 
BRANCH   7   8
ATOM      8  C   UNL     1      -6.852  -1.443 -11.499  1.00  0.00     0.000 C 
BRANCH   8   9
ATOM      9  C   UNL     1      -5.963  -0.611 -10.553  1.00  0.00     0.000 C 
BRANCH   9  10
ATOM     10  C   UNL     1      -6.510  -0.453  -9.123  1.00  0.00     0.006 C 
BRANCH  10  11
ATOM     11  C   UNL     1      -7.383   0.798  -8.954  1.00  0.00     0.053 C 
BRANCH  11  12
ATOM     12  C   UNL     1      -6.543   2.037  -8.975  1.00  0.00     0.041 C 
ATOM     13  O   UNL     1      -5.624   2.194  -8.127  1.00  0.00    -0.550 OA
ATOM     14  O   UNL     1      -6.771   3.020  -9.932  1.00  0.00    -0.550 OA
ENDBRANCH  11  12
ENDBRANCH  10  11
ENDBRANCH   9  10
ENDBRANCH   8   9
ENDBRANCH   7   8
ENDBRANCH   6   7
ENDBRANCH   5   6
ENDBRANCH   4   5
ENDBRANCH   3   4
ENDBRANCH   2   3
ENDBRANCH   1   2
BRANCH   1  15
ATOM     15  C   UNL     1      -5.327  -3.888 -15.242  1.00  0.00     0.000 C 
BRANCH  15  16
ATOM     16  C   UNL     1      -6.766  -4.357 -14.942  1.00  0.00     0.000 C 
BRANCH  16  17
ATOM     17  C   UNL     1      -7.712  -3.177 -14.658  1.00  0.00     0.000 C 
BRANCH  17  18
ATOM     18  C   UNL     1      -9.179  -3.610 -14.523  1.00  0.00    -0.000 C 
BRANCH  18  19
ATOM     19  C   UNL     1      -9.872  -3.793 -15.885  1.00  0.00    -0.000 C 
BRANCH  19  20
ATOM     20  C   UNL     1     -10.834  -5.000 -15.891  1.00  0.00    -0.000 C 
BRANCH  20  21
ATOM     21  C   UNL     1     -11.593  -5.188 -14.567  1.00  0.00    -0.000 C 
BRANCH  21  22
ATOM     22  C   UNL     1     -11.358  -6.569 -13.934  1.00  0.00    -0.000 C 
BRANCH  22  23
ATOM     23  C   UNL     1      -9.859  -6.935 -13.875  1.00  0.00    -0.000 C 
BRANCH  23  24
ATOM     24  C   UNL     1      -9.520  -8.258 -14.588  1.00  0.00    -0.000 C 
BRANCH  24  25
ATOM     25  C   UNL     1      -8.139  -8.285 -15.266  1.00  0.00    -0.003 C 
ATOM     26  C   UNL     1      -8.101  -7.478 -16.564  1.00  0.00     0.004 C 
ENDBRANCH  24  25
ENDBRANCH  23  24
ENDBRANCH  22  23
ENDBRANCH  21  22
ENDBRANCH  20  21
ENDBRANCH  19  20
ENDBRANCH  18  19
ENDBRANCH  17  18
ENDBRANCH  16  17
ENDBRANCH  15  16
ENDBRANCH   1  15
TORSDOF 22
ENDMDL
