MODEL 1
REMARK VINA RESULT:    -5.457      0.000      0.000
REMARK INTER + INTRA:          -6.888
REMARK INTER:                  -6.573
REMARK INTRA:                  -0.314
REMARK UNBOUND:                -0.314
REMARK SMILES O=c1c(O)c(-c2ccc(O)c(O)c2)oc2cc(O)cc(O)c12
REMARK SMILES IDX 5 1 3 2 2 3 1 4 22 5 20 6 19 7 17 8 16 9 15 10 14 11 6 12
REMARK SMILES IDX 7 13 8 14 9 15 13 16 11 17 10 18 12 20 4 22 21 24 18 26
REMARK H PARENT 10 19 12 21 4 23 21 25 18 27
REMARK Flexibility Score: inf
ROOT
ATOM      1  C   UNL     1     -17.381  17.084 -16.078  1.00  0.00     0.180 A 
ATOM      2  C   UNL     1     -17.644  16.950 -17.452  1.00  0.00     0.208 A 
ATOM      3  C   UNL     1     -16.768  17.546 -18.374  1.00  0.00     0.238 A 
ATOM      4  O   UNL     1     -16.980  17.377 -19.603  1.00  0.00    -0.285 OA
ATOM      5  C   UNL     1     -15.651  18.281 -17.912  1.00  0.00     0.111 A 
ATOM      6  C   UNL     1     -14.721  18.960 -18.756  1.00  0.00     0.134 A 
ATOM      7  C   UNL     1     -13.581  19.547 -18.195  1.00  0.00     0.093 A 
ATOM      8  C   UNL     1     -13.369  19.535 -16.814  1.00  0.00     0.123 A 
ATOM      9  C   UNL     1     -14.301  18.927 -15.977  1.00  0.00     0.094 A 
ATOM     10  C   UNL     1     -15.431  18.301 -16.510  1.00  0.00     0.146 A 
ATOM     11  O   UNL     1     -16.289  17.724 -15.677  1.00  0.00    -0.452 OA
ENDROOT
BRANCH   1  12
ATOM     12  C   UNL     1     -18.271  16.506 -15.045  1.00  0.00     0.025 A 
ATOM     13  C   UNL     1     -19.258  17.282 -14.411  1.00  0.00     0.016 A 
ATOM     14  C   UNL     1     -20.069  16.722 -13.422  1.00  0.00     0.051 A 
ATOM     15  C   UNL     1     -19.899  15.384 -13.041  1.00  0.00     0.157 A 
ATOM     16  C   UNL     1     -18.090  15.172 -14.645  1.00  0.00     0.062 A 
ATOM     17  C   UNL     1     -18.902  14.607 -13.654  1.00  0.00     0.158 A 
BRANCH  15  18
ATOM     18  O   UNL     1     -20.712  14.828 -12.056  1.00  0.00    -0.504 OA
ATOM     19  H   UNL     1     -21.492  15.339 -11.658  1.00  0.00     0.293 HD
ENDBRANCH  15  18
BRANCH  17  20
ATOM     20  O   UNL     1     -18.702  13.275 -13.292  1.00  0.00    -0.504 OA
ATOM     21  H   UNL     1     -18.589  12.991 -12.327  1.00  0.00     0.293 HD
ENDBRANCH  17  20
ENDBRANCH   1  12
BRANCH   2  22
ATOM     22  O   UNL     1     -18.741  16.202 -17.889  1.00  0.00    -0.502 OA
ATOM     23  H   UNL     1     -18.712  15.194 -17.979  1.00  0.00     0.293 HD
ENDBRANCH   2  22
BRANCH   6  24
ATOM     24  O   UNL     1     -14.886  19.109 -20.136  1.00  0.00    -0.507 OA
ATOM     25  H   UNL     1     -14.645  18.410 -20.823  1.00  0.00     0.293 HD
ENDBRANCH   6  24
BRANCH   8  26
ATOM     26  O   UNL     1     -12.239  20.134 -16.263  1.00  0.00    -0.508 OA
ATOM     27  H   UNL     1     -11.364  19.631 -16.172  1.00  0.00     0.293 HD
ENDBRANCH   8  26
TORSDOF 6
ENDMDL
MODEL 2
REMARK VINA RESULT:    -5.305     12.212     15.563
REMARK INTER + INTRA:          -6.705
REMARK INTER:                  -6.382
REMARK INTRA:                  -0.323
REMARK UNBOUND:                -0.314
REMARK SMILES O=c1c(O)c(-c2ccc(O)c(O)c2)oc2cc(O)cc(O)c12
REMARK SMILES IDX 5 1 3 2 2 3 1 4 22 5 20 6 19 7 17 8 16 9 15 10 14 11 6 12
REMARK SMILES IDX 7 13 8 14 9 15 13 16 11 17 10 18 12 20 4 22 21 24 18 26
REMARK H PARENT 10 19 12 21 4 23 21 25 18 27
REMARK Flexibility Score: inf
ROOT
ATOM      1  C   UNL     1     -10.232  14.690 -28.990  1.00  0.00     0.180 A 
ATOM      2  C   UNL     1      -9.991  14.826 -27.612  1.00  0.00     0.208 A 
ATOM      3  C   UNL     1     -10.580  15.896 -26.920  1.00  0.00     0.238 A 
ATOM      4  O   UNL     1     -10.404  15.981 -25.677  1.00  0.00    -0.285 OA
ATOM      5  C   UNL     1     -11.389  16.826 -27.616  1.00  0.00     0.111 A 
ATOM      6  C   UNL     1     -12.002  17.971 -27.024  1.00  0.00     0.134 A 
ATOM      7  C   UNL     1     -12.887  18.749 -27.780  1.00  0.00     0.093 A 
ATOM      8  C   UNL     1     -13.129  18.462 -29.126  1.00  0.00     0.123 A 
ATOM      9  C   UNL     1     -12.489  17.382 -29.729  1.00  0.00     0.094 A 
ATOM     10  C   UNL     1     -11.629  16.565 -28.991  1.00  0.00     0.146 A 
ATOM     11  O   UNL     1     -11.047  15.540 -29.602  1.00  0.00    -0.452 OA
ENDROOT
BRANCH   1  12
ATOM     12  C   UNL     1      -9.627  13.602 -29.792  1.00  0.00     0.025 A 
ATOM     13  C   UNL     1      -8.423  13.793 -30.494  1.00  0.00     0.016 A 
ATOM     14  C   UNL     1      -7.883  12.761 -31.265  1.00  0.00     0.051 A 
ATOM     15  C   UNL     1      -8.543  11.528 -31.357  1.00  0.00     0.157 A 
ATOM     16  C   UNL     1     -10.295  12.372 -29.905  1.00  0.00     0.062 A 
ATOM     17  C   UNL     1      -9.756  11.334 -30.676  1.00  0.00     0.158 A 
BRANCH  15  18
ATOM     18  O   UNL     1      -8.000  10.499 -32.125  1.00  0.00    -0.504 OA
ATOM     19  H   UNL     1      -7.830   9.579 -31.736  1.00  0.00     0.293 HD
ENDBRANCH  15  18
BRANCH  17  20
ATOM     20  O   UNL     1     -10.441  10.123 -30.753  1.00  0.00    -0.504 OA
ATOM     21  H   UNL     1     -11.446  10.079 -30.864  1.00  0.00     0.293 HD
ENDBRANCH  17  20
ENDBRANCH   1  12
BRANCH   2  22
ATOM     22  O   UNL     1      -9.207  13.885 -26.939  1.00  0.00    -0.502 OA
ATOM     23  H   UNL     1      -9.423  13.566 -26.002  1.00  0.00     0.293 HD
ENDBRANCH   2  22
BRANCH   6  24
ATOM     24  O   UNL     1     -11.756  18.398 -25.716  1.00  0.00    -0.507 OA
ATOM     25  H   UNL     1     -12.422  18.883 -25.134  1.00  0.00     0.293 HD
ENDBRANCH   6  24
BRANCH   8  26
ATOM     26  O   UNL     1     -14.000  19.251 -29.875  1.00  0.00    -0.508 OA
ATOM     27  H   UNL     1     -14.792  18.849 -30.363  1.00  0.00     0.293 HD
ENDBRANCH   8  26
TORSDOF 6
ENDMDL
MODEL 3
REMARK VINA RESULT:    -5.296     12.544     15.525
REMARK INTER + INTRA:          -6.694
REMARK INTER:                  -6.553
REMARK INTRA:                  -0.141
REMARK UNBOUND:                -0.314
REMARK SMILES O=c1c(O)c(-c2ccc(O)c(O)c2)oc2cc(O)cc(O)c12
REMARK SMILES IDX 5 1 3 2 2 3 1 4 22 5 20 6 19 7 17 8 16 9 15 10 14 11 6 12
REMARK SMILES IDX 7 13 8 14 9 15 13 16 11 17 10 18 12 20 4 22 21 24 18 26
REMARK H PARENT 10 19 12 21 4 23 21 25 18 27
REMARK Flexibility Score: inf
ROOT
ATOM      1  C   UNL     1     -10.708  15.989 -29.307  1.00  0.00     0.180 A 
ATOM      2  C   UNL     1      -9.897  16.109 -30.448  1.00  0.00     0.208 A 
ATOM      3  C   UNL     1      -9.144  15.001 -30.868  1.00  0.00     0.238 A 
ATOM      4  O   UNL     1      -8.461  15.100 -31.921  1.00  0.00    -0.285 OA
ATOM      5  C   UNL     1      -9.198  13.793 -30.134  1.00  0.00     0.111 A 
ATOM      6  C   UNL     1      -8.445  12.620 -30.446  1.00  0.00     0.134 A 
ATOM      7  C   UNL     1      -8.676  11.441 -29.727  1.00  0.00     0.093 A 
ATOM      8  C   UNL     1      -9.585  11.409 -28.666  1.00  0.00     0.123 A 
ATOM      9  C   UNL     1     -10.280  12.564 -28.316  1.00  0.00     0.094 A 
ATOM     10  C   UNL     1     -10.098  13.747 -29.038  1.00  0.00     0.146 A 
ATOM     11  O   UNL     1     -10.788  14.822 -28.677  1.00  0.00    -0.452 OA
ENDROOT
BRANCH   1  12
ATOM     12  C   UNL     1     -11.512  17.118 -28.788  1.00  0.00     0.025 A 
ATOM     13  C   UNL     1     -11.286  17.650 -27.506  1.00  0.00     0.016 A 
ATOM     14  C   UNL     1     -12.073  18.700 -27.027  1.00  0.00     0.051 A 
ATOM     15  C   UNL     1     -13.106  19.226 -27.815  1.00  0.00     0.157 A 
ATOM     16  C   UNL     1     -12.563  17.635 -29.565  1.00  0.00     0.062 A 
ATOM     17  C   UNL     1     -13.353  18.688 -29.089  1.00  0.00     0.158 A 
BRANCH  15  18
ATOM     18  O   UNL     1     -13.887  20.275 -27.335  1.00  0.00    -0.504 OA
ATOM     19  H   UNL     1     -14.133  21.065 -27.920  1.00  0.00     0.293 HD
ENDBRANCH  15  18
BRANCH  17  20
ATOM     20  O   UNL     1     -14.377  19.183 -29.894  1.00  0.00    -0.504 OA
ATOM     21  H   UNL     1     -15.045  19.866 -29.556  1.00  0.00     0.293 HD
ENDBRANCH  17  20
ENDBRANCH   1  12
BRANCH   2  22
ATOM     22  O   UNL     1      -9.874  17.305 -31.171  1.00  0.00    -0.502 OA
ATOM     23  H   UNL     1     -10.093  18.200 -30.750  1.00  0.00     0.293 HD
ENDBRANCH   2  22
BRANCH   6  24
ATOM     24  O   UNL     1      -7.449  12.571 -31.425  1.00  0.00    -0.507 OA
ATOM     25  H   UNL     1      -7.492  12.011 -32.262  1.00  0.00     0.293 HD
ENDBRANCH   6  24
BRANCH   8  26
ATOM     26  O   UNL     1      -9.797  10.235 -27.947  1.00  0.00    -0.508 OA
ATOM     27  H   UNL     1     -10.309  10.234 -27.073  1.00  0.00     0.293 HD
ENDBRANCH   8  26
TORSDOF 6
ENDMDL
MODEL 4
REMARK VINA RESULT:    -5.288     15.691     17.042
REMARK INTER + INTRA:          -6.684
REMARK INTER:                  -6.374
REMARK INTRA:                  -0.311
REMARK UNBOUND:                -0.314
REMARK SMILES O=c1c(O)c(-c2ccc(O)c(O)c2)oc2cc(O)cc(O)c12
REMARK SMILES IDX 5 1 3 2 2 3 1 4 22 5 20 6 19 7 17 8 16 9 15 10 14 11 6 12
REMARK SMILES IDX 7 13 8 14 9 15 13 16 11 17 10 18 12 20 4 22 21 24 18 26
REMARK H PARENT 10 19 12 21 4 23 21 25 18 27
REMARK Flexibility Score: inf
ROOT
ATOM      1  C   UNL     1      -9.631   4.605 -22.960  1.00  0.00     0.180 A 
ATOM      2  C   UNL     1     -10.082   5.899 -22.649  1.00  0.00     0.208 A 
ATOM      3  C   UNL     1     -11.212   6.404 -23.312  1.00  0.00     0.238 A 
ATOM      4  O   UNL     1     -11.641   7.543 -22.990  1.00  0.00    -0.285 OA
ATOM      5  C   UNL     1     -11.868   5.616 -24.287  1.00  0.00     0.111 A 
ATOM      6  C   UNL     1     -12.998   6.043 -25.048  1.00  0.00     0.134 A 
ATOM      7  C   UNL     1     -13.645   5.133 -25.892  1.00  0.00     0.093 A 
ATOM      8  C   UNL     1     -13.165   3.830 -26.051  1.00  0.00     0.123 A 
ATOM      9  C   UNL     1     -12.028   3.423 -25.358  1.00  0.00     0.094 A 
ATOM     10  C   UNL     1     -11.382   4.297 -24.481  1.00  0.00     0.146 A 
ATOM     11  O   UNL     1     -10.307   3.865 -23.832  1.00  0.00    -0.452 OA
ENDROOT
BRANCH   1  12
ATOM     12  C   UNL     1      -8.433   4.012 -22.322  1.00  0.00     0.025 A 
ATOM     13  C   UNL     1      -7.180   4.032 -22.959  1.00  0.00     0.016 A 
ATOM     14  C   UNL     1      -6.068   3.445 -22.350  1.00  0.00     0.051 A 
ATOM     15  C   UNL     1      -6.194   2.820 -21.103  1.00  0.00     0.157 A 
ATOM     16  C   UNL     1      -8.558   3.365 -21.082  1.00  0.00     0.062 A 
ATOM     17  C   UNL     1      -7.446   2.777 -20.468  1.00  0.00     0.158 A 
BRANCH  15  18
ATOM     18  O   UNL     1      -5.082   2.238 -20.496  1.00  0.00    -0.504 OA
ATOM     19  H   UNL     1      -4.150   2.617 -20.619  1.00  0.00     0.293 HD
ENDBRANCH  15  18
BRANCH  17  20
ATOM     20  O   UNL     1      -7.606   2.155 -19.230  1.00  0.00    -0.504 OA
ATOM     21  H   UNL     1      -7.753   2.683 -18.379  1.00  0.00     0.293 HD
ENDBRANCH  17  20
ENDBRANCH   1  12
BRANCH   2  22
ATOM     22  O   UNL     1      -9.432   6.653 -21.668  1.00  0.00    -0.502 OA
ATOM     23  H   UNL     1      -9.909   7.357 -21.117  1.00  0.00     0.293 HD
ENDBRANCH   2  22
BRANCH   6  24
ATOM     24  O   UNL     1     -13.501   7.347 -25.032  1.00  0.00    -0.507 OA
ATOM     25  H   UNL     1     -13.497   7.955 -24.228  1.00  0.00     0.293 HD
ENDBRANCH   6  24
BRANCH   8  26
ATOM     26  O   UNL     1     -13.807   2.935 -26.905  1.00  0.00    -0.508 OA
ATOM     27  H   UNL     1     -14.158   3.226 -27.810  1.00  0.00     0.293 HD
ENDBRANCH   8  26
TORSDOF 6
ENDMDL
MODEL 5
REMARK VINA RESULT:    -5.271      6.000      9.036
REMARK INTER + INTRA:          -6.664
REMARK INTER:                  -6.578
REMARK INTRA:                  -0.086
REMARK UNBOUND:                -0.314
REMARK SMILES O=c1c(O)c(-c2ccc(O)c(O)c2)oc2cc(O)cc(O)c12
REMARK SMILES IDX 5 1 3 2 2 3 1 4 22 5 20 6 19 7 17 8 16 9 15 10 14 11 6 12
REMARK SMILES IDX 7 13 8 14 9 15 13 16 11 17 10 18 12 20 4 22 21 24 18 26
REMARK H PARENT 10 19 12 21 4 23 21 25 18 27
REMARK Flexibility Score: inf
ROOT
ATOM      1  C   UNL     1     -11.581  18.953 -21.460  1.00  0.00     0.180 A 
ATOM      2  C   UNL     1     -10.527  18.095 -21.819  1.00  0.00     0.208 A 
ATOM      3  C   UNL     1     -10.317  17.806 -23.178  1.00  0.00     0.238 A 
ATOM      4  O   UNL     1      -9.340  17.080 -23.496  1.00  0.00    -0.285 OA
ATOM      5  C   UNL     1     -11.172  18.365 -24.157  1.00  0.00     0.111 A 
ATOM      6  C   UNL     1     -11.076  18.108 -25.559  1.00  0.00     0.134 A 
ATOM      7  C   UNL     1     -11.892  18.817 -26.448  1.00  0.00     0.093 A 
ATOM      8  C   UNL     1     -12.846  19.726 -25.982  1.00  0.00     0.123 A 
ATOM      9  C   UNL     1     -12.988  19.940 -24.613  1.00  0.00     0.094 A 
ATOM     10  C   UNL     1     -12.163  19.274 -23.703  1.00  0.00     0.146 A 
ATOM     11  O   UNL     1     -12.324  19.514 -22.407  1.00  0.00    -0.452 OA
ENDROOT
BRANCH   1  12
ATOM     12  C   UNL     1     -11.881  19.286 -20.049  1.00  0.00     0.025 A 
ATOM     13  C   UNL     1     -13.143  19.025 -19.488  1.00  0.00     0.016 A 
ATOM     14  C   UNL     1     -13.412  19.370 -18.161  1.00  0.00     0.051 A 
ATOM     15  C   UNL     1     -12.430  19.992 -17.379  1.00  0.00     0.157 A 
ATOM     16  C   UNL     1     -10.906  19.929 -19.268  1.00  0.00     0.062 A 
ATOM     17  C   UNL     1     -11.172  20.275 -17.937  1.00  0.00     0.158 A 
BRANCH  15  18
ATOM     18  O   UNL     1     -12.700  20.332 -16.055  1.00  0.00    -0.504 OA
ATOM     19  H   UNL     1     -12.309  19.807 -15.281  1.00  0.00     0.293 HD
ENDBRANCH  15  18
BRANCH  17  20
ATOM     20  O   UNL     1     -10.175  20.900 -17.189  1.00  0.00    -0.504 OA
ATOM     21  H   UNL     1      -9.857  20.530 -16.301  1.00  0.00     0.293 HD
ENDBRANCH  17  20
ENDBRANCH   1  12
BRANCH   2  22
ATOM     22  O   UNL     1      -9.682  17.570 -20.838  1.00  0.00    -0.502 OA
ATOM     23  H   UNL     1      -8.948  16.906 -21.050  1.00  0.00     0.293 HD
ENDBRANCH   2  22
BRANCH   6  24
ATOM     24  O   UNL     1     -10.222  17.154 -26.119  1.00  0.00    -0.507 OA
ATOM     25  H   UNL     1     -10.522  16.280 -26.523  1.00  0.00     0.293 HD
ENDBRANCH   6  24
BRANCH   8  26
ATOM     26  O   UNL     1     -13.664  20.417 -26.873  1.00  0.00    -0.508 OA
ATOM     27  H   UNL     1     -14.674  20.347 -26.828  1.00  0.00     0.293 HD
ENDBRANCH   8  26
TORSDOF 6
ENDMDL
MODEL 6
REMARK VINA RESULT:    -5.218      9.282     11.563
REMARK INTER + INTRA:          -6.600
REMARK INTER:                  -6.305
REMARK INTRA:                  -0.295
REMARK UNBOUND:                -0.314
REMARK SMILES O=c1c(O)c(-c2ccc(O)c(O)c2)oc2cc(O)cc(O)c12
REMARK SMILES IDX 5 1 3 2 2 3 1 4 22 5 20 6 19 7 17 8 16 9 15 10 14 11 6 12
REMARK SMILES IDX 7 13 8 14 9 15 13 16 11 17 10 18 12 20 4 22 21 24 18 26
REMARK H PARENT 10 19 12 21 4 23 21 25 18 27
REMARK Flexibility Score: inf
ROOT
ATOM      1  C   UNL     1     -12.126   8.583 -15.311  1.00  0.00     0.180 A 
ATOM      2  C   UNL     1     -11.874   8.424 -16.685  1.00  0.00     0.208 A 
ATOM      3  C   UNL     1     -12.766   7.662 -17.457  1.00  0.00     0.238 A 
ATOM      4  O   UNL     1     -12.564   7.568 -18.695  1.00  0.00    -0.285 OA
ATOM      5  C   UNL     1     -13.888   7.056 -16.844  1.00  0.00     0.111 A 
ATOM      6  C   UNL     1     -14.834   6.229 -17.522  1.00  0.00     0.134 A 
ATOM      7  C   UNL     1     -15.977   5.788 -16.843  1.00  0.00     0.093 A 
ATOM      8  C   UNL     1     -16.175   6.091 -15.494  1.00  0.00     0.123 A 
ATOM      9  C   UNL     1     -15.228   6.847 -14.808  1.00  0.00     0.094 A 
ATOM     10  C   UNL     1     -14.095   7.331 -15.467  1.00  0.00     0.146 A 
ATOM     11  O   UNL     1     -13.222   8.056 -14.778  1.00  0.00    -0.452 OA
ENDROOT
BRANCH   1  12
ATOM     12  C   UNL     1     -11.220   9.351 -14.427  1.00  0.00     0.025 A 
ATOM     13  C   UNL     1     -10.300   8.705 -13.583  1.00  0.00     0.016 A 
ATOM     14  C   UNL     1      -9.471   9.449 -12.739  1.00  0.00     0.051 A 
ATOM     15  C   UNL     1      -9.558  10.847 -12.716  1.00  0.00     0.157 A 
ATOM     16  C   UNL     1     -11.317  10.752 -14.385  1.00  0.00     0.062 A 
ATOM     17  C   UNL     1     -10.488  11.501 -13.541  1.00  0.00     0.158 A 
BRANCH  15  18
ATOM     18  O   UNL     1      -8.728  11.586 -11.875  1.00  0.00    -0.504 OA
ATOM     19  H   UNL     1      -8.956  12.536 -11.605  1.00  0.00     0.293 HD
ENDBRANCH  15  18
BRANCH  17  20
ATOM     20  O   UNL     1     -10.604  12.890 -13.536  1.00  0.00    -0.504 OA
ATOM     21  H   UNL     1      -9.834  13.493 -13.277  1.00  0.00     0.293 HD
ENDBRANCH  17  20
ENDBRANCH   1  12
BRANCH   2  22
ATOM     22  O   UNL     1     -10.772   9.049 -17.274  1.00  0.00    -0.502 OA
ATOM     23  H   UNL     1      -9.859   9.072 -16.835  1.00  0.00     0.293 HD
ENDBRANCH   2  22
BRANCH   6  24
ATOM     24  O   UNL     1     -14.684   5.793 -18.841  1.00  0.00    -0.507 OA
ATOM     25  H   UNL     1     -15.418   5.383 -19.399  1.00  0.00     0.293 HD
ENDBRANCH   6  24
BRANCH   8  26
ATOM     26  O   UNL     1     -17.308   5.636 -14.823  1.00  0.00    -0.508 OA
ATOM     27  H   UNL     1     -17.805   6.223 -14.163  1.00  0.00     0.293 HD
ENDBRANCH   8  26
TORSDOF 6
ENDMDL
MODEL 7
REMARK VINA RESULT:    -5.194     16.224     17.393
REMARK INTER + INTRA:          -6.571
REMARK INTER:                  -6.248
REMARK INTRA:                  -0.324
REMARK UNBOUND:                -0.314
REMARK SMILES O=c1c(O)c(-c2ccc(O)c(O)c2)oc2cc(O)cc(O)c12
REMARK SMILES IDX 5 1 3 2 2 3 1 4 22 5 20 6 19 7 17 8 16 9 15 10 14 11 6 12
REMARK SMILES IDX 7 13 8 14 9 15 13 16 11 17 10 18 12 20 4 22 21 24 18 26
REMARK H PARENT 10 19 12 21 4 23 21 25 18 27
REMARK Flexibility Score: inf
ROOT
ATOM      1  C   UNL     1     -10.447   4.654 -24.536  1.00  0.00     0.180 A 
ATOM      2  C   UNL     1     -10.428   4.460 -23.144  1.00  0.00     0.208 A 
ATOM      3  C   UNL     1      -9.201   4.211 -22.507  1.00  0.00     0.238 A 
ATOM      4  O   UNL     1      -9.185   4.091 -21.255  1.00  0.00    -0.285 OA
ATOM      5  C   UNL     1      -8.012   4.143 -23.271  1.00  0.00     0.111 A 
ATOM      6  C   UNL     1      -6.720   3.857 -22.736  1.00  0.00     0.134 A 
ATOM      7  C   UNL     1      -5.595   3.944 -23.564  1.00  0.00     0.093 A 
ATOM      8  C   UNL     1      -5.721   4.243 -24.923  1.00  0.00     0.123 A 
ATOM      9  C   UNL     1      -6.984   4.466 -25.468  1.00  0.00     0.094 A 
ATOM     10  C   UNL     1      -8.122   4.422 -24.659  1.00  0.00     0.146 A 
ATOM     11  O   UNL     1      -9.306   4.650 -25.215  1.00  0.00    -0.452 OA
ENDROOT
BRANCH   1  12
ATOM     12  C   UNL     1     -11.702   4.897 -25.281  1.00  0.00     0.025 A 
ATOM     13  C   UNL     1     -12.205   6.198 -25.465  1.00  0.00     0.016 A 
ATOM     14  C   UNL     1     -13.405   6.401 -26.151  1.00  0.00     0.051 A 
ATOM     15  C   UNL     1     -14.127   5.310 -26.651  1.00  0.00     0.157 A 
ATOM     16  C   UNL     1     -12.442   3.805 -25.766  1.00  0.00     0.062 A 
ATOM     17  C   UNL     1     -13.644   4.006 -26.455  1.00  0.00     0.158 A 
BRANCH  15  18
ATOM     18  O   UNL     1     -15.323   5.517 -27.337  1.00  0.00    -0.504 OA
ATOM     19  H   UNL     1     -16.220   5.316 -26.913  1.00  0.00     0.293 HD
ENDBRANCH  15  18
BRANCH  17  20
ATOM     20  O   UNL     1     -14.343   2.899 -26.934  1.00  0.00    -0.504 OA
ATOM     21  H   UNL     1     -14.587   2.798 -27.911  1.00  0.00     0.293 HD
ENDBRANCH  17  20
ENDBRANCH   1  12
BRANCH   2  22
ATOM     22  O   UNL     1     -11.611   4.552 -22.405  1.00  0.00    -0.502 OA
ATOM     23  H   UNL     1     -12.526   4.536 -22.839  1.00  0.00     0.293 HD
ENDBRANCH   2  22
BRANCH   6  24
ATOM     24  O   UNL     1      -6.494   3.458 -21.415  1.00  0.00    -0.507 OA
ATOM     25  H   UNL     1      -5.913   2.681 -21.140  1.00  0.00     0.293 HD
ENDBRANCH   6  24
BRANCH   8  26
ATOM     26  O   UNL     1      -4.598   4.313 -25.744  1.00  0.00    -0.508 OA
ATOM     27  H   UNL     1      -3.662   4.204 -25.371  1.00  0.00     0.293 HD
ENDBRANCH   8  26
TORSDOF 6
ENDMDL
MODEL 8
REMARK VINA RESULT:    -5.181      2.649      6.720
REMARK INTER + INTRA:          -6.555
REMARK INTER:                  -6.276
REMARK INTRA:                  -0.279
REMARK UNBOUND:                -0.314
REMARK SMILES O=c1c(O)c(-c2ccc(O)c(O)c2)oc2cc(O)cc(O)c12
REMARK SMILES IDX 5 1 3 2 2 3 1 4 22 5 20 6 19 7 17 8 16 9 15 10 14 11 6 12
REMARK SMILES IDX 7 13 8 14 9 15 13 16 11 17 10 18 12 20 4 22 21 24 18 26
REMARK H PARENT 10 19 12 21 4 23 21 25 18 27
REMARK Flexibility Score: inf
ROOT
ATOM      1  C   UNL     1     -18.336  15.808 -17.552  1.00  0.00     0.180 A 
ATOM      2  C   UNL     1     -17.328  16.725 -17.207  1.00  0.00     0.208 A 
ATOM      3  C   UNL     1     -17.217  17.144 -15.871  1.00  0.00     0.238 A 
ATOM      4  O   UNL     1     -16.279  17.924 -15.559  1.00  0.00    -0.285 OA
ATOM      5  C   UNL     1     -18.123  16.654 -14.901  1.00  0.00     0.111 A 
ATOM      6  C   UNL     1     -18.128  17.042 -13.527  1.00  0.00     0.134 A 
ATOM      7  C   UNL     1     -18.987  16.395 -12.631  1.00  0.00     0.093 A 
ATOM      8  C   UNL     1     -19.887  15.421 -13.070  1.00  0.00     0.123 A 
ATOM      9  C   UNL     1     -19.931  15.078 -14.419  1.00  0.00     0.094 A 
ATOM     10  C   UNL     1     -19.061  15.680 -15.332  1.00  0.00     0.146 A 
ATOM     11  O   UNL     1     -19.129  15.317 -16.607  1.00  0.00    -0.452 OA
ENDROOT
BRANCH   1  12
ATOM     12  C   UNL     1     -18.532  15.338 -18.942  1.00  0.00     0.025 A 
ATOM     13  C   UNL     1     -18.061  14.082 -19.364  1.00  0.00     0.016 A 
ATOM     14  C   UNL     1     -18.235  13.669 -20.687  1.00  0.00     0.051 A 
ATOM     15  C   UNL     1     -18.870  14.509 -21.612  1.00  0.00     0.157 A 
ATOM     16  C   UNL     1     -19.148  16.185 -19.879  1.00  0.00     0.062 A 
ATOM     17  C   UNL     1     -19.325  15.774 -21.206  1.00  0.00     0.158 A 
BRANCH  15  18
ATOM     18  O   UNL     1     -19.044  14.093 -22.930  1.00  0.00    -0.504 OA
ATOM     19  H   UNL     1     -19.728  14.528 -23.538  1.00  0.00     0.293 HD
ENDBRANCH  15  18
BRANCH  17  20
ATOM     20  O   UNL     1     -19.953  16.637 -22.103  1.00  0.00    -0.504 OA
ATOM     21  H   UNL     1     -20.327  17.532 -21.816  1.00  0.00     0.293 HD
ENDBRANCH  17  20
ENDBRANCH   1  12
BRANCH   2  22
ATOM     22  O   UNL     1     -16.430  17.180 -18.176  1.00  0.00    -0.502 OA
ATOM     23  H   UNL     1     -15.735  17.892 -17.983  1.00  0.00     0.293 HD
ENDBRANCH   2  22
BRANCH   6  24
ATOM     24  O   UNL     1     -17.335  18.067 -13.004  1.00  0.00    -0.507 OA
ATOM     25  H   UNL     1     -17.532  18.568 -12.151  1.00  0.00     0.293 HD
ENDBRANCH   6  24
BRANCH   8  26
ATOM     26  O   UNL     1     -20.749  14.793 -12.173  1.00  0.00    -0.508 OA
ATOM     27  H   UNL     1     -20.570  13.854 -11.836  1.00  0.00     0.293 HD
ENDBRANCH   8  26
TORSDOF 6
ENDMDL
MODEL 9
REMARK VINA RESULT:    -5.142     11.416     15.142
REMARK INTER + INTRA:          -6.509
REMARK INTER:                  -6.259
REMARK INTRA:                  -0.249
REMARK UNBOUND:                -0.314
REMARK SMILES O=c1c(O)c(-c2ccc(O)c(O)c2)oc2cc(O)cc(O)c12
REMARK SMILES IDX 5 1 3 2 2 3 1 4 22 5 20 6 19 7 17 8 16 9 15 10 14 11 6 12
REMARK SMILES IDX 7 13 8 14 9 15 13 16 11 17 10 18 12 20 4 22 21 24 18 26
REMARK H PARENT 10 19 12 21 4 23 21 25 18 27
REMARK Flexibility Score: inf
ROOT
ATOM      1  C   UNL     1     -10.590  15.890 -29.137  1.00  0.00     0.180 A 
ATOM      2  C   UNL     1     -11.384  16.685 -29.981  1.00  0.00     0.208 A 
ATOM      3  C   UNL     1     -12.090  17.768 -29.433  1.00  0.00     0.238 A 
ATOM      4  O   UNL     1     -12.756  18.506 -30.203  1.00  0.00    -0.285 OA
ATOM      5  C   UNL     1     -12.005  18.034 -28.046  1.00  0.00     0.111 A 
ATOM      6  C   UNL     1     -12.708  19.081 -27.376  1.00  0.00     0.134 A 
ATOM      7  C   UNL     1     -12.448  19.332 -26.024  1.00  0.00     0.093 A 
ATOM      8  C   UNL     1     -11.557  18.535 -25.301  1.00  0.00     0.123 A 
ATOM      9  C   UNL     1     -10.911  17.474 -25.930  1.00  0.00     0.094 A 
ATOM     10  C   UNL     1     -11.123  17.220 -27.288  1.00  0.00     0.146 A 
ATOM     11  O   UNL     1     -10.479  16.205 -27.852  1.00  0.00    -0.452 OA
ENDROOT
BRANCH   1  12
ATOM     12  C   UNL     1      -9.837  14.717 -29.636  1.00  0.00     0.025 A 
ATOM     13  C   UNL     1     -10.241  13.405 -29.333  1.00  0.00     0.016 A 
ATOM     14  C   UNL     1      -9.501  12.314 -29.794  1.00  0.00     0.051 A 
ATOM     15  C   UNL     1      -8.341  12.516 -30.553  1.00  0.00     0.157 A 
ATOM     16  C   UNL     1      -8.661  14.915 -30.379  1.00  0.00     0.062 A 
ATOM     17  C   UNL     1      -7.918  13.823 -30.844  1.00  0.00     0.158 A 
BRANCH  15  18
ATOM     18  O   UNL     1      -7.606  11.425 -31.014  1.00  0.00    -0.504 OA
ATOM     19  H   UNL     1      -7.494  10.586 -30.456  1.00  0.00     0.293 HD
ENDBRANCH  15  18
BRANCH  17  20
ATOM     20  O   UNL     1      -6.764  14.058 -31.589  1.00  0.00    -0.504 OA
ATOM     21  H   UNL     1      -5.956  14.527 -31.197  1.00  0.00     0.293 HD
ENDBRANCH  17  20
ENDBRANCH   1  12
BRANCH   2  22
ATOM     22  O   UNL     1     -11.438  16.417 -31.352  1.00  0.00    -0.502 OA
ATOM     23  H   UNL     1     -11.112  17.076 -32.049  1.00  0.00     0.293 HD
ENDBRANCH   2  22
BRANCH   6  24
ATOM     24  O   UNL     1     -13.685  19.876 -27.983  1.00  0.00    -0.507 OA
ATOM     25  H   UNL     1     -13.782  20.008 -28.978  1.00  0.00     0.293 HD
ENDBRANCH   6  24
BRANCH   8  26
ATOM     26  O   UNL     1     -11.315  18.783 -23.951  1.00  0.00    -0.508 OA
ATOM     27  H   UNL     1     -11.870  18.346 -23.224  1.00  0.00     0.293 HD
ENDBRANCH   8  26
TORSDOF 6
ENDMDL
