MODEL 1
REMARK VINA RESULT:    -0.207      0.000      0.000
REMARK INTER + INTRA:          -0.540
REMARK INTER:                  -0.243
REMARK INTRA:                  -0.297
REMARK UNBOUND:                -0.297
REMARK SMILES O=c1c(O)c(-c2ccc(O)cc2)oc2cc(O)cc(O)c12
REMARK SMILES IDX 5 1 3 2 2 3 1 4 21 5 19 6 18 7 16 8 15 9 14 10 13 11 6 12
REMARK SMILES IDX 7 13 8 14 9 15 12 16 11 17 10 18 4 20 20 22 17 24
REMARK H PARENT 10 19 4 21 20 23 17 25
REMARK Flexibility Score: inf
ROOT
ATOM      1  C   UNL     1      27.465  28.450  47.671  1.00  0.00     0.180 A 
ATOM      2  C   UNL     1      27.397  27.055  47.518  1.00  0.00     0.208 A 
ATOM      3  C   UNL     1      26.153  26.458  47.261  1.00  0.00     0.238 A 
ATOM      4  O   UNL     1      26.111  25.218  47.051  1.00  0.00    -0.285 OA
ATOM      5  C   UNL     1      24.983  27.256  47.215  1.00  0.00     0.111 A 
ATOM      6  C   UNL     1      23.664  26.751  47.006  1.00  0.00     0.134 A 
ATOM      7  C   UNL     1      22.595  27.647  46.875  1.00  0.00     0.093 A 
ATOM      8  C   UNL     1      22.786  29.021  47.007  1.00  0.00     0.123 A 
ATOM      9  C   UNL     1      24.062  29.521  47.267  1.00  0.00     0.094 A 
ATOM     10  C   UNL     1      25.155  28.657  47.365  1.00  0.00     0.146 A 
ATOM     11  O   UNL     1      26.356  29.176  47.590  1.00  0.00    -0.452 OA
ENDROOT
BRANCH   1  12
ATOM     12  C   UNL     1      28.742  29.154  47.930  1.00  0.00     0.021 A 
ATOM     13  C   UNL     1      29.553  29.614  46.875  1.00  0.00     0.016 A 
ATOM     14  C   UNL     1      30.742  30.297  47.145  1.00  0.00     0.047 A 
ATOM     15  C   UNL     1      31.128  30.544  48.470  1.00  0.00     0.115 A 
ATOM     16  C   UNL     1      29.125  29.425  49.254  1.00  0.00     0.016 A 
ATOM     17  C   UNL     1      30.315  30.108  49.521  1.00  0.00     0.047 A 
BRANCH  15  18
ATOM     18  O   UNL     1      32.310  31.224  48.749  1.00  0.00    -0.508 OA
ATOM     19  H   UNL     1      33.209  30.757  48.725  1.00  0.00     0.293 HD
ENDBRANCH  15  18
ENDBRANCH   1  12
BRANCH   2  20
ATOM     20  O   UNL     1      28.551  26.277  47.642  1.00  0.00    -0.502 OA
ATOM     21  H   UNL     1      28.599  25.320  47.313  1.00  0.00     0.293 HD
ENDBRANCH   2  20
BRANCH   6  22
ATOM     22  O   UNL     1      23.345  25.392  46.947  1.00  0.00    -0.507 OA
ATOM     23  H   UNL     1      23.505  24.727  47.688  1.00  0.00     0.293 HD
ENDBRANCH   6  22
BRANCH   8  24
ATOM     24  O   UNL     1      21.697  29.882  46.887  1.00  0.00    -0.508 OA
ATOM     25  H   UNL     1      20.784  29.637  47.251  1.00  0.00     0.293 HD
ENDBRANCH   8  24
TORSDOF 5
ENDMDL
MODEL 2
REMARK VINA RESULT:    -0.205      2.554      3.793
REMARK INTER + INTRA:          -0.538
REMARK INTER:                  -0.245
REMARK INTRA:                  -0.293
REMARK UNBOUND:                -0.297
REMARK SMILES O=c1c(O)c(-c2ccc(O)cc2)oc2cc(O)cc(O)c12
REMARK SMILES IDX 5 1 3 2 2 3 1 4 21 5 19 6 18 7 16 8 15 9 14 10 13 11 6 12
REMARK SMILES IDX 7 13 8 14 9 15 12 16 11 17 10 18 4 20 20 22 17 24
REMARK H PARENT 10 19 4 21 20 23 17 25
REMARK Flexibility Score: inf
ROOT
ATOM      1  C   UNL     1      27.470  26.587  47.763  1.00  0.00     0.180 A 
ATOM      2  C   UNL     1      26.905  27.874  47.746  1.00  0.00     0.208 A 
ATOM      3  C   UNL     1      25.522  28.008  47.548  1.00  0.00     0.238 A 
ATOM      4  O   UNL     1      25.013  29.157  47.609  1.00  0.00    -0.285 OA
ATOM      5  C   UNL     1      24.728  26.859  47.312  1.00  0.00     0.111 A 
ATOM      6  C   UNL     1      23.324  26.881  47.053  1.00  0.00     0.134 A 
ATOM      7  C   UNL     1      22.624  25.673  46.939  1.00  0.00     0.093 A 
ATOM      8  C   UNL     1      23.284  24.448  47.010  1.00  0.00     0.123 A 
ATOM      9  C   UNL     1      24.665  24.416  47.207  1.00  0.00     0.094 A 
ATOM     10  C   UNL     1      25.385  25.602  47.363  1.00  0.00     0.146 A 
ATOM     11  O   UNL     1      26.695  25.526  47.571  1.00  0.00    -0.452 OA
ENDROOT
BRANCH   1  12
ATOM     12  C   UNL     1      28.917  26.364  47.981  1.00  0.00     0.021 A 
ATOM     13  C   UNL     1      29.437  26.126  49.266  1.00  0.00     0.016 A 
ATOM     14  C   UNL     1      30.804  25.894  49.444  1.00  0.00     0.047 A 
ATOM     15  C   UNL     1      31.665  25.880  48.338  1.00  0.00     0.115 A 
ATOM     16  C   UNL     1      29.784  26.326  46.876  1.00  0.00     0.016 A 
ATOM     17  C   UNL     1      31.151  26.094  47.056  1.00  0.00     0.047 A 
BRANCH  15  18
ATOM     18  O   UNL     1      33.029  25.650  48.504  1.00  0.00    -0.508 OA
ATOM     19  H   UNL     1      33.377  24.781  48.891  1.00  0.00     0.293 HD
ENDBRANCH  15  18
ENDBRANCH   1  12
BRANCH   2  20
ATOM     20  O   UNL     1      27.716  29.000  47.906  1.00  0.00    -0.502 OA
ATOM     21  H   UNL     1      27.369  29.870  48.290  1.00  0.00     0.293 HD
ENDBRANCH   2  20
BRANCH   6  22
ATOM     22  O   UNL     1      22.578  28.049  46.875  1.00  0.00    -0.507 OA
ATOM     23  H   UNL     1      22.083  28.297  46.033  1.00  0.00     0.293 HD
ENDBRANCH   6  22
BRANCH   8  24
ATOM     24  O   UNL     1      22.559  23.266  46.876  1.00  0.00    -0.508 OA
ATOM     25  H   UNL     1      22.917  22.382  47.218  1.00  0.00     0.293 HD
ENDBRANCH   8  24
TORSDOF 5
ENDMDL
MODEL 3
REMARK VINA RESULT:    -0.201      2.339      2.416
REMARK INTER + INTRA:          -0.534
REMARK INTER:                  -0.237
REMARK INTRA:                  -0.297
REMARK UNBOUND:                -0.297
REMARK SMILES O=c1c(O)c(-c2ccc(O)cc2)oc2cc(O)cc(O)c12
REMARK SMILES IDX 5 1 3 2 2 3 1 4 21 5 19 6 18 7 16 8 15 9 14 10 13 11 6 12
REMARK SMILES IDX 7 13 8 14 9 15 12 16 11 17 10 18 4 20 20 22 17 24
REMARK H PARENT 10 19 4 21 20 23 17 25
REMARK Flexibility Score: inf
ROOT
ATOM      1  C   UNL     1      26.699  30.295  47.675  1.00  0.00     0.180 A 
ATOM      2  C   UNL     1      27.324  29.045  47.527  1.00  0.00     0.208 A 
ATOM      3  C   UNL     1      26.534  27.914  47.270  1.00  0.00     0.238 A 
ATOM      4  O   UNL     1      27.107  26.812  47.065  1.00  0.00    -0.285 OA
ATOM      5  C   UNL     1      25.124  28.035  47.220  1.00  0.00     0.111 A 
ATOM      6  C   UNL     1      24.222  26.947  47.011  1.00  0.00     0.134 A 
ATOM      7  C   UNL     1      22.852  27.203  46.876  1.00  0.00     0.093 A 
ATOM      8  C   UNL     1      22.343  28.495  47.003  1.00  0.00     0.123 A 
ATOM      9  C   UNL     1      23.210  29.557  47.263  1.00  0.00     0.094 A 
ATOM     10  C   UNL     1      24.586  29.340  47.365  1.00  0.00     0.146 A 
ATOM     11  O   UNL     1      25.377  30.382  47.591  1.00  0.00    -0.452 OA
ENDROOT
BRANCH   1  12
ATOM     12  C   UNL     1      27.465  31.535  47.933  1.00  0.00     0.021 A 
ATOM     13  C   UNL     1      27.936  32.339  46.879  1.00  0.00     0.016 A 
ATOM     14  C   UNL     1      28.637  33.519  47.148  1.00  0.00     0.047 A 
ATOM     15  C   UNL     1      28.861  33.917  48.473  1.00  0.00     0.115 A 
ATOM     16  C   UNL     1      27.676  31.954  49.258  1.00  0.00     0.016 A 
ATOM     17  C   UNL     1      28.377  33.133  49.524  1.00  0.00     0.047 A 
BRANCH  15  18
ATOM     18  O   UNL     1      29.558  35.090  48.751  1.00  0.00    -0.508 OA
ATOM     19  H   UNL     1      29.552  35.876  48.112  1.00  0.00     0.293 HD
ENDBRANCH  15  18
ENDBRANCH   1  12
BRANCH   2  20
ATOM     20  O   UNL     1      28.712  28.933  47.655  1.00  0.00    -0.502 OA
ATOM     21  H   UNL     1      29.165  28.786  48.548  1.00  0.00     0.293 HD
ENDBRANCH   2  20
BRANCH   6  22
ATOM     22  O   UNL     1      24.612  25.606  46.956  1.00  0.00    -0.507 OA
ATOM     23  H   UNL     1      24.046  24.827  47.256  1.00  0.00     0.293 HD
ENDBRANCH   6  22
BRANCH   8  24
ATOM     24  O   UNL     1      20.973  28.711  46.879  1.00  0.00    -0.508 OA
ATOM     25  H   UNL     1      20.566  29.629  47.012  1.00  0.00     0.293 HD
ENDBRANCH   8  24
TORSDOF 5
ENDMDL
MODEL 4
REMARK VINA RESULT:    -0.201      1.351      3.224
REMARK INTER + INTRA:          -0.533
REMARK INTER:                  -0.237
REMARK INTRA:                  -0.297
REMARK UNBOUND:                -0.297
REMARK SMILES O=c1c(O)c(-c2ccc(O)cc2)oc2cc(O)cc(O)c12
REMARK SMILES IDX 5 1 3 2 2 3 1 4 21 5 19 6 18 7 16 8 15 9 14 10 13 11 6 12
REMARK SMILES IDX 7 13 8 14 9 15 12 16 11 17 10 18 4 20 20 22 17 24
REMARK H PARENT 10 19 4 21 20 23 17 25
REMARK Flexibility Score: inf
ROOT
ATOM      1  C   UNL     1      26.528  29.305  47.774  1.00  0.00     0.180 A 
ATOM      2  C   UNL     1      25.375  30.108  47.729  1.00  0.00     0.208 A 
ATOM      3  C   UNL     1      24.126  29.497  47.535  1.00  0.00     0.238 A 
ATOM      4  O   UNL     1      23.093  30.214  47.572  1.00  0.00    -0.285 OA
ATOM      5  C   UNL     1      24.049  28.098  47.332  1.00  0.00     0.111 A 
ATOM      6  C   UNL     1      22.842  27.379  47.081  1.00  0.00     0.134 A 
ATOM      7  C   UNL     1      22.875  25.981  47.000  1.00  0.00     0.093 A 
ATOM      8  C   UNL     1      24.076  25.281  47.097  1.00  0.00     0.123 A 
ATOM      9  C   UNL     1      25.270  25.978  47.287  1.00  0.00     0.094 A 
ATOM     10  C   UNL     1      25.265  27.369  47.409  1.00  0.00     0.146 A 
ATOM     11  O   UNL     1      26.421  27.991  47.611  1.00  0.00    -0.452 OA
ENDROOT
BRANCH   1  12
ATOM     12  C   UNL     1      27.877  29.874  47.988  1.00  0.00     0.021 A 
ATOM     13  C   UNL     1      28.405  30.044  49.282  1.00  0.00     0.016 A 
ATOM     14  C   UNL     1      29.692  30.561  49.458  1.00  0.00     0.047 A 
ATOM     15  C   UNL     1      30.474  30.899  48.345  1.00  0.00     0.115 A 
ATOM     16  C   UNL     1      28.677  30.195  46.878  1.00  0.00     0.016 A 
ATOM     17  C   UNL     1      29.963  30.712  47.058  1.00  0.00     0.047 A 
BRANCH  15  18
ATOM     18  O   UNL     1      31.756  31.414  48.510  1.00  0.00    -0.508 OA
ATOM     19  H   UNL     1      32.189  31.997  47.804  1.00  0.00     0.293 HD
ENDBRANCH  15  18
ENDBRANCH   1  12
BRANCH   2  20
ATOM     20  O   UNL     1      25.480  31.496  47.857  1.00  0.00    -0.502 OA
ATOM     21  H   UNL     1      24.674  32.090  48.008  1.00  0.00     0.293 HD
ENDBRANCH   2  20
BRANCH   6  22
ATOM     22  O   UNL     1      21.598  27.983  46.879  1.00  0.00    -0.507 OA
ATOM     23  H   UNL     1      21.161  28.634  47.513  1.00  0.00     0.293 HD
ENDBRANCH   6  22
BRANCH   8  24
ATOM     24  O   UNL     1      24.074  23.892  46.995  1.00  0.00    -0.508 OA
ATOM     25  H   UNL     1      24.932  23.369  46.863  1.00  0.00     0.293 HD
ENDBRANCH   8  24
TORSDOF 5
ENDMDL
MODEL 5
REMARK VINA RESULT:    -0.179      4.437      6.074
REMARK INTER + INTRA:          -0.507
REMARK INTER:                  -0.219
REMARK INTRA:                  -0.288
REMARK UNBOUND:                -0.297
REMARK SMILES O=c1c(O)c(-c2ccc(O)cc2)oc2cc(O)cc(O)c12
REMARK SMILES IDX 5 1 3 2 2 3 1 4 21 5 19 6 18 7 16 8 15 9 14 10 13 11 6 12
REMARK SMILES IDX 7 13 8 14 9 15 12 16 11 17 10 18 4 20 20 22 17 24
REMARK H PARENT 10 19 4 21 20 23 17 25
REMARK Flexibility Score: inf
ROOT
ATOM      1  C   UNL     1      24.004  24.948  47.879  1.00  0.00     0.180 A 
ATOM      2  C   UNL     1      24.334  26.277  47.567  1.00  0.00     0.208 A 
ATOM      3  C   UNL     1      23.303  27.218  47.418  1.00  0.00     0.238 A 
ATOM      4  O   UNL     1      23.609  28.421  47.214  1.00  0.00    -0.285 OA
ATOM      5  C   UNL     1      21.951  26.807  47.526  1.00  0.00     0.111 A 
ATOM      6  C   UNL     1      20.825  27.666  47.349  1.00  0.00     0.134 A 
ATOM      7  C   UNL     1      19.536  27.170  47.584  1.00  0.00     0.093 A 
ATOM      8  C   UNL     1      19.328  25.836  47.927  1.00  0.00     0.123 A 
ATOM      9  C   UNL     1      20.418  24.974  48.049  1.00  0.00     0.094 A 
ATOM     10  C   UNL     1      21.719  25.447  47.858  1.00  0.00     0.146 A 
ATOM     11  O   UNL     1      22.729  24.598  48.006  1.00  0.00    -0.452 OA
ENDROOT
BRANCH   1  12
ATOM     12  C   UNL     1      25.035  23.902  48.066  1.00  0.00     0.021 A 
ATOM     13  C   UNL     1      25.504  23.132  46.984  1.00  0.00     0.016 A 
ATOM     14  C   UNL     1      26.496  22.167  47.182  1.00  0.00     0.047 A 
ATOM     15  C   UNL     1      27.043  21.970  48.457  1.00  0.00     0.115 A 
ATOM     16  C   UNL     1      25.605  23.713  49.336  1.00  0.00     0.016 A 
ATOM     17  C   UNL     1      26.597  22.746  49.530  1.00  0.00     0.047 A 
BRANCH  15  18
ATOM     18  O   UNL     1      28.031  21.011  48.664  1.00  0.00    -0.508 OA
ATOM     19  H   UNL     1      28.624  20.688  47.908  1.00  0.00     0.293 HD
ENDBRANCH  15  18
ENDBRANCH   1  12
BRANCH   2  20
ATOM     20  O   UNL     1      25.670  26.648  47.390  1.00  0.00    -0.502 OA
ATOM     21  H   UNL     1      26.239  27.006  48.147  1.00  0.00     0.293 HD
ENDBRANCH   2  20
BRANCH   6  22
ATOM     22  O   UNL     1      20.911  28.993  46.921  1.00  0.00    -0.507 OA
ATOM     23  H   UNL     1      21.565  29.674  47.276  1.00  0.00     0.293 HD
ENDBRANCH   6  22
BRANCH   8  24
ATOM     24  O   UNL     1      18.030  25.373  48.137  1.00  0.00    -0.508 OA
ATOM     25  H   UNL     1      17.289  25.551  47.470  1.00  0.00     0.293 HD
ENDBRANCH   8  24
TORSDOF 5
ENDMDL
MODEL 6
REMARK VINA RESULT:    -0.171      2.709      7.611
REMARK INTER + INTRA:          -0.498
REMARK INTER:                  -0.201
REMARK INTRA:                  -0.297
REMARK UNBOUND:                -0.297
REMARK SMILES O=c1c(O)c(-c2ccc(O)cc2)oc2cc(O)cc(O)c12
REMARK SMILES IDX 5 1 3 2 2 3 1 4 21 5 19 6 18 7 16 8 15 9 14 10 13 11 6 12
REMARK SMILES IDX 7 13 8 14 9 15 12 16 11 17 10 18 4 20 20 22 17 24
REMARK H PARENT 10 19 4 21 20 23 17 25
REMARK Flexibility Score: inf
ROOT
ATOM      1  C   UNL     1      24.283  26.059  47.852  1.00  0.00     0.180 A 
ATOM      2  C   UNL     1      24.742  27.332  47.475  1.00  0.00     0.208 A 
ATOM      3  C   UNL     1      26.124  27.553  47.368  1.00  0.00     0.238 A 
ATOM      4  O   UNL     1      26.526  28.673  46.957  1.00  0.00    -0.285 OA
ATOM      5  C   UNL     1      27.033  26.516  47.694  1.00  0.00     0.111 A 
ATOM      6  C   UNL     1      28.454  26.642  47.665  1.00  0.00     0.134 A 
ATOM      7  C   UNL     1      29.252  25.517  47.906  1.00  0.00     0.093 A 
ATOM      8  C   UNL     1      28.685  24.288  48.235  1.00  0.00     0.123 A 
ATOM      9  C   UNL     1      27.297  24.166  48.321  1.00  0.00     0.094 A 
ATOM     10  C   UNL     1      26.473  25.261  48.049  1.00  0.00     0.146 A 
ATOM     11  O   UNL     1      25.157  25.096  48.120  1.00  0.00    -0.452 OA
ENDROOT
BRANCH   1  12
ATOM     12  C   UNL     1      22.841  25.744  47.973  1.00  0.00     0.021 A 
ATOM     13  C   UNL     1      22.101  25.262  46.877  1.00  0.00     0.016 A 
ATOM     14  C   UNL     1      20.746  24.949  47.022  1.00  0.00     0.047 A 
ATOM     15  C   UNL     1      20.118  25.099  48.266  1.00  0.00     0.115 A 
ATOM     16  C   UNL     1      22.209  25.870  49.221  1.00  0.00     0.016 A 
ATOM     17  C   UNL     1      20.853  25.557  49.363  1.00  0.00     0.047 A 
BRANCH  15  18
ATOM     18  O   UNL     1      18.769  24.790  48.420  1.00  0.00    -0.508 OA
ATOM     19  H   UNL     1      18.147  24.717  47.625  1.00  0.00     0.293 HD
ENDBRANCH  15  18
ENDBRANCH   1  12
BRANCH   2  20
ATOM     20  O   UNL     1      23.833  28.364  47.231  1.00  0.00    -0.502 OA
ATOM     21  H   UNL     1      23.130  28.641  47.905  1.00  0.00     0.293 HD
ENDBRANCH   2  20
BRANCH   6  22
ATOM     22  O   UNL     1      29.129  27.844  47.433  1.00  0.00    -0.507 OA
ATOM     23  H   UNL     1      29.572  28.100  46.564  1.00  0.00     0.293 HD
ENDBRANCH   6  22
BRANCH   8  24
ATOM     24  O   UNL     1      29.509  23.193  48.485  1.00  0.00    -0.508 OA
ATOM     25  H   UNL     1      29.128  22.276  48.684  1.00  0.00     0.293 HD
ENDBRANCH   8  24
TORSDOF 5
ENDMDL
MODEL 7
REMARK VINA RESULT:    -0.169      3.548      4.337
REMARK INTER + INTRA:          -0.496
REMARK INTER:                  -0.199
REMARK INTRA:                  -0.297
REMARK UNBOUND:                -0.297
REMARK SMILES O=c1c(O)c(-c2ccc(O)cc2)oc2cc(O)cc(O)c12
REMARK SMILES IDX 5 1 3 2 2 3 1 4 21 5 19 6 18 7 16 8 15 9 14 10 13 11 6 12
REMARK SMILES IDX 7 13 8 14 9 15 12 16 11 17 10 18 4 20 20 22 17 24
REMARK H PARENT 10 19 4 21 20 23 17 25
REMARK Flexibility Score: inf
ROOT
ATOM      1  C   UNL     1      24.096  28.624  48.220  1.00  0.00     0.180 A 
ATOM      2  C   UNL     1      25.138  27.698  48.042  1.00  0.00     0.208 A 
ATOM      3  C   UNL     1      24.824  26.382  47.667  1.00  0.00     0.238 A 
ATOM      4  O   UNL     1      25.765  25.580  47.436  1.00  0.00    -0.285 OA
ATOM      5  C   UNL     1      23.469  25.992  47.530  1.00  0.00     0.111 A 
ATOM      6  C   UNL     1      23.033  24.673  47.198  1.00  0.00     0.134 A 
ATOM      7  C   UNL     1      21.670  24.430  46.986  1.00  0.00     0.093 A 
ATOM      8  C   UNL     1      20.723  25.438  47.155  1.00  0.00     0.123 A 
ATOM      9  C   UNL     1      21.132  26.717  47.533  1.00  0.00     0.094 A 
ATOM     10  C   UNL     1      22.488  27.001  47.715  1.00  0.00     0.146 A 
ATOM     11  O   UNL     1      22.836  28.237  48.053  1.00  0.00    -0.452 OA
ENDROOT
BRANCH   1  12
ATOM     12  C   UNL     1      24.348  30.032  48.601  1.00  0.00     0.021 A 
ATOM     13  C   UNL     1      24.543  31.031  47.630  1.00  0.00     0.016 A 
ATOM     14  C   UNL     1      24.756  32.358  48.014  1.00  0.00     0.047 A 
ATOM     15  C   UNL     1      24.760  32.706  49.371  1.00  0.00     0.115 A 
ATOM     16  C   UNL     1      24.332  30.394  49.959  1.00  0.00     0.016 A 
ATOM     17  C   UNL     1      24.546  31.722  50.340  1.00  0.00     0.047 A 
BRANCH  15  18
ATOM     18  O   UNL     1      24.971  34.025  49.764  1.00  0.00    -0.508 OA
ATOM     19  H   UNL     1      24.882  34.312  50.732  1.00  0.00     0.293 HD
ENDBRANCH  15  18
ENDBRANCH   1  12
BRANCH   2  20
ATOM     20  O   UNL     1      26.464  28.082  48.256  1.00  0.00    -0.502 OA
ATOM     21  H   UNL     1      26.922  28.791  47.696  1.00  0.00     0.293 HD
ENDBRANCH   2  20
BRANCH   6  22
ATOM     22  O   UNL     1      23.885  23.571  47.091  1.00  0.00    -0.507 OA
ATOM     23  H   UNL     1      23.696  22.746  46.542  1.00  0.00     0.293 HD
ENDBRANCH   6  22
BRANCH   8  24
ATOM     24  O   UNL     1      19.374  25.156  46.952  1.00  0.00    -0.508 OA
ATOM     25  H   UNL     1      18.957  25.195  46.029  1.00  0.00     0.293 HD
ENDBRANCH   8  24
TORSDOF 5
ENDMDL
MODEL 8
REMARK VINA RESULT:     0.000     12.151     12.809
REMARK INTER + INTRA:          -0.297
REMARK INTER:                   0.000
REMARK INTRA:                  -0.297
REMARK UNBOUND:                -0.297
REMARK SMILES O=c1c(O)c(-c2ccc(O)cc2)oc2cc(O)cc(O)c12
REMARK SMILES IDX 5 1 3 2 2 3 1 4 21 5 19 6 18 7 16 8 15 9 14 10 13 11 6 12
REMARK SMILES IDX 7 13 8 14 9 15 12 16 11 17 10 18 4 20 20 22 17 24
REMARK H PARENT 10 19 4 21 20 23 17 25
REMARK Flexibility Score: inf
ROOT
ATOM      1  C   UNL     1      25.191  26.725  59.001  1.00  0.00     0.180 A 
ATOM      2  C   UNL     1      25.967  26.608  60.167  1.00  0.00     0.208 A 
ATOM      3  C   UNL     1      25.323  26.570  61.413  1.00  0.00     0.238 A 
ATOM      4  O   UNL     1      26.019  26.390  62.446  1.00  0.00    -0.285 OA
ATOM      5  C   UNL     1      23.915  26.706  61.485  1.00  0.00     0.111 A 
ATOM      6  C   UNL     1      23.162  26.727  62.698  1.00  0.00     0.134 A 
ATOM      7  C   UNL     1      21.763  26.761  62.641  1.00  0.00     0.093 A 
ATOM      8  C   UNL     1      21.093  26.837  61.421  1.00  0.00     0.123 A 
ATOM      9  C   UNL     1      21.821  26.873  60.232  1.00  0.00     0.094 A 
ATOM     10  C   UNL     1      23.216  26.803  60.254  1.00  0.00     0.146 A 
ATOM     11  O   UNL     1      23.869  26.818  59.098  1.00  0.00    -0.452 OA
ENDROOT
BRANCH   1  12
ATOM     12  C   UNL     1      25.795  26.757  57.650  1.00  0.00     0.021 A 
ATOM     13  C   UNL     1      26.014  25.577  56.916  1.00  0.00     0.016 A 
ATOM     14  C   UNL     1      26.564  25.635  55.632  1.00  0.00     0.047 A 
ATOM     15  C   UNL     1      26.887  26.873  55.060  1.00  0.00     0.115 A 
ATOM     16  C   UNL     1      26.102  27.995  57.060  1.00  0.00     0.016 A 
ATOM     17  C   UNL     1      26.653  28.050  55.776  1.00  0.00     0.047 A 
BRANCH  15  18
ATOM     18  O   UNL     1      27.436  26.942  53.782  1.00  0.00    -0.508 OA
ATOM     19  H   UNL     1      26.874  27.185  52.976  1.00  0.00     0.293 HD
ENDBRANCH  15  18
ENDBRANCH   1  12
BRANCH   2  20
ATOM     20  O   UNL     1      27.361  26.551  60.080  1.00  0.00    -0.502 OA
ATOM     21  H   UNL     1      27.868  26.862  59.261  1.00  0.00     0.293 HD
ENDBRANCH   2  20
BRANCH   6  22
ATOM     22  O   UNL     1      23.731  26.743  63.974  1.00  0.00    -0.507 OA
ATOM     23  H   UNL     1      23.399  27.296  64.749  1.00  0.00     0.293 HD
ENDBRANCH   6  22
BRANCH   8  24
ATOM     24  O   UNL     1      19.700  26.886  61.402  1.00  0.00    -0.508 OA
ATOM     25  H   UNL     1      19.138  26.074  61.626  1.00  0.00     0.293 HD
ENDBRANCH   8  24
TORSDOF 5
ENDMDL
