MODEL 1
REMARK VINA RESULT:    14.119      0.000      0.000
REMARK INTER + INTRA:          20.873
REMARK INTER:                  20.723
REMARK INTRA:                   0.150
REMARK UNBOUND:                 0.150
REMARK SMILES O=c1c(O[C@@H]2O[C@@H](CO)[C@@H](O)[C@@H](O)[C@H]2O)c(-c2ccc(O)c(O)c2)oc2cc(O)cc(O)c12
REMARK SMILES IDX 4 1 3 2 16 3 25 4 2 5 26 6 1 7 33 8 27 9 31 10 28 11 30 12
REMARK SMILES IDX 17 13 18 14 19 15 20 16 24 17 22 18 21 19 23 21 32 23 29 25
REMARK SMILES IDX 5 27 14 28 6 29 12 30 7 31 10 32 15 33 13 35 8 37 9 38 11 40
REMARK H PARENT 21 20 23 22 32 24 29 26 15 34 13 36 9 39 11 41
REMARK Flexibility Score: inf
ROOT
ATOM      1  O   UNL     1       6.181  10.450   6.277  1.00  0.00    -0.454 OA
ENDROOT
BRANCH   1   2
ATOM      2  C   UNL     1       6.840  11.315   5.403  1.00  0.00     0.214 A 
ATOM      3  C   UNL     1       8.099  11.897   5.707  1.00  0.00     0.180 A 
ATOM      4  O   UNL     1       8.922  12.208   4.716  1.00  0.00    -0.452 OA
ATOM      5  C   UNL     1       6.350  11.498   4.113  1.00  0.00     0.239 A 
ATOM      6  C   UNL     1       8.584  12.085   3.440  1.00  0.00     0.146 A 
ATOM      7  O   UNL     1       5.143  11.856   3.952  1.00  0.00    -0.285 OA
ATOM      8  C   UNL     1       7.276  11.671   3.063  1.00  0.00     0.111 A 
ATOM      9  C   UNL     1       9.528  12.416   2.457  1.00  0.00     0.094 A 
ATOM     10  C   UNL     1       6.942  11.561   1.694  1.00  0.00     0.134 A 
ATOM     11  C   UNL     1       9.204  12.272   1.094  1.00  0.00     0.123 A 
ATOM     12  C   UNL     1       7.936  11.782   0.726  1.00  0.00     0.093 A 
BRANCH   3  13
ATOM     13  C   UNL     1       8.381  12.354   7.083  1.00  0.00     0.025 A 
ATOM     14  C   UNL     1       9.725  12.269   7.525  1.00  0.00     0.016 A 
ATOM     15  C   UNL     1      10.050  12.587   8.854  1.00  0.00     0.051 A 
ATOM     16  C   UNL     1       9.031  12.868   9.782  1.00  0.00     0.157 A 
ATOM     17  C   UNL     1       7.368  12.600   8.026  1.00  0.00     0.062 A 
ATOM     18  C   UNL     1       7.689  12.870   9.365  1.00  0.00     0.158 A 
BRANCH  16  19
ATOM     19  O   UNL     1       9.340  13.125  11.125  1.00  0.00    -0.504 OA
ATOM     20  H   UNL     1      10.026  13.854  11.324  1.00  0.00     0.293 HD
ENDBRANCH  16  19
BRANCH  18  21
ATOM     21  O   UNL     1       6.685  13.073  10.299  1.00  0.00    -0.504 OA
ATOM     22  H   UNL     1       6.518  12.415  11.051  1.00  0.00     0.293 HD
ENDBRANCH  18  21
ENDBRANCH   3  13
BRANCH  10  23
ATOM     23  O   UNL     1       5.675  11.200   1.250  1.00  0.00    -0.507 OA
ATOM     24  H   UNL     1       5.388  11.197   0.293  1.00  0.00     0.293 HD
ENDBRANCH  10  23
BRANCH  11  25
ATOM     25  O   UNL     1      10.125  12.607   0.117  1.00  0.00    -0.508 OA
ATOM     26  H   UNL     1      10.621  11.899  -0.426  1.00  0.00     0.293 HD
ENDBRANCH  11  25
ENDBRANCH   1   2
BRANCH   1  27
ATOM     27  C   UNL     1       4.736  10.436   6.311  1.00  0.00     0.339 C 
ATOM     28  C   UNL     1       4.174   9.115   6.840  1.00  0.00     0.214 C 
ATOM     29  O   UNL     1       4.203  11.544   7.006  1.00  0.00    -0.332 OA
ATOM     30  C   UNL     1       4.491   8.982   8.349  1.00  0.00     0.180 C 
ATOM     31  C   UNL     1       4.535  11.554   8.390  1.00  0.00     0.179 C 
ATOM     32  C   UNL     1       4.048  10.245   9.130  1.00  0.00     0.177 C 
BRANCH  28  33
ATOM     33  O   UNL     1       2.773   9.105   6.636  1.00  0.00    -0.384 OA
ATOM     34  H   UNL     1       2.368   9.657   7.358  1.00  0.00     0.211 HD
ENDBRANCH  28  33
BRANCH  30  35
ATOM     35  O   UNL     1       3.935   7.804   8.867  1.00  0.00    -0.387 OA
ATOM     36  H   UNL     1       4.078   7.815   9.862  1.00  0.00     0.211 HD
ENDBRANCH  30  35
BRANCH  31  37
ATOM     37  C   UNL     1       3.923  12.836   8.968  1.00  0.00     0.191 C 
BRANCH  37  38
ATOM     38  O   UNL     1       2.544  12.887   8.742  1.00  0.00    -0.394 OA
ATOM     39  H   UNL     1       2.407  13.626   8.074  1.00  0.00     0.210 HD
ENDBRANCH  37  38
ENDBRANCH  31  37
BRANCH  32  40
ATOM     40  O   UNL     1       2.653  10.226   9.282  1.00  0.00    -0.387 OA
ATOM     41  H   UNL     1       2.414  10.510  10.224  1.00  0.00     0.211 HD
ENDBRANCH  32  40
ENDBRANCH   1  27
TORSDOF 12
ENDMDL
MODEL 2
REMARK VINA RESULT:    14.486      2.250      6.972
REMARK INTER + INTRA:          21.410
REMARK INTER:                  15.374
REMARK INTRA:                   6.037
REMARK UNBOUND:                 0.150
REMARK SMILES O=c1c(O[C@@H]2O[C@@H](CO)[C@@H](O)[C@@H](O)[C@H]2O)c(-c2ccc(O)c(O)c2)oc2cc(O)cc(O)c12
REMARK SMILES IDX 4 1 3 2 16 3 25 4 2 5 26 6 1 7 33 8 27 9 31 10 28 11 30 12
REMARK SMILES IDX 17 13 18 14 19 15 20 16 24 17 22 18 21 19 23 21 32 23 29 25
REMARK SMILES IDX 5 27 14 28 6 29 12 30 7 31 10 32 15 33 13 35 8 37 9 38 11 40
REMARK H PARENT 21 20 23 22 32 24 29 26 15 34 13 36 9 39 11 41
REMARK Flexibility Score: inf
ROOT
ATOM      1  O   UNL     1       5.747   9.350   7.549  1.00  0.00    -0.454 OA
ENDROOT
BRANCH   1   2
ATOM      2  C   UNL     1       4.707  10.280   7.590  1.00  0.00     0.214 A 
ATOM      3  C   UNL     1       4.180  10.888   6.420  1.00  0.00     0.180 A 
ATOM      4  O   UNL     1       2.912  11.277   6.410  1.00  0.00    -0.452 OA
ATOM      5  C   UNL     1       4.033  10.511   8.786  1.00  0.00     0.239 A 
ATOM      6  C   UNL     1       2.135  11.206   7.482  1.00  0.00     0.146 A 
ATOM      7  O   UNL     1       4.695  10.836   9.818  1.00  0.00    -0.285 OA
ATOM      8  C   UNL     1       2.647  10.769   8.734  1.00  0.00     0.111 A 
ATOM      9  C   UNL     1       0.798  11.618   7.373  1.00  0.00     0.094 A 
ATOM     10  C   UNL     1       1.795  10.716   9.862  1.00  0.00     0.134 A 
ATOM     11  C   UNL     1      -0.057  11.532   8.489  1.00  0.00     0.123 A 
ATOM     12  C   UNL     1       0.433  11.020   9.705  1.00  0.00     0.093 A 
BRANCH   3  13
ATOM     13  C   UNL     1       5.090  11.285   5.327  1.00  0.00     0.025 A 
ATOM     14  C   UNL     1       4.979  10.570   4.108  1.00  0.00     0.016 A 
ATOM     15  C   UNL     1       5.881  10.821   3.060  1.00  0.00     0.051 A 
ATOM     16  C   UNL     1       6.972  11.686   3.261  1.00  0.00     0.157 A 
ATOM     17  C   UNL     1       6.204  12.119   5.528  1.00  0.00     0.062 A 
ATOM     18  C   UNL     1       7.132  12.332   4.498  1.00  0.00     0.158 A 
BRANCH  16  19
ATOM     19  O   UNL     1       7.913  11.895   2.243  1.00  0.00    -0.504 OA
ATOM     20  H   UNL     1       8.668  11.216   2.147  1.00  0.00     0.293 HD
ENDBRANCH  16  19
BRANCH  18  21
ATOM     21  O   UNL     1       8.249  13.125   4.715  1.00  0.00    -0.504 OA
ATOM     22  H   UNL     1       8.173  14.127   4.843  1.00  0.00     0.293 HD
ENDBRANCH  18  21
ENDBRANCH   3  13
BRANCH  10  23
ATOM     23  O   UNL     1       2.233  10.336  11.125  1.00  0.00    -0.507 OA
ATOM     24  H   UNL     1       2.865   9.583  11.304  1.00  0.00     0.293 HD
ENDBRANCH  10  23
BRANCH  11  25
ATOM     25  O   UNL     1      -1.373  11.947   8.394  1.00  0.00    -0.508 OA
ATOM     26  H   UNL     1      -1.966  12.064   9.218  1.00  0.00     0.293 HD
ENDBRANCH  11  25
ENDBRANCH   1   2
BRANCH   1  27
ATOM     27  C   UNL     1       6.916   9.555   8.374  1.00  0.00     0.339 C 
ATOM     28  C   UNL     1       8.221   9.438   7.582  1.00  0.00     0.214 C 
ATOM     29  O   UNL     1       6.857  10.762   9.103  1.00  0.00    -0.332 OA
ATOM     30  C   UNL     1       8.349  10.637   6.611  1.00  0.00     0.180 C 
ATOM     31  C   UNL     1       6.867  11.921   8.277  1.00  0.00     0.179 C 
ATOM     32  C   UNL     1       8.147  11.983   7.352  1.00  0.00     0.177 C 
BRANCH  28  33
ATOM     33  O   UNL     1       9.304   9.433   8.492  1.00  0.00    -0.384 OA
ATOM     34  H   UNL     1       9.002   9.915   9.310  1.00  0.00     0.211 HD
ENDBRANCH  28  33
BRANCH  30  35
ATOM     35  O   UNL     1       9.564  10.580   5.916  1.00  0.00    -0.387 OA
ATOM     36  H   UNL     1       9.437  11.068   5.046  1.00  0.00     0.211 HD
ENDBRANCH  30  35
BRANCH  31  37
ATOM     37  C   UNL     1       6.748  13.123   9.223  1.00  0.00     0.191 C 
BRANCH  37  38
ATOM     38  O   UNL     1       7.753  13.105  10.195  1.00  0.00    -0.394 OA
ATOM     39  H   UNL     1       8.578  12.773   9.724  1.00  0.00     0.210 HD
ENDBRANCH  37  38
ENDBRANCH  31  37
BRANCH  32  40
ATOM     40  O   UNL     1       9.303  12.281   8.088  1.00  0.00    -0.387 OA
ATOM     41  H   UNL     1       9.697  11.424   8.457  1.00  0.00     0.211 HD
ENDBRANCH  32  40
ENDBRANCH   1  27
TORSDOF 12
ENDMDL
MODEL 3
REMARK VINA RESULT:    16.140      2.386      6.492
REMARK INTER + INTRA:          23.838
REMARK INTER:                  19.908
REMARK INTRA:                   3.930
REMARK UNBOUND:                 0.150
REMARK SMILES O=c1c(O[C@@H]2O[C@@H](CO)[C@@H](O)[C@@H](O)[C@H]2O)c(-c2ccc(O)c(O)c2)oc2cc(O)cc(O)c12
REMARK SMILES IDX 4 1 3 2 16 3 25 4 2 5 26 6 1 7 33 8 27 9 31 10 28 11 30 12
REMARK SMILES IDX 17 13 18 14 19 15 20 16 24 17 22 18 21 19 23 21 32 23 29 25
REMARK SMILES IDX 5 27 14 28 6 29 12 30 7 31 10 32 15 33 13 35 8 37 9 38 11 40
REMARK H PARENT 21 20 23 22 32 24 29 26 15 34 13 36 9 39 11 41
REMARK Flexibility Score: inf
ROOT
ATOM      1  O   UNL     1       5.594   9.064   7.521  1.00  0.00    -0.454 OA
ENDROOT
BRANCH   1   2
ATOM      2  C   UNL     1       5.051   9.986   8.417  1.00  0.00     0.214 A 
ATOM      3  C   UNL     1       5.190  11.388   8.247  1.00  0.00     0.180 A 
ATOM      4  O   UNL     1       4.250  12.192   8.724  1.00  0.00    -0.452 OA
ATOM      5  C   UNL     1       4.196   9.548   9.424  1.00  0.00     0.239 A 
ATOM      6  C   UNL     1       3.223  11.748   9.435  1.00  0.00     0.146 A 
ATOM      7  O   UNL     1       4.586   8.636  10.216  1.00  0.00    -0.285 OA
ATOM      8  C   UNL     1       3.114  10.376   9.790  1.00  0.00     0.111 A 
ATOM      9  C   UNL     1       2.262  12.669   9.879  1.00  0.00     0.094 A 
ATOM     10  C   UNL     1       2.013   9.935  10.561  1.00  0.00     0.134 A 
ATOM     11  C   UNL     1       1.149  12.222  10.618  1.00  0.00     0.123 A 
ATOM     12  C   UNL     1       1.001  10.850  10.894  1.00  0.00     0.093 A 
BRANCH   3  13
ATOM     13  C   UNL     1       6.468  11.943   7.757  1.00  0.00     0.025 A 
ATOM     14  C   UNL     1       6.471  12.489   6.448  1.00  0.00     0.016 A 
ATOM     15  C   UNL     1       7.673  12.939   5.877  1.00  0.00     0.051 A 
ATOM     16  C   UNL     1       8.892  12.735   6.546  1.00  0.00     0.157 A 
ATOM     17  C   UNL     1       7.696  11.712   8.401  1.00  0.00     0.062 A 
ATOM     18  C   UNL     1       8.901  12.118   7.808  1.00  0.00     0.158 A 
BRANCH  16  19
ATOM     19  O   UNL     1      10.103  13.124   5.956  1.00  0.00    -0.504 OA
ATOM     20  H   UNL     1      10.626  13.881   6.398  1.00  0.00     0.293 HD
ENDBRANCH  16  19
BRANCH  18  21
ATOM     21  O   UNL     1      10.111  11.852   8.430  1.00  0.00    -0.504 OA
ATOM     22  H   UNL     1      10.417  12.372   9.244  1.00  0.00     0.293 HD
ENDBRANCH  18  21
ENDBRANCH   3  13
BRANCH  10  23
ATOM     23  O   UNL     1       1.858   8.618  10.977  1.00  0.00    -0.507 OA
ATOM     24  H   UNL     1       2.602   8.032  11.295  1.00  0.00     0.293 HD
ENDBRANCH  10  23
BRANCH  11  25
ATOM     25  O   UNL     1       0.202  13.125  11.069  1.00  0.00    -0.508 OA
ATOM     26  H   UNL     1       0.397  14.125  11.140  1.00  0.00     0.293 HD
ENDBRANCH  11  25
ENDBRANCH   1   2
BRANCH   1  27
ATOM     27  C   UNL     1       4.759   8.501   6.485  1.00  0.00     0.339 C 
ATOM     28  C   UNL     1       3.269   8.561   6.834  1.00  0.00     0.214 C 
ATOM     29  O   UNL     1       5.018   9.068   5.218  1.00  0.00    -0.332 OA
ATOM     30  C   UNL     1       2.789  10.032   6.816  1.00  0.00     0.180 C 
ATOM     31  C   UNL     1       4.698  10.452   5.143  1.00  0.00     0.179 C 
ATOM     32  C   UNL     1       3.182  10.735   5.491  1.00  0.00     0.177 C 
BRANCH  28  33
ATOM     33  O   UNL     1       2.550   7.803   5.880  1.00  0.00    -0.384 OA
ATOM     34  H   UNL     1       2.120   8.449   5.256  1.00  0.00     0.211 HD
ENDBRANCH  28  33
BRANCH  30  35
ATOM     35  O   UNL     1       1.414  10.104   7.078  1.00  0.00    -0.387 OA
ATOM     36  H   UNL     1       0.991   9.277   6.694  1.00  0.00     0.211 HD
ENDBRANCH  30  35
BRANCH  31  37
ATOM     37  C   UNL     1       5.085  10.907   3.729  1.00  0.00     0.191 C 
BRANCH  37  38
ATOM     38  O   UNL     1       5.977  11.983   3.769  1.00  0.00    -0.394 OA
ATOM     39  H   UNL     1       6.207  12.107   4.741  1.00  0.00     0.210 HD
ENDBRANCH  37  38
ENDBRANCH  31  37
BRANCH  32  40
ATOM     40  O   UNL     1       2.327  10.299   4.468  1.00  0.00    -0.387 OA
ATOM     41  H   UNL     1       1.522  10.911   4.420  1.00  0.00     0.211 HD
ENDBRANCH  32  40
ENDBRANCH   1  27
TORSDOF 12
ENDMDL
