MODEL 1
REMARK VINA RESULT:    -3.495      0.000      0.000
REMARK INTER + INTRA:          -3.495
REMARK INTER:                  -3.495
REMARK INTRA:                   0.000
REMARK UNBOUND:                 0.000
REMARK SMILES CC1(C)O[C@]2(C)CC[C@H]1CC2
REMARK SMILES IDX 1 1 2 2 9 3 10 4 11 5 5 6 4 7 7 8 8 9 6 10 3 11
REMARK H PARENT
REMARK Flexibility Score: inf
ROOT
ATOM      1  C   UNL     1     485.389  41.404 459.290  1.00  0.00     0.042 C 
ATOM      2  C   UNL     1     483.995  40.752 459.159  1.00  0.00     0.066 C 
ATOM      3  C   UNL     1     483.713  39.790 460.378  1.00  0.00     0.021 C 
ATOM      4  C   UNL     1     482.329  39.129 460.169  1.00  0.00     0.009 C 
ATOM      5  C   UNL     1     482.274  38.501 458.756  1.00  0.00     0.035 C 
ATOM      6  C   UNL     1     483.653  38.663 458.053  1.00  0.00     0.066 C 
ATOM      7  O   UNL     1     483.944  40.053 457.907  1.00  0.00    -0.369 OA
ATOM      8  C   UNL     1     484.751  38.001 458.933  1.00  0.00     0.035 C 
ATOM      9  C   UNL     1     484.748  38.640 460.343  1.00  0.00     0.009 C 
ATOM     10  C   UNL     1     483.622  38.016 456.663  1.00  0.00     0.042 C 
ATOM     11  C   UNL     1     482.957  41.894 459.115  1.00  0.00     0.042 C 
ENDROOT
TORSDOF 0
ENDMDL
MODEL 2
REMARK VINA RESULT:    -3.474      1.037      2.207
REMARK INTER + INTRA:          -3.474
REMARK INTER:                  -3.474
REMARK INTRA:                   0.000
REMARK UNBOUND:                 0.000
REMARK SMILES CC1(C)O[C@]2(C)CC[C@H]1CC2
REMARK SMILES IDX 1 1 2 2 9 3 10 4 11 5 5 6 4 7 7 8 8 9 6 10 3 11
REMARK H PARENT
REMARK Flexibility Score: inf
ROOT
ATOM      1  C   UNL     1     482.458  41.528 459.839  1.00  0.00     0.042 C 
ATOM      2  C   UNL     1     483.086  40.131 460.043  1.00  0.00     0.066 C 
ATOM      3  C   UNL     1     484.618  40.255 460.396  1.00  0.00     0.021 C 
ATOM      4  C   UNL     1     485.205  38.829 460.539  1.00  0.00     0.009 C 
ATOM      5  C   UNL     1     484.841  38.003 459.283  1.00  0.00     0.035 C 
ATOM      6  C   UNL     1     484.091  38.902 458.258  1.00  0.00     0.066 C 
ATOM      7  O   UNL     1     482.875  39.368 458.846  1.00  0.00    -0.369 OA
ATOM      8  C   UNL     1     484.987  40.123 457.904  1.00  0.00     0.035 C 
ATOM      9  C   UNL     1     485.347  40.900 459.193  1.00  0.00     0.009 C 
ATOM     10  C   UNL     1     483.753  38.103 456.994  1.00  0.00     0.042 C 
ATOM     11  C   UNL     1     482.315  39.446 461.191  1.00  0.00     0.042 C 
ENDROOT
TORSDOF 0
ENDMDL
MODEL 3
REMARK VINA RESULT:    -3.448      1.259      2.584
REMARK INTER + INTRA:          -3.448
REMARK INTER:                  -3.448
REMARK INTRA:                   0.000
REMARK UNBOUND:                 0.000
REMARK SMILES CC1(C)O[C@]2(C)CC[C@H]1CC2
REMARK SMILES IDX 1 1 2 2 9 3 10 4 11 5 5 6 4 7 7 8 8 9 6 10 3 11
REMARK H PARENT
REMARK Flexibility Score: inf
ROOT
ATOM      1  C   UNL     1     484.671  41.282 457.679  1.00  0.00     0.042 C 
ATOM      2  C   UNL     1     484.713  40.809 459.148  1.00  0.00     0.066 C 
ATOM      3  C   UNL     1     485.375  39.381 459.255  1.00  0.00     0.021 C 
ATOM      4  C   UNL     1     485.345  38.937 460.738  1.00  0.00     0.009 C 
ATOM      5  C   UNL     1     483.904  39.083 461.282  1.00  0.00     0.035 C 
ATOM      6  C   UNL     1     482.951  39.536 460.138  1.00  0.00     0.066 C 
ATOM      7  O   UNL     1     483.371  40.814 459.657  1.00  0.00    -0.369 OA
ATOM      8  C   UNL     1     483.026  38.504 458.977  1.00  0.00     0.035 C 
ATOM      9  C   UNL     1     484.488  38.372 458.487  1.00  0.00     0.009 C 
ATOM     10  C   UNL     1     481.513  39.653 460.656  1.00  0.00     0.042 C 
ATOM     11  C   UNL     1     485.531  41.851 459.941  1.00  0.00     0.042 C 
ENDROOT
TORSDOF 0
ENDMDL
MODEL 4
REMARK VINA RESULT:    -3.431      1.581      3.282
REMARK INTER + INTRA:          -3.431
REMARK INTER:                  -3.431
REMARK INTRA:                   0.000
REMARK UNBOUND:                 0.000
REMARK SMILES CC1(C)O[C@]2(C)CC[C@H]1CC2
REMARK SMILES IDX 1 1 2 2 9 3 10 4 11 5 5 6 4 7 7 8 8 9 6 10 3 11
REMARK H PARENT
REMARK Flexibility Score: inf
ROOT
ATOM      1  C   UNL     1     483.727  40.125 459.782  1.00  0.00     0.042 C 
ATOM      2  C   UNL     1     483.699  38.966 458.762  1.00  0.00     0.066 C 
ATOM      3  C   UNL     1     484.006  39.495 457.308  1.00  0.00     0.021 C 
ATOM      4  C   UNL     1     483.914  38.303 456.324  1.00  0.00     0.009 C 
ATOM      5  C   UNL     1     482.565  37.575 456.533  1.00  0.00     0.035 C 
ATOM      6  C   UNL     1     481.714  38.334 457.592  1.00  0.00     0.066 C 
ATOM      7  O   UNL     1     482.411  38.336 458.839  1.00  0.00    -0.369 OA
ATOM      8  C   UNL     1     481.509  39.801 457.120  1.00  0.00     0.035 C 
ATOM      9  C   UNL     1     482.883  40.478 456.898  1.00  0.00     0.009 C 
ATOM     10  C   UNL     1     480.361  37.640 457.785  1.00  0.00     0.042 C 
ATOM     11  C   UNL     1     484.763  37.939 459.206  1.00  0.00     0.042 C 
ENDROOT
TORSDOF 0
ENDMDL
MODEL 5
REMARK VINA RESULT:    -3.431      1.517      3.374
REMARK INTER + INTRA:          -3.431
REMARK INTER:                  -3.431
REMARK INTRA:                   0.000
REMARK UNBOUND:                 0.000
REMARK SMILES CC1(C)O[C@]2(C)CC[C@H]1CC2
REMARK SMILES IDX 1 1 2 2 9 3 10 4 11 5 5 6 4 7 7 8 8 9 6 10 3 11
REMARK H PARENT
REMARK Flexibility Score: inf
ROOT
ATOM      1  C   UNL     1     483.490  38.709 455.163  1.00  0.00     0.042 C 
ATOM      2  C   UNL     1     482.793  38.455 456.518  1.00  0.00     0.066 C 
ATOM      3  C   UNL     1     482.154  39.786 457.074  1.00  0.00     0.021 C 
ATOM      4  C   UNL     1     481.516  39.485 458.452  1.00  0.00     0.009 C 
ATOM      5  C   UNL     1     482.559  38.781 459.352  1.00  0.00     0.035 C 
ATOM      6  C   UNL     1     483.924  38.694 458.608  1.00  0.00     0.066 C 
ATOM      7  O   UNL     1     483.764  37.912 457.425  1.00  0.00    -0.369 OA
ATOM      8  C   UNL     1     484.378  40.129 458.214  1.00  0.00     0.035 C 
ATOM      9  C   UNL     1     483.291  40.801 457.340  1.00  0.00     0.009 C 
ATOM     10  C   UNL     1     484.976  38.028 459.502  1.00  0.00     0.042 C 
ATOM     11  C   UNL     1     481.705  37.386 456.280  1.00  0.00     0.042 C 
ENDROOT
TORSDOF 0
ENDMDL
MODEL 6
REMARK VINA RESULT:    -3.413      1.360      3.248
REMARK INTER + INTRA:          -3.413
REMARK INTER:                  -3.413
REMARK INTRA:                   0.000
REMARK UNBOUND:                 0.000
REMARK SMILES CC1(C)O[C@]2(C)CC[C@H]1CC2
REMARK SMILES IDX 1 1 2 2 9 3 10 4 11 5 5 6 4 7 7 8 8 9 6 10 3 11
REMARK H PARENT
REMARK Flexibility Score: inf
ROOT
ATOM      1  C   UNL     1     481.756  38.538 459.378  1.00  0.00     0.042 C 
ATOM      2  C   UNL     1     482.766  39.689 459.176  1.00  0.00     0.066 C 
ATOM      3  C   UNL     1     483.902  39.263 458.167  1.00  0.00     0.021 C 
ATOM      4  C   UNL     1     484.909  40.433 458.042  1.00  0.00     0.009 C 
ATOM      5  C   UNL     1     485.358  40.870 459.457  1.00  0.00     0.035 C 
ATOM      6  C   UNL     1     484.722  39.933 460.525  1.00  0.00     0.066 C 
ATOM      7  O   UNL     1     483.300  40.045 460.460  1.00  0.00    -0.369 OA
ATOM      8  C   UNL     1     485.132  38.464 460.219  1.00  0.00     0.035 C 
ATOM      9  C   UNL     1     484.689  38.083 458.786  1.00  0.00     0.009 C 
ATOM     10  C   UNL     1     485.185  40.335 461.930  1.00  0.00     0.042 C 
ATOM     11  C   UNL     1     481.978  40.900 458.631  1.00  0.00     0.042 C 
ENDROOT
TORSDOF 0
ENDMDL
MODEL 7
REMARK VINA RESULT:    -3.408      1.290      2.748
REMARK INTER + INTRA:          -3.408
REMARK INTER:                  -3.408
REMARK INTRA:                   0.000
REMARK UNBOUND:                 0.000
REMARK SMILES CC1(C)O[C@]2(C)CC[C@H]1CC2
REMARK SMILES IDX 1 1 2 2 9 3 10 4 11 5 5 6 4 7 7 8 8 9 6 10 3 11
REMARK H PARENT
REMARK Flexibility Score: inf
ROOT
ATOM      1  C   UNL     1     482.961  39.518 460.893  1.00  0.00     0.042 C 
ATOM      2  C   UNL     1     482.871  39.160 459.393  1.00  0.00     0.066 C 
ATOM      3  C   UNL     1     484.119  38.302 458.950  1.00  0.00     0.021 C 
ATOM      4  C   UNL     1     484.003  38.016 457.433  1.00  0.00     0.009 C 
ATOM      5  C   UNL     1     483.767  39.348 456.682  1.00  0.00     0.035 C 
ATOM      6  C   UNL     1     483.818  40.537 457.686  1.00  0.00     0.066 C 
ATOM      7  O   UNL     1     482.773  40.382 458.647  1.00  0.00    -0.369 OA
ATOM      8  C   UNL     1     485.191  40.523 458.417  1.00  0.00     0.035 C 
ATOM      9  C   UNL     1     485.393  39.163 459.128  1.00  0.00     0.009 C 
ATOM     10  C   UNL     1     483.618  41.865 456.949  1.00  0.00     0.042 C 
ATOM     11  C   UNL     1     481.563  38.366 459.189  1.00  0.00     0.042 C 
ENDROOT
TORSDOF 0
ENDMDL
MODEL 8
REMARK VINA RESULT:    -3.366      1.514      2.676
REMARK INTER + INTRA:          -3.366
REMARK INTER:                  -3.366
REMARK INTRA:                   0.000
REMARK UNBOUND:                 0.000
REMARK SMILES CC1(C)O[C@]2(C)CC[C@H]1CC2
REMARK SMILES IDX 1 1 2 2 9 3 10 4 11 5 5 6 4 7 7 8 8 9 6 10 3 11
REMARK H PARENT
REMARK Flexibility Score: inf
ROOT
ATOM      1  C   UNL     1     484.745  37.911 459.081  1.00  0.00     0.042 C 
ATOM      2  C   UNL     1     484.310  39.199 458.347  1.00  0.00     0.066 C 
ATOM      3  C   UNL     1     482.882  39.662 458.833  1.00  0.00     0.021 C 
ATOM      4  C   UNL     1     482.478  40.923 458.031  1.00  0.00     0.009 C 
ATOM      5  C   UNL     1     482.643  40.638 456.519  1.00  0.00     0.035 C 
ATOM      6  C   UNL     1     483.071  39.157 456.305  1.00  0.00     0.066 C 
ATOM      7  O   UNL     1     484.334  38.938 456.936  1.00  0.00    -0.369 OA
ATOM      8  C   UNL     1     482.008  38.224 456.954  1.00  0.00     0.035 C 
ATOM      9  C   UNL     1     481.858  38.566 458.456  1.00  0.00     0.009 C 
ATOM     10  C   UNL     1     483.207  38.852 454.809  1.00  0.00     0.042 C 
ATOM     11  C   UNL     1     485.368  40.280 458.653  1.00  0.00     0.042 C 
ENDROOT
TORSDOF 0
ENDMDL
MODEL 9
REMARK VINA RESULT:    -3.271      1.380      3.214
REMARK INTER + INTRA:          -3.271
REMARK INTER:                  -3.271
REMARK INTRA:                   0.000
REMARK UNBOUND:                 0.000
REMARK SMILES CC1(C)O[C@]2(C)CC[C@H]1CC2
REMARK SMILES IDX 1 1 2 2 9 3 10 4 11 5 5 6 4 7 7 8 8 9 6 10 3 11
REMARK H PARENT
REMARK Flexibility Score: inf
ROOT
ATOM      1  C   UNL     1     482.770  41.721 458.808  1.00  0.00     0.042 C 
ATOM      2  C   UNL     1     483.958  40.762 459.041  1.00  0.00     0.066 C 
ATOM      3  C   UNL     1     483.495  39.259 458.910  1.00  0.00     0.021 C 
ATOM      4  C   UNL     1     484.710  38.345 459.202  1.00  0.00     0.009 C 
ATOM      5  C   UNL     1     485.349  38.765 460.547  1.00  0.00     0.035 C 
ATOM      6  C   UNL     1     484.508  39.900 461.200  1.00  0.00     0.066 C 
ATOM      7  O   UNL     1     484.507  41.038 460.337  1.00  0.00    -0.369 OA
ATOM      8  C   UNL     1     483.046  39.402 461.388  1.00  0.00     0.035 C 
ATOM      9  C   UNL     1     482.460  38.967 460.023  1.00  0.00     0.009 C 
ATOM     10  C   UNL     1     485.112  40.303 462.549  1.00  0.00     0.042 C 
ATOM     11  C   UNL     1     485.032  41.096 457.983  1.00  0.00     0.042 C 
ENDROOT
TORSDOF 0
ENDMDL
