MODEL 1
REMARK VINA RESULT:    -3.723      0.000      0.000
REMARK INTER + INTRA:         -11.610
REMARK INTER:                  -8.511
REMARK INTRA:                  -3.099
REMARK UNBOUND:                -3.099
REMARK SMILES CCCCCCCCCCCCCCCCCCCCCCCC(=O)[O-]
REMARK SMILES IDX 13 1 14 2 15 3 16 4 17 5 18 6 19 7 20 8 21 9 22 10 23 11
REMARK SMILES IDX 24 12 25 13 26 14 12 15 11 16 10 17 9 18 8 19 7 20 6 21 5 22
REMARK SMILES IDX 4 23 3 24 2 25 1 26
REMARK H PARENT
REMARK Flexibility Score: inf
ROOT
ATOM      1  C   UNL     1      28.586  16.654 -17.124  1.00  0.00     0.000 C 
ENDROOT
BRANCH   1   2
ATOM      2  C   UNL     1      28.231  18.157 -17.111  1.00  0.00     0.000 C 
BRANCH   2   3
ATOM      3  C   UNL     1      28.185  18.764 -18.525  1.00  0.00     0.000 C 
BRANCH   3   4
ATOM      4  C   UNL     1      26.988  19.711 -18.723  1.00  0.00     0.000 C 
BRANCH   4   5
ATOM      5  C   UNL     1      26.058  19.243 -19.856  1.00  0.00     0.000 C 
BRANCH   5   6
ATOM      6  C   UNL     1      25.728  17.743 -19.778  1.00  0.00     0.000 C 
BRANCH   6   7
ATOM      7  C   UNL     1      24.827  17.397 -18.579  1.00  0.00     0.000 C 
BRANCH   7   8
ATOM      8  C   UNL     1      24.663  15.881 -18.382  1.00  0.00     0.000 C 
BRANCH   8   9
ATOM      9  C   UNL     1      25.958  15.101 -18.675  1.00  0.00     0.000 C 
BRANCH   9  10
ATOM     10  C   UNL     1      26.115  13.858 -17.785  1.00  0.00     0.006 C 
BRANCH  10  11
ATOM     11  C   UNL     1      24.928  13.660 -16.835  1.00  0.00     0.053 C 
BRANCH  11  12
ATOM     12  C   UNL     1      25.411  13.463 -15.433  1.00  0.00     0.041 C 
ATOM     13  O   UNL     1      24.656  13.724 -14.459  1.00  0.00    -0.550 OA
ATOM     14  O   UNL     1      26.674  12.937 -15.202  1.00  0.00    -0.550 OA
ENDBRANCH  11  12
ENDBRANCH  10  11
ENDBRANCH   9  10
ENDBRANCH   8   9
ENDBRANCH   7   8
ENDBRANCH   6   7
ENDBRANCH   5   6
ENDBRANCH   4   5
ENDBRANCH   3   4
ENDBRANCH   2   3
ENDBRANCH   1   2
BRANCH   1  15
ATOM     15  C   UNL     1      28.602  15.994 -15.732  1.00  0.00     0.000 C 
BRANCH  15  16
ATOM     16  C   UNL     1      29.609  14.844 -15.560  1.00  0.00     0.000 C 
BRANCH  16  17
ATOM     17  C   UNL     1      30.607  14.671 -16.721  1.00  0.00     0.000 C 
BRANCH  17  18
ATOM     18  C   UNL     1      31.093  13.218 -16.917  1.00  0.00    -0.000 C 
BRANCH  18  19
ATOM     19  C   UNL     1      32.579  13.043 -16.560  1.00  0.00    -0.000 C 
BRANCH  19  20
ATOM     20  C   UNL     1      33.222  14.334 -16.021  1.00  0.00    -0.000 C 
BRANCH  20  21
ATOM     21  C   UNL     1      34.559  14.723 -16.680  1.00  0.00    -0.000 C 
BRANCH  21  22
ATOM     22  C   UNL     1      34.508  14.666 -18.216  1.00  0.00    -0.000 C 
BRANCH  22  23
ATOM     23  C   UNL     1      33.643  15.799 -18.785  1.00  0.00    -0.000 C 
BRANCH  23  24
ATOM     24  C   UNL     1      34.255  17.170 -18.458  1.00  0.00    -0.000 C 
BRANCH  24  25
ATOM     25  C   UNL     1      33.224  18.308 -18.509  1.00  0.00    -0.003 C 
ATOM     26  C   UNL     1      31.804  17.810 -18.773  1.00  0.00     0.004 C 
ENDBRANCH  24  25
ENDBRANCH  23  24
ENDBRANCH  22  23
ENDBRANCH  21  22
ENDBRANCH  20  21
ENDBRANCH  19  20
ENDBRANCH  18  19
ENDBRANCH  17  18
ENDBRANCH  16  17
ENDBRANCH  15  16
ENDBRANCH   1  15
TORSDOF 22
ENDMDL
MODEL 2
REMARK VINA RESULT:    -3.594      2.435      6.981
REMARK INTER + INTRA:         -11.315
REMARK INTER:                  -8.163
REMARK INTRA:                  -3.152
REMARK UNBOUND:                -3.099
REMARK SMILES CCCCCCCCCCCCCCCCCCCCCCCC(=O)[O-]
REMARK SMILES IDX 13 1 14 2 15 3 16 4 17 5 18 6 19 7 20 8 21 9 22 10 23 11
REMARK SMILES IDX 24 12 25 13 26 14 12 15 11 16 10 17 9 18 8 19 7 20 6 21 5 22
REMARK SMILES IDX 4 23 3 24 2 25 1 26
REMARK H PARENT
REMARK Flexibility Score: inf
ROOT
ATOM      1  C   UNL     1      33.778  13.548 -16.022  1.00  0.00     0.000 C 
ENDROOT
BRANCH   1   2
ATOM      2  C   UNL     1      34.726  14.717 -16.371  1.00  0.00     0.000 C 
BRANCH   2   3
ATOM      3  C   UNL     1      34.323  15.433 -17.673  1.00  0.00     0.000 C 
BRANCH   3   4
ATOM      4  C   UNL     1      34.688  16.928 -17.663  1.00  0.00     0.000 C 
BRANCH   4   5
ATOM      5  C   UNL     1      34.093  17.680 -18.866  1.00  0.00     0.000 C 
BRANCH   5   6
ATOM      6  C   UNL     1      32.607  18.028 -18.678  1.00  0.00     0.000 C 
BRANCH   6   7
ATOM      7  C   UNL     1      31.673  17.046 -19.406  1.00  0.00     0.000 C 
BRANCH   7   8
ATOM      8  C   UNL     1      30.466  16.633 -18.547  1.00  0.00     0.000 C 
BRANCH   8   9
ATOM      9  C   UNL     1      29.132  17.165 -19.104  1.00  0.00     0.000 C 
BRANCH   9  10
ATOM     10  C   UNL     1      28.846  18.612 -18.673  1.00  0.00     0.006 C 
BRANCH  10  11
ATOM     11  C   UNL     1      27.872  18.693 -17.492  1.00  0.00     0.053 C 
BRANCH  11  12
ATOM     12  C   UNL     1      26.867  19.777 -17.721  1.00  0.00     0.041 C 
ATOM     13  O   UNL     1      26.079  20.117 -16.799  1.00  0.00    -0.550 OA
ATOM     14  O   UNL     1      26.839  20.453 -18.933  1.00  0.00    -0.550 OA
ENDBRANCH  11  12
ENDBRANCH  10  11
ENDBRANCH   9  10
ENDBRANCH   8   9
ENDBRANCH   7   8
ENDBRANCH   6   7
ENDBRANCH   5   6
ENDBRANCH   4   5
ENDBRANCH   3   4
ENDBRANCH   2   3
ENDBRANCH   1   2
BRANCH   1  15
ATOM     15  C   UNL     1      32.358  13.688 -16.603  1.00  0.00     0.000 C 
BRANCH  15  16
ATOM     16  C   UNL     1      31.360  14.458 -15.721  1.00  0.00     0.000 C 
BRANCH  16  17
ATOM     17  C   UNL     1      29.874  14.157 -16.000  1.00  0.00     0.000 C 
BRANCH  17  18
ATOM     18  C   UNL     1      28.908  15.246 -15.485  1.00  0.00    -0.000 C 
BRANCH  18  19
ATOM     19  C   UNL     1      27.526  15.171 -16.156  1.00  0.00    -0.000 C 
BRANCH  19  20
ATOM     20  C   UNL     1      27.490  14.193 -17.346  1.00  0.00    -0.000 C 
BRANCH  20  21
ATOM     21  C   UNL     1      26.519  14.576 -18.479  1.00  0.00    -0.000 C 
BRANCH  21  22
ATOM     22  C   UNL     1      25.834  15.932 -18.247  1.00  0.00    -0.000 C 
BRANCH  22  23
ATOM     23  C   UNL     1      25.496  16.619 -19.577  1.00  0.00    -0.000 C 
BRANCH  23  24
ATOM     24  C   UNL     1      24.039  17.107 -19.585  1.00  0.00    -0.000 C 
BRANCH  24  25
ATOM     25  C   UNL     1      23.445  17.228 -18.174  1.00  0.00    -0.003 C 
ATOM     26  C   UNL     1      22.052  16.610 -18.062  1.00  0.00     0.004 C 
ENDBRANCH  24  25
ENDBRANCH  23  24
ENDBRANCH  22  23
ENDBRANCH  21  22
ENDBRANCH  20  21
ENDBRANCH  19  20
ENDBRANCH  18  19
ENDBRANCH  17  18
ENDBRANCH  16  17
ENDBRANCH  15  16
ENDBRANCH   1  15
TORSDOF 22
ENDMDL
MODEL 3
REMARK VINA RESULT:    -3.557      2.033      3.473
REMARK INTER + INTRA:         -11.230
REMARK INTER:                  -7.346
REMARK INTRA:                  -3.884
REMARK UNBOUND:                -3.099
REMARK SMILES CCCCCCCCCCCCCCCCCCCCCCCC(=O)[O-]
REMARK SMILES IDX 13 1 14 2 15 3 16 4 17 5 18 6 19 7 20 8 21 9 22 10 23 11
REMARK SMILES IDX 24 12 25 13 26 14 12 15 11 16 10 17 9 18 8 19 7 20 6 21 5 22
REMARK SMILES IDX 4 23 3 24 2 25 1 26
REMARK H PARENT
REMARK Flexibility Score: inf
ROOT
ATOM      1  C   UNL     1      28.740  18.184 -18.974  1.00  0.00     0.000 C 
ENDROOT
BRANCH   1   2
ATOM      2  C   UNL     1      28.226  18.272 -17.520  1.00  0.00     0.000 C 
BRANCH   2   3
ATOM      3  C   UNL     1      27.677  16.928 -17.008  1.00  0.00     0.000 C 
BRANCH   3   4
ATOM      4  C   UNL     1      28.548  16.320 -15.894  1.00  0.00     0.000 C 
BRANCH   4   5
ATOM      5  C   UNL     1      28.248  14.827 -15.670  1.00  0.00     0.000 C 
BRANCH   5   6
ATOM      6  C   UNL     1      27.520  14.179 -16.860  1.00  0.00     0.000 C 
BRANCH   6   7
ATOM      7  C   UNL     1      26.132  13.636 -16.479  1.00  0.00     0.000 C 
BRANCH   7   8
ATOM      8  C   UNL     1      25.080  13.883 -17.573  1.00  0.00     0.000 C 
BRANCH   8   9
ATOM      9  C   UNL     1      25.660  14.609 -18.801  1.00  0.00     0.000 C 
BRANCH   9  10
ATOM     10  C   UNL     1      24.633  15.521 -19.489  1.00  0.00     0.006 C 
BRANCH  10  11
ATOM     11  C   UNL     1      23.894  16.429 -18.498  1.00  0.00     0.053 C 
BRANCH  11  12
ATOM     12  C   UNL     1      24.495  17.799 -18.501  1.00  0.00     0.041 C 
ATOM     13  O   UNL     1      24.440  18.517 -17.468  1.00  0.00    -0.550 OA
ATOM     14  O   UNL     1      25.167  18.260 -19.624  1.00  0.00    -0.550 OA
ENDBRANCH  11  12
ENDBRANCH  10  11
ENDBRANCH   9  10
ENDBRANCH   8   9
ENDBRANCH   7   8
ENDBRANCH   6   7
ENDBRANCH   5   6
ENDBRANCH   4   5
ENDBRANCH   3   4
ENDBRANCH   2   3
ENDBRANCH   1   2
BRANCH   1  15
ATOM     15  C   UNL     1      30.197  17.702 -19.103  1.00  0.00     0.000 C 
BRANCH  15  16
ATOM     16  C   UNL     1      30.373  16.187 -19.300  1.00  0.00     0.000 C 
BRANCH  16  17
ATOM     17  C   UNL     1      31.152  15.468 -18.181  1.00  0.00     0.000 C 
BRANCH  17  18
ATOM     18  C   UNL     1      30.994  13.932 -18.196  1.00  0.00    -0.000 C 
BRANCH  18  19
ATOM     19  C   UNL     1      31.297  13.297 -16.828  1.00  0.00    -0.000 C 
BRANCH  19  20
ATOM     20  C   UNL     1      32.249  14.150 -15.969  1.00  0.00    -0.000 C 
BRANCH  20  21
ATOM     21  C   UNL     1      33.735  13.752 -16.046  1.00  0.00    -0.000 C 
BRANCH  21  22
ATOM     22  C   UNL     1      34.610  14.830 -16.706  1.00  0.00    -0.000 C 
BRANCH  22  23
ATOM     23  C   UNL     1      34.662  14.648 -18.229  1.00  0.00    -0.000 C 
BRANCH  23  24
ATOM     24  C   UNL     1      34.659  16.010 -18.942  1.00  0.00    -0.000 C 
BRANCH  24  25
ATOM     25  C   UNL     1      34.609  17.192 -17.962  1.00  0.00    -0.003 C 
ATOM     26  C   UNL     1      33.703  18.325 -18.446  1.00  0.00     0.004 C 
ENDBRANCH  24  25
ENDBRANCH  23  24
ENDBRANCH  22  23
ENDBRANCH  21  22
ENDBRANCH  20  21
ENDBRANCH  19  20
ENDBRANCH  18  19
ENDBRANCH  17  18
ENDBRANCH  16  17
ENDBRANCH  15  16
ENDBRANCH   1  15
TORSDOF 22
ENDMDL
MODEL 4
REMARK VINA RESULT:    -3.503      1.936      4.852
REMARK INTER + INTRA:         -11.108
REMARK INTER:                  -7.214
REMARK INTRA:                  -3.894
REMARK UNBOUND:                -3.099
REMARK SMILES CCCCCCCCCCCCCCCCCCCCCCCC(=O)[O-]
REMARK SMILES IDX 13 1 14 2 15 3 16 4 17 5 18 6 19 7 20 8 21 9 22 10 23 11
REMARK SMILES IDX 24 12 25 13 26 14 12 15 11 16 10 17 9 18 8 19 7 20 6 21 5 22
REMARK SMILES IDX 4 23 3 24 2 25 1 26
REMARK H PARENT
REMARK Flexibility Score: inf
ROOT
ATOM      1  C   UNL     1      31.697  13.101 -16.813  1.00  0.00     0.000 C 
ENDROOT
BRANCH   1   2
ATOM      2  C   UNL     1      31.036  14.424 -16.364  1.00  0.00     0.000 C 
BRANCH   2   3
ATOM      3  C   UNL     1      29.999  14.214 -15.246  1.00  0.00     0.000 C 
BRANCH   3   4
ATOM      4  C   UNL     1      29.240  12.883 -15.386  1.00  0.00     0.000 C 
BRANCH   4   5
ATOM      5  C   UNL     1      27.967  13.026 -16.239  1.00  0.00     0.000 C 
BRANCH   5   6
ATOM      6  C   UNL     1      27.204  14.332 -15.959  1.00  0.00     0.000 C 
BRANCH   6   7
ATOM      7  C   UNL     1      27.205  15.287 -17.165  1.00  0.00     0.000 C 
BRANCH   7   8
ATOM      8  C   UNL     1      27.421  14.554 -18.500  1.00  0.00     0.000 C 
BRANCH   8   9
ATOM      9  C   UNL     1      26.744  15.268 -19.685  1.00  0.00     0.000 C 
BRANCH   9  10
ATOM     10  C   UNL     1      25.224  15.399 -19.507  1.00  0.00     0.006 C 
BRANCH  10  11
ATOM     11  C   UNL     1      24.747  16.855 -19.565  1.00  0.00     0.053 C 
BRANCH  11  12
ATOM     12  C   UNL     1      24.187  17.271 -18.242  1.00  0.00     0.041 C 
ATOM     13  O   UNL     1      23.343  16.543 -17.653  1.00  0.00    -0.550 OA
ATOM     14  O   UNL     1      24.638  18.432 -17.631  1.00  0.00    -0.550 OA
ENDBRANCH  11  12
ENDBRANCH  10  11
ENDBRANCH   9  10
ENDBRANCH   8   9
ENDBRANCH   7   8
ENDBRANCH   6   7
ENDBRANCH   5   6
ENDBRANCH   4   5
ENDBRANCH   3   4
ENDBRANCH   2   3
ENDBRANCH   1   2
BRANCH   1  15
ATOM     15  C   UNL     1      33.132  13.260 -17.352  1.00  0.00     0.000 C 
BRANCH  15  16
ATOM     16  C   UNL     1      34.152  13.825 -16.349  1.00  0.00     0.000 C 
BRANCH  16  17
ATOM     17  C   UNL     1      34.601  15.274 -16.619  1.00  0.00     0.000 C 
BRANCH  17  18
ATOM     18  C   UNL     1      34.530  15.684 -18.106  1.00  0.00    -0.000 C 
BRANCH  18  19
ATOM     19  C   UNL     1      34.147  17.163 -18.290  1.00  0.00    -0.000 C 
BRANCH  19  20
ATOM     20  C   UNL     1      32.731  17.348 -18.865  1.00  0.00    -0.000 C 
BRANCH  20  21
ATOM     21  C   UNL     1      32.091  16.076 -19.454  1.00  0.00    -0.000 C 
BRANCH  21  22
ATOM     22  C   UNL     1      30.573  16.207 -19.655  1.00  0.00    -0.000 C 
BRANCH  22  23
ATOM     23  C   UNL     1      30.001  17.366 -18.826  1.00  0.00    -0.000 C 
BRANCH  23  24
ATOM     24  C   UNL     1      28.928  18.127 -19.620  1.00  0.00    -0.000 C 
BRANCH  24  25
ATOM     25  C   UNL     1      27.908  18.833 -18.713  1.00  0.00    -0.003 C 
ATOM     26  C   UNL     1      28.203  18.639 -17.226  1.00  0.00     0.004 C 
ENDBRANCH  24  25
ENDBRANCH  23  24
ENDBRANCH  22  23
ENDBRANCH  21  22
ENDBRANCH  20  21
ENDBRANCH  19  20
ENDBRANCH  18  19
ENDBRANCH  17  18
ENDBRANCH  16  17
ENDBRANCH  15  16
ENDBRANCH   1  15
TORSDOF 22
ENDMDL
MODEL 5
REMARK VINA RESULT:    -3.475      1.182      6.969
REMARK INTER + INTRA:         -11.043
REMARK INTER:                  -7.568
REMARK INTRA:                  -3.474
REMARK UNBOUND:                -3.099
REMARK SMILES CCCCCCCCCCCCCCCCCCCCCCCC(=O)[O-]
REMARK SMILES IDX 13 1 14 2 15 3 16 4 17 5 18 6 19 7 20 8 21 9 22 10 23 11
REMARK SMILES IDX 24 12 25 13 26 14 12 15 11 16 10 17 9 18 8 19 7 20 6 21 5 22
REMARK SMILES IDX 4 23 3 24 2 25 1 26
REMARK H PARENT
REMARK Flexibility Score: inf
ROOT
ATOM      1  C   UNL     1      33.022  17.187 -18.340  1.00  0.00     0.000 C 
ENDROOT
BRANCH   1   2
ATOM      2  C   UNL     1      33.118  15.768 -18.940  1.00  0.00     0.000 C 
BRANCH   2   3
ATOM      3  C   UNL     1      34.565  15.240 -18.976  1.00  0.00     0.000 C 
BRANCH   3   4
ATOM      4  C   UNL     1      34.766  14.006 -18.079  1.00  0.00     0.000 C 
BRANCH   4   5
ATOM      5  C   UNL     1      34.825  14.376 -16.587  1.00  0.00     0.000 C 
BRANCH   5   6
ATOM      6  C   UNL     1      33.608  13.866 -15.796  1.00  0.00     0.000 C 
BRANCH   6   7
ATOM      7  C   UNL     1      32.751  12.877 -16.604  1.00  0.00     0.000 C 
BRANCH   7   8
ATOM      8  C   UNL     1      31.253  12.987 -16.274  1.00  0.00     0.000 C 
BRANCH   8   9
ATOM      9  C   UNL     1      30.783  14.447 -16.132  1.00  0.00     0.000 C 
BRANCH   9  10
ATOM     10  C   UNL     1      29.435  14.566 -15.404  1.00  0.00     0.006 C 
BRANCH  10  11
ATOM     11  C   UNL     1      28.529  13.351 -15.637  1.00  0.00     0.053 C 
BRANCH  11  12
ATOM     12  C   UNL     1      27.205  13.786 -16.181  1.00  0.00     0.041 C 
ATOM     13  O   UNL     1      26.398  14.420 -15.450  1.00  0.00    -0.550 OA
ATOM     14  O   UNL     1      26.887  13.545 -17.510  1.00  0.00    -0.550 OA
ENDBRANCH  11  12
ENDBRANCH  10  11
ENDBRANCH   9  10
ENDBRANCH   8   9
ENDBRANCH   7   8
ENDBRANCH   6   7
ENDBRANCH   5   6
ENDBRANCH   4   5
ENDBRANCH   3   4
ENDBRANCH   2   3
ENDBRANCH   1   2
BRANCH   1  15
ATOM     15  C   UNL     1      31.822  18.010 -18.848  1.00  0.00     0.000 C 
BRANCH  15  16
ATOM     16  C   UNL     1      30.821  17.240 -19.724  1.00  0.00     0.000 C 
BRANCH  16  17
ATOM     17  C   UNL     1      29.344  17.637 -19.532  1.00  0.00     0.000 C 
BRANCH  17  18
ATOM     18  C   UNL     1      28.543  16.658 -18.646  1.00  0.00    -0.000 C 
BRANCH  18  19
ATOM     19  C   UNL     1      28.207  17.252 -17.268  1.00  0.00    -0.000 C 
BRANCH  19  20
ATOM     20  C   UNL     1      28.192  18.792 -17.267  1.00  0.00    -0.000 C 
BRANCH  20  21
ATOM     21  C   UNL     1      26.814  19.434 -17.519  1.00  0.00    -0.000 C 
BRANCH  21  22
ATOM     22  C   UNL     1      26.528  19.671 -19.010  1.00  0.00    -0.000 C 
BRANCH  22  23
ATOM     23  C   UNL     1      25.597  18.591 -19.576  1.00  0.00    -0.000 C 
BRANCH  23  24
ATOM     24  C   UNL     1      24.680  18.031 -18.477  1.00  0.00    -0.000 C 
BRANCH  24  25
ATOM     25  C   UNL     1      24.790  16.505 -18.332  1.00  0.00    -0.003 C 
ATOM     26  C   UNL     1      24.833  15.783 -19.678  1.00  0.00     0.004 C 
ENDBRANCH  24  25
ENDBRANCH  23  24
ENDBRANCH  22  23
ENDBRANCH  21  22
ENDBRANCH  20  21
ENDBRANCH  19  20
ENDBRANCH  18  19
ENDBRANCH  17  18
ENDBRANCH  16  17
ENDBRANCH  15  16
ENDBRANCH   1  15
TORSDOF 22
ENDMDL
MODEL 6
REMARK VINA RESULT:    -3.398      2.751      8.054
REMARK INTER + INTRA:         -10.867
REMARK INTER:                  -7.496
REMARK INTRA:                  -3.370
REMARK UNBOUND:                -3.099
REMARK SMILES CCCCCCCCCCCCCCCCCCCCCCCC(=O)[O-]
REMARK SMILES IDX 13 1 14 2 15 3 16 4 17 5 18 6 19 7 20 8 21 9 22 10 23 11
REMARK SMILES IDX 24 12 25 13 26 14 12 15 11 16 10 17 9 18 8 19 7 20 6 21 5 22
REMARK SMILES IDX 4 23 3 24 2 25 1 26
REMARK H PARENT
REMARK Flexibility Score: inf
ROOT
ATOM      1  C   UNL     1      28.486  16.765 -17.086  1.00  0.00     0.000 C 
ENDROOT
BRANCH   1   2
ATOM      2  C   UNL     1      29.492  16.286 -18.155  1.00  0.00     0.000 C 
BRANCH   2   3
ATOM      3  C   UNL     1      30.323  15.079 -17.683  1.00  0.00     0.000 C 
BRANCH   3   4
ATOM      4  C   UNL     1      30.199  14.833 -16.169  1.00  0.00     0.000 C 
BRANCH   4   5
ATOM      5  C   UNL     1      31.076  13.660 -15.696  1.00  0.00     0.000 C 
BRANCH   5   6
ATOM      6  C   UNL     1      32.332  13.466 -16.563  1.00  0.00     0.000 C 
BRANCH   6   7
ATOM      7  C   UNL     1      33.589  14.088 -15.931  1.00  0.00     0.000 C 
BRANCH   7   8
ATOM      8  C   UNL     1      34.577  14.621 -16.982  1.00  0.00     0.000 C 
BRANCH   8   9
ATOM      9  C   UNL     1      33.928  14.806 -18.366  1.00  0.00     0.000 C 
BRANCH   9  10
ATOM     10  C   UNL     1      34.462  16.040 -19.110  1.00  0.00     0.006 C 
BRANCH  10  11
ATOM     11  C   UNL     1      34.454  17.302 -18.240  1.00  0.00     0.053 C 
BRANCH  11  12
ATOM     12  C   UNL     1      33.322  18.198 -18.635  1.00  0.00     0.041 C 
ATOM     13  O   UNL     1      33.227  19.353 -18.142  1.00  0.00    -0.550 OA
ATOM     14  O   UNL     1      32.407  17.779 -19.590  1.00  0.00    -0.550 OA
ENDBRANCH  11  12
ENDBRANCH  10  11
ENDBRANCH   9  10
ENDBRANCH   8   9
ENDBRANCH   7   8
ENDBRANCH   6   7
ENDBRANCH   5   6
ENDBRANCH   4   5
ENDBRANCH   3   4
ENDBRANCH   2   3
ENDBRANCH   1   2
BRANCH   1  15
ATOM     15  C   UNL     1      28.220  18.283 -17.100  1.00  0.00     0.000 C 
BRANCH  15  16
ATOM     16  C   UNL     1      28.134  18.922 -18.496  1.00  0.00     0.000 C 
BRANCH  16  17
ATOM     17  C   UNL     1      26.712  19.295 -18.958  1.00  0.00     0.000 C 
BRANCH  17  18
ATOM     18  C   UNL     1      25.603  18.883 -17.964  1.00  0.00    -0.000 C 
BRANCH  18  19
ATOM     19  C   UNL     1      24.892  17.585 -18.384  1.00  0.00    -0.000 C 
BRANCH  19  20
ATOM     20  C   UNL     1      25.380  17.045 -19.741  1.00  0.00    -0.000 C 
BRANCH  20  21
ATOM     21  C   UNL     1      26.102  15.685 -19.682  1.00  0.00    -0.000 C 
BRANCH  21  22
ATOM     22  C   UNL     1      25.451  14.703 -18.694  1.00  0.00    -0.000 C 
BRANCH  22  23
ATOM     23  C   UNL     1      26.217  13.374 -18.646  1.00  0.00    -0.000 C 
BRANCH  23  24
ATOM     24  C   UNL     1      27.107  13.302 -17.396  1.00  0.00    -0.000 C 
BRANCH  24  25
ATOM     25  C   UNL     1      26.437  13.912 -16.154  1.00  0.00    -0.003 C 
ATOM     26  C   UNL     1      25.454  12.955 -15.481  1.00  0.00     0.004 C 
ENDBRANCH  24  25
ENDBRANCH  23  24
ENDBRANCH  22  23
ENDBRANCH  21  22
ENDBRANCH  20  21
ENDBRANCH  19  20
ENDBRANCH  18  19
ENDBRANCH  17  18
ENDBRANCH  16  17
ENDBRANCH  15  16
ENDBRANCH   1  15
TORSDOF 22
ENDMDL
MODEL 7
REMARK VINA RESULT:    -3.381      2.020      2.660
REMARK INTER + INTRA:         -10.828
REMARK INTER:                  -7.503
REMARK INTRA:                  -3.325
REMARK UNBOUND:                -3.099
REMARK SMILES CCCCCCCCCCCCCCCCCCCCCCCC(=O)[O-]
REMARK SMILES IDX 13 1 14 2 15 3 16 4 17 5 18 6 19 7 20 8 21 9 22 10 23 11
REMARK SMILES IDX 24 12 25 13 26 14 12 15 11 16 10 17 9 18 8 19 7 20 6 21 5 22
REMARK SMILES IDX 4 23 3 24 2 25 1 26
REMARK H PARENT
REMARK Flexibility Score: inf
ROOT
ATOM      1  C   UNL     1      29.990  16.853 -18.266  1.00  0.00     0.000 C 
ENDROOT
BRANCH   1   2
ATOM      2  C   UNL     1      29.122  18.061 -18.680  1.00  0.00     0.000 C 
BRANCH   2   3
ATOM      3  C   UNL     1      28.279  18.608 -17.513  1.00  0.00     0.000 C 
BRANCH   3   4
ATOM      4  C   UNL     1      27.165  19.559 -17.984  1.00  0.00     0.000 C 
BRANCH   4   5
ATOM      5  C   UNL     1      25.797  18.859 -18.060  1.00  0.00     0.000 C 
BRANCH   5   6
ATOM      6  C   UNL     1      25.460  18.357 -19.474  1.00  0.00     0.000 C 
BRANCH   6   7
ATOM      7  C   UNL     1      25.651  16.838 -19.623  1.00  0.00     0.000 C 
BRANCH   7   8
ATOM      8  C   UNL     1      25.626  16.104 -18.272  1.00  0.00     0.000 C 
BRANCH   8   9
ATOM      9  C   UNL     1      24.375  15.222 -18.099  1.00  0.00     0.000 C 
BRANCH   9  10
ATOM     10  C   UNL     1      23.244  15.604 -19.067  1.00  0.00     0.006 C 
BRANCH  10  11
ATOM     11  C   UNL     1      21.933  15.930 -18.342  1.00  0.00     0.053 C 
BRANCH  11  12
ATOM     12  C   UNL     1      22.115  17.115 -17.447  1.00  0.00     0.041 C 
ATOM     13  O   UNL     1      22.338  18.253 -17.940  1.00  0.00    -0.550 OA
ATOM     14  O   UNL     1      21.982  16.975 -16.073  1.00  0.00    -0.550 OA
ENDBRANCH  11  12
ENDBRANCH  10  11
ENDBRANCH   9  10
ENDBRANCH   8   9
ENDBRANCH   7   8
ENDBRANCH   6   7
ENDBRANCH   5   6
ENDBRANCH   4   5
ENDBRANCH   3   4
ENDBRANCH   2   3
ENDBRANCH   1   2
BRANCH   1  15
ATOM     15  C   UNL     1      29.370  15.482 -18.600  1.00  0.00     0.000 C 
BRANCH  15  16
ATOM     16  C   UNL     1      29.130  14.558 -17.396  1.00  0.00     0.000 C 
BRANCH  16  17
ATOM     17  C   UNL     1      29.714  15.059 -16.060  1.00  0.00     0.000 C 
BRANCH  17  18
ATOM     18  C   UNL     1      30.528  13.994 -15.293  1.00  0.00    -0.000 C 
BRANCH  18  19
ATOM     19  C   UNL     1      31.432  13.165 -16.222  1.00  0.00    -0.000 C 
BRANCH  19  20
ATOM     20  C   UNL     1      32.926  13.506 -16.065  1.00  0.00    -0.000 C 
BRANCH  20  21
ATOM     21  C   UNL     1      33.637  13.943 -17.360  1.00  0.00    -0.000 C 
BRANCH  21  22
ATOM     22  C   UNL     1      33.131  15.293 -17.895  1.00  0.00    -0.000 C 
BRANCH  22  23
ATOM     23  C   UNL     1      33.493  15.474 -19.375  1.00  0.00    -0.000 C 
BRANCH  23  24
ATOM     24  C   UNL     1      33.872  16.934 -19.669  1.00  0.00    -0.000 C 
BRANCH  24  25
ATOM     25  C   UNL     1      34.093  17.759 -18.392  1.00  0.00    -0.003 C 
ATOM     26  C   UNL     1      33.238  19.025 -18.349  1.00  0.00     0.004 C 
ENDBRANCH  24  25
ENDBRANCH  23  24
ENDBRANCH  22  23
ENDBRANCH  21  22
ENDBRANCH  20  21
ENDBRANCH  19  20
ENDBRANCH  18  19
ENDBRANCH  17  18
ENDBRANCH  16  17
ENDBRANCH  15  16
ENDBRANCH   1  15
TORSDOF 22
ENDMDL
MODEL 8
REMARK VINA RESULT:    -3.259      1.113      2.224
REMARK INTER + INTRA:         -10.550
REMARK INTER:                  -7.381
REMARK INTRA:                  -3.169
REMARK UNBOUND:                -3.099
REMARK SMILES CCCCCCCCCCCCCCCCCCCCCCCC(=O)[O-]
REMARK SMILES IDX 13 1 14 2 15 3 16 4 17 5 18 6 19 7 20 8 21 9 22 10 23 11
REMARK SMILES IDX 24 12 25 13 26 14 12 15 11 16 10 17 9 18 8 19 7 20 6 21 5 22
REMARK SMILES IDX 4 23 3 24 2 25 1 26
REMARK H PARENT
REMARK Flexibility Score: inf
ROOT
ATOM      1  C   UNL     1      28.872  18.231 -18.246  1.00  0.00     0.000 C 
ENDROOT
BRANCH   1   2
ATOM      2  C   UNL     1      28.328  18.719 -19.606  1.00  0.00     0.000 C 
BRANCH   2   3
ATOM      3  C   UNL     1      26.923  19.338 -19.490  1.00  0.00     0.000 C 
BRANCH   3   4
ATOM      4  C   UNL     1      26.292  19.115 -18.105  1.00  0.00     0.000 C 
BRANCH   4   5
ATOM      5  C   UNL     1      25.084  18.164 -18.162  1.00  0.00     0.000 C 
BRANCH   5   6
ATOM      6  C   UNL     1      24.922  17.485 -19.533  1.00  0.00     0.000 C 
BRANCH   6   7
ATOM      7  C   UNL     1      24.454  16.024 -19.417  1.00  0.00     0.000 C 
BRANCH   7   8
ATOM      8  C   UNL     1      24.356  15.549 -17.958  1.00  0.00     0.000 C 
BRANCH   8   9
ATOM      9  C   UNL     1      23.023  14.840 -17.653  1.00  0.00     0.000 C 
BRANCH   9  10
ATOM     10  C   UNL     1      23.216  13.512 -16.905  1.00  0.00     0.006 C 
BRANCH  10  11
ATOM     11  C   UNL     1      24.695  13.158 -16.705  1.00  0.00     0.053 C 
BRANCH  11  12
ATOM     12  C   UNL     1      25.054  13.228 -15.254  1.00  0.00     0.041 C 
ATOM     13  O   UNL     1      26.200  12.875 -14.868  1.00  0.00    -0.550 OA
ATOM     14  O   UNL     1      24.145  13.736 -14.337  1.00  0.00    -0.550 OA
ENDBRANCH  11  12
ENDBRANCH  10  11
ENDBRANCH   9  10
ENDBRANCH   8   9
ENDBRANCH   7   8
ENDBRANCH   6   7
ENDBRANCH   5   6
ENDBRANCH   4   5
ENDBRANCH   3   4
ENDBRANCH   2   3
ENDBRANCH   1   2
BRANCH   1  15
ATOM     15  C   UNL     1      29.219  16.730 -18.203  1.00  0.00     0.000 C 
BRANCH  15  16
ATOM     16  C   UNL     1      28.032  15.789 -17.934  1.00  0.00     0.000 C 
BRANCH  16  17
ATOM     17  C   UNL     1      27.833  15.394 -16.458  1.00  0.00     0.000 C 
BRANCH  17  18
ATOM     18  C   UNL     1      29.142  15.342 -15.641  1.00  0.00    -0.000 C 
BRANCH  18  19
ATOM     19  C   UNL     1      29.509  13.911 -15.210  1.00  0.00    -0.000 C 
BRANCH  19  20
ATOM     20  C   UNL     1      30.920  13.492 -15.662  1.00  0.00    -0.000 C 
BRANCH  20  21
ATOM     21  C   UNL     1      31.334  13.989 -17.061  1.00  0.00    -0.000 C 
BRANCH  21  22
ATOM     22  C   UNL     1      32.638  14.801 -17.046  1.00  0.00    -0.000 C 
BRANCH  22  23
ATOM     23  C   UNL     1      32.723  15.738 -18.258  1.00  0.00    -0.000 C 
BRANCH  23  24
ATOM     24  C   UNL     1      34.181  16.122 -18.552  1.00  0.00    -0.000 C 
BRANCH  24  25
ATOM     25  C   UNL     1      34.418  17.639 -18.503  1.00  0.00    -0.003 C 
ATOM     26  C   UNL     1      33.119  18.443 -18.541  1.00  0.00     0.004 C 
ENDBRANCH  24  25
ENDBRANCH  23  24
ENDBRANCH  22  23
ENDBRANCH  21  22
ENDBRANCH  20  21
ENDBRANCH  19  20
ENDBRANCH  18  19
ENDBRANCH  17  18
ENDBRANCH  16  17
ENDBRANCH  15  16
ENDBRANCH   1  15
TORSDOF 22
ENDMDL
MODEL 9
REMARK VINA RESULT:    -3.217      2.809      7.166
REMARK INTER + INTRA:         -10.454
REMARK INTER:                  -6.930
REMARK INTRA:                  -3.524
REMARK UNBOUND:                -3.099
REMARK SMILES CCCCCCCCCCCCCCCCCCCCCCCC(=O)[O-]
REMARK SMILES IDX 13 1 14 2 15 3 16 4 17 5 18 6 19 7 20 8 21 9 22 10 23 11
REMARK SMILES IDX 24 12 25 13 26 14 12 15 11 16 10 17 9 18 8 19 7 20 6 21 5 22
REMARK SMILES IDX 4 23 3 24 2 25 1 26
REMARK H PARENT
REMARK Flexibility Score: inf
ROOT
ATOM      1  C   UNL     1      30.631  14.198 -18.087  1.00  0.00     0.000 C 
ENDROOT
BRANCH   1   2
ATOM      2  C   UNL     1      30.560  15.223 -19.241  1.00  0.00     0.000 C 
BRANCH   2   3
ATOM      3  C   UNL     1      29.725  16.464 -18.876  1.00  0.00     0.000 C 
BRANCH   3   4
ATOM      4  C   UNL     1      30.561  17.756 -18.867  1.00  0.00     0.000 C 
BRANCH   4   5
ATOM      5  C   UNL     1      31.961  17.547 -19.471  1.00  0.00     0.000 C 
BRANCH   5   6
ATOM      6  C   UNL     1      33.088  18.047 -18.553  1.00  0.00     0.000 C 
BRANCH   6   7
ATOM      7  C   UNL     1      34.367  17.199 -18.671  1.00  0.00     0.000 C 
BRANCH   7   8
ATOM      8  C   UNL     1      34.365  16.298 -19.917  1.00  0.00     0.000 C 
BRANCH   8   9
ATOM      9  C   UNL     1      34.993  14.917 -19.652  1.00  0.00     0.000 C 
BRANCH   9  10
ATOM     10  C   UNL     1      34.032  13.958 -18.933  1.00  0.00     0.006 C 
BRANCH  10  11
ATOM     11  C   UNL     1      34.765  12.933 -18.060  1.00  0.00     0.053 C 
BRANCH  11  12
ATOM     12  C   UNL     1      35.072  13.518 -16.718  1.00  0.00     0.041 C 
ATOM     13  O   UNL     1      36.025  13.064 -16.031  1.00  0.00    -0.550 OA
ATOM     14  O   UNL     1      34.343  14.602 -16.250  1.00  0.00    -0.550 OA
ENDBRANCH  11  12
ENDBRANCH  10  11
ENDBRANCH   9  10
ENDBRANCH   8   9
ENDBRANCH   7   8
ENDBRANCH   6   7
ENDBRANCH   5   6
ENDBRANCH   4   5
ENDBRANCH   3   4
ENDBRANCH   2   3
ENDBRANCH   1   2
BRANCH   1  15
ATOM     15  C   UNL     1      30.914  14.819 -16.705  1.00  0.00     0.000 C 
BRANCH  15  16
ATOM     16  C   UNL     1      29.845  14.549 -15.632  1.00  0.00     0.000 C 
BRANCH  16  17
ATOM     17  C   UNL     1      28.568  15.404 -15.752  1.00  0.00     0.000 C 
BRANCH  17  18
ATOM     18  C   UNL     1      27.267  14.576 -15.838  1.00  0.00    -0.000 C 
BRANCH  18  19
ATOM     19  C   UNL     1      27.247  13.638 -17.057  1.00  0.00    -0.000 C 
BRANCH  19  20
ATOM     20  C   UNL     1      26.127  13.978 -18.057  1.00  0.00    -0.000 C 
BRANCH  20  21
ATOM     21  C   UNL     1      26.519  14.974 -19.165  1.00  0.00    -0.000 C 
BRANCH  21  22
ATOM     22  C   UNL     1      25.564  16.175 -19.256  1.00  0.00    -0.000 C 
BRANCH  22  23
ATOM     23  C   UNL     1      26.071  17.352 -18.412  1.00  0.00    -0.000 C 
BRANCH  23  24
ATOM     24  C   UNL     1      26.611  18.476 -19.310  1.00  0.00    -0.000 C 
BRANCH  24  25
ATOM     25  C   UNL     1      27.169  19.661 -18.508  1.00  0.00    -0.003 C 
ATOM     26  C   UNL     1      26.394  19.921 -17.217  1.00  0.00     0.004 C 
ENDBRANCH  24  25
ENDBRANCH  23  24
ENDBRANCH  22  23
ENDBRANCH  21  22
ENDBRANCH  20  21
ENDBRANCH  19  20
ENDBRANCH  18  19
ENDBRANCH  17  18
ENDBRANCH  16  17
ENDBRANCH  15  16
ENDBRANCH   1  15
TORSDOF 22
ENDMDL
