MODEL 1
REMARK VINA RESULT:   127.682      0.000      0.000
REMARK INTER + INTRA:         138.840
REMARK INTER:                 138.878
REMARK INTRA:                  -0.038
REMARK UNBOUND:                -0.038
REMARK SMILES C[C@H]1[C@H](C)CC[C@]2(C(=O)[O-])CC[C@]3(C)C(=CC[C@H]4[C@@]5(C)CC[C@H](O)C(C)(C)[C@H]5CC[C@@]43C)[C@H]12
REMARK SMILES IDX 7 1 6 2 11 3 33 4 5 5 12 6 15 7 2 8 3 9 13 10 16 11 1 12
REMARK SMILES IDX 4 13 14 14 31 15 17 16 18 17 30 18 32 19 19 20 29 21 28 22
REMARK SMILES IDX 21 23 20 24 25 25 22 26 23 27 26 28 27 29 8 30 9 31 10 32
REMARK SMILES IDX 24 33
REMARK H PARENT 24 34
REMARK Flexibility Score: inf
ROOT
ATOM      1  C   UNL     1      11.259  13.205  28.742  1.00  0.00     0.017 C 
ATOM      2  C   UNL     1      11.700  14.606  28.230  1.00  0.00     0.014 C 
ATOM      3  C   UNL     1      10.406  13.398  30.044  1.00  0.00     0.014 C 
ATOM      4  C   UNL     1      12.529  12.279  28.991  1.00  0.00     0.030 C 
ATOM      5  C   UNL     1      12.816  14.491  27.190  1.00  0.00     0.004 C 
ATOM      6  C   UNL     1      11.247  13.318  31.321  1.00  0.00     0.013 C 
ATOM      7  C   UNL     1      12.281  11.324  30.176  1.00  0.00    -0.063 C 
ATOM      8  C   UNL     1      13.879  13.062  29.084  1.00  0.00    -0.003 C 
ATOM      9  C   UNL     1      14.125  13.936  27.807  1.00  0.00    -0.011 C 
ATOM     10  C   UNL     1      11.841  11.879  31.567  1.00  0.00    -0.006 C 
ATOM     11  C   UNL     1      12.219  10.002  29.885  1.00  0.00    -0.027 C 
ATOM     12  C   UNL     1      15.066  12.095  29.295  1.00  0.00     0.008 C 
ATOM     13  C   UNL     1      15.096  15.093  28.106  1.00  0.00     0.008 C 
ATOM     14  C   UNL     1      13.152  12.126  32.381  1.00  0.00     0.017 C 
ATOM     15  C   UNL     1      10.821  10.849  32.366  1.00  0.00    -0.020 C 
ATOM     16  C   UNL     1      11.389   9.046  30.684  1.00  0.00     0.032 C 
ATOM     17  C   UNL     1      10.213   9.820  31.335  1.00  0.00     0.006 C 
ATOM     18  C   UNL     1       9.625  11.581  33.024  1.00  0.00     0.008 C 
ATOM     19  C   UNL     1      11.579  10.116  33.534  1.00  0.00     0.012 C 
ATOM     20  C   UNL     1       8.948   8.918  31.725  1.00  0.00    -0.025 C 
ATOM     21  C   UNL     1       8.604  10.640  33.665  1.00  0.00     0.005 C 
ATOM     22  C   UNL     1       7.905   9.717  32.633  1.00  0.00     0.003 C 
ATOM     23  C   UNL     1       9.395   7.575  32.391  1.00  0.00     0.010 C 
ATOM     24  C   UNL     1       8.242   8.563  30.367  1.00  0.00     0.012 C 
ATOM     25  C   UNL     1       6.762   8.822  33.305  1.00  0.00    -0.006 C 
ATOM     26  C   UNL     1       8.256   6.738  32.980  1.00  0.00     0.033 C 
ATOM     27  C   UNL     1       7.394   7.552  33.955  1.00  0.00     0.120 C 
ATOM     28  C   UNL     1       5.660   8.448  32.266  1.00  0.00     0.014 C 
ATOM     29  C   UNL     1       6.010   9.600  34.426  1.00  0.00     0.014 C 
ENDROOT
BRANCH   1  30
ATOM     30  C   UNL     1      10.333  12.603  27.679  1.00  0.00     0.048 C 
ATOM     31  O   UNL     1       9.653  11.576  27.948  1.00  0.00    -0.550 OA
ATOM     32  O   UNL     1      10.148  13.208  26.439  1.00  0.00    -0.550 OA
ENDBRANCH   1  30
BRANCH  27  33
ATOM     33  O   UNL     1       6.419   6.732  34.557  1.00  0.00    -0.393 OA
ATOM     34  H   UNL     1       6.431   6.903  35.535  1.00  0.00     0.210 HD
ENDBRANCH  27  33
TORSDOF 2
ENDMDL
MODEL 2
REMARK VINA RESULT:   128.638      1.973      3.285
REMARK INTER + INTRA:         139.880
REMARK INTER:                 139.907
REMARK INTRA:                  -0.026
REMARK UNBOUND:                -0.038
REMARK SMILES C[C@H]1[C@H](C)CC[C@]2(C(=O)[O-])CC[C@]3(C)C(=CC[C@H]4[C@@]5(C)CC[C@H](O)C(C)(C)[C@H]5CC[C@@]43C)[C@H]12
REMARK SMILES IDX 7 1 6 2 11 3 33 4 5 5 12 6 15 7 2 8 3 9 13 10 16 11 1 12
REMARK SMILES IDX 4 13 14 14 31 15 17 16 18 17 30 18 32 19 19 20 29 21 28 22
REMARK SMILES IDX 21 23 20 24 25 25 22 26 23 27 26 28 27 29 8 30 9 31 10 32
REMARK SMILES IDX 24 33
REMARK H PARENT 24 34
REMARK Flexibility Score: inf
ROOT
ATOM      1  C   UNL     1      13.193  11.480  29.314  1.00  0.00     0.017 C 
ATOM      2  C   UNL     1      14.134  11.841  28.129  1.00  0.00     0.014 C 
ATOM      3  C   UNL     1      11.845  10.933  28.728  1.00  0.00     0.014 C 
ATOM      4  C   UNL     1      12.966  12.748  30.251  1.00  0.00     0.030 C 
ATOM      5  C   UNL     1      15.308  12.704  28.596  1.00  0.00     0.004 C 
ATOM      6  C   UNL     1      10.787  12.025  28.554  1.00  0.00     0.013 C 
ATOM      7  C   UNL     1      11.546  12.732  30.852  1.00  0.00    -0.063 C 
ATOM      8  C   UNL     1      13.355  14.108  29.585  1.00  0.00    -0.003 C 
ATOM      9  C   UNL     1      14.840  14.099  29.085  1.00  0.00    -0.011 C 
ATOM     10  C   UNL     1      10.293  12.617  29.928  1.00  0.00    -0.006 C 
ATOM     11  C   UNL     1      11.459  12.571  32.194  1.00  0.00    -0.027 C 
ATOM     12  C   UNL     1      13.138  15.284  30.563  1.00  0.00     0.008 C 
ATOM     13  C   UNL     1      15.058  15.144  27.975  1.00  0.00     0.008 C 
ATOM     14  C   UNL     1       9.851  14.078  29.595  1.00  0.00     0.017 C 
ATOM     15  C   UNL     1       9.064  11.762  30.635  1.00  0.00    -0.020 C 
ATOM     16  C   UNL     1      10.288  11.904  32.844  1.00  0.00     0.032 C 
ATOM     17  C   UNL     1       9.643  10.919  31.835  1.00  0.00     0.006 C 
ATOM     18  C   UNL     1       8.397  10.757  29.663  1.00  0.00     0.008 C 
ATOM     19  C   UNL     1       7.919  12.733  31.110  1.00  0.00     0.012 C 
ATOM     20  C   UNL     1       8.784   9.741  32.501  1.00  0.00    -0.025 C 
ATOM     21  C   UNL     1       7.339   9.871  30.322  1.00  0.00     0.005 C 
ATOM     22  C   UNL     1       7.930   8.941  31.414  1.00  0.00     0.003 C 
ATOM     23  C   UNL     1       7.890  10.282  33.665  1.00  0.00     0.010 C 
ATOM     24  C   UNL     1       9.830   8.751  33.127  1.00  0.00     0.012 C 
ATOM     25  C   UNL     1       6.832   7.944  32.012  1.00  0.00    -0.006 C 
ATOM     26  C   UNL     1       6.886   9.273  34.228  1.00  0.00     0.033 C 
ATOM     27  C   UNL     1       6.009   8.664  33.125  1.00  0.00     0.120 C 
ATOM     28  C   UNL     1       7.493   6.634  32.542  1.00  0.00     0.014 C 
ATOM     29  C   UNL     1       5.829   7.473  30.916  1.00  0.00     0.014 C 
ENDROOT
BRANCH   1  30
ATOM     30  C   UNL     1      13.852  10.331  30.085  1.00  0.00     0.048 C 
ATOM     31  O   UNL     1      13.181   9.673  30.925  1.00  0.00    -0.550 OA
ATOM     32  O   UNL     1      15.158   9.926  29.824  1.00  0.00    -0.550 OA
ENDBRANCH   1  30
BRANCH  27  33
ATOM     33  O   UNL     1       5.029   7.818  33.682  1.00  0.00    -0.393 OA
ATOM     34  H   UNL     1       4.718   8.222  34.534  1.00  0.00     0.210 HD
ENDBRANCH  27  33
TORSDOF 2
ENDMDL
MODEL 3
REMARK VINA RESULT:   130.295      1.968      3.275
REMARK INTER + INTRA:         141.683
REMARK INTER:                 141.724
REMARK INTRA:                  -0.041
REMARK UNBOUND:                -0.038
REMARK SMILES C[C@H]1[C@H](C)CC[C@]2(C(=O)[O-])CC[C@]3(C)C(=CC[C@H]4[C@@]5(C)CC[C@H](O)C(C)(C)[C@H]5CC[C@@]43C)[C@H]12
REMARK SMILES IDX 7 1 6 2 11 3 33 4 5 5 12 6 15 7 2 8 3 9 13 10 16 11 1 12
REMARK SMILES IDX 4 13 14 14 31 15 17 16 18 17 30 18 32 19 19 20 29 21 28 22
REMARK SMILES IDX 21 23 20 24 25 25 22 26 23 27 26 28 27 29 8 30 9 31 10 32
REMARK SMILES IDX 24 33
REMARK H PARENT 24 34
REMARK Flexibility Score: inf
ROOT
ATOM      1  C   UNL     1      12.499  13.397  31.033  1.00  0.00     0.017 C 
ATOM      2  C   UNL     1      13.890  14.095  31.043  1.00  0.00     0.014 C 
ATOM      3  C   UNL     1      12.677  11.929  31.557  1.00  0.00     0.014 C 
ATOM      4  C   UNL     1      11.868  13.437  29.572  1.00  0.00     0.030 C 
ATOM      5  C   UNL     1      13.868  15.385  30.222  1.00  0.00     0.004 C 
ATOM      6  C   UNL     1      12.909  10.920  30.429  1.00  0.00     0.013 C 
ATOM      7  C   UNL     1      11.029  12.170  29.308  1.00  0.00    -0.063 C 
ATOM      8  C   UNL     1      12.900  13.757  28.441  1.00  0.00    -0.003 C 
ATOM      9  C   UNL     1      13.648  15.106  28.713  1.00  0.00    -0.011 C 
ATOM     10  C   UNL     1      11.649  10.751  29.498  1.00  0.00    -0.006 C 
ATOM     11  C   UNL     1       9.694  12.350  29.155  1.00  0.00    -0.027 C 
ATOM     12  C   UNL     1      12.208  13.809  27.061  1.00  0.00     0.008 C 
ATOM     13  C   UNL     1      14.997  15.151  27.970  1.00  0.00     0.008 C 
ATOM     14  C   UNL     1      12.234  10.332  28.111  1.00  0.00     0.017 C 
ATOM     15  C   UNL     1      10.544   9.645  30.043  1.00  0.00    -0.020 C 
ATOM     16  C   UNL     1       8.698  11.300  29.537  1.00  0.00     0.032 C 
ATOM     17  C   UNL     1       9.305  10.409  30.652  1.00  0.00     0.006 C 
ATOM     18  C   UNL     1      11.106   8.740  31.167  1.00  0.00     0.008 C 
ATOM     19  C   UNL     1      10.111   8.677  28.880  1.00  0.00     0.012 C 
ATOM     20  C   UNL     1       8.229   9.640  31.558  1.00  0.00    -0.025 C 
ATOM     21  C   UNL     1      10.070   7.791  31.771  1.00  0.00     0.005 C 
ATOM     22  C   UNL     1       8.916   8.539  32.489  1.00  0.00     0.003 C 
ATOM     23  C   UNL     1       7.084   9.034  30.682  1.00  0.00     0.010 C 
ATOM     24  C   UNL     1       7.590  10.735  32.484  1.00  0.00     0.012 C 
ATOM     25  C   UNL     1       7.905   7.532  33.211  1.00  0.00    -0.006 C 
ATOM     26  C   UNL     1       6.120   8.110  31.432  1.00  0.00     0.033 C 
ATOM     27  C   UNL     1       6.863   6.994  32.180  1.00  0.00     0.120 C 
ATOM     28  C   UNL     1       7.208   8.213  34.428  1.00  0.00     0.014 C 
ATOM     29  C   UNL     1       8.651   6.302  33.810  1.00  0.00     0.014 C 
ENDROOT
BRANCH   1  30
ATOM     30  C   UNL     1      11.612  14.134  32.042  1.00  0.00     0.048 C 
ATOM     31  O   UNL     1      10.509  13.632  32.392  1.00  0.00    -0.550 OA
ATOM     32  O   UNL     1      12.024  15.311  32.659  1.00  0.00    -0.550 OA
ENDBRANCH   1  30
BRANCH  27  33
ATOM     33  O   UNL     1       5.949   6.103  32.776  1.00  0.00    -0.393 OA
ATOM     34  H   UNL     1       5.206   5.946  32.135  1.00  0.00     0.210 HD
ENDBRANCH  27  33
TORSDOF 2
ENDMDL
