MODEL 1
REMARK VINA RESULT:    -4.446      0.000      0.000
REMARK INTER + INTRA:          -8.510
REMARK INTER:                  -7.045
REMARK INTRA:                  -1.465
REMARK UNBOUND:                -1.465
REMARK SMILES CCCCCCCCCCCC(=O)[O-]
REMARK SMILES IDX 7 1 8 2 9 3 10 4 11 5 12 6 13 7 14 8 6 9 5 10 4 11 3 12 2 13
REMARK SMILES IDX 1 14
REMARK H PARENT
REMARK Flexibility Score: inf
ROOT
ATOM      1  C   UNL     1      62.658  28.845  13.429  1.00  0.00     0.000 C 
ENDROOT
BRANCH   1   2
ATOM      2  C   UNL     1      61.136  28.889  13.650  1.00  0.00     0.000 C 
BRANCH   2   3
ATOM      3  C   UNL     1      60.366  28.013  12.651  1.00  0.00     0.000 C 
BRANCH   3   4
ATOM      4  C   UNL     1      59.528  28.839  11.662  1.00  0.00     0.006 C 
BRANCH   4   5
ATOM      5  C   UNL     1      60.428  29.641  10.718  1.00  0.00     0.053 C 
BRANCH   5   6
ATOM      6  C   UNL     1      61.245  28.721   9.867  1.00  0.00     0.041 C 
ATOM      7  O   UNL     1      62.502  28.741   9.938  1.00  0.00    -0.550 OA
ATOM      8  O   UNL     1      60.617  27.808   9.030  1.00  0.00    -0.550 OA
ENDBRANCH   5   6
ENDBRANCH   4   5
ENDBRANCH   3   4
ENDBRANCH   2   3
ENDBRANCH   1   2
BRANCH   1   9
ATOM      9  C   UNL     1      63.326  30.210  13.701  1.00  0.00     0.000 C 
BRANCH   9  10
ATOM     10  C   UNL     1      63.229  31.189  12.519  1.00  0.00    -0.000 C 
BRANCH  10  11
ATOM     11  C   UNL     1      63.154  32.657  12.962  1.00  0.00    -0.000 C 
BRANCH  11  12
ATOM     12  C   UNL     1      61.918  32.903  13.839  1.00  0.00    -0.000 C 
BRANCH  12  13
ATOM     13  C   UNL     1      60.601  32.675  13.081  1.00  0.00    -0.003 C 
ATOM     14  C   UNL     1      59.545  31.968  13.930  1.00  0.00     0.004 C 
ENDBRANCH  12  13
ENDBRANCH  11  12
ENDBRANCH  10  11
ENDBRANCH   9  10
ENDBRANCH   1   9
TORSDOF 10
ENDMDL
MODEL 2
REMARK VINA RESULT:    -4.388     12.746     14.103
REMARK INTER + INTRA:          -8.417
REMARK INTER:                  -7.076
REMARK INTRA:                  -1.341
REMARK UNBOUND:                -1.465
REMARK SMILES CCCCCCCCCCCC(=O)[O-]
REMARK SMILES IDX 7 1 8 2 9 3 10 4 11 5 12 6 13 7 14 8 6 9 5 10 4 11 3 12 2 13
REMARK SMILES IDX 1 14
REMARK H PARENT
REMARK Flexibility Score: inf
ROOT
ATOM      1  C   UNL     1      61.937  29.368  24.753  1.00  0.00     0.000 C 
ENDROOT
BRANCH   1   2
ATOM      2  C   UNL     1      63.402  29.429  24.286  1.00  0.00     0.000 C 
BRANCH   2   3
ATOM      3  C   UNL     1      64.393  29.021  25.385  1.00  0.00     0.000 C 
BRANCH   3   4
ATOM      4  C   UNL     1      65.395  27.956  24.913  1.00  0.00     0.006 C 
BRANCH   4   5
ATOM      5  C   UNL     1      64.812  26.548  25.069  1.00  0.00     0.053 C 
BRANCH   5   6
ATOM      6  C   UNL     1      64.693  25.880  23.736  1.00  0.00     0.041 C 
ATOM      7  O   UNL     1      63.566  25.516  23.308  1.00  0.00    -0.550 OA
ATOM      8  O   UNL     1      65.820  25.704  22.944  1.00  0.00    -0.550 OA
ENDBRANCH   5   6
ENDBRANCH   4   5
ENDBRANCH   3   4
ENDBRANCH   2   3
ENDBRANCH   1   2
BRANCH   1   9
ATOM      9  C   UNL     1      61.331  27.958  24.586  1.00  0.00     0.000 C 
BRANCH   9  10
ATOM     10  C   UNL     1      60.660  27.421  25.862  1.00  0.00    -0.000 C 
BRANCH  10  11
ATOM     11  C   UNL     1      61.663  27.113  26.982  1.00  0.00    -0.000 C 
BRANCH  11  12
ATOM     12  C   UNL     1      61.032  27.342  28.363  1.00  0.00    -0.000 C 
BRANCH  12  13
ATOM     13  C   UNL     1      61.003  28.826  28.760  1.00  0.00    -0.003 C 
ATOM     14  C   UNL     1      62.321  29.543  28.465  1.00  0.00     0.004 C 
ENDBRANCH  12  13
ENDBRANCH  11  12
ENDBRANCH  10  11
ENDBRANCH   9  10
ENDBRANCH   1   9
TORSDOF 10
ENDMDL
MODEL 3
REMARK VINA RESULT:    -4.316     12.902     14.259
REMARK INTER + INTRA:          -8.303
REMARK INTER:                  -6.851
REMARK INTRA:                  -1.453
REMARK UNBOUND:                -1.465
REMARK SMILES CCCCCCCCCCCC(=O)[O-]
REMARK SMILES IDX 7 1 8 2 9 3 10 4 11 5 12 6 13 7 14 8 6 9 5 10 4 11 3 12 2 13
REMARK SMILES IDX 1 14
REMARK H PARENT
REMARK Flexibility Score: inf
ROOT
ATOM      1  C   UNL     1      63.886  30.371  26.253  1.00  0.00     0.000 C 
ENDROOT
BRANCH   1   2
ATOM      2  C   UNL     1      65.356  30.077  26.601  1.00  0.00     0.000 C 
BRANCH   2   3
ATOM      3  C   UNL     1      65.962  28.968  25.729  1.00  0.00     0.000 C 
BRANCH   3   4
ATOM      4  C   UNL     1      64.918  28.278  24.838  1.00  0.00     0.006 C 
BRANCH   4   5
ATOM      5  C   UNL     1      64.771  26.800  25.212  1.00  0.00     0.053 C 
BRANCH   5   6
ATOM      6  C   UNL     1      64.494  25.976  23.994  1.00  0.00     0.041 C 
ATOM      7  O   UNL     1      65.348  25.903  23.072  1.00  0.00    -0.550 OA
ATOM      8  O   UNL     1      63.314  25.249  23.900  1.00  0.00    -0.550 OA
ENDBRANCH   5   6
ENDBRANCH   4   5
ENDBRANCH   3   4
ENDBRANCH   2   3
ENDBRANCH   1   2
BRANCH   1   9
ATOM      9  C   UNL     1      62.992  30.437  27.509  1.00  0.00     0.000 C 
BRANCH   9  10
ATOM     10  C   UNL     1      62.769  29.071  28.179  1.00  0.00    -0.000 C 
BRANCH  10  11
ATOM     11  C   UNL     1      61.409  28.449  27.834  1.00  0.00    -0.000 C 
BRANCH  11  12
ATOM     12  C   UNL     1      61.582  27.210  26.943  1.00  0.00    -0.000 C 
BRANCH  12  13
ATOM     13  C   UNL     1      60.691  27.253  25.692  1.00  0.00    -0.003 C 
ATOM     14  C   UNL     1      61.183  28.257  24.650  1.00  0.00     0.004 C 
ENDBRANCH  12  13
ENDBRANCH  11  12
ENDBRANCH  10  11
ENDBRANCH   9  10
ENDBRANCH   1   9
TORSDOF 10
ENDMDL
MODEL 4
REMARK VINA RESULT:    -4.304      2.958      5.308
REMARK INTER + INTRA:          -8.285
REMARK INTER:                  -6.826
REMARK INTRA:                  -1.460
REMARK UNBOUND:                -1.465
REMARK SMILES CCCCCCCCCCCC(=O)[O-]
REMARK SMILES IDX 7 1 8 2 9 3 10 4 11 5 12 6 13 7 14 8 6 9 5 10 4 11 3 12 2 13
REMARK SMILES IDX 1 14
REMARK H PARENT
REMARK Flexibility Score: inf
ROOT
ATOM      1  C   UNL     1      62.623  28.903  13.189  1.00  0.00     0.000 C 
ENDROOT
BRANCH   1   2
ATOM      2  C   UNL     1      63.108  30.319  13.547  1.00  0.00     0.000 C 
BRANCH   2   3
ATOM      3  C   UNL     1      62.763  31.355  12.466  1.00  0.00     0.000 C 
BRANCH   3   4
ATOM      4  C   UNL     1      61.658  32.327  12.908  1.00  0.00     0.006 C 
BRANCH   4   5
ATOM      5  C   UNL     1      62.096  33.132  14.135  1.00  0.00     0.053 C 
BRANCH   5   6
ATOM      6  C   UNL     1      61.032  33.106  15.186  1.00  0.00     0.041 C 
ATOM      7  O   UNL     1      60.400  32.043  15.421  1.00  0.00    -0.550 OA
ATOM      8  O   UNL     1      60.772  34.243  15.940  1.00  0.00    -0.550 OA
ENDBRANCH   5   6
ENDBRANCH   4   5
ENDBRANCH   3   4
ENDBRANCH   2   3
ENDBRANCH   1   2
BRANCH   1   9
ATOM      9  C   UNL     1      61.119  28.711  13.481  1.00  0.00     0.000 C 
BRANCH   9  10
ATOM     10  C   UNL     1      60.309  28.244  12.260  1.00  0.00    -0.000 C 
BRANCH  10  11
ATOM     11  C   UNL     1      59.655  29.404  11.496  1.00  0.00    -0.000 C 
BRANCH  11  12
ATOM     12  C   UNL     1      60.373  29.658  10.163  1.00  0.00    -0.000 C 
BRANCH  12  13
ATOM     13  C   UNL     1      61.282  28.490   9.750  1.00  0.00    -0.003 C 
ATOM     14  C   UNL     1      62.707  28.936   9.424  1.00  0.00     0.004 C 
ENDBRANCH  12  13
ENDBRANCH  11  12
ENDBRANCH  10  11
ENDBRANCH   9  10
ENDBRANCH   1   9
TORSDOF 10
ENDMDL
MODEL 5
REMARK VINA RESULT:    -4.288      2.783      4.847
REMARK INTER + INTRA:          -8.260
REMARK INTER:                  -6.828
REMARK INTRA:                  -1.432
REMARK UNBOUND:                -1.465
REMARK SMILES CCCCCCCCCCCC(=O)[O-]
REMARK SMILES IDX 7 1 8 2 9 3 10 4 11 5 12 6 13 7 14 8 6 9 5 10 4 11 3 12 2 13
REMARK SMILES IDX 1 14
REMARK H PARENT
REMARK Flexibility Score: inf
ROOT
ATOM      1  C   UNL     1      63.917  29.901  11.389  1.00  0.00     0.000 C 
ENDROOT
BRANCH   1   2
ATOM      2  C   UNL     1      64.047  31.419  11.171  1.00  0.00     0.000 C 
BRANCH   2   3
ATOM      3  C   UNL     1      63.476  32.237  12.339  1.00  0.00     0.000 C 
BRANCH   3   4
ATOM      4  C   UNL     1      62.239  31.582  12.972  1.00  0.00     0.006 C 
BRANCH   4   5
ATOM      5  C   UNL     1      60.982  32.413  12.703  1.00  0.00     0.053 C 
BRANCH   5   6
ATOM      6  C   UNL     1      60.245  32.676  13.978  1.00  0.00     0.041 C 
ATOM      7  O   UNL     1      60.600  33.620  14.732  1.00  0.00    -0.550 OA
ATOM      8  O   UNL     1      59.135  31.910  14.310  1.00  0.00    -0.550 OA
ENDBRANCH   5   6
ENDBRANCH   4   5
ENDBRANCH   3   4
ENDBRANCH   2   3
ENDBRANCH   1   2
BRANCH   1   9
ATOM      9  C   UNL     1      63.614  29.149  10.075  1.00  0.00     0.000 C 
BRANCH   9  10
ATOM     10  C   UNL     1      62.187  29.379   9.549  1.00  0.00    -0.000 C 
BRANCH  10  11
ATOM     11  C   UNL     1      61.142  28.500  10.249  1.00  0.00    -0.000 C 
BRANCH  11  12
ATOM     12  C   UNL     1      59.985  29.351  10.792  1.00  0.00    -0.000 C 
BRANCH  12  13
ATOM     13  C   UNL     1      59.603  28.979  12.234  1.00  0.00    -0.003 C 
ATOM     14  C   UNL     1      60.687  28.164  12.941  1.00  0.00     0.004 C 
ENDBRANCH  12  13
ENDBRANCH  11  12
ENDBRANCH  10  11
ENDBRANCH   9  10
ENDBRANCH   1   9
TORSDOF 10
ENDMDL
MODEL 6
REMARK VINA RESULT:    -4.255     13.196     14.738
REMARK INTER + INTRA:          -8.208
REMARK INTER:                  -6.849
REMARK INTRA:                  -1.358
REMARK UNBOUND:                -1.465
REMARK SMILES CCCCCCCCCCCC(=O)[O-]
REMARK SMILES IDX 7 1 8 2 9 3 10 4 11 5 12 6 13 7 14 8 6 9 5 10 4 11 3 12 2 13
REMARK SMILES IDX 1 14
REMARK H PARENT
REMARK Flexibility Score: inf
ROOT
ATOM      1  C   UNL     1      62.100  28.446  24.119  1.00  0.00     0.000 C 
ENDROOT
BRANCH   1   2
ATOM      2  C   UNL     1      61.999  29.740  24.946  1.00  0.00     0.000 C 
BRANCH   2   3
ATOM      3  C   UNL     1      63.359  30.207  25.487  1.00  0.00     0.000 C 
BRANCH   3   4
ATOM      4  C   UNL     1      63.661  29.653  26.888  1.00  0.00     0.006 C 
BRANCH   4   5
ATOM      5  C   UNL     1      62.591  30.093  27.892  1.00  0.00     0.053 C 
BRANCH   5   6
ATOM      6  C   UNL     1      61.905  28.902  28.482  1.00  0.00     0.041 C 
ATOM      7  O   UNL     1      60.765  29.020  29.003  1.00  0.00    -0.550 OA
ATOM      8  O   UNL     1      62.503  27.650  28.412  1.00  0.00    -0.550 OA
ENDBRANCH   5   6
ENDBRANCH   4   5
ENDBRANCH   3   4
ENDBRANCH   2   3
ENDBRANCH   1   2
BRANCH   1   9
ATOM      9  C   UNL     1      61.902  27.185  24.985  1.00  0.00     0.000 C 
BRANCH   9  10
ATOM     10  C   UNL     1      63.198  26.393  25.227  1.00  0.00    -0.000 C 
BRANCH  10  11
ATOM     11  C   UNL     1      63.688  25.650  23.977  1.00  0.00    -0.000 C 
BRANCH  11  12
ATOM     12  C   UNL     1      65.061  26.174  23.530  1.00  0.00    -0.000 C 
BRANCH  12  13
ATOM     13  C   UNL     1      65.604  27.273  24.457  1.00  0.00    -0.003 C 
ATOM     14  C   UNL     1      66.079  28.509  23.694  1.00  0.00     0.004 C 
ENDBRANCH  12  13
ENDBRANCH  11  12
ENDBRANCH  10  11
ENDBRANCH   9  10
ENDBRANCH   1   9
TORSDOF 10
ENDMDL
MODEL 7
REMARK VINA RESULT:    -4.253     13.366     14.492
REMARK INTER + INTRA:          -8.204
REMARK INTER:                  -6.775
REMARK INTRA:                  -1.429
REMARK UNBOUND:                -1.465
REMARK SMILES CCCCCCCCCCCC(=O)[O-]
REMARK SMILES IDX 7 1 8 2 9 3 10 4 11 5 12 6 13 7 14 8 6 9 5 10 4 11 3 12 2 13
REMARK SMILES IDX 1 14
REMARK H PARENT
REMARK Flexibility Score: inf
ROOT
ATOM      1  C   UNL     1      63.303  30.114  24.470  1.00  0.00     0.000 C 
ENDROOT
BRANCH   1   2
ATOM      2  C   UNL     1      61.876  29.746  24.915  1.00  0.00     0.000 C 
BRANCH   2   3
ATOM      3  C   UNL     1      61.565  28.253  24.734  1.00  0.00     0.000 C 
BRANCH   3   4
ATOM      4  C   UNL     1      60.787  27.662  25.920  1.00  0.00     0.006 C 
BRANCH   4   5
ATOM      5  C   UNL     1      61.743  27.141  26.997  1.00  0.00     0.053 C 
BRANCH   5   6
ATOM      6  C   UNL     1      61.771  28.072  28.167  1.00  0.00     0.041 C 
ATOM      7  O   UNL     1      62.818  28.714  28.442  1.00  0.00    -0.550 OA
ATOM      8  O   UNL     1      60.624  28.268  28.926  1.00  0.00    -0.550 OA
ENDBRANCH   5   6
ENDBRANCH   4   5
ENDBRANCH   3   4
ENDBRANCH   2   3
ENDBRANCH   1   2
BRANCH   1   9
ATOM      9  C   UNL     1      64.294  30.137  25.653  1.00  0.00     0.000 C 
BRANCH   9  10
ATOM     10  C   UNL     1      65.178  28.882  25.741  1.00  0.00    -0.000 C 
BRANCH  10  11
ATOM     11  C   UNL     1      66.006  28.642  24.471  1.00  0.00    -0.000 C 
BRANCH  11  12
ATOM     12  C   UNL     1      65.695  27.267  23.864  1.00  0.00    -0.000 C 
BRANCH  12  13
ATOM     13  C   UNL     1      64.866  26.379  24.806  1.00  0.00    -0.003 C 
ATOM     14  C   UNL     1      63.747  25.632  24.081  1.00  0.00     0.004 C 
ENDBRANCH  12  13
ENDBRANCH  11  12
ENDBRANCH  10  11
ENDBRANCH   9  10
ENDBRANCH   1   9
TORSDOF 10
ENDMDL
MODEL 8
REMARK VINA RESULT:    -4.238     13.569     14.841
REMARK INTER + INTRA:          -8.180
REMARK INTER:                  -7.084
REMARK INTRA:                  -1.096
REMARK UNBOUND:                -1.465
REMARK SMILES CCCCCCCCCCCC(=O)[O-]
REMARK SMILES IDX 7 1 8 2 9 3 10 4 11 5 12 6 13 7 14 8 6 9 5 10 4 11 3 12 2 13
REMARK SMILES IDX 1 14
REMARK H PARENT
REMARK Flexibility Score: inf
ROOT
ATOM      1  C   UNL     1      63.028  30.484  27.899  1.00  0.00     0.000 C 
ENDROOT
BRANCH   1   2
ATOM      2  C   UNL     1      62.715  29.147  28.594  1.00  0.00     0.000 C 
BRANCH   2   3
ATOM      3  C   UNL     1      61.208  28.890  28.735  1.00  0.00     0.000 C 
BRANCH   3   4
ATOM      4  C   UNL     1      60.795  27.497  28.235  1.00  0.00     0.006 C 
BRANCH   4   5
ATOM      5  C   UNL     1      61.549  27.130  26.954  1.00  0.00     0.053 C 
BRANCH   5   6
ATOM      6  C   UNL     1      60.724  27.452  25.749  1.00  0.00     0.041 C 
ATOM      7  O   UNL     1      61.032  28.425  25.012  1.00  0.00    -0.550 OA
ATOM      8  O   UNL     1      59.642  26.649  25.413  1.00  0.00    -0.550 OA
ENDBRANCH   5   6
ENDBRANCH   4   5
ENDBRANCH   3   4
ENDBRANCH   2   3
ENDBRANCH   1   2
BRANCH   1   9
ATOM      9  C   UNL     1      63.756  30.284  26.553  1.00  0.00     0.000 C 
BRANCH   9  10
ATOM     10  C   UNL     1      65.264  30.019  26.700  1.00  0.00    -0.000 C 
BRANCH  10  11
ATOM     11  C   UNL     1      65.777  28.932  25.747  1.00  0.00    -0.000 C 
BRANCH  11  12
ATOM     12  C   UNL     1      64.609  28.179  25.093  1.00  0.00    -0.000 C 
BRANCH  12  13
ATOM     13  C   UNL     1      64.728  26.655  25.246  1.00  0.00    -0.003 C 
ATOM     14  C   UNL     1      65.167  25.963  23.956  1.00  0.00     0.004 C 
ENDBRANCH  12  13
ENDBRANCH  11  12
ENDBRANCH  10  11
ENDBRANCH   9  10
ENDBRANCH   1   9
TORSDOF 10
ENDMDL
MODEL 9
REMARK VINA RESULT:    -4.207      1.937      2.879
REMARK INTER + INTRA:          -8.130
REMARK INTER:                  -6.930
REMARK INTRA:                  -1.201
REMARK UNBOUND:                -1.465
REMARK SMILES CCCCCCCCCCCC(=O)[O-]
REMARK SMILES IDX 7 1 8 2 9 3 10 4 11 5 12 6 13 7 14 8 6 9 5 10 4 11 3 12 2 13
REMARK SMILES IDX 1 14
REMARK H PARENT
REMARK Flexibility Score: inf
ROOT
ATOM      1  C   UNL     1      63.569  29.009   9.631  1.00  0.00     0.000 C 
ENDROOT
BRANCH   1   2
ATOM      2  C   UNL     1      62.170  29.057   8.993  1.00  0.00     0.000 C 
BRANCH   2   3
ATOM      3  C   UNL     1      61.139  28.213   9.757  1.00  0.00     0.000 C 
BRANCH   3   4
ATOM      4  C   UNL     1      59.861  28.998  10.090  1.00  0.00     0.006 C 
BRANCH   4   5
ATOM      5  C   UNL     1      59.956  29.635  11.480  1.00  0.00     0.053 C 
BRANCH   5   6
ATOM      6  C   UNL     1      59.729  28.608  12.543  1.00  0.00     0.041 C 
ATOM      7  O   UNL     1      60.590  28.427  13.444  1.00  0.00    -0.550 OA
ATOM      8  O   UNL     1      58.544  27.884  12.568  1.00  0.00    -0.550 OA
ENDBRANCH   5   6
ENDBRANCH   4   5
ENDBRANCH   3   4
ENDBRANCH   2   3
ENDBRANCH   1   2
BRANCH   1   9
ATOM      9  C   UNL     1      63.757  30.102  10.705  1.00  0.00     0.000 C 
BRANCH   9  10
ATOM     10  C   UNL     1      63.621  29.581  12.145  1.00  0.00    -0.000 C 
BRANCH  10  11
ATOM     11  C   UNL     1      63.425  30.704  13.172  1.00  0.00    -0.000 C 
BRANCH  11  12
ATOM     12  C   UNL     1      62.747  31.923  12.530  1.00  0.00    -0.000 C 
BRANCH  12  13
ATOM     13  C   UNL     1      62.065  32.833  13.564  1.00  0.00    -0.003 C 
ATOM     14  C   UNL     1      60.562  32.579  13.675  1.00  0.00     0.004 C 
ENDBRANCH  12  13
ENDBRANCH  11  12
ENDBRANCH  10  11
ENDBRANCH   9  10
ENDBRANCH   1   9
TORSDOF 10
ENDMDL
