MODEL 1
REMARK VINA RESULT:    -4.697      0.000      0.000
REMARK INTER + INTRA:         -11.111
REMARK INTER:                  -8.540
REMARK INTRA:                  -2.571
REMARK UNBOUND:                -2.571
REMARK SMILES CCCCCCCCCCCCCCCC(=O)[O-]
REMARK SMILES IDX 9 1 10 2 11 3 12 4 13 5 14 6 15 7 16 8 17 9 18 10 8 11 7 12
REMARK SMILES IDX 6 13 5 14 4 15 3 16 2 17 1 18
REMARK H PARENT
REMARK Flexibility Score: inf
ROOT
ATOM      1  C   UNL     1     -16.267 -18.005 101.570  1.00  0.00     0.000 C 
ENDROOT
BRANCH   1   2
ATOM      2  C   UNL     1     -16.736 -17.381 100.247  1.00  0.00     0.000 C 
BRANCH   2   3
ATOM      3  C   UNL     1     -15.575 -17.071  99.291  1.00  0.00     0.000 C 
BRANCH   3   4
ATOM      4  C   UNL     1     -15.982 -16.010  98.261  1.00  0.00     0.000 C 
BRANCH   4   5
ATOM      5  C   UNL     1     -15.017 -14.817  98.288  1.00  0.00     0.000 C 
BRANCH   5   6
ATOM      6  C   UNL     1     -14.141 -14.846  99.545  1.00  0.00     0.006 C 
BRANCH   6   7
ATOM      7  C   UNL     1     -13.619 -13.446  99.882  1.00  0.00     0.053 C 
BRANCH   7   8
ATOM      8  C   UNL     1     -12.143 -13.483 100.127  1.00  0.00     0.041 C 
ATOM      9  O   UNL     1     -11.685 -13.232 101.273  1.00  0.00    -0.550 OA
ATOM     10  O   UNL     1     -11.270 -13.745  99.080  1.00  0.00    -0.550 OA
ENDBRANCH   7   8
ENDBRANCH   6   7
ENDBRANCH   5   6
ENDBRANCH   4   5
ENDBRANCH   3   4
ENDBRANCH   2   3
ENDBRANCH   1   2
BRANCH   1  11
ATOM     11  C   UNL     1     -16.358 -17.025 102.753  1.00  0.00     0.000 C 
BRANCH  11  12
ATOM     12  C   UNL     1     -15.041 -16.269 102.988  1.00  0.00    -0.000 C 
BRANCH  12  13
ATOM     13  C   UNL     1     -15.246 -14.749 103.111  1.00  0.00    -0.000 C 
BRANCH  13  14
ATOM     14  C   UNL     1     -16.733 -14.346 103.007  1.00  0.00    -0.000 C 
BRANCH  14  15
ATOM     15  C   UNL     1     -17.002 -13.235 101.974  1.00  0.00    -0.000 C 
BRANCH  15  16
ATOM     16  C   UNL     1     -17.566 -13.722 100.626  1.00  0.00    -0.000 C 
BRANCH  16  17
ATOM     17  C   UNL     1     -18.996 -14.286 100.691  1.00  0.00    -0.003 C 
ATOM     18  C   UNL     1     -19.503 -14.784  99.337  1.00  0.00     0.004 C 
ENDBRANCH  16  17
ENDBRANCH  15  16
ENDBRANCH  14  15
ENDBRANCH  13  14
ENDBRANCH  12  13
ENDBRANCH  11  12
ENDBRANCH   1  11
TORSDOF 14
ENDMDL
MODEL 2
REMARK VINA RESULT:    -4.632      1.276      2.953
REMARK INTER + INTRA:         -10.994
REMARK INTER:                  -8.412
REMARK INTRA:                  -2.582
REMARK UNBOUND:                -2.571
REMARK SMILES CCCCCCCCCCCCCCCC(=O)[O-]
REMARK SMILES IDX 9 1 10 2 11 3 12 4 13 5 14 6 15 7 16 8 17 9 18 10 8 11 7 12
REMARK SMILES IDX 6 13 5 14 4 15 3 16 2 17 1 18
REMARK H PARENT
REMARK Flexibility Score: inf
ROOT
ATOM      1  C   UNL     1     -16.034 -17.597 102.265  1.00  0.00     0.000 C 
ENDROOT
BRANCH   1   2
ATOM      2  C   UNL     1     -16.283 -16.279 103.016  1.00  0.00     0.000 C 
BRANCH   2   3
ATOM      3  C   UNL     1     -14.985 -15.524 103.338  1.00  0.00     0.000 C 
BRANCH   3   4
ATOM      4  C   UNL     1     -13.797 -16.489 103.427  1.00  0.00     0.000 C 
BRANCH   4   5
ATOM      5  C   UNL     1     -12.631 -16.012 102.552  1.00  0.00     0.000 C 
BRANCH   5   6
ATOM      6  C   UNL     1     -12.890 -14.601 102.010  1.00  0.00     0.006 C 
BRANCH   6   7
ATOM      7  C   UNL     1     -11.644 -14.040 101.320  1.00  0.00     0.053 C 
BRANCH   7   8
ATOM      8  C   UNL     1     -12.007 -13.419 100.008  1.00  0.00     0.041 C 
ATOM      9  O   UNL     1     -12.853 -12.488  99.961  1.00  0.00    -0.550 OA
ATOM     10  O   UNL     1     -11.448 -13.902  98.832  1.00  0.00    -0.550 OA
ENDBRANCH   7   8
ENDBRANCH   6   7
ENDBRANCH   5   6
ENDBRANCH   4   5
ENDBRANCH   3   4
ENDBRANCH   2   3
ENDBRANCH   1   2
BRANCH   1  11
ATOM     11  C   UNL     1     -16.379 -17.500 100.769  1.00  0.00     0.000 C 
BRANCH  11  12
ATOM     12  C   UNL     1     -15.125 -17.473  99.881  1.00  0.00    -0.000 C 
BRANCH  12  13
ATOM     13  C   UNL     1     -14.802 -16.062  99.358  1.00  0.00    -0.000 C 
BRANCH  13  14
ATOM     14  C   UNL     1     -16.066 -15.189  99.202  1.00  0.00    -0.000 C 
BRANCH  14  15
ATOM     15  C   UNL     1     -16.087 -13.959 100.131  1.00  0.00    -0.000 C 
BRANCH  15  16
ATOM     16  C   UNL     1     -17.457 -13.639 100.756  1.00  0.00    -0.000 C 
BRANCH  16  17
ATOM     17  C   UNL     1     -18.594 -14.588 100.340  1.00  0.00    -0.003 C 
ATOM     18  C   UNL     1     -19.804 -13.852  99.762  1.00  0.00     0.004 C 
ENDBRANCH  16  17
ENDBRANCH  15  16
ENDBRANCH  14  15
ENDBRANCH  13  14
ENDBRANCH  12  13
ENDBRANCH  11  12
ENDBRANCH   1  11
TORSDOF 14
ENDMDL
MODEL 3
REMARK VINA RESULT:    -4.632      1.683      3.517
REMARK INTER + INTRA:         -10.993
REMARK INTER:                  -8.505
REMARK INTRA:                  -2.488
REMARK UNBOUND:                -2.571
REMARK SMILES CCCCCCCCCCCCCCCC(=O)[O-]
REMARK SMILES IDX 9 1 10 2 11 3 12 4 13 5 14 6 15 7 16 8 17 9 18 10 8 11 7 12
REMARK SMILES IDX 6 13 5 14 4 15 3 16 2 17 1 18
REMARK H PARENT
REMARK Flexibility Score: inf
ROOT
ATOM      1  C   UNL     1     -14.251 -15.137  99.605  1.00  0.00     0.000 C 
ENDROOT
BRANCH   1   2
ATOM      2  C   UNL     1     -14.835 -16.527  99.311  1.00  0.00     0.000 C 
BRANCH   2   3
ATOM      3  C   UNL     1     -14.677 -17.500 100.488  1.00  0.00     0.000 C 
BRANCH   3   4
ATOM      4  C   UNL     1     -15.979 -17.608 101.290  1.00  0.00     0.000 C 
BRANCH   4   5
ATOM      5  C   UNL     1     -15.779 -17.130 102.734  1.00  0.00     0.000 C 
BRANCH   5   6
ATOM      6  C   UNL     1     -14.289 -17.006 103.072  1.00  0.00     0.006 C 
BRANCH   6   7
ATOM      7  C   UNL     1     -14.016 -15.746 103.898  1.00  0.00     0.053 C 
BRANCH   7   8
ATOM      8  C   UNL     1     -12.633 -15.237 103.634  1.00  0.00     0.041 C 
ATOM      9  O   UNL     1     -12.344 -14.741 102.513  1.00  0.00    -0.550 OA
ATOM     10  O   UNL     1     -11.651 -15.356 104.608  1.00  0.00    -0.550 OA
ENDBRANCH   7   8
ENDBRANCH   6   7
ENDBRANCH   5   6
ENDBRANCH   4   5
ENDBRANCH   3   4
ENDBRANCH   2   3
ENDBRANCH   1   2
BRANCH   1  11
ATOM     11  C   UNL     1     -15.340 -14.066  99.795  1.00  0.00     0.000 C 
BRANCH  11  12
ATOM     12  C   UNL     1     -15.489 -13.639 101.264  1.00  0.00    -0.000 C 
BRANCH  12  13
ATOM     13  C   UNL     1     -16.957 -13.420 101.669  1.00  0.00    -0.000 C 
BRANCH  13  14
ATOM     14  C   UNL     1     -17.885 -14.537 101.142  1.00  0.00    -0.000 C 
BRANCH  14  15
ATOM     15  C   UNL     1     -19.105 -14.010 100.361  1.00  0.00    -0.000 C 
BRANCH  15  16
ATOM     16  C   UNL     1     -19.507 -14.853  99.136  1.00  0.00    -0.000 C 
BRANCH  16  17
ATOM     17  C   UNL     1     -18.364 -15.673  98.513  1.00  0.00    -0.003 C 
ATOM     18  C   UNL     1     -18.797 -17.078  98.093  1.00  0.00     0.004 C 
ENDBRANCH  16  17
ENDBRANCH  15  16
ENDBRANCH  14  15
ENDBRANCH  13  14
ENDBRANCH  12  13
ENDBRANCH  11  12
ENDBRANCH   1  11
TORSDOF 14
ENDMDL
MODEL 4
REMARK VINA RESULT:    -4.612      1.264      3.087
REMARK INTER + INTRA:         -10.957
REMARK INTER:                  -8.425
REMARK INTRA:                  -2.532
REMARK UNBOUND:                -2.571
REMARK SMILES CCCCCCCCCCCCCCCC(=O)[O-]
REMARK SMILES IDX 9 1 10 2 11 3 12 4 13 5 14 6 15 7 16 8 17 9 18 10 8 11 7 12
REMARK SMILES IDX 6 13 5 14 4 15 3 16 2 17 1 18
REMARK H PARENT
REMARK Flexibility Score: inf
ROOT
ATOM      1  C   UNL     1     -14.718 -17.324 102.519  1.00  0.00     0.000 C 
ENDROOT
BRANCH   1   2
ATOM      2  C   UNL     1     -15.265 -16.077 103.232  1.00  0.00     0.000 C 
BRANCH   2   3
ATOM      3  C   UNL     1     -16.495 -15.483 102.530  1.00  0.00     0.000 C 
BRANCH   3   4
ATOM      4  C   UNL     1     -16.296 -13.989 102.246  1.00  0.00     0.000 C 
BRANCH   4   5
ATOM      5  C   UNL     1     -15.623 -13.773 100.884  1.00  0.00     0.000 C 
BRANCH   5   6
ATOM      6  C   UNL     1     -14.132 -13.457 101.051  1.00  0.00     0.006 C 
BRANCH   6   7
ATOM      7  C   UNL     1     -13.431 -13.380  99.692  1.00  0.00     0.053 C 
BRANCH   7   8
ATOM      8  C   UNL     1     -11.973 -13.685  99.836  1.00  0.00     0.041 C 
ATOM      9  O   UNL     1     -11.258 -13.854  98.814  1.00  0.00    -0.550 OA
ATOM     10  O   UNL     1     -11.415 -13.831 101.099  1.00  0.00    -0.550 OA
ENDBRANCH   7   8
ENDBRANCH   6   7
ENDBRANCH   5   6
ENDBRANCH   4   5
ENDBRANCH   3   4
ENDBRANCH   2   3
ENDBRANCH   1   2
BRANCH   1  11
ATOM     11  C   UNL     1     -13.336 -17.085 101.886  1.00  0.00     0.000 C 
BRANCH  11  12
ATOM     12  C   UNL     1     -13.386 -17.104 100.350  1.00  0.00    -0.000 C 
BRANCH  12  13
ATOM     13  C   UNL     1     -14.699 -17.698  99.809  1.00  0.00    -0.000 C 
BRANCH  13  14
ATOM     14  C   UNL     1     -15.485 -16.692  98.940  1.00  0.00    -0.000 C 
BRANCH  14  15
ATOM     15  C   UNL     1     -17.012 -16.768  99.134  1.00  0.00    -0.000 C 
BRANCH  15  16
ATOM     16  C   UNL     1     -17.813 -15.651  98.441  1.00  0.00    -0.000 C 
BRANCH  16  17
ATOM     17  C   UNL     1     -19.217 -15.408  99.021  1.00  0.00    -0.003 C 
ATOM     18  C   UNL     1     -19.308 -14.125  99.847  1.00  0.00     0.004 C 
ENDBRANCH  16  17
ENDBRANCH  15  16
ENDBRANCH  14  15
ENDBRANCH  13  14
ENDBRANCH  12  13
ENDBRANCH  11  12
ENDBRANCH   1  11
TORSDOF 14
ENDMDL
MODEL 5
REMARK VINA RESULT:    -4.606      1.742      3.257
REMARK INTER + INTRA:         -10.947
REMARK INTER:                  -8.342
REMARK INTRA:                  -2.605
REMARK UNBOUND:                -2.571
REMARK SMILES CCCCCCCCCCCCCCCC(=O)[O-]
REMARK SMILES IDX 9 1 10 2 11 3 12 4 13 5 14 6 15 7 16 8 17 9 18 10 8 11 7 12
REMARK SMILES IDX 6 13 5 14 4 15 3 16 2 17 1 18
REMARK H PARENT
REMARK Flexibility Score: inf
ROOT
ATOM      1  C   UNL     1     -15.135 -16.485  99.278  1.00  0.00     0.000 C 
ENDROOT
BRANCH   1   2
ATOM      2  C   UNL     1     -15.074 -17.702 100.214  1.00  0.00     0.000 C 
BRANCH   2   3
ATOM      3  C   UNL     1     -16.299 -17.806 101.134  1.00  0.00     0.000 C 
BRANCH   3   4
ATOM      4  C   UNL     1     -15.979 -17.277 102.537  1.00  0.00     0.000 C 
BRANCH   4   5
ATOM      5  C   UNL     1     -14.567 -17.692 102.973  1.00  0.00     0.000 C 
BRANCH   5   6
ATOM      6  C   UNL     1     -13.731 -16.469 103.367  1.00  0.00     0.006 C 
BRANCH   6   7
ATOM      7  C   UNL     1     -12.352 -16.510 102.703  1.00  0.00     0.053 C 
BRANCH   7   8
ATOM      8  C   UNL     1     -11.475 -15.427 103.249  1.00  0.00     0.041 C 
ATOM      9  O   UNL     1     -11.142 -15.435 104.463  1.00  0.00    -0.550 OA
ATOM     10  O   UNL     1     -11.068 -14.383 102.430  1.00  0.00    -0.550 OA
ENDBRANCH   7   8
ENDBRANCH   6   7
ENDBRANCH   5   6
ENDBRANCH   4   5
ENDBRANCH   3   4
ENDBRANCH   2   3
ENDBRANCH   1   2
BRANCH   1  11
ATOM     11  C   UNL     1     -13.987 -15.490  99.525  1.00  0.00     0.000 C 
BRANCH  11  12
ATOM     12  C   UNL     1     -14.490 -14.048  99.698  1.00  0.00    -0.000 C 
BRANCH  12  13
ATOM     13  C   UNL     1     -14.283 -13.517 101.127  1.00  0.00    -0.000 C 
BRANCH  13  14
ATOM     14  C   UNL     1     -15.563 -13.624 101.985  1.00  0.00    -0.000 C 
BRANCH  14  15
ATOM     15  C   UNL     1     -16.856 -13.307 101.209  1.00  0.00    -0.000 C 
BRANCH  15  16
ATOM     16  C   UNL     1     -17.894 -14.444 101.181  1.00  0.00    -0.000 C 
BRANCH  16  17
ATOM     17  C   UNL     1     -18.412 -14.811  99.779  1.00  0.00    -0.003 C 
ATOM     18  C   UNL     1     -19.836 -14.318  99.521  1.00  0.00     0.004 C 
ENDBRANCH  16  17
ENDBRANCH  15  16
ENDBRANCH  14  15
ENDBRANCH  13  14
ENDBRANCH  12  13
ENDBRANCH  11  12
ENDBRANCH   1  11
TORSDOF 14
ENDMDL
MODEL 6
REMARK VINA RESULT:    -4.605      0.960      2.973
REMARK INTER + INTRA:         -10.944
REMARK INTER:                  -8.268
REMARK INTRA:                  -2.676
REMARK UNBOUND:                -2.571
REMARK SMILES CCCCCCCCCCCCCCCC(=O)[O-]
REMARK SMILES IDX 9 1 10 2 11 3 12 4 13 5 14 6 15 7 16 8 17 9 18 10 8 11 7 12
REMARK SMILES IDX 6 13 5 14 4 15 3 16 2 17 1 18
REMARK H PARENT
REMARK Flexibility Score: inf
ROOT
ATOM      1  C   UNL     1     -18.557 -14.954  99.339  1.00  0.00     0.000 C 
ENDROOT
BRANCH   1   2
ATOM      2  C   UNL     1     -17.961 -16.082  98.482  1.00  0.00     0.000 C 
BRANCH   2   3
ATOM      3  C   UNL     1     -16.834 -16.840  99.199  1.00  0.00     0.000 C 
BRANCH   3   4
ATOM      4  C   UNL     1     -15.477 -16.551  98.545  1.00  0.00     0.000 C 
BRANCH   4   5
ATOM      5  C   UNL     1     -14.555 -15.787  99.504  1.00  0.00     0.000 C 
BRANCH   5   6
ATOM      6  C   UNL     1     -14.511 -14.295  99.154  1.00  0.00     0.006 C 
BRANCH   6   7
ATOM      7  C   UNL     1     -13.904 -13.480 100.300  1.00  0.00     0.053 C 
BRANCH   7   8
ATOM      8  C   UNL     1     -12.477 -13.873 100.523  1.00  0.00     0.041 C 
ATOM      9  O   UNL     1     -12.111 -14.319 101.642  1.00  0.00    -0.550 OA
ATOM     10  O   UNL     1     -11.542 -13.699  99.512  1.00  0.00    -0.550 OA
ENDBRANCH   7   8
ENDBRANCH   6   7
ENDBRANCH   5   6
ENDBRANCH   4   5
ENDBRANCH   3   4
ENDBRANCH   2   3
ENDBRANCH   1   2
BRANCH   1  11
ATOM     11  C   UNL     1     -17.968 -14.916 100.760  1.00  0.00     0.000 C 
BRANCH  11  12
ATOM     12  C   UNL     1     -17.580 -13.493 101.194  1.00  0.00    -0.000 C 
BRANCH  12  13
ATOM     13  C   UNL     1     -16.798 -13.472 102.519  1.00  0.00    -0.000 C 
BRANCH  13  14
ATOM     14  C   UNL     1     -16.675 -14.875 103.151  1.00  0.00    -0.000 C 
BRANCH  14  15
ATOM     15  C   UNL     1     -15.226 -15.395 103.226  1.00  0.00    -0.000 C 
BRANCH  15  16
ATOM     16  C   UNL     1     -15.053 -16.891 102.906  1.00  0.00    -0.000 C 
BRANCH  16  17
ATOM     17  C   UNL     1     -16.368 -17.663 102.703  1.00  0.00    -0.003 C 
ATOM     18  C   UNL     1     -16.148 -19.124 102.310  1.00  0.00     0.004 C 
ENDBRANCH  16  17
ENDBRANCH  15  16
ENDBRANCH  14  15
ENDBRANCH  13  14
ENDBRANCH  12  13
ENDBRANCH  11  12
ENDBRANCH   1  11
TORSDOF 14
ENDMDL
MODEL 7
REMARK VINA RESULT:    -4.600      2.084      4.073
REMARK INTER + INTRA:         -10.935
REMARK INTER:                  -8.612
REMARK INTRA:                  -2.323
REMARK UNBOUND:                -2.571
REMARK SMILES CCCCCCCCCCCCCCCC(=O)[O-]
REMARK SMILES IDX 9 1 10 2 11 3 12 4 13 5 14 6 15 7 16 8 17 9 18 10 8 11 7 12
REMARK SMILES IDX 6 13 5 14 4 15 3 16 2 17 1 18
REMARK H PARENT
REMARK Flexibility Score: inf
ROOT
ATOM      1  C   UNL     1     -15.944 -13.525 101.965  1.00  0.00     0.000 C 
ENDROOT
BRANCH   1   2
ATOM      2  C   UNL     1     -15.910 -14.474 103.173  1.00  0.00     0.000 C 
BRANCH   2   3
ATOM      3  C   UNL     1     -16.293 -15.916 102.808  1.00  0.00     0.000 C 
BRANCH   3   4
ATOM      4  C   UNL     1     -15.111 -16.868 103.025  1.00  0.00     0.000 C 
BRANCH   4   5
ATOM      5  C   UNL     1     -13.934 -16.144 103.691  1.00  0.00     0.000 C 
BRANCH   5   6
ATOM      6  C   UNL     1     -12.617 -16.452 102.968  1.00  0.00     0.006 C 
BRANCH   6   7
ATOM      7  C   UNL     1     -11.820 -15.171 102.710  1.00  0.00     0.053 C 
BRANCH   7   8
ATOM      8  C   UNL     1     -10.595 -15.134 103.569  1.00  0.00     0.041 C 
ATOM      9  O   UNL     1     -10.585 -15.724 104.682  1.00  0.00    -0.550 OA
ATOM     10  O   UNL     1      -9.483 -14.408 103.165  1.00  0.00    -0.550 OA
ENDBRANCH   7   8
ENDBRANCH   6   7
ENDBRANCH   5   6
ENDBRANCH   4   5
ENDBRANCH   3   4
ENDBRANCH   2   3
ENDBRANCH   1   2
BRANCH   1  11
ATOM     11  C   UNL     1     -14.595 -13.457 101.227  1.00  0.00     0.000 C 
BRANCH  11  12
ATOM     12  C   UNL     1     -14.699 -13.937  99.771  1.00  0.00    -0.000 C 
BRANCH  12  13
ATOM     13  C   UNL     1     -14.405 -15.440  99.623  1.00  0.00    -0.000 C 
BRANCH  13  14
ATOM     14  C   UNL     1     -15.312 -16.116  98.571  1.00  0.00    -0.000 C 
BRANCH  14  15
ATOM     15  C   UNL     1     -16.610 -16.703  99.160  1.00  0.00    -0.000 C 
BRANCH  15  16
ATOM     16  C   UNL     1     -17.900 -15.964  98.758  1.00  0.00    -0.000 C 
BRANCH  16  17
ATOM     17  C   UNL     1     -18.413 -14.950  99.796  1.00  0.00    -0.003 C 
ATOM     18  C   UNL     1     -19.742 -14.308  99.396  1.00  0.00     0.004 C 
ENDBRANCH  16  17
ENDBRANCH  15  16
ENDBRANCH  14  15
ENDBRANCH  13  14
ENDBRANCH  12  13
ENDBRANCH  11  12
ENDBRANCH   1  11
TORSDOF 14
ENDMDL
MODEL 8
REMARK VINA RESULT:    -4.583      2.136      3.502
REMARK INTER + INTRA:         -10.906
REMARK INTER:                  -8.359
REMARK INTRA:                  -2.547
REMARK UNBOUND:                -2.571
REMARK SMILES CCCCCCCCCCCCCCCC(=O)[O-]
REMARK SMILES IDX 9 1 10 2 11 3 12 4 13 5 14 6 15 7 16 8 17 9 18 10 8 11 7 12
REMARK SMILES IDX 6 13 5 14 4 15 3 16 2 17 1 18
REMARK H PARENT
REMARK Flexibility Score: inf
ROOT
ATOM      1  C   UNL     1     -15.745 -17.899 102.634  1.00  0.00     0.000 C 
ENDROOT
BRANCH   1   2
ATOM      2  C   UNL     1     -16.089 -18.540 101.280  1.00  0.00     0.000 C 
BRANCH   2   3
ATOM      3  C   UNL     1     -14.860 -18.716 100.376  1.00  0.00     0.000 C 
BRANCH   3   4
ATOM      4  C   UNL     1     -13.573 -18.349 101.124  1.00  0.00     0.000 C 
BRANCH   4   5
ATOM      5  C   UNL     1     -12.817 -17.226 100.400  1.00  0.00     0.000 C 
BRANCH   5   6
ATOM      6  C   UNL     1     -12.523 -16.059 101.350  1.00  0.00     0.006 C 
BRANCH   6   7
ATOM      7  C   UNL     1     -12.351 -16.552 102.789  1.00  0.00     0.053 C 
BRANCH   7   8
ATOM      8  C   UNL     1     -12.360 -15.399 103.743  1.00  0.00     0.041 C 
ATOM      9  O   UNL     1     -11.392 -15.219 104.528  1.00  0.00    -0.550 OA
ATOM     10  O   UNL     1     -13.458 -14.552 103.799  1.00  0.00    -0.550 OA
ENDBRANCH   7   8
ENDBRANCH   6   7
ENDBRANCH   5   6
ENDBRANCH   4   5
ENDBRANCH   3   4
ENDBRANCH   2   3
ENDBRANCH   1   2
BRANCH   1  11
ATOM     11  C   UNL     1     -16.483 -16.569 102.865  1.00  0.00     0.000 C 
BRANCH  11  12
ATOM     12  C   UNL     1     -16.262 -15.572 101.716  1.00  0.00    -0.000 C 
BRANCH  12  13
ATOM     13  C   UNL     1     -17.430 -14.583 101.559  1.00  0.00    -0.000 C 
BRANCH  13  14
ATOM     14  C   UNL     1     -18.056 -14.632 100.148  1.00  0.00    -0.000 C 
BRANCH  14  15
ATOM     15  C   UNL     1     -17.822 -15.966  99.414  1.00  0.00    -0.000 C 
BRANCH  15  16
ATOM     16  C   UNL     1     -17.118 -15.844  98.050  1.00  0.00    -0.000 C 
BRANCH  16  17
ATOM     17  C   UNL     1     -15.593 -16.043  98.091  1.00  0.00    -0.003 C 
ATOM     18  C   UNL     1     -14.827 -14.743  98.338  1.00  0.00     0.004 C 
ENDBRANCH  16  17
ENDBRANCH  15  16
ENDBRANCH  14  15
ENDBRANCH  13  14
ENDBRANCH  12  13
ENDBRANCH  11  12
ENDBRANCH   1  11
TORSDOF 14
ENDMDL
MODEL 9
REMARK VINA RESULT:    -4.571      3.084      5.567
REMARK INTER + INTRA:         -10.883
REMARK INTER:                  -8.268
REMARK INTRA:                  -2.615
REMARK UNBOUND:                -2.571
REMARK SMILES CCCCCCCCCCCCCCCC(=O)[O-]
REMARK SMILES IDX 9 1 10 2 11 3 12 4 13 5 14 6 15 7 16 8 17 9 18 10 8 11 7 12
REMARK SMILES IDX 6 13 5 14 4 15 3 16 2 17 1 18
REMARK H PARENT
REMARK Flexibility Score: inf
ROOT
ATOM      1  C   UNL     1     -12.773 -16.944 102.680  1.00  0.00     0.000 C 
ENDROOT
BRANCH   1   2
ATOM      2  C   UNL     1     -14.106 -16.496 103.299  1.00  0.00     0.000 C 
BRANCH   2   3
ATOM      3  C   UNL     1     -15.268 -17.440 102.957  1.00  0.00     0.000 C 
BRANCH   3   4
ATOM      4  C   UNL     1     -16.509 -16.649 102.529  1.00  0.00     0.000 C 
BRANCH   4   5
ATOM      5  C   UNL     1     -16.301 -15.143 102.733  1.00  0.00     0.000 C 
BRANCH   5   6
ATOM      6  C   UNL     1     -17.288 -14.330 101.887  1.00  0.00     0.006 C 
BRANCH   6   7
ATOM      7  C   UNL     1     -17.356 -14.868 100.455  1.00  0.00     0.053 C 
BRANCH   7   8
ATOM      8  C   UNL     1     -18.749 -14.755  99.919  1.00  0.00     0.041 C 
ATOM      9  O   UNL     1     -19.016 -15.164  98.758  1.00  0.00    -0.550 OA
ATOM     10  O   UNL     1     -19.741 -14.154 100.682  1.00  0.00    -0.550 OA
ENDBRANCH   7   8
ENDBRANCH   6   7
ENDBRANCH   5   6
ENDBRANCH   4   5
ENDBRANCH   3   4
ENDBRANCH   2   3
ENDBRANCH   1   2
BRANCH   1  11
ATOM     11  C   UNL     1     -12.965 -17.789 101.408  1.00  0.00     0.000 C 
BRANCH  11  12
ATOM     12  C   UNL     1     -12.712 -16.980 100.126  1.00  0.00    -0.000 C 
BRANCH  12  13
ATOM     13  C   UNL     1     -13.920 -16.115  99.725  1.00  0.00    -0.000 C 
BRANCH  13  14
ATOM     14  C   UNL     1     -13.510 -14.677  99.338  1.00  0.00    -0.000 C 
BRANCH  14  15
ATOM     15  C   UNL     1     -13.801 -13.635 100.435  1.00  0.00    -0.000 C 
BRANCH  15  16
ATOM     16  C   UNL     1     -12.712 -13.506 101.516  1.00  0.00    -0.000 C 
BRANCH  16  17
ATOM     17  C   UNL     1     -11.276 -13.746 101.016  1.00  0.00    -0.003 C 
ATOM     18  C   UNL     1     -10.324 -14.188 102.127  1.00  0.00     0.004 C 
ENDBRANCH  16  17
ENDBRANCH  15  16
ENDBRANCH  14  15
ENDBRANCH  13  14
ENDBRANCH  12  13
ENDBRANCH  11  12
ENDBRANCH   1  11
TORSDOF 14
ENDMDL
