MODEL 1
REMARK VINA RESULT:    -4.470      0.000      0.000
REMARK INTER + INTRA:          -9.789
REMARK INTER:                  -8.129
REMARK INTRA:                  -1.660
REMARK UNBOUND:                -1.660
REMARK SMILES CCCCCCCCCCCCCCCC(=O)[O-]
REMARK SMILES IDX 9 1 10 2 11 3 12 4 13 5 14 6 15 7 16 8 17 9 18 10 8 11 7 12
REMARK SMILES IDX 6 13 5 14 4 15 3 16 2 17 1 18
REMARK H PARENT
REMARK Flexibility Score: inf
ROOT
ATOM      1  C   UNL     1      24.423   7.428  15.292  1.00  0.00     0.000 C 
ENDROOT
BRANCH   1   2
ATOM      2  C   UNL     1      23.412   7.264  14.146  1.00  0.00     0.000 C 
BRANCH   2   3
ATOM      3  C   UNL     1      22.909   5.818  14.003  1.00  0.00     0.000 C 
BRANCH   3   4
ATOM      4  C   UNL     1      23.175   4.971  15.258  1.00  0.00     0.000 C 
BRANCH   4   5
ATOM      5  C   UNL     1      24.099   3.787  14.933  1.00  0.00     0.000 C 
BRANCH   5   6
ATOM      6  C   UNL     1      24.644   3.838  13.497  1.00  0.00     0.006 C 
BRANCH   6   7
ATOM      7  C   UNL     1      26.174   3.751  13.442  1.00  0.00     0.053 C 
BRANCH   7   8
ATOM      8  C   UNL     1      26.607   2.880  12.304  1.00  0.00     0.041 C 
ATOM      9  O   UNL     1      27.627   3.179  11.631  1.00  0.00    -0.550 OA
ATOM     10  O   UNL     1      25.912   1.711  12.020  1.00  0.00    -0.550 OA
ENDBRANCH   7   8
ENDBRANCH   6   7
ENDBRANCH   5   6
ENDBRANCH   4   5
ENDBRANCH   3   4
ENDBRANCH   2   3
ENDBRANCH   1   2
BRANCH   1  11
ATOM     11  C   UNL     1      25.859   7.261  14.782  1.00  0.00     0.000 C 
BRANCH  11  12
ATOM     12  C   UNL     1      26.877   7.618  15.877  1.00  0.00    -0.000 C 
BRANCH  12  13
ATOM     13  C   UNL     1      28.313   7.225  15.499  1.00  0.00    -0.000 C 
BRANCH  13  14
ATOM     14  C   UNL     1      28.418   6.678  14.064  1.00  0.00    -0.000 C 
BRANCH  14  15
ATOM     15  C   UNL     1      29.198   7.615  13.124  1.00  0.00    -0.000 C 
BRANCH  15  16
ATOM     16  C   UNL     1      28.413   8.094  11.886  1.00  0.00    -0.000 C 
BRANCH  16  17
ATOM     17  C   UNL     1      28.288   9.622  11.746  1.00  0.00    -0.003 C 
ATOM     18  C   UNL     1      26.906  10.144  12.136  1.00  0.00     0.004 C 
ENDBRANCH  16  17
ENDBRANCH  15  16
ENDBRANCH  14  15
ENDBRANCH  13  14
ENDBRANCH  12  13
ENDBRANCH  11  12
ENDBRANCH   1  11
TORSDOF 14
ENDMDL
MODEL 2
REMARK VINA RESULT:    -4.430      9.619     11.399
REMARK INTER + INTRA:          -9.716
REMARK INTER:                  -8.244
REMARK INTRA:                  -1.472
REMARK UNBOUND:                -1.660
REMARK SMILES CCCCCCCCCCCCCCCC(=O)[O-]
REMARK SMILES IDX 9 1 10 2 11 3 12 4 13 5 14 6 15 7 16 8 17 9 18 10 8 11 7 12
REMARK SMILES IDX 6 13 5 14 4 15 3 16 2 17 1 18
REMARK H PARENT
REMARK Flexibility Score: inf
ROOT
ATOM      1  C   UNL     1      18.660   8.070   4.003  1.00  0.00     0.000 C 
ENDROOT
BRANCH   1   2
ATOM      2  C   UNL     1      17.307   7.415   4.321  1.00  0.00     0.000 C 
BRANCH   2   3
ATOM      3  C   UNL     1      17.301   6.699   5.681  1.00  0.00     0.000 C 
BRANCH   3   4
ATOM      4  C   UNL     1      18.255   7.348   6.696  1.00  0.00     0.000 C 
BRANCH   4   5
ATOM      5  C   UNL     1      17.514   8.378   7.563  1.00  0.00     0.000 C 
BRANCH   5   6
ATOM      6  C   UNL     1      18.448   9.117   8.535  1.00  0.00     0.006 C 
BRANCH   6   7
ATOM      7  C   UNL     1      17.703   9.701   9.742  1.00  0.00     0.053 C 
BRANCH   7   8
ATOM      8  C   UNL     1      18.639  10.494  10.599  1.00  0.00     0.041 C 
ATOM      9  O   UNL     1      19.062  11.613  10.207  1.00  0.00    -0.550 OA
ATOM     10  O   UNL     1      19.005  10.020  11.852  1.00  0.00    -0.550 OA
ENDBRANCH   7   8
ENDBRANCH   6   7
ENDBRANCH   5   6
ENDBRANCH   4   5
ENDBRANCH   3   4
ENDBRANCH   2   3
ENDBRANCH   1   2
BRANCH   1  11
ATOM     11  C   UNL     1      19.164   7.641   2.620  1.00  0.00     0.000 C 
BRANCH  11  12
ATOM     12  C   UNL     1      20.433   6.782   2.739  1.00  0.00    -0.000 C 
BRANCH  12  13
ATOM     13  C   UNL     1      20.122   5.290   2.923  1.00  0.00    -0.000 C 
BRANCH  13  14
ATOM     14  C   UNL     1      20.391   4.803   4.358  1.00  0.00    -0.000 C 
BRANCH  14  15
ATOM     15  C   UNL     1      21.638   5.452   4.984  1.00  0.00    -0.000 C 
BRANCH  15  16
ATOM     16  C   UNL     1      21.854   5.137   6.478  1.00  0.00    -0.000 C 
BRANCH  16  17
ATOM     17  C   UNL     1      22.688   6.177   7.249  1.00  0.00    -0.003 C 
ATOM     18  C   UNL     1      21.935   6.787   8.429  1.00  0.00     0.004 C 
ENDBRANCH  16  17
ENDBRANCH  15  16
ENDBRANCH  14  15
ENDBRANCH  13  14
ENDBRANCH  12  13
ENDBRANCH  11  12
ENDBRANCH   1  11
TORSDOF 14
ENDMDL
MODEL 3
REMARK VINA RESULT:    -4.404      2.274      5.274
REMARK INTER + INTRA:          -9.669
REMARK INTER:                  -7.911
REMARK INTRA:                  -1.758
REMARK UNBOUND:                -1.660
REMARK SMILES CCCCCCCCCCCCCCCC(=O)[O-]
REMARK SMILES IDX 9 1 10 2 11 3 12 4 13 5 14 6 15 7 16 8 17 9 18 10 8 11 7 12
REMARK SMILES IDX 6 13 5 14 4 15 3 16 2 17 1 18
REMARK H PARENT
REMARK Flexibility Score: inf
ROOT
ATOM      1  C   UNL     1      23.231   7.467  14.638  1.00  0.00     0.000 C 
ENDROOT
BRANCH   1   2
ATOM      2  C   UNL     1      23.397   7.400  16.165  1.00  0.00     0.000 C 
BRANCH   2   3
ATOM      3  C   UNL     1      24.705   8.047  16.647  1.00  0.00     0.000 C 
BRANCH   3   4
ATOM      4  C   UNL     1      25.897   7.078  16.606  1.00  0.00     0.000 C 
BRANCH   4   5
ATOM      5  C   UNL     1      27.040   7.652  15.755  1.00  0.00     0.000 C 
BRANCH   5   6
ATOM      6  C   UNL     1      26.876   7.346  14.258  1.00  0.00     0.006 C 
BRANCH   6   7
ATOM      7  C   UNL     1      26.588   8.602  13.425  1.00  0.00     0.053 C 
BRANCH   7   8
ATOM      8  C   UNL     1      27.556   8.708  12.289  1.00  0.00     0.041 C 
ATOM      9  O   UNL     1      27.685   9.794  11.667  1.00  0.00    -0.550 OA
ATOM     10  O   UNL     1      28.353   7.621  11.951  1.00  0.00    -0.550 OA
ENDBRANCH   7   8
ENDBRANCH   6   7
ENDBRANCH   5   6
ENDBRANCH   4   5
ENDBRANCH   3   4
ENDBRANCH   2   3
ENDBRANCH   1   2
BRANCH   1  11
ATOM     11  C   UNL     1      23.144   6.061  14.034  1.00  0.00     0.000 C 
BRANCH  11  12
ATOM     12  C   UNL     1      23.151   4.988  15.135  1.00  0.00    -0.000 C 
BRANCH  12  13
ATOM     13  C   UNL     1      24.117   3.833  14.828  1.00  0.00    -0.000 C 
BRANCH  13  14
ATOM     14  C   UNL     1      25.129   4.187  13.724  1.00  0.00    -0.000 C 
BRANCH  14  15
ATOM     15  C   UNL     1      25.637   2.950  12.962  1.00  0.00    -0.000 C 
BRANCH  15  16
ATOM     16  C   UNL     1      27.153   2.937  12.681  1.00  0.00    -0.000 C 
BRANCH  16  17
ATOM     17  C   UNL     1      27.980   2.031  13.611  1.00  0.00    -0.003 C 
ATOM     18  C   UNL     1      29.346   1.671  13.030  1.00  0.00     0.004 C 
ENDBRANCH  16  17
ENDBRANCH  15  16
ENDBRANCH  14  15
ENDBRANCH  13  14
ENDBRANCH  12  13
ENDBRANCH  11  12
ENDBRANCH   1  11
TORSDOF 14
ENDMDL
MODEL 4
REMARK VINA RESULT:    -4.383      1.196      2.639
REMARK INTER + INTRA:          -9.631
REMARK INTER:                  -7.568
REMARK INTRA:                  -2.063
REMARK UNBOUND:                -1.660
REMARK SMILES CCCCCCCCCCCCCCCC(=O)[O-]
REMARK SMILES IDX 9 1 10 2 11 3 12 4 13 5 14 6 15 7 16 8 17 9 18 10 8 11 7 12
REMARK SMILES IDX 6 13 5 14 4 15 3 16 2 17 1 18
REMARK H PARENT
REMARK Flexibility Score: inf
ROOT
ATOM      1  C   UNL     1      26.956   6.647  14.750  1.00  0.00     0.000 C 
ENDROOT
BRANCH   1   2
ATOM      2  C   UNL     1      25.653   7.353  14.343  1.00  0.00     0.000 C 
BRANCH   2   3
ATOM      3  C   UNL     1      24.458   6.940  15.216  1.00  0.00     0.000 C 
BRANCH   3   4
ATOM      4  C   UNL     1      23.432   6.088  14.452  1.00  0.00     0.000 C 
BRANCH   4   5
ATOM      5  C   UNL     1      23.281   4.702  15.099  1.00  0.00     0.000 C 
BRANCH   5   6
ATOM      6  C   UNL     1      24.456   3.766  14.776  1.00  0.00     0.006 C 
BRANCH   6   7
ATOM      7  C   UNL     1      24.809   3.756  13.283  1.00  0.00     0.053 C 
BRANCH   7   8
ATOM      8  C   UNL     1      25.903   2.772  13.013  1.00  0.00     0.041 C 
ATOM      9  O   UNL     1      26.381   2.082  13.951  1.00  0.00    -0.550 OA
ATOM     10  O   UNL     1      26.361   2.579  11.715  1.00  0.00    -0.550 OA
ENDBRANCH   7   8
ENDBRANCH   6   7
ENDBRANCH   5   6
ENDBRANCH   4   5
ENDBRANCH   3   4
ENDBRANCH   2   3
ENDBRANCH   1   2
BRANCH   1  11
ATOM     11  C   UNL     1      27.785   6.273  13.516  1.00  0.00     0.000 C 
BRANCH  11  12
ATOM     12  C   UNL     1      28.731   7.417  13.120  1.00  0.00    -0.000 C 
BRANCH  12  13
ATOM     13  C   UNL     1      28.425   7.980  11.724  1.00  0.00    -0.000 C 
BRANCH  13  14
ATOM     14  C   UNL     1      28.288   9.513  11.722  1.00  0.00    -0.000 C 
BRANCH  14  15
ATOM     15  C   UNL     1      26.854   9.984  12.025  1.00  0.00    -0.000 C 
BRANCH  15  16
ATOM     16  C   UNL     1      26.716  10.892  13.264  1.00  0.00    -0.000 C 
BRANCH  16  17
ATOM     17  C   UNL     1      27.944  10.916  14.192  1.00  0.00    -0.003 C 
ATOM     18  C   UNL     1      27.685  10.241  15.538  1.00  0.00     0.004 C 
ENDBRANCH  16  17
ENDBRANCH  15  16
ENDBRANCH  14  15
ENDBRANCH  13  14
ENDBRANCH  12  13
ENDBRANCH  11  12
ENDBRANCH   1  11
TORSDOF 14
ENDMDL
MODEL 5
REMARK VINA RESULT:    -4.352      4.818      6.778
REMARK INTER + INTRA:          -9.575
REMARK INTER:                  -8.062
REMARK INTRA:                  -1.513
REMARK UNBOUND:                -1.660
REMARK SMILES CCCCCCCCCCCCCCCC(=O)[O-]
REMARK SMILES IDX 9 1 10 2 11 3 12 4 13 5 14 6 15 7 16 8 17 9 18 10 8 11 7 12
REMARK SMILES IDX 6 13 5 14 4 15 3 16 2 17 1 18
REMARK H PARENT
REMARK Flexibility Score: inf
ROOT
ATOM      1  C   UNL     1      23.916   7.046  14.299  1.00  0.00     0.000 C 
ENDROOT
BRANCH   1   2
ATOM      2  C   UNL     1      24.462   7.060  15.735  1.00  0.00     0.000 C 
BRANCH   2   3
ATOM      3  C   UNL     1      24.718   8.483  16.256  1.00  0.00     0.000 C 
BRANCH   3   4
ATOM      4  C   UNL     1      23.864   8.825  17.488  1.00  0.00     0.000 C 
BRANCH   4   5
ATOM      5  C   UNL     1      22.477   8.171  17.391  1.00  0.00     0.000 C 
BRANCH   5   6
ATOM      6  C   UNL     1      21.413   8.914  18.214  1.00  0.00     0.006 C 
BRANCH   6   7
ATOM      7  C   UNL     1      21.658  10.428  18.268  1.00  0.00     0.053 C 
BRANCH   7   8
ATOM      8  C   UNL     1      20.608  11.154  17.489  1.00  0.00     0.041 C 
ATOM      9  O   UNL     1      20.238  10.719  16.367  1.00  0.00    -0.550 OA
ATOM     10  O   UNL     1      20.002  12.284  18.023  1.00  0.00    -0.550 OA
ENDBRANCH   7   8
ENDBRANCH   6   7
ENDBRANCH   5   6
ENDBRANCH   4   5
ENDBRANCH   3   4
ENDBRANCH   2   3
ENDBRANCH   1   2
BRANCH   1  11
ATOM     11  C   UNL     1      23.284   5.689  13.967  1.00  0.00     0.000 C 
BRANCH  11  12
ATOM     12  C   UNL     1      23.413   4.717  15.150  1.00  0.00    -0.000 C 
BRANCH  12  13
ATOM     13  C   UNL     1      24.266   3.486  14.814  1.00  0.00    -0.000 C 
BRANCH  13  14
ATOM     14  C   UNL     1      24.872   3.555  13.400  1.00  0.00    -0.000 C 
BRANCH  14  15
ATOM     15  C   UNL     1      26.367   3.188  13.374  1.00  0.00    -0.000 C 
BRANCH  15  16
ATOM     16  C   UNL     1      27.305   4.317  12.903  1.00  0.00    -0.000 C 
BRANCH  16  17
ATOM     17  C   UNL     1      27.249   5.604  13.746  1.00  0.00    -0.003 C 
ATOM     18  C   UNL     1      28.053   6.750  13.135  1.00  0.00     0.004 C 
ENDBRANCH  16  17
ENDBRANCH  15  16
ENDBRANCH  14  15
ENDBRANCH  13  14
ENDBRANCH  12  13
ENDBRANCH  11  12
ENDBRANCH   1  11
TORSDOF 14
ENDMDL
MODEL 6
REMARK VINA RESULT:    -4.336      3.241      5.076
REMARK INTER + INTRA:          -9.545
REMARK INTER:                  -8.410
REMARK INTRA:                  -1.135
REMARK UNBOUND:                -1.660
REMARK SMILES CCCCCCCCCCCCCCCC(=O)[O-]
REMARK SMILES IDX 9 1 10 2 11 3 12 4 13 5 14 6 15 7 16 8 17 9 18 10 8 11 7 12
REMARK SMILES IDX 6 13 5 14 4 15 3 16 2 17 1 18
REMARK H PARENT
REMARK Flexibility Score: inf
ROOT
ATOM      1  C   UNL     1      23.992   8.483  16.953  1.00  0.00     0.000 C 
ENDROOT
BRANCH   1   2
ATOM      2  C   UNL     1      23.238   7.521  16.021  1.00  0.00     0.000 C 
BRANCH   2   3
ATOM      3  C   UNL     1      24.106   6.338  15.564  1.00  0.00     0.000 C 
BRANCH   3   4
ATOM      4  C   UNL     1      23.275   5.186  14.977  1.00  0.00     0.000 C 
BRANCH   4   5
ATOM      5  C   UNL     1      24.118   3.905  14.867  1.00  0.00     0.000 C 
BRANCH   5   6
ATOM      6  C   UNL     1      24.991   3.878  13.602  1.00  0.00     0.006 C 
BRANCH   6   7
ATOM      7  C   UNL     1      25.983   2.708  13.594  1.00  0.00     0.053 C 
BRANCH   7   8
ATOM      8  C   UNL     1      27.080   2.961  12.609  1.00  0.00     0.041 C 
ATOM      9  O   UNL     1      26.805   3.246  11.414  1.00  0.00    -0.550 OA
ATOM     10  O   UNL     1      28.406   2.932  13.022  1.00  0.00    -0.550 OA
ENDBRANCH   7   8
ENDBRANCH   6   7
ENDBRANCH   5   6
ENDBRANCH   4   5
ENDBRANCH   3   4
ENDBRANCH   2   3
ENDBRANCH   1   2
BRANCH   1  11
ATOM     11  C   UNL     1      23.147   8.825  18.186  1.00  0.00     0.000 C 
BRANCH  11  12
ATOM     12  C   UNL     1      21.653   8.882  17.832  1.00  0.00    -0.000 C 
BRANCH  12  13
ATOM     13  C   UNL     1      21.079  10.304  17.924  1.00  0.00    -0.000 C 
BRANCH  13  14
ATOM     14  C   UNL     1      20.695  10.876  16.547  1.00  0.00    -0.000 C 
BRANCH  14  15
ATOM     15  C   UNL     1      21.913  11.363  15.743  1.00  0.00    -0.000 C 
BRANCH  15  16
ATOM     16  C   UNL     1      22.042  10.760  14.330  1.00  0.00    -0.000 C 
BRANCH  16  17
ATOM     17  C   UNL     1      20.717  10.618  13.560  1.00  0.00    -0.003 C 
ATOM     18  C   UNL     1      20.358  11.867  12.757  1.00  0.00     0.004 C 
ENDBRANCH  16  17
ENDBRANCH  15  16
ENDBRANCH  14  15
ENDBRANCH  13  14
ENDBRANCH  12  13
ENDBRANCH  11  12
ENDBRANCH   1  11
TORSDOF 14
ENDMDL
MODEL 7
REMARK VINA RESULT:    -4.289      5.290      7.556
REMARK INTER + INTRA:          -9.459
REMARK INTER:                  -7.689
REMARK INTRA:                  -1.770
REMARK UNBOUND:                -1.660
REMARK SMILES CCCCCCCCCCCCCCCC(=O)[O-]
REMARK SMILES IDX 9 1 10 2 11 3 12 4 13 5 14 6 15 7 16 8 17 9 18 10 8 11 7 12
REMARK SMILES IDX 6 13 5 14 4 15 3 16 2 17 1 18
REMARK H PARENT
REMARK Flexibility Score: inf
ROOT
ATOM      1  C   UNL     1      22.844   8.887  18.219  1.00  0.00     0.000 C 
ENDROOT
BRANCH   1   2
ATOM      2  C   UNL     1      21.361   9.285  18.145  1.00  0.00     0.000 C 
BRANCH   2   3
ATOM      3  C   UNL     1      21.160  10.805  18.045  1.00  0.00     0.000 C 
BRANCH   3   4
ATOM      4  C   UNL     1      21.602  11.374  16.687  1.00  0.00     0.000 C 
BRANCH   4   5
ATOM      5  C   UNL     1      20.569  11.049  15.596  1.00  0.00     0.000 C 
BRANCH   5   6
ATOM      6  C   UNL     1      20.933  11.664  14.235  1.00  0.00     0.006 C 
BRANCH   6   7
ATOM      7  C   UNL     1      20.478  10.797  13.055  1.00  0.00     0.053 C 
BRANCH   7   8
ATOM      8  C   UNL     1      19.745  11.627  12.049  1.00  0.00     0.041 C 
ATOM      9  O   UNL     1      18.746  11.155  11.446  1.00  0.00    -0.550 OA
ATOM     10  O   UNL     1      20.135  12.939  11.814  1.00  0.00    -0.550 OA
ENDBRANCH   7   8
ENDBRANCH   6   7
ENDBRANCH   5   6
ENDBRANCH   4   5
ENDBRANCH   3   4
ENDBRANCH   2   3
ENDBRANCH   1   2
BRANCH   1  11
ATOM     11  C   UNL     1      23.229   7.987  17.039  1.00  0.00     0.000 C 
BRANCH  11  12
ATOM     12  C   UNL     1      24.481   8.520  16.326  1.00  0.00    -0.000 C 
BRANCH  12  13
ATOM     13  C   UNL     1      24.201   8.941  14.876  1.00  0.00    -0.000 C 
BRANCH  13  14
ATOM     14  C   UNL     1      22.892   8.343  14.329  1.00  0.00    -0.000 C 
BRANCH  14  15
ATOM     15  C   UNL     1      23.129   7.136  13.405  1.00  0.00    -0.000 C 
BRANCH  15  16
ATOM     16  C   UNL     1      22.804   5.765  14.031  1.00  0.00    -0.000 C 
BRANCH  16  17
ATOM     17  C   UNL     1      23.942   5.141  14.859  1.00  0.00    -0.003 C 
ATOM     18  C   UNL     1      24.416   3.800  14.304  1.00  0.00     0.004 C 
ENDBRANCH  16  17
ENDBRANCH  15  16
ENDBRANCH  14  15
ENDBRANCH  13  14
ENDBRANCH  12  13
ENDBRANCH  11  12
ENDBRANCH   1  11
TORSDOF 14
ENDMDL
MODEL 8
REMARK VINA RESULT:    -4.257      3.712      6.944
REMARK INTER + INTRA:          -9.402
REMARK INTER:                  -7.390
REMARK INTRA:                  -2.012
REMARK UNBOUND:                -1.660
REMARK SMILES CCCCCCCCCCCCCCCC(=O)[O-]
REMARK SMILES IDX 9 1 10 2 11 3 12 4 13 5 14 6 15 7 16 8 17 9 18 10 8 11 7 12
REMARK SMILES IDX 6 13 5 14 4 15 3 16 2 17 1 18
REMARK H PARENT
REMARK Flexibility Score: inf
ROOT
ATOM      1  C   UNL     1      27.236   6.508  14.800  1.00  0.00     0.000 C 
ENDROOT
BRANCH   1   2
ATOM      2  C   UNL     1      27.669   6.392  13.330  1.00  0.00     0.000 C 
BRANCH   2   3
ATOM      3  C   UNL     1      28.760   7.406  12.953  1.00  0.00     0.000 C 
BRANCH   3   4
ATOM      4  C   UNL     1      28.396   8.234  11.711  1.00  0.00     0.000 C 
BRANCH   4   5
ATOM      5  C   UNL     1      28.324   9.731  12.053  1.00  0.00     0.000 C 
BRANCH   5   6
ATOM      6  C   UNL     1      26.897  10.293  11.953  1.00  0.00     0.006 C 
BRANCH   6   7
ATOM      7  C   UNL     1      26.614  11.378  12.999  1.00  0.00     0.053 C 
BRANCH   7   8
ATOM      8  C   UNL     1      26.845  12.737  12.417  1.00  0.00     0.041 C 
ATOM      9  O   UNL     1      27.819  13.434  12.802  1.00  0.00    -0.550 OA
ATOM     10  O   UNL     1      26.012  13.214  11.412  1.00  0.00    -0.550 OA
ENDBRANCH   7   8
ENDBRANCH   6   7
ENDBRANCH   5   6
ENDBRANCH   4   5
ENDBRANCH   3   4
ENDBRANCH   2   3
ENDBRANCH   1   2
BRANCH   1  11
ATOM     11  C   UNL     1      26.326   7.725  15.008  1.00  0.00     0.000 C 
BRANCH  11  12
ATOM     12  C   UNL     1      25.183   7.740  13.981  1.00  0.00    -0.000 C 
BRANCH  12  13
ATOM     13  C   UNL     1      23.798   7.823  14.640  1.00  0.00    -0.000 C 
BRANCH  13  14
ATOM     14  C   UNL     1      23.473   6.581  15.491  1.00  0.00    -0.000 C 
BRANCH  14  15
ATOM     15  C   UNL     1      23.183   5.334  14.638  1.00  0.00    -0.000 C 
BRANCH  15  16
ATOM     16  C   UNL     1      24.220   4.200  14.772  1.00  0.00    -0.000 C 
BRANCH  16  17
ATOM     17  C   UNL     1      24.959   3.837  13.472  1.00  0.00    -0.003 C 
ATOM     18  C   UNL     1      25.995   2.732  13.665  1.00  0.00     0.004 C 
ENDBRANCH  16  17
ENDBRANCH  15  16
ENDBRANCH  14  15
ENDBRANCH  13  14
ENDBRANCH  12  13
ENDBRANCH  11  12
ENDBRANCH   1  11
TORSDOF 14
ENDMDL
MODEL 9
REMARK VINA RESULT:    -4.256     10.028     11.817
REMARK INTER + INTRA:          -9.400
REMARK INTER:                  -8.170
REMARK INTRA:                  -1.230
REMARK UNBOUND:                -1.660
REMARK SMILES CCCCCCCCCCCCCCCC(=O)[O-]
REMARK SMILES IDX 9 1 10 2 11 3 12 4 13 5 14 6 15 7 16 8 17 9 18 10 8 11 7 12
REMARK SMILES IDX 6 13 5 14 4 15 3 16 2 17 1 18
REMARK H PARENT
REMARK Flexibility Score: inf
ROOT
ATOM      1  C   UNL     1      18.374   7.911   2.934  1.00  0.00     0.000 C 
ENDROOT
BRANCH   1   2
ATOM      2  C   UNL     1      17.732   7.295   4.186  1.00  0.00     0.000 C 
BRANCH   2   3
ATOM      3  C   UNL     1      17.953   8.148   5.445  1.00  0.00     0.000 C 
BRANCH   3   4
ATOM      4  C   UNL     1      17.685   7.370   6.743  1.00  0.00     0.000 C 
BRANCH   4   5
ATOM      5  C   UNL     1      16.194   7.421   7.114  1.00  0.00     0.000 C 
BRANCH   5   6
ATOM      6  C   UNL     1      15.910   8.356   8.300  1.00  0.00     0.006 C 
BRANCH   6   7
ATOM      7  C   UNL     1      17.148   9.149   8.738  1.00  0.00     0.053 C 
BRANCH   7   8
ATOM      8  C   UNL     1      16.882   9.864  10.024  1.00  0.00     0.041 C 
ATOM      9  O   UNL     1      15.758  10.391  10.235  1.00  0.00    -0.550 OA
ATOM     10  O   UNL     1      17.857   9.905  11.012  1.00  0.00    -0.550 OA
ENDBRANCH   7   8
ENDBRANCH   6   7
ENDBRANCH   5   6
ENDBRANCH   4   5
ENDBRANCH   3   4
ENDBRANCH   2   3
ENDBRANCH   1   2
BRANCH   1  11
ATOM     11  C   UNL     1      19.735   7.269   2.643  1.00  0.00     0.000 C 
BRANCH  11  12
ATOM     12  C   UNL     1      19.605   5.745   2.497  1.00  0.00    -0.000 C 
BRANCH  12  13
ATOM     13  C   UNL     1      20.552   4.978   3.433  1.00  0.00    -0.000 C 
BRANCH  13  14
ATOM     14  C   UNL     1      21.230   5.894   4.467  1.00  0.00    -0.000 C 
BRANCH  14  15
ATOM     15  C   UNL     1      20.910   5.494   5.918  1.00  0.00    -0.000 C 
BRANCH  15  16
ATOM     16  C   UNL     1      22.132   5.081   6.763  1.00  0.00    -0.000 C 
BRANCH  16  17
ATOM     17  C   UNL     1      23.465   5.724   6.338  1.00  0.00    -0.003 C 
ATOM     18  C   UNL     1      24.627   4.734   6.329  1.00  0.00     0.004 C 
ENDBRANCH  16  17
ENDBRANCH  15  16
ENDBRANCH  14  15
ENDBRANCH  13  14
ENDBRANCH  12  13
ENDBRANCH  11  12
ENDBRANCH   1  11
TORSDOF 14
ENDMDL
