MODEL 1
REMARK VINA RESULT:    -5.624      0.000      0.000
REMARK INTER + INTRA:          -5.953
REMARK INTER:                  -5.953
REMARK INTRA:                   0.000
REMARK UNBOUND:                 0.000
REMARK SMILES O=c1ccc2cc(O)c(O)cc2o1
REMARK SMILES IDX 4 1 3 2 2 3 1 4 13 5 12 6 11 7 9 8 7 9 6 10 5 11 8 12 10 14
REMARK H PARENT 8 13 10 15
REMARK Flexibility Score: inf
ROOT
ATOM      1  C   UNL     1     -10.104  -3.983   4.170  1.00  0.00     0.019 A 
ATOM      2  C   UNL     1     -10.500  -2.716   4.598  1.00  0.00     0.094 A 
ATOM      3  C   UNL     1     -10.021  -2.233   5.820  1.00  0.00     0.336 A 
ATOM      4  O   UNL     1     -10.368  -1.091   6.223  1.00  0.00    -0.246 OA
ATOM      5  O   UNL     1      -9.200  -2.971   6.561  1.00  0.00    -0.423 OA
ATOM      6  C   UNL     1      -8.798  -4.184   6.190  1.00  0.00     0.142 A 
ATOM      7  C   UNL     1      -7.933  -4.916   7.011  1.00  0.00     0.098 A 
ATOM      8  C   UNL     1      -7.506  -6.194   6.626  1.00  0.00     0.161 A 
ATOM      9  C   UNL     1      -7.946  -6.745   5.413  1.00  0.00     0.158 A 
ATOM     10  C   UNL     1      -8.813  -6.016   4.585  1.00  0.00     0.062 A 
ATOM     11  C   UNL     1      -9.240  -4.738   4.970  1.00  0.00     0.022 A 
ENDROOT
BRANCH   9  12
ATOM     12  O   UNL     1      -7.516  -8.017   5.037  1.00  0.00    -0.504 OA
ATOM     13  H   UNL     1      -7.293  -8.238   4.074  1.00  0.00     0.293 HD
ENDBRANCH   9  12
BRANCH   8  14
ATOM     14  O   UNL     1      -6.644  -6.926   7.443  1.00  0.00    -0.504 OA
ATOM     15  H   UNL     1      -6.253  -7.811   7.142  1.00  0.00     0.293 HD
ENDBRANCH   8  14
TORSDOF 2
ENDMDL
MODEL 2
REMARK VINA RESULT:    -5.606      1.524      4.684
REMARK INTER + INTRA:          -5.934
REMARK INTER:                  -5.934
REMARK INTRA:                   0.000
REMARK UNBOUND:                 0.000
REMARK SMILES O=c1ccc2cc(O)c(O)cc2o1
REMARK SMILES IDX 4 1 3 2 2 3 1 4 13 5 12 6 11 7 9 8 7 9 6 10 5 11 8 12 10 14
REMARK H PARENT 8 13 10 15
REMARK Flexibility Score: inf
ROOT
ATOM      1  C   UNL     1      -9.149  -6.906   3.312  1.00  0.00     0.019 A 
ATOM      2  C   UNL     1      -8.633  -8.145   2.931  1.00  0.00     0.094 A 
ATOM      3  C   UNL     1      -7.676  -8.760   3.745  1.00  0.00     0.336 A 
ATOM      4  O   UNL     1      -7.199  -9.878   3.418  1.00  0.00    -0.246 OA
ATOM      5  O   UNL     1      -7.266  -8.171   4.865  1.00  0.00    -0.423 OA
ATOM      6  C   UNL     1      -7.732  -6.990   5.265  1.00  0.00     0.142 A 
ATOM      7  C   UNL     1      -7.263  -6.419   6.452  1.00  0.00     0.098 A 
ATOM      8  C   UNL     1      -7.750  -5.175   6.878  1.00  0.00     0.161 A 
ATOM      9  C   UNL     1      -8.711  -4.498   6.112  1.00  0.00     0.158 A 
ATOM     10  C   UNL     1      -9.185  -5.066   4.921  1.00  0.00     0.062 A 
ATOM     11  C   UNL     1      -8.699  -6.309   4.494  1.00  0.00     0.022 A 
ENDROOT
BRANCH   9  12
ATOM     12  O   UNL     1      -9.190  -3.262   6.542  1.00  0.00    -0.504 OA
ATOM     13  H   UNL     1      -9.152  -2.442   5.949  1.00  0.00     0.293 HD
ENDBRANCH   9  12
BRANCH   8  14
ATOM     14  O   UNL     1      -7.284  -4.602   8.061  1.00  0.00    -0.504 OA
ATOM     15  H   UNL     1      -6.368  -4.174   8.117  1.00  0.00     0.293 HD
ENDBRANCH   8  14
TORSDOF 2
ENDMDL
MODEL 3
REMARK VINA RESULT:    -5.196      1.937      3.411
REMARK INTER + INTRA:          -5.499
REMARK INTER:                  -5.499
REMARK INTRA:                   0.000
REMARK UNBOUND:                 0.000
REMARK SMILES O=c1ccc2cc(O)c(O)cc2o1
REMARK SMILES IDX 4 1 3 2 2 3 1 4 13 5 12 6 11 7 9 8 7 9 6 10 5 11 8 12 10 14
REMARK H PARENT 8 13 10 15
REMARK Flexibility Score: inf
ROOT
ATOM      1  C   UNL     1      -7.274  -5.869   6.074  1.00  0.00     0.019 A 
ATOM      2  C   UNL     1      -7.656  -4.588   6.468  1.00  0.00     0.094 A 
ATOM      3  C   UNL     1      -8.859  -4.060   5.984  1.00  0.00     0.336 A 
ATOM      4  O   UNL     1      -9.221  -2.905   6.330  1.00  0.00    -0.246 OA
ATOM      5  O   UNL     1      -9.624  -4.772   5.162  1.00  0.00    -0.423 OA
ATOM      6  C   UNL     1      -9.296  -5.999   4.762  1.00  0.00     0.142 A 
ATOM      7  C   UNL     1     -10.140  -6.700   3.894  1.00  0.00     0.098 A 
ATOM      8  C   UNL     1      -9.799  -7.992   3.469  1.00  0.00     0.161 A 
ATOM      9  C   UNL     1      -8.607  -8.585   3.912  1.00  0.00     0.158 A 
ATOM     10  C   UNL     1      -7.757  -7.887   4.782  1.00  0.00     0.062 A 
ATOM     11  C   UNL     1      -8.097  -6.595   5.207  1.00  0.00     0.022 A 
ENDROOT
BRANCH   9  12
ATOM     12  O   UNL     1      -8.277  -9.870   3.485  1.00  0.00    -0.504 OA
ATOM     13  H   UNL     1      -7.312 -10.158   3.365  1.00  0.00     0.293 HD
ENDBRANCH   9  12
BRANCH   8  14
ATOM     14  O   UNL     1     -10.639  -8.694   2.604  1.00  0.00    -0.504 OA
ATOM     15  H   UNL     1     -11.322  -9.356   2.951  1.00  0.00     0.293 HD
ENDBRANCH   8  14
TORSDOF 2
ENDMDL
MODEL 4
REMARK VINA RESULT:    -5.162      2.290      3.911
REMARK INTER + INTRA:          -5.463
REMARK INTER:                  -5.463
REMARK INTRA:                   0.000
REMARK UNBOUND:                 0.000
REMARK SMILES O=c1ccc2cc(O)c(O)cc2o1
REMARK SMILES IDX 4 1 3 2 2 3 1 4 13 5 12 6 11 7 9 8 7 9 6 10 5 11 8 12 10 14
REMARK H PARENT 8 13 10 15
REMARK Flexibility Score: inf
ROOT
ATOM      1  C   UNL     1      -7.273  -6.651   5.834  1.00  0.00     0.019 A 
ATOM      2  C   UNL     1      -7.379  -5.901   7.006  1.00  0.00     0.094 A 
ATOM      3  C   UNL     1      -8.342  -4.889   7.078  1.00  0.00     0.336 A 
ATOM      4  O   UNL     1      -8.454  -4.202   8.128  1.00  0.00    -0.246 OA
ATOM      5  O   UNL     1      -9.144  -4.646   6.044  1.00  0.00    -0.423 OA
ATOM      6  C   UNL     1      -9.076  -5.338   4.909  1.00  0.00     0.142 A 
ATOM      7  C   UNL     1      -9.944  -5.038   3.855  1.00  0.00     0.098 A 
ATOM      8  C   UNL     1      -9.877  -5.762   2.656  1.00  0.00     0.161 A 
ATOM      9  C   UNL     1      -8.935  -6.792   2.511  1.00  0.00     0.158 A 
ATOM     10  C   UNL     1      -8.062  -7.097   3.564  1.00  0.00     0.062 A 
ATOM     11  C   UNL     1      -8.128  -6.374   4.763  1.00  0.00     0.022 A 
ENDROOT
BRANCH   9  12
ATOM     12  O   UNL     1      -8.875  -7.507   1.316  1.00  0.00    -0.504 OA
ATOM     13  H   UNL     1      -9.642  -8.095   1.011  1.00  0.00     0.293 HD
ENDBRANCH   9  12
BRANCH   8  14
ATOM     14  O   UNL     1     -10.742  -5.465   1.603  1.00  0.00    -0.504 OA
ATOM     15  H   UNL     1     -10.593  -5.839   0.673  1.00  0.00     0.293 HD
ENDBRANCH   8  14
TORSDOF 2
ENDMDL
MODEL 5
REMARK VINA RESULT:    -5.152      2.491      4.399
REMARK INTER + INTRA:          -5.453
REMARK INTER:                  -5.453
REMARK INTRA:                   0.000
REMARK UNBOUND:                 0.000
REMARK SMILES O=c1ccc2cc(O)c(O)cc2o1
REMARK SMILES IDX 4 1 3 2 2 3 1 4 13 5 12 6 11 7 9 8 7 9 6 10 5 11 8 12 10 14
REMARK H PARENT 8 13 10 15
REMARK Flexibility Score: inf
ROOT
ATOM      1  C   UNL     1      -8.720  -4.657   6.022  1.00  0.00     0.019 A 
ATOM      2  C   UNL     1      -7.902  -5.101   7.060  1.00  0.00     0.094 A 
ATOM      3  C   UNL     1      -7.306  -6.363   6.962  1.00  0.00     0.336 A 
ATOM      4  O   UNL     1      -6.563  -6.780   7.889  1.00  0.00    -0.246 OA
ATOM      5  O   UNL     1      -7.517  -7.126   5.893  1.00  0.00    -0.423 OA
ATOM      6  C   UNL     1      -8.290  -6.740   4.881  1.00  0.00     0.142 A 
ATOM      7  C   UNL     1      -8.477  -7.586   3.782  1.00  0.00     0.098 A 
ATOM      8  C   UNL     1      -9.291  -7.186   2.713  1.00  0.00     0.161 A 
ATOM      9  C   UNL     1      -9.923  -5.934   2.743  1.00  0.00     0.158 A 
ATOM     10  C   UNL     1      -9.739  -5.082   3.841  1.00  0.00     0.062 A 
ATOM     11  C   UNL     1      -8.926  -5.481   4.911  1.00  0.00     0.022 A 
ENDROOT
BRANCH   9  12
ATOM     12  O   UNL     1     -10.730  -5.544   1.676  1.00  0.00    -0.504 OA
ATOM     13  H   UNL     1     -11.378  -4.769   1.756  1.00  0.00     0.293 HD
ENDBRANCH   9  12
BRANCH   8  14
ATOM     14  O   UNL     1      -9.478  -8.027   1.617  1.00  0.00    -0.504 OA
ATOM     15  H   UNL     1      -9.294  -9.022   1.674  1.00  0.00     0.293 HD
ENDBRANCH   8  14
TORSDOF 2
ENDMDL
MODEL 6
REMARK VINA RESULT:    -5.102      2.024      4.610
REMARK INTER + INTRA:          -5.400
REMARK INTER:                  -5.400
REMARK INTRA:                   0.000
REMARK UNBOUND:                 0.000
REMARK SMILES O=c1ccc2cc(O)c(O)cc2o1
REMARK SMILES IDX 4 1 3 2 2 3 1 4 13 5 12 6 11 7 9 8 7 9 6 10 5 11 8 12 10 14
REMARK H PARENT 8 13 10 15
REMARK Flexibility Score: inf
ROOT
ATOM      1  C   UNL     1      -7.843  -8.125   4.479  1.00  0.00     0.019 A 
ATOM      2  C   UNL     1      -8.489  -8.600   3.338  1.00  0.00     0.094 A 
ATOM      3  C   UNL     1      -9.444  -7.790   2.713  1.00  0.00     0.336 A 
ATOM      4  O   UNL     1     -10.037  -8.200   1.681  1.00  0.00    -0.246 OA
ATOM      5  O   UNL     1      -9.730  -6.586   3.202  1.00  0.00    -0.423 OA
ATOM      6  C   UNL     1      -9.137  -6.096   4.289  1.00  0.00     0.142 A 
ATOM      7  C   UNL     1      -9.479  -4.824   4.758  1.00  0.00     0.098 A 
ATOM      8  C   UNL     1      -8.859  -4.302   5.902  1.00  0.00     0.161 A 
ATOM      9  C   UNL     1      -7.891  -5.058   6.581  1.00  0.00     0.158 A 
ATOM     10  C   UNL     1      -7.544  -6.334   6.116  1.00  0.00     0.062 A 
ATOM     11  C   UNL     1      -8.164  -6.856   4.972  1.00  0.00     0.022 A 
ENDROOT
BRANCH   9  12
ATOM     12  O   UNL     1      -7.279  -4.532   7.718  1.00  0.00    -0.504 OA
ATOM     13  H   UNL     1      -7.280  -5.031   8.600  1.00  0.00     0.293 HD
ENDBRANCH   9  12
BRANCH   8  14
ATOM     14  O   UNL     1      -9.198  -3.034   6.371  1.00  0.00    -0.504 OA
ATOM     15  H   UNL     1      -9.478  -2.292   5.740  1.00  0.00     0.293 HD
ENDBRANCH   8  14
TORSDOF 2
ENDMDL
MODEL 7
REMARK VINA RESULT:    -5.095      1.985      4.120
REMARK INTER + INTRA:          -5.393
REMARK INTER:                  -5.393
REMARK INTRA:                   0.000
REMARK UNBOUND:                 0.000
REMARK SMILES O=c1ccc2cc(O)c(O)cc2o1
REMARK SMILES IDX 4 1 3 2 2 3 1 4 13 5 12 6 11 7 9 8 7 9 6 10 5 11 8 12 10 14
REMARK H PARENT 8 13 10 15
REMARK Flexibility Score: inf
ROOT
ATOM      1  C   UNL     1      -9.926  -5.244   3.052  1.00  0.00     0.019 A 
ATOM      2  C   UNL     1      -9.932  -6.068   1.926  1.00  0.00     0.094 A 
ATOM      3  C   UNL     1      -9.147  -7.226   1.931  1.00  0.00     0.336 A 
ATOM      4  O   UNL     1      -9.139  -7.982   0.924  1.00  0.00    -0.246 OA
ATOM      5  O   UNL     1      -8.408  -7.536   2.993  1.00  0.00    -0.423 OA
ATOM      6  C   UNL     1      -8.375  -6.777   4.086  1.00  0.00     0.142 A 
ATOM      7  C   UNL     1      -7.578  -7.153   5.173  1.00  0.00     0.098 A 
ATOM      8  C   UNL     1      -7.538  -6.358   6.327  1.00  0.00     0.161 A 
ATOM      9  C   UNL     1      -8.299  -5.181   6.395  1.00  0.00     0.158 A 
ATOM     10  C   UNL     1      -9.099  -4.799   5.309  1.00  0.00     0.062 A 
ATOM     11  C   UNL     1      -9.139  -5.593   4.154  1.00  0.00     0.022 A 
ENDROOT
BRANCH   9  12
ATOM     12  O   UNL     1      -8.254  -4.397   7.546  1.00  0.00    -0.504 OA
ATOM     13  H   UNL     1      -8.878  -4.563   8.327  1.00  0.00     0.293 HD
ENDBRANCH   9  12
BRANCH   8  14
ATOM     14  O   UNL     1      -6.745  -6.730   7.412  1.00  0.00    -0.504 OA
ATOM     15  H   UNL     1      -6.238  -6.043   7.958  1.00  0.00     0.293 HD
ENDBRANCH   8  14
TORSDOF 2
ENDMDL
MODEL 8
REMARK VINA RESULT:    -5.084      3.492      4.761
REMARK INTER + INTRA:          -5.381
REMARK INTER:                  -5.381
REMARK INTRA:                   0.000
REMARK UNBOUND:                 0.000
REMARK SMILES O=c1ccc2cc(O)c(O)cc2o1
REMARK SMILES IDX 4 1 3 2 2 3 1 4 13 5 12 6 11 7 9 8 7 9 6 10 5 11 8 12 10 14
REMARK H PARENT 8 13 10 15
REMARK Flexibility Score: inf
ROOT
ATOM      1  C   UNL     1      -9.011  -8.095   1.326  1.00  0.00     0.019 A 
ATOM      2  C   UNL     1      -9.702  -7.619   0.212  1.00  0.00     0.094 A 
ATOM      3  C   UNL     1     -10.411  -6.417   0.317  1.00  0.00     0.336 A 
ATOM      4  O   UNL     1     -11.040  -5.970  -0.678  1.00  0.00    -0.246 OA
ATOM      5  O   UNL     1     -10.424  -5.740   1.462  1.00  0.00    -0.423 OA
ATOM      6  C   UNL     1      -9.779  -6.160   2.548  1.00  0.00     0.142 A 
ATOM      7  C   UNL     1      -9.829  -5.407   3.726  1.00  0.00     0.098 A 
ATOM      8  C   UNL     1      -9.152  -5.844   4.873  1.00  0.00     0.161 A 
ATOM      9  C   UNL     1      -8.421  -7.041   4.843  1.00  0.00     0.158 A 
ATOM     10  C   UNL     1      -8.366  -7.800   3.665  1.00  0.00     0.062 A 
ATOM     11  C   UNL     1      -9.043  -7.364   2.518  1.00  0.00     0.022 A 
ENDROOT
BRANCH   9  12
ATOM     12  O   UNL     1      -7.750  -7.468   5.987  1.00  0.00    -0.504 OA
ATOM     13  H   UNL     1      -8.212  -8.028   6.695  1.00  0.00     0.293 HD
ENDBRANCH   9  12
BRANCH   8  14
ATOM     14  O   UNL     1      -9.201  -5.095   6.048  1.00  0.00    -0.504 OA
ATOM     15  H   UNL     1      -8.846  -4.147   6.088  1.00  0.00     0.293 HD
ENDBRANCH   8  14
TORSDOF 2
ENDMDL
MODEL 9
REMARK VINA RESULT:    -4.783      3.786      5.892
REMARK INTER + INTRA:          -5.063
REMARK INTER:                  -5.063
REMARK INTRA:                   0.000
REMARK UNBOUND:                 0.000
REMARK SMILES O=c1ccc2cc(O)c(O)cc2o1
REMARK SMILES IDX 4 1 3 2 2 3 1 4 13 5 12 6 11 7 9 8 7 9 6 10 5 11 8 12 10 14
REMARK H PARENT 8 13 10 15
REMARK Flexibility Score: inf
ROOT
ATOM      1  C   UNL     1      -7.992  -9.009   2.798  1.00  0.00     0.019 A 
ATOM      2  C   UNL     1      -7.610  -8.852   4.130  1.00  0.00     0.094 A 
ATOM      3  C   UNL     1      -7.977  -7.684   4.807  1.00  0.00     0.336 A 
ATOM      4  O   UNL     1      -7.642  -7.524   6.011  1.00  0.00    -0.246 OA
ATOM      5  O   UNL     1      -8.681  -6.740   4.189  1.00  0.00    -0.423 OA
ATOM      6  C   UNL     1      -9.065  -6.850   2.919  1.00  0.00     0.142 A 
ATOM      7  C   UNL     1      -9.802  -5.824   2.320  1.00  0.00     0.098 A 
ATOM      8  C   UNL     1     -10.210  -5.934   0.983  1.00  0.00     0.161 A 
ATOM      9  C   UNL     1      -9.877  -7.078   0.240  1.00  0.00     0.158 A 
ATOM     10  C   UNL     1      -9.137  -8.110   0.836  1.00  0.00     0.062 A 
ATOM     11  C   UNL     1      -8.730  -8.000   2.172  1.00  0.00     0.022 A 
ENDROOT
BRANCH   9  12
ATOM     12  O   UNL     1     -10.286  -7.179  -1.088  1.00  0.00    -0.504 OA
ATOM     13  H   UNL     1      -9.876  -7.858  -1.719  1.00  0.00     0.293 HD
ENDBRANCH   9  12
BRANCH   8  14
ATOM     14  O   UNL     1     -10.945  -4.913   0.383  1.00  0.00    -0.504 OA
ATOM     15  H   UNL     1     -11.304  -5.002  -0.560  1.00  0.00     0.293 HD
ENDBRANCH   8  14
TORSDOF 2
ENDMDL
