MODEL 1
REMARK VINA RESULT:    -3.496      0.000      0.000
REMARK INTER + INTRA:          -9.246
REMARK INTER:                  -6.357
REMARK INTRA:                  -2.889
REMARK UNBOUND:                -2.889
REMARK SMILES CCCCCCCCCCCCCCCC(=O)[O-]
REMARK SMILES IDX 9 1 10 2 11 3 12 4 13 5 14 6 15 7 16 8 17 9 18 10 8 11 7 12
REMARK SMILES IDX 6 13 5 14 4 15 3 16 2 17 1 18
REMARK H PARENT
REMARK Flexibility Score: inf
ROOT
ATOM      1  C   UNL     1      28.754  16.802  57.472  1.00  0.00     0.000 C 
ENDROOT
BRANCH   1   2
ATOM      2  C   UNL     1      27.931  16.083  56.387  1.00  0.00     0.000 C 
BRANCH   2   3
ATOM      3  C   UNL     1      28.709  15.891  55.077  1.00  0.00     0.000 C 
BRANCH   3   4
ATOM      4  C   UNL     1      28.113  16.749  53.956  1.00  0.00     0.000 C 
BRANCH   4   5
ATOM      5  C   UNL     1      26.580  16.703  53.981  1.00  0.00     0.000 C 
BRANCH   5   6
ATOM      6  C   UNL     1      25.982  18.054  53.571  1.00  0.00     0.006 C 
BRANCH   6   7
ATOM      7  C   UNL     1      27.004  18.898  52.806  1.00  0.00     0.053 C 
BRANCH   7   8
ATOM      8  C   UNL     1      26.459  20.267  52.541  1.00  0.00     0.041 C 
ATOM      9  O   UNL     1      25.329  20.405  52.003  1.00  0.00    -0.550 OA
ATOM     10  O   UNL     1      27.178  21.389  52.931  1.00  0.00    -0.550 OA
ENDBRANCH   7   8
ENDBRANCH   6   7
ENDBRANCH   5   6
ENDBRANCH   4   5
ENDBRANCH   3   4
ENDBRANCH   2   3
ENDBRANCH   1   2
BRANCH   1  11
ATOM     11  C   UNL     1      28.118  18.091  58.028  1.00  0.00     0.000 C 
BRANCH  11  12
ATOM     12  C   UNL     1      27.100  18.772  57.095  1.00  0.00    -0.000 C 
BRANCH  12  13
ATOM     13  C   UNL     1      27.690  19.975  56.345  1.00  0.00    -0.000 C 
BRANCH  13  14
ATOM     14  C   UNL     1      28.941  20.508  57.059  1.00  0.00    -0.000 C 
BRANCH  14  15
ATOM     15  C   UNL     1      30.175  20.550  56.142  1.00  0.00    -0.000 C 
BRANCH  15  16
ATOM     16  C   UNL     1      29.933  19.861  54.791  1.00  0.00    -0.000 C 
BRANCH  16  17
ATOM     17  C   UNL     1      31.053  18.863  54.476  1.00  0.00    -0.003 C 
ATOM     18  C   UNL     1      31.634  18.263  55.752  1.00  0.00     0.004 C 
ENDBRANCH  16  17
ENDBRANCH  15  16
ENDBRANCH  14  15
ENDBRANCH  13  14
ENDBRANCH  12  13
ENDBRANCH  11  12
ENDBRANCH   1  11
TORSDOF 14
ENDMDL
MODEL 2
REMARK VINA RESULT:    -3.484      2.290      4.403
REMARK INTER + INTRA:          -9.225
REMARK INTER:                  -6.651
REMARK INTRA:                  -2.574
REMARK UNBOUND:                -2.889
REMARK SMILES CCCCCCCCCCCCCCCC(=O)[O-]
REMARK SMILES IDX 9 1 10 2 11 3 12 4 13 5 14 6 15 7 16 8 17 9 18 10 8 11 7 12
REMARK SMILES IDX 6 13 5 14 4 15 3 16 2 17 1 18
REMARK H PARENT
REMARK Flexibility Score: inf
ROOT
ATOM      1  C   UNL     1      27.951  19.843  53.754  1.00  0.00     0.000 C 
ENDROOT
BRANCH   1   2
ATOM      2  C   UNL     1      29.166  20.669  54.214  1.00  0.00     0.000 C 
BRANCH   2   3
ATOM      3  C   UNL     1      28.967  21.303  55.598  1.00  0.00     0.000 C 
BRANCH   3   4
ATOM      4  C   UNL     1      27.856  20.588  56.375  1.00  0.00     0.000 C 
BRANCH   4   5
ATOM      5  C   UNL     1      28.436  19.501  57.290  1.00  0.00     0.000 C 
BRANCH   5   6
ATOM      6  C   UNL     1      27.417  18.379  57.525  1.00  0.00     0.006 C 
BRANCH   6   7
ATOM      7  C   UNL     1      26.146  18.610  56.703  1.00  0.00     0.053 C 
BRANCH   7   8
ATOM      8  C   UNL     1      25.755  17.357  55.984  1.00  0.00     0.041 C 
ATOM      9  O   UNL     1      25.183  17.422  54.864  1.00  0.00    -0.550 OA
ATOM     10  O   UNL     1      26.065  16.117  56.528  1.00  0.00    -0.550 OA
ENDBRANCH   7   8
ENDBRANCH   6   7
ENDBRANCH   5   6
ENDBRANCH   4   5
ENDBRANCH   3   4
ENDBRANCH   2   3
ENDBRANCH   1   2
BRANCH   1  11
ATOM     11  C   UNL     1      28.268  18.397  53.323  1.00  0.00     0.000 C 
BRANCH  11  12
ATOM     12  C   UNL     1      29.542  17.795  53.944  1.00  0.00    -0.000 C 
BRANCH  12  13
ATOM     13  C   UNL     1      29.247  16.644  54.916  1.00  0.00    -0.000 C 
BRANCH  13  14
ATOM     14  C   UNL     1      30.360  16.513  55.966  1.00  0.00    -0.000 C 
BRANCH  14  15
ATOM     15  C   UNL     1      31.323  17.711  55.962  1.00  0.00    -0.000 C 
BRANCH  15  16
ATOM     16  C   UNL     1      32.786  17.294  55.754  1.00  0.00    -0.000 C 
BRANCH  16  17
ATOM     17  C   UNL     1      33.227  17.541  54.306  1.00  0.00    -0.003 C 
ATOM     18  C   UNL     1      33.250  19.031  53.982  1.00  0.00     0.004 C 
ENDBRANCH  16  17
ENDBRANCH  15  16
ENDBRANCH  14  15
ENDBRANCH  13  14
ENDBRANCH  12  13
ENDBRANCH  11  12
ENDBRANCH   1  11
TORSDOF 14
ENDMDL
MODEL 3
REMARK VINA RESULT:    -3.409      1.871      3.453
REMARK INTER + INTRA:          -9.088
REMARK INTER:                  -6.530
REMARK INTRA:                  -2.558
REMARK UNBOUND:                -2.889
REMARK SMILES CCCCCCCCCCCCCCCC(=O)[O-]
REMARK SMILES IDX 9 1 10 2 11 3 12 4 13 5 14 6 15 7 16 8 17 9 18 10 8 11 7 12
REMARK SMILES IDX 6 13 5 14 4 15 3 16 2 17 1 18
REMARK H PARENT
REMARK Flexibility Score: inf
ROOT
ATOM      1  C   UNL     1      25.479  18.003  56.374  1.00  0.00     0.000 C 
ENDROOT
BRANCH   1   2
ATOM      2  C   UNL     1      25.700  17.260  55.044  1.00  0.00     0.000 C 
BRANCH   2   3
ATOM      3  C   UNL     1      26.091  18.199  53.894  1.00  0.00     0.000 C 
BRANCH   3   4
ATOM      4  C   UNL     1      27.299  17.651  53.125  1.00  0.00     0.000 C 
BRANCH   4   5
ATOM      5  C   UNL     1      28.614  18.110  53.767  1.00  0.00     0.000 C 
BRANCH   5   6
ATOM      6  C   UNL     1      28.651  19.636  53.914  1.00  0.00     0.006 C 
BRANCH   6   7
ATOM      7  C   UNL     1      29.791  20.072  54.839  1.00  0.00     0.053 C 
BRANCH   7   8
ATOM      8  C   UNL     1      29.331  21.159  55.759  1.00  0.00     0.041 C 
ATOM      9  O   UNL     1      28.265  21.785  55.517  1.00  0.00    -0.550 OA
ATOM     10  O   UNL     1      30.054  21.449  56.909  1.00  0.00    -0.550 OA
ENDBRANCH   7   8
ENDBRANCH   6   7
ENDBRANCH   5   6
ENDBRANCH   4   5
ENDBRANCH   3   4
ENDBRANCH   2   3
ENDBRANCH   1   2
BRANCH   1  11
ATOM     11  C   UNL     1      26.717  18.738  56.926  1.00  0.00     0.000 C 
BRANCH  11  12
ATOM     12  C   UNL     1      27.551  17.938  57.942  1.00  0.00    -0.000 C 
BRANCH  12  13
ATOM     13  C   UNL     1      28.941  17.560  57.409  1.00  0.00    -0.000 C 
BRANCH  13  14
ATOM     14  C   UNL     1      28.954  16.116  56.885  1.00  0.00    -0.000 C 
BRANCH  14  15
ATOM     15  C   UNL     1      30.235  15.778  56.107  1.00  0.00    -0.000 C 
BRANCH  15  16
ATOM     16  C   UNL     1      31.387  16.747  56.412  1.00  0.00    -0.000 C 
BRANCH  16  17
ATOM     17  C   UNL     1      32.081  17.198  55.121  1.00  0.00    -0.003 C 
ATOM     18  C   UNL     1      31.751  16.264  53.961  1.00  0.00     0.004 C 
ENDBRANCH  16  17
ENDBRANCH  15  16
ENDBRANCH  14  15
ENDBRANCH  13  14
ENDBRANCH  12  13
ENDBRANCH  11  12
ENDBRANCH   1  11
TORSDOF 14
ENDMDL
MODEL 4
REMARK VINA RESULT:    -3.402      3.232      4.628
REMARK INTER + INTRA:          -9.075
REMARK INTER:                  -6.576
REMARK INTRA:                  -2.500
REMARK UNBOUND:                -2.889
REMARK SMILES CCCCCCCCCCCCCCCC(=O)[O-]
REMARK SMILES IDX 9 1 10 2 11 3 12 4 13 5 14 6 15 7 16 8 17 9 18 10 8 11 7 12
REMARK SMILES IDX 6 13 5 14 4 15 3 16 2 17 1 18
REMARK H PARENT
REMARK Flexibility Score: inf
ROOT
ATOM      1  C   UNL     1      29.308  17.231  57.456  1.00  0.00     0.000 C 
ENDROOT
BRANCH   1   2
ATOM      2  C   UNL     1      28.808  16.036  56.624  1.00  0.00     0.000 C 
BRANCH   2   3
ATOM      3  C   UNL     1      29.695  15.746  55.404  1.00  0.00     0.000 C 
BRANCH   3   4
ATOM      4  C   UNL     1      31.021  16.510  55.495  1.00  0.00     0.000 C 
BRANCH   4   5
ATOM      5  C   UNL     1      31.332  17.232  54.179  1.00  0.00     0.000 C 
BRANCH   5   6
ATOM      6  C   UNL     1      32.838  17.481  54.030  1.00  0.00     0.006 C 
BRANCH   6   7
ATOM      7  C   UNL     1      33.153  18.979  54.060  1.00  0.00     0.053 C 
BRANCH   7   8
ATOM      8  C   UNL     1      33.879  19.335  55.320  1.00  0.00     0.041 C 
ATOM      9  O   UNL     1      33.533  18.821  56.417  1.00  0.00    -0.550 OA
ATOM     10  O   UNL     1      34.966  20.199  55.276  1.00  0.00    -0.550 OA
ENDBRANCH   7   8
ENDBRANCH   6   7
ENDBRANCH   5   6
ENDBRANCH   4   5
ENDBRANCH   3   4
ENDBRANCH   2   3
ENDBRANCH   1   2
BRANCH   1  11
ATOM     11  C   UNL     1      28.206  18.031  58.179  1.00  0.00     0.000 C 
BRANCH  11  12
ATOM     12  C   UNL     1      26.842  18.054  57.466  1.00  0.00    -0.000 C 
BRANCH  12  13
ATOM     13  C   UNL     1      26.705  19.221  56.477  1.00  0.00    -0.000 C 
BRANCH  13  14
ATOM     14  C   UNL     1      26.807  18.726  55.026  1.00  0.00    -0.000 C 
BRANCH  14  15
ATOM     15  C   UNL     1      28.169  19.039  54.387  1.00  0.00    -0.000 C 
BRANCH  15  16
ATOM     16  C   UNL     1      28.700  20.428  54.771  1.00  0.00    -0.000 C 
BRANCH  16  17
ATOM     17  C   UNL     1      30.027  20.317  55.531  1.00  0.00    -0.003 C 
ATOM     18  C   UNL     1      30.022  21.190  56.782  1.00  0.00     0.004 C 
ENDBRANCH  16  17
ENDBRANCH  15  16
ENDBRANCH  14  15
ENDBRANCH  13  14
ENDBRANCH  12  13
ENDBRANCH  11  12
ENDBRANCH   1  11
TORSDOF 14
ENDMDL
MODEL 5
REMARK VINA RESULT:    -3.391      2.544      4.523
REMARK INTER + INTRA:          -9.056
REMARK INTER:                  -6.178
REMARK INTRA:                  -2.878
REMARK UNBOUND:                -2.889
REMARK SMILES CCCCCCCCCCCCCCCC(=O)[O-]
REMARK SMILES IDX 9 1 10 2 11 3 12 4 13 5 14 6 15 7 16 8 17 9 18 10 8 11 7 12
REMARK SMILES IDX 6 13 5 14 4 15 3 16 2 17 1 18
REMARK H PARENT
REMARK Flexibility Score: inf
ROOT
ATOM      1  C   UNL     1      26.206  18.263  55.583  1.00  0.00     0.000 C 
ENDROOT
BRANCH   1   2
ATOM      2  C   UNL     1      26.833  19.411  56.394  1.00  0.00     0.000 C 
BRANCH   2   3
ATOM      3  C   UNL     1      27.764  18.915  57.510  1.00  0.00     0.000 C 
BRANCH   3   4
ATOM      4  C   UNL     1      27.825  17.384  57.532  1.00  0.00     0.000 C 
BRANCH   4   5
ATOM      5  C   UNL     1      29.274  16.888  57.447  1.00  0.00     0.000 C 
BRANCH   5   6
ATOM      6  C   UNL     1      29.347  15.512  56.774  1.00  0.00     0.006 C 
BRANCH   6   7
ATOM      7  C   UNL     1      27.946  14.934  56.554  1.00  0.00     0.053 C 
BRANCH   7   8
ATOM      8  C   UNL     1      27.708  14.682  55.098  1.00  0.00     0.041 C 
ATOM      9  O   UNL     1      28.677  14.438  54.330  1.00  0.00    -0.550 OA
ATOM     10  O   UNL     1      26.412  14.669  54.597  1.00  0.00    -0.550 OA
ENDBRANCH   7   8
ENDBRANCH   6   7
ENDBRANCH   5   6
ENDBRANCH   4   5
ENDBRANCH   3   4
ENDBRANCH   2   3
ENDBRANCH   1   2
BRANCH   1  11
ATOM     11  C   UNL     1      26.473  18.311  54.065  1.00  0.00     0.000 C 
BRANCH  11  12
ATOM     12  C   UNL     1      27.817  18.945  53.660  1.00  0.00    -0.000 C 
BRANCH  12  13
ATOM     13  C   UNL     1      28.940  17.910  53.498  1.00  0.00    -0.000 C 
BRANCH  13  14
ATOM     14  C   UNL     1      30.156  18.282  54.360  1.00  0.00    -0.000 C 
BRANCH  14  15
ATOM     15  C   UNL     1      30.292  19.798  54.573  1.00  0.00    -0.000 C 
BRANCH  15  16
ATOM     16  C   UNL     1      30.575  20.168  56.037  1.00  0.00    -0.000 C 
BRANCH  16  17
ATOM     17  C   UNL     1      30.018  21.558  56.369  1.00  0.00    -0.003 C 
ATOM     18  C   UNL     1      29.132  22.081  55.244  1.00  0.00     0.004 C 
ENDBRANCH  16  17
ENDBRANCH  15  16
ENDBRANCH  14  15
ENDBRANCH  13  14
ENDBRANCH  12  13
ENDBRANCH  11  12
ENDBRANCH   1  11
TORSDOF 14
ENDMDL
MODEL 6
REMARK VINA RESULT:    -3.384      2.623      4.750
REMARK INTER + INTRA:          -9.044
REMARK INTER:                  -6.206
REMARK INTRA:                  -2.838
REMARK UNBOUND:                -2.889
REMARK SMILES CCCCCCCCCCCCCCCC(=O)[O-]
REMARK SMILES IDX 9 1 10 2 11 3 12 4 13 5 14 6 15 7 16 8 17 9 18 10 8 11 7 12
REMARK SMILES IDX 6 13 5 14 4 15 3 16 2 17 1 18
REMARK H PARENT
REMARK Flexibility Score: inf
ROOT
ATOM      1  C   UNL     1      27.011  18.635  57.233  1.00  0.00     0.000 C 
ENDROOT
BRANCH   1   2
ATOM      2  C   UNL     1      28.105  17.689  57.759  1.00  0.00     0.000 C 
BRANCH   2   3
ATOM      3  C   UNL     1      27.945  16.249  57.249  1.00  0.00     0.000 C 
BRANCH   3   4
ATOM      4  C   UNL     1      29.222  15.769  56.551  1.00  0.00     0.000 C 
BRANCH   4   5
ATOM      5  C   UNL     1      30.393  16.720  56.830  1.00  0.00     0.000 C 
BRANCH   5   6
ATOM      6  C   UNL     1      31.625  16.335  56.001  1.00  0.00     0.006 C 
BRANCH   6   7
ATOM      7  C   UNL     1      32.548  17.539  55.797  1.00  0.00     0.053 C 
BRANCH   7   8
ATOM      8  C   UNL     1      32.821  17.747  54.340  1.00  0.00     0.041 C 
ATOM      9  O   UNL     1      32.836  18.910  53.858  1.00  0.00    -0.550 OA
ATOM     10  O   UNL     1      33.107  16.659  53.524  1.00  0.00    -0.550 OA
ENDBRANCH   7   8
ENDBRANCH   6   7
ENDBRANCH   5   6
ENDBRANCH   4   5
ENDBRANCH   3   4
ENDBRANCH   2   3
ENDBRANCH   1   2
BRANCH   1  11
ATOM     11  C   UNL     1      27.525  19.955  56.624  1.00  0.00     0.000 C 
BRANCH  11  12
ATOM     12  C   UNL     1      29.039  20.193  56.765  1.00  0.00    -0.000 C 
BRANCH  12  13
ATOM     13  C   UNL     1      29.790  20.072  55.431  1.00  0.00    -0.000 C 
BRANCH  13  14
ATOM     14  C   UNL     1      28.852  19.582  54.317  1.00  0.00    -0.000 C 
BRANCH  14  15
ATOM     15  C   UNL     1      29.238  18.193  53.785  1.00  0.00    -0.000 C 
BRANCH  15  16
ATOM     16  C   UNL     1      28.089  17.507  53.031  1.00  0.00    -0.000 C 
BRANCH  16  17
ATOM     17  C   UNL     1      26.734  17.867  53.652  1.00  0.00    -0.003 C 
ATOM     18  C   UNL     1      26.042  16.632  54.220  1.00  0.00     0.004 C 
ENDBRANCH  16  17
ENDBRANCH  15  16
ENDBRANCH  14  15
ENDBRANCH  13  14
ENDBRANCH  12  13
ENDBRANCH  11  12
ENDBRANCH   1  11
TORSDOF 14
ENDMDL
MODEL 7
REMARK VINA RESULT:    -3.381      1.378      4.199
REMARK INTER + INTRA:          -9.037
REMARK INTER:                  -6.606
REMARK INTRA:                  -2.431
REMARK UNBOUND:                -2.889
REMARK SMILES CCCCCCCCCCCCCCCC(=O)[O-]
REMARK SMILES IDX 9 1 10 2 11 3 12 4 13 5 14 6 15 7 16 8 17 9 18 10 8 11 7 12
REMARK SMILES IDX 6 13 5 14 4 15 3 16 2 17 1 18
REMARK H PARENT
REMARK Flexibility Score: inf
ROOT
ATOM      1  C   UNL     1      30.101  20.236  55.003  1.00  0.00     0.000 C 
ENDROOT
BRANCH   1   2
ATOM      2  C   UNL     1      29.729  20.931  56.326  1.00  0.00     0.000 C 
BRANCH   2   3
ATOM      3  C   UNL     1      28.239  20.800  56.670  1.00  0.00     0.000 C 
BRANCH   3   4
ATOM      4  C   UNL     1      27.885  19.355  57.038  1.00  0.00     0.000 C 
BRANCH   4   5
ATOM      5  C   UNL     1      26.621  18.893  56.302  1.00  0.00     0.000 C 
BRANCH   5   6
ATOM      6  C   UNL     1      26.972  18.239  54.961  1.00  0.00     0.006 C 
BRANCH   6   7
ATOM      7  C   UNL     1      26.170  18.866  53.817  1.00  0.00     0.053 C 
BRANCH   7   8
ATOM      8  C   UNL     1      27.082  19.582  52.871  1.00  0.00     0.041 C 
ATOM      9  O   UNL     1      27.559  18.980  51.873  1.00  0.00    -0.550 OA
ATOM     10  O   UNL     1      27.366  20.928  53.064  1.00  0.00    -0.550 OA
ENDBRANCH   7   8
ENDBRANCH   6   7
ENDBRANCH   5   6
ENDBRANCH   4   5
ENDBRANCH   3   4
ENDBRANCH   2   3
ENDBRANCH   1   2
BRANCH   1  11
ATOM     11  C   UNL     1      30.946  18.955  55.152  1.00  0.00     0.000 C 
BRANCH  11  12
ATOM     12  C   UNL     1      30.608  17.831  54.156  1.00  0.00    -0.000 C 
BRANCH  12  13
ATOM     13  C   UNL     1      30.533  16.448  54.819  1.00  0.00    -0.000 C 
BRANCH  13  14
ATOM     14  C   UNL     1      30.611  16.568  56.348  1.00  0.00    -0.000 C 
BRANCH  14  15
ATOM     15  C   UNL     1      29.335  16.075  57.049  1.00  0.00    -0.000 C 
BRANCH  15  16
ATOM     16  C   UNL     1      28.856  14.716  56.519  1.00  0.00    -0.000 C 
BRANCH  16  17
ATOM     17  C   UNL     1      27.367  14.763  56.156  1.00  0.00    -0.003 C 
ATOM     18  C   UNL     1      26.513  15.118  57.369  1.00  0.00     0.004 C 
ENDBRANCH  16  17
ENDBRANCH  15  16
ENDBRANCH  14  15
ENDBRANCH  13  14
ENDBRANCH  12  13
ENDBRANCH  11  12
ENDBRANCH   1  11
TORSDOF 14
ENDMDL
MODEL 8
REMARK VINA RESULT:    -3.375      2.065      4.727
REMARK INTER + INTRA:          -9.026
REMARK INTER:                  -6.389
REMARK INTRA:                  -2.637
REMARK UNBOUND:                -2.889
REMARK SMILES CCCCCCCCCCCCCCCC(=O)[O-]
REMARK SMILES IDX 9 1 10 2 11 3 12 4 13 5 14 6 15 7 16 8 17 9 18 10 8 11 7 12
REMARK SMILES IDX 6 13 5 14 4 15 3 16 2 17 1 18
REMARK H PARENT
REMARK Flexibility Score: inf
ROOT
ATOM      1  C   UNL     1      29.012  17.219  53.073  1.00  0.00     0.000 C 
ENDROOT
BRANCH   1   2
ATOM      2  C   UNL     1      27.493  17.401  53.245  1.00  0.00     0.000 C 
BRANCH   2   3
ATOM      3  C   UNL     1      27.127  18.698  53.982  1.00  0.00     0.000 C 
BRANCH   3   4
ATOM      4  C   UNL     1      26.099  18.429  55.087  1.00  0.00     0.000 C 
BRANCH   4   5
ATOM      5  C   UNL     1      26.616  18.909  56.449  1.00  0.00     0.000 C 
BRANCH   5   6
ATOM      6  C   UNL     1      27.388  20.227  56.311  1.00  0.00     0.006 C 
BRANCH   6   7
ATOM      7  C   UNL     1      28.725  20.161  57.054  1.00  0.00     0.053 C 
BRANCH   7   8
ATOM      8  C   UNL     1      29.789  20.873  56.279  1.00  0.00     0.041 C 
ATOM      9  O   UNL     1      29.494  21.862  55.558  1.00  0.00    -0.550 OA
ATOM     10  O   UNL     1      31.115  20.474  56.391  1.00  0.00    -0.550 OA
ENDBRANCH   7   8
ENDBRANCH   6   7
ENDBRANCH   5   6
ENDBRANCH   4   5
ENDBRANCH   3   4
ENDBRANCH   2   3
ENDBRANCH   1   2
BRANCH   1  11
ATOM     11  C   UNL     1      29.879  17.916  54.140  1.00  0.00     0.000 C 
BRANCH  11  12
ATOM     12  C   UNL     1      30.985  17.039  54.756  1.00  0.00    -0.000 C 
BRANCH  12  13
ATOM     13  C   UNL     1      30.849  16.887  56.278  1.00  0.00    -0.000 C 
BRANCH  13  14
ATOM     14  C   UNL     1      29.383  16.660  56.677  1.00  0.00    -0.000 C 
BRANCH  14  15
ATOM     15  C   UNL     1      29.038  15.171  56.845  1.00  0.00    -0.000 C 
BRANCH  15  16
ATOM     16  C   UNL     1      28.191  14.625  55.687  1.00  0.00    -0.000 C 
BRANCH  16  17
ATOM     17  C   UNL     1      26.704  14.931  55.902  1.00  0.00    -0.003 C 
ATOM     18  C   UNL     1      26.328  14.831  57.377  1.00  0.00     0.004 C 
ENDBRANCH  16  17
ENDBRANCH  15  16
ENDBRANCH  14  15
ENDBRANCH  13  14
ENDBRANCH  12  13
ENDBRANCH  11  12
ENDBRANCH   1  11
TORSDOF 14
ENDMDL
MODEL 9
REMARK VINA RESULT:    -3.316      1.344      3.160
REMARK INTER + INTRA:          -8.920
REMARK INTER:                  -6.378
REMARK INTRA:                  -2.541
REMARK UNBOUND:                -2.889
REMARK SMILES CCCCCCCCCCCCCCCC(=O)[O-]
REMARK SMILES IDX 9 1 10 2 11 3 12 4 13 5 14 6 15 7 16 8 17 9 18 10 8 11 7 12
REMARK SMILES IDX 6 13 5 14 4 15 3 16 2 17 1 18
REMARK H PARENT
REMARK Flexibility Score: inf
ROOT
ATOM      1  C   UNL     1      27.231  17.530  58.238  1.00  0.00     0.000 C 
ENDROOT
BRANCH   1   2
ATOM      2  C   UNL     1      28.512  18.345  57.984  1.00  0.00     0.000 C 
BRANCH   2   3
ATOM      3  C   UNL     1      28.269  19.582  57.108  1.00  0.00     0.000 C 
BRANCH   3   4
ATOM      4  C   UNL     1      29.403  19.767  56.093  1.00  0.00     0.000 C 
BRANCH   4   5
ATOM      5  C   UNL     1      28.851  19.899  54.668  1.00  0.00     0.000 C 
BRANCH   5   6
ATOM      6  C   UNL     1      27.940  18.715  54.320  1.00  0.00     0.006 C 
BRANCH   6   7
ATOM      7  C   UNL     1      26.573  19.201  53.830  1.00  0.00     0.053 C 
BRANCH   7   8
ATOM      8  C   UNL     1      26.693  19.819  52.472  1.00  0.00     0.041 C 
ATOM      9  O   UNL     1      26.187  20.949  52.244  1.00  0.00    -0.550 OA
ATOM     10  O   UNL     1      27.404  19.167  51.472  1.00  0.00    -0.550 OA
ENDBRANCH   7   8
ENDBRANCH   6   7
ENDBRANCH   5   6
ENDBRANCH   4   5
ENDBRANCH   3   4
ENDBRANCH   2   3
ENDBRANCH   1   2
BRANCH   1  11
ATOM     11  C   UNL     1      27.126  16.212  57.444  1.00  0.00     0.000 C 
BRANCH  11  12
ATOM     12  C   UNL     1      28.473  15.559  57.083  1.00  0.00    -0.000 C 
BRANCH  12  13
ATOM     13  C   UNL     1      28.655  15.362  55.570  1.00  0.00    -0.000 C 
BRANCH  13  14
ATOM     14  C   UNL     1      30.052  15.817  55.122  1.00  0.00    -0.000 C 
BRANCH  14  15
ATOM     15  C   UNL     1      30.913  16.328  56.288  1.00  0.00    -0.000 C 
BRANCH  15  16
ATOM     16  C   UNL     1      32.083  17.205  55.821  1.00  0.00    -0.000 C 
BRANCH  16  17
ATOM     17  C   UNL     1      31.937  17.571  54.339  1.00  0.00    -0.003 C 
ATOM     18  C   UNL     1      32.467  18.974  54.062  1.00  0.00     0.004 C 
ENDBRANCH  16  17
ENDBRANCH  15  16
ENDBRANCH  14  15
ENDBRANCH  13  14
ENDBRANCH  12  13
ENDBRANCH  11  12
ENDBRANCH   1  11
TORSDOF 14
ENDMDL
