MODEL 1
REMARK VINA RESULT:     2.759      0.000      0.000
REMARK INTER + INTRA:           4.357
REMARK INTER:                   5.339
REMARK INTRA:                  -0.982
REMARK UNBOUND:                -0.982
REMARK SMILES CCCCCCCCCCCCCCCCCC(=O)[O-]
REMARK SMILES IDX 10 1 11 2 12 3 13 4 14 5 15 6 16 7 17 8 18 9 19 10 20 11
REMARK SMILES IDX 9 12 8 13 7 14 6 15 5 16 4 17 3 18 2 19 1 20
REMARK H PARENT
REMARK Flexibility Score: inf
ROOT
ATOM      1  C   UNL     1     -14.595  -5.304 -14.662  1.00  0.00     0.000 C 
ENDROOT
BRANCH   1   2
ATOM      2  C   UNL     1     -13.399  -6.263 -14.557  1.00  0.00     0.000 C 
BRANCH   2   3
ATOM      3  C   UNL     1     -13.695  -7.646 -15.165  1.00  0.00     0.000 C 
BRANCH   3   4
ATOM      4  C   UNL     1     -13.406  -7.700 -16.674  1.00  0.00     0.000 C 
BRANCH   4   5
ATOM      5  C   UNL     1     -13.461  -9.131 -17.238  1.00  0.00     0.000 C 
BRANCH   5   6
ATOM      6  C   UNL     1     -12.064  -9.732 -17.459  1.00  0.00     0.000 C 
BRANCH   6   7
ATOM      7  C   UNL     1     -12.118 -11.176 -17.981  1.00  0.00     0.006 C 
BRANCH   7   8
ATOM      8  C   UNL     1     -11.897 -11.219 -19.496  1.00  0.00     0.053 C 
BRANCH   8   9
ATOM      9  C   UNL     1     -12.122 -12.604 -20.018  1.00  0.00     0.041 C 
ATOM     10  O   UNL     1     -12.253 -12.801 -21.255  1.00  0.00    -0.550 OA
ATOM     11  O   UNL     1     -12.135 -13.683 -19.144  1.00  0.00    -0.550 OA
ENDBRANCH   8   9
ENDBRANCH   7   8
ENDBRANCH   6   7
ENDBRANCH   5   6
ENDBRANCH   4   5
ENDBRANCH   3   4
ENDBRANCH   2   3
ENDBRANCH   1   2
BRANCH   1  12
ATOM     12  C   UNL     1     -14.245  -4.004 -15.407  1.00  0.00     0.000 C 
BRANCH  12  13
ATOM     13  C   UNL     1     -14.192  -2.781 -14.476  1.00  0.00    -0.000 C 
BRANCH  13  14
ATOM     14  C   UNL     1     -12.753  -2.342 -14.156  1.00  0.00    -0.000 C 
BRANCH  14  15
ATOM     15  C   UNL     1     -12.399  -2.518 -12.669  1.00  0.00    -0.000 C 
BRANCH  15  16
ATOM     16  C   UNL     1     -13.561  -3.109 -11.851  1.00  0.00    -0.000 C 
BRANCH  16  17
ATOM     17  C   UNL     1     -13.164  -3.411 -10.397  1.00  0.00    -0.000 C 
BRANCH  17  18
ATOM     18  C   UNL     1     -14.356  -3.881  -9.543  1.00  0.00    -0.000 C 
BRANCH  18  19
ATOM     19  C   UNL     1     -14.119  -5.263  -8.915  1.00  0.00    -0.003 C 
ATOM     20  C   UNL     1     -13.631  -6.296  -9.930  1.00  0.00     0.004 C 
ENDBRANCH  18  19
ENDBRANCH  17  18
ENDBRANCH  16  17
ENDBRANCH  15  16
ENDBRANCH  14  15
ENDBRANCH  13  14
ENDBRANCH  12  13
ENDBRANCH   1  12
TORSDOF 16
ENDMDL
MODEL 2
REMARK VINA RESULT:     2.995      3.225      4.891
REMARK INTER + INTRA:           4.815
REMARK INTER:                   4.501
REMARK INTRA:                   0.314
REMARK UNBOUND:                -0.982
REMARK SMILES CCCCCCCCCCCCCCCCCC(=O)[O-]
REMARK SMILES IDX 10 1 11 2 12 3 13 4 14 5 15 6 16 7 17 8 18 9 19 10 20 11
REMARK SMILES IDX 9 12 8 13 7 14 6 15 5 16 4 17 3 18 2 19 1 20
REMARK H PARENT
REMARK Flexibility Score: inf
ROOT
ATOM      1  C   UNL     1     -14.337  -3.115 -13.010  1.00  0.00     0.000 C 
ENDROOT
BRANCH   1   2
ATOM      2  C   UNL     1     -14.729  -1.874 -13.828  1.00  0.00     0.000 C 
BRANCH   2   3
ATOM      3  C   UNL     1     -13.639  -1.460 -14.833  1.00  0.00     0.000 C 
BRANCH   3   4
ATOM      4  C   UNL     1     -14.144  -1.462 -16.285  1.00  0.00     0.000 C 
BRANCH   4   5
ATOM      5  C   UNL     1     -13.559  -2.618 -17.114  1.00  0.00     0.000 C 
BRANCH   5   6
ATOM      6  C   UNL     1     -14.534  -3.798 -17.251  1.00  0.00     0.000 C 
BRANCH   6   7
ATOM      7  C   UNL     1     -14.223  -4.939 -16.271  1.00  0.00     0.006 C 
BRANCH   7   8
ATOM      8  C   UNL     1     -13.803  -6.207 -17.020  1.00  0.00     0.053 C 
BRANCH   8   9
ATOM      9  C   UNL     1     -13.840  -7.391 -16.106  1.00  0.00     0.041 C 
ATOM     10  O   UNL     1     -13.605  -8.545 -16.555  1.00  0.00    -0.550 OA
ATOM     11  O   UNL     1     -14.083  -7.217 -14.750  1.00  0.00    -0.550 OA
ENDBRANCH   8   9
ENDBRANCH   7   8
ENDBRANCH   6   7
ENDBRANCH   5   6
ENDBRANCH   4   5
ENDBRANCH   3   4
ENDBRANCH   2   3
ENDBRANCH   1   2
BRANCH   1  12
ATOM     12  C   UNL     1     -12.904  -3.591 -13.311  1.00  0.00     0.000 C 
BRANCH  12  13
ATOM     13  C   UNL     1     -11.894  -3.147 -12.239  1.00  0.00    -0.000 C 
BRANCH  13  14
ATOM     14  C   UNL     1     -12.312  -3.568 -10.820  1.00  0.00    -0.000 C 
BRANCH  14  15
ATOM     15  C   UNL     1     -12.373  -2.379  -9.846  1.00  0.00    -0.000 C 
BRANCH  15  16
ATOM     16  C   UNL     1     -13.744  -2.249  -9.159  1.00  0.00    -0.000 C 
BRANCH  16  17
ATOM     17  C   UNL     1     -14.422  -3.611  -8.934  1.00  0.00    -0.000 C 
BRANCH  17  18
ATOM     18  C   UNL     1     -13.632  -4.777  -9.556  1.00  0.00    -0.000 C 
BRANCH  18  19
ATOM     19  C   UNL     1     -13.936  -6.120  -8.876  1.00  0.00    -0.003 C 
ATOM     20  C   UNL     1     -12.737  -7.068  -8.880  1.00  0.00     0.004 C 
ENDBRANCH  18  19
ENDBRANCH  17  18
ENDBRANCH  16  17
ENDBRANCH  15  16
ENDBRANCH  14  15
ENDBRANCH  13  14
ENDBRANCH  12  13
ENDBRANCH   1  12
TORSDOF 16
ENDMDL
MODEL 3
REMARK VINA RESULT:     3.396      4.416      9.305
REMARK INTER + INTRA:           5.590
REMARK INTER:                   5.563
REMARK INTRA:                   0.027
REMARK UNBOUND:                -0.982
REMARK SMILES CCCCCCCCCCCCCCCCCC(=O)[O-]
REMARK SMILES IDX 10 1 11 2 12 3 13 4 14 5 15 6 16 7 17 8 18 9 19 10 20 11
REMARK SMILES IDX 9 12 8 13 7 14 6 15 5 16 4 17 3 18 2 19 1 20
REMARK H PARENT
REMARK Flexibility Score: inf
ROOT
ATOM      1  C   UNL     1     -14.822  -3.301 -14.821  1.00  0.00     0.000 C 
ENDROOT
BRANCH   1   2
ATOM      2  C   UNL     1     -14.107  -2.176 -15.586  1.00  0.00     0.000 C 
BRANCH   2   3
ATOM      3  C   UNL     1     -12.844  -1.678 -14.861  1.00  0.00     0.000 C 
BRANCH   3   4
ATOM      4  C   UNL     1     -12.965  -1.775 -13.332  1.00  0.00     0.000 C 
BRANCH   4   5
ATOM      5  C   UNL     1     -11.878  -2.666 -12.706  1.00  0.00     0.000 C 
BRANCH   5   6
ATOM      6  C   UNL     1     -11.937  -2.678 -11.170  1.00  0.00     0.000 C 
BRANCH   6   7
ATOM      7  C   UNL     1     -12.076  -4.095 -10.595  1.00  0.00     0.006 C 
BRANCH   7   8
ATOM      8  C   UNL     1     -12.648  -4.057  -9.175  1.00  0.00     0.053 C 
BRANCH   8   9
ATOM      9  C   UNL     1     -14.061  -4.550  -9.165  1.00  0.00     0.041 C 
ATOM     10  O   UNL     1     -15.004  -3.766  -8.879  1.00  0.00    -0.550 OA
ATOM     11  O   UNL     1     -14.342  -5.862  -9.524  1.00  0.00    -0.550 OA
ENDBRANCH   8   9
ENDBRANCH   7   8
ENDBRANCH   6   7
ENDBRANCH   5   6
ENDBRANCH   4   5
ENDBRANCH   3   4
ENDBRANCH   2   3
ENDBRANCH   1   2
BRANCH   1  12
ATOM     12  C   UNL     1     -13.861  -4.420 -14.384  1.00  0.00     0.000 C 
BRANCH  12  13
ATOM     13  C   UNL     1     -14.281  -5.803 -14.909  1.00  0.00    -0.000 C 
BRANCH  13  14
ATOM     14  C   UNL     1     -13.560  -6.186 -16.213  1.00  0.00    -0.000 C 
BRANCH  14  15
ATOM     15  C   UNL     1     -13.728  -7.674 -16.564  1.00  0.00    -0.000 C 
BRANCH  15  16
ATOM     16  C   UNL     1     -12.493  -8.255 -17.276  1.00  0.00    -0.000 C 
BRANCH  16  17
ATOM     17  C   UNL     1     -12.397  -9.783 -17.137  1.00  0.00    -0.000 C 
BRANCH  17  18
ATOM     18  C   UNL     1     -11.877 -10.464 -18.416  1.00  0.00    -0.000 C 
BRANCH  18  19
ATOM     19  C   UNL     1     -12.019 -11.993 -18.367  1.00  0.00    -0.003 C 
ATOM     20  C   UNL     1     -12.382 -12.596 -19.723  1.00  0.00     0.004 C 
ENDBRANCH  18  19
ENDBRANCH  17  18
ENDBRANCH  16  17
ENDBRANCH  15  16
ENDBRANCH  14  15
ENDBRANCH  13  14
ENDBRANCH  12  13
ENDBRANCH   1  12
TORSDOF 16
ENDMDL
MODEL 4
REMARK VINA RESULT:     3.407      6.528     10.847
REMARK INTER + INTRA:           5.612
REMARK INTER:                   6.122
REMARK INTRA:                  -0.509
REMARK UNBOUND:                -0.982
REMARK SMILES CCCCCCCCCCCCCCCCCC(=O)[O-]
REMARK SMILES IDX 10 1 11 2 12 3 13 4 14 5 15 6 16 7 17 8 18 9 19 10 20 11
REMARK SMILES IDX 9 12 8 13 7 14 6 15 5 16 4 17 3 18 2 19 1 20
REMARK H PARENT
REMARK Flexibility Score: inf
ROOT
ATOM      1  C   UNL     1     -14.214  -4.267 -16.758  1.00  0.00     0.000 C 
ENDROOT
BRANCH   1   2
ATOM      2  C   UNL     1     -14.560  -2.785 -16.542  1.00  0.00     0.000 C 
BRANCH   2   3
ATOM      3  C   UNL     1     -13.336  -1.945 -16.136  1.00  0.00     0.000 C 
BRANCH   3   4
ATOM      4  C   UNL     1     -13.107  -1.934 -14.616  1.00  0.00     0.000 C 
BRANCH   4   5
ATOM      5  C   UNL     1     -14.088  -2.850 -13.862  1.00  0.00     0.000 C 
BRANCH   5   6
ATOM      6  C   UNL     1     -13.374  -3.817 -12.904  1.00  0.00     0.000 C 
BRANCH   6   7
ATOM      7  C   UNL     1     -12.187  -3.165 -12.180  1.00  0.00     0.006 C 
BRANCH   7   8
ATOM      8  C   UNL     1     -12.048  -3.709 -10.756  1.00  0.00     0.053 C 
BRANCH   8   9
ATOM      9  C   UNL     1     -12.859  -2.889  -9.801  1.00  0.00     0.041 C 
ATOM     10  O   UNL     1     -12.387  -1.825  -9.321  1.00  0.00    -0.550 OA
ATOM     11  O   UNL     1     -14.155  -3.272  -9.483  1.00  0.00    -0.550 OA
ENDBRANCH   8   9
ENDBRANCH   7   8
ENDBRANCH   6   7
ENDBRANCH   5   6
ENDBRANCH   4   5
ENDBRANCH   3   4
ENDBRANCH   2   3
ENDBRANCH   1   2
BRANCH   1  12
ATOM     12  C   UNL     1     -14.210  -4.662 -18.245  1.00  0.00     0.000 C 
BRANCH  12  13
ATOM     13  C   UNL     1     -15.343  -5.638 -18.603  1.00  0.00    -0.000 C 
BRANCH  13  14
ATOM     14  C   UNL     1     -16.508  -4.951 -19.336  1.00  0.00    -0.000 C 
BRANCH  14  15
ATOM     15  C   UNL     1     -17.176  -5.869 -20.373  1.00  0.00    -0.000 C 
BRANCH  15  16
ATOM     16  C   UNL     1     -16.839  -5.468 -21.821  1.00  0.00    -0.000 C 
BRANCH  16  17
ATOM     17  C   UNL     1     -17.602  -6.308 -22.858  1.00  0.00    -0.000 C 
BRANCH  17  18
ATOM     18  C   UNL     1     -17.107  -6.068 -24.296  1.00  0.00    -0.000 C 
BRANCH  18  19
ATOM     19  C   UNL     1     -17.098  -7.354 -25.136  1.00  0.00    -0.003 C 
ATOM     20  C   UNL     1     -15.965  -7.382 -26.161  1.00  0.00     0.004 C 
ENDBRANCH  18  19
ENDBRANCH  17  18
ENDBRANCH  16  17
ENDBRANCH  15  16
ENDBRANCH  14  15
ENDBRANCH  13  14
ENDBRANCH  12  13
ENDBRANCH   1  12
TORSDOF 16
ENDMDL
MODEL 5
REMARK VINA RESULT:     3.560      6.405     10.652
REMARK INTER + INTRA:           5.908
REMARK INTER:                   6.587
REMARK INTRA:                  -0.679
REMARK UNBOUND:                -0.982
REMARK SMILES CCCCCCCCCCCCCCCCCC(=O)[O-]
REMARK SMILES IDX 10 1 11 2 12 3 13 4 14 5 15 6 16 7 17 8 18 9 19 10 20 11
REMARK SMILES IDX 9 12 8 13 7 14 6 15 5 16 4 17 3 18 2 19 1 20
REMARK H PARENT
REMARK Flexibility Score: inf
ROOT
ATOM      1  C   UNL     1     -14.399  -3.793 -16.407  1.00  0.00     0.000 C 
ENDROOT
BRANCH   1   2
ATOM      2  C   UNL     1     -14.117  -2.297 -16.195  1.00  0.00     0.000 C 
BRANCH   2   3
ATOM      3  C   UNL     1     -13.468  -2.006 -14.830  1.00  0.00     0.000 C 
BRANCH   3   4
ATOM      4  C   UNL     1     -14.199  -2.700 -13.669  1.00  0.00     0.000 C 
BRANCH   4   5
ATOM      5  C   UNL     1     -13.341  -3.784 -12.992  1.00  0.00     0.000 C 
BRANCH   5   6
ATOM      6  C   UNL     1     -12.068  -3.212 -12.348  1.00  0.00     0.000 C 
BRANCH   6   7
ATOM      7  C   UNL     1     -11.944  -3.574 -10.861  1.00  0.00     0.006 C 
BRANCH   7   8
ATOM      8  C   UNL     1     -13.205  -4.284 -10.362  1.00  0.00     0.053 C 
BRANCH   8   9
ATOM      9  C   UNL     1     -13.962  -3.404  -9.417  1.00  0.00     0.041 C 
ATOM     10  O   UNL     1     -13.534  -2.250  -9.145  1.00  0.00    -0.550 OA
ATOM     11  O   UNL     1     -15.166  -3.836  -8.878  1.00  0.00    -0.550 OA
ENDBRANCH   8   9
ENDBRANCH   7   8
ENDBRANCH   6   7
ENDBRANCH   5   6
ENDBRANCH   4   5
ENDBRANCH   3   4
ENDBRANCH   2   3
ENDBRANCH   1   2
BRANCH   1  12
ATOM     12  C   UNL     1     -14.102  -4.251 -17.845  1.00  0.00     0.000 C 
BRANCH  12  13
ATOM     13  C   UNL     1     -14.981  -5.434 -18.285  1.00  0.00    -0.000 C 
BRANCH  13  14
ATOM     14  C   UNL     1     -15.604  -5.225 -19.676  1.00  0.00    -0.000 C 
BRANCH  14  15
ATOM     15  C   UNL     1     -17.100  -5.580 -19.712  1.00  0.00    -0.000 C 
BRANCH  15  16
ATOM     16  C   UNL     1     -17.479  -6.414 -20.949  1.00  0.00    -0.000 C 
BRANCH  16  17
ATOM     17  C   UNL     1     -17.095  -5.721 -22.267  1.00  0.00    -0.000 C 
BRANCH  17  18
ATOM     18  C   UNL     1     -17.841  -6.303 -23.482  1.00  0.00    -0.000 C 
BRANCH  18  19
ATOM     19  C   UNL     1     -17.043  -6.154 -24.786  1.00  0.00    -0.003 C 
ATOM     20  C   UNL     1     -16.639  -7.499 -25.388  1.00  0.00     0.004 C 
ENDBRANCH  18  19
ENDBRANCH  17  18
ENDBRANCH  16  17
ENDBRANCH  15  16
ENDBRANCH  14  15
ENDBRANCH  13  14
ENDBRANCH  12  13
ENDBRANCH   1  12
TORSDOF 16
ENDMDL
MODEL 6
REMARK VINA RESULT:     3.593      4.793      5.423
REMARK INTER + INTRA:           5.971
REMARK INTER:                   6.868
REMARK INTRA:                  -0.897
REMARK UNBOUND:                -0.982
REMARK SMILES CCCCCCCCCCCCCCCCCC(=O)[O-]
REMARK SMILES IDX 10 1 11 2 12 3 13 4 14 5 15 6 16 7 17 8 18 9 19 10 20 11
REMARK SMILES IDX 9 12 8 13 7 14 6 15 5 16 4 17 3 18 2 19 1 20
REMARK H PARENT
REMARK Flexibility Score: inf
ROOT
ATOM      1  C   UNL     1     -14.655  -3.466 -16.753  1.00  0.00     0.000 C 
ENDROOT
BRANCH   1   2
ATOM      2  C   UNL     1     -13.949  -4.568 -17.559  1.00  0.00     0.000 C 
BRANCH   2   3
ATOM      3  C   UNL     1     -14.939  -5.502 -18.277  1.00  0.00     0.000 C 
BRANCH   3   4
ATOM      4  C   UNL     1     -15.781  -4.769 -19.334  1.00  0.00     0.000 C 
BRANCH   4   5
ATOM      5  C   UNL     1     -17.182  -5.382 -19.505  1.00  0.00     0.000 C 
BRANCH   5   6
ATOM      6  C   UNL     1     -17.239  -6.418 -20.639  1.00  0.00     0.000 C 
BRANCH   6   7
ATOM      7  C   UNL     1     -17.324  -5.770 -22.029  1.00  0.00     0.006 C 
BRANCH   7   8
ATOM      8  C   UNL     1     -17.620  -6.818 -23.105  1.00  0.00     0.053 C 
BRANCH   8   9
ATOM      9  C   UNL     1     -17.292  -6.280 -24.463  1.00  0.00     0.041 C 
ATOM     10  O   UNL     1     -17.031  -7.069 -25.410  1.00  0.00    -0.550 OA
ATOM     11  O   UNL     1     -17.327  -4.912 -24.697  1.00  0.00    -0.550 OA
ENDBRANCH   8   9
ENDBRANCH   7   8
ENDBRANCH   6   7
ENDBRANCH   5   6
ENDBRANCH   4   5
ENDBRANCH   3   4
ENDBRANCH   2   3
ENDBRANCH   1   2
BRANCH   1  12
ATOM     12  C   UNL     1     -13.751  -2.246 -16.505  1.00  0.00     0.000 C 
BRANCH  12  13
ATOM     13  C   UNL     1     -13.519  -1.972 -15.010  1.00  0.00    -0.000 C 
BRANCH  13  14
ATOM     14  C   UNL     1     -14.474  -2.771 -14.106  1.00  0.00    -0.000 C 
BRANCH  14  15
ATOM     15  C   UNL     1     -13.739  -3.809 -13.243  1.00  0.00    -0.000 C 
BRANCH  15  16
ATOM     16  C   UNL     1     -12.481  -3.233 -12.569  1.00  0.00    -0.000 C 
BRANCH  16  17
ATOM     17  C   UNL     1     -12.403  -3.577 -11.073  1.00  0.00    -0.000 C 
BRANCH  17  18
ATOM     18  C   UNL     1     -13.791  -3.663 -10.411  1.00  0.00    -0.000 C 
BRANCH  18  19
ATOM     19  C   UNL     1     -13.764  -4.450  -9.092  1.00  0.00    -0.003 C 
ATOM     20  C   UNL     1     -13.843  -5.961  -9.304  1.00  0.00     0.004 C 
ENDBRANCH  18  19
ENDBRANCH  17  18
ENDBRANCH  16  17
ENDBRANCH  15  16
ENDBRANCH  14  15
ENDBRANCH  13  14
ENDBRANCH  12  13
ENDBRANCH   1  12
TORSDOF 16
ENDMDL
MODEL 7
REMARK VINA RESULT:     3.864      4.913      5.405
REMARK INTER + INTRA:           6.497
REMARK INTER:                   7.037
REMARK INTRA:                  -0.540
REMARK UNBOUND:                -0.982
REMARK SMILES CCCCCCCCCCCCCCCCCC(=O)[O-]
REMARK SMILES IDX 10 1 11 2 12 3 13 4 14 5 15 6 16 7 17 8 18 9 19 10 20 11
REMARK SMILES IDX 9 12 8 13 7 14 6 15 5 16 4 17 3 18 2 19 1 20
REMARK H PARENT
REMARK Flexibility Score: inf
ROOT
ATOM      1  C   UNL     1     -14.496  -4.446 -16.679  1.00  0.00     0.000 C 
ENDROOT
BRANCH   1   2
ATOM      2  C   UNL     1     -14.476  -4.631 -18.205  1.00  0.00     0.000 C 
BRANCH   2   3
ATOM      3  C   UNL     1     -15.633  -5.511 -18.710  1.00  0.00     0.000 C 
BRANCH   3   4
ATOM      4  C   UNL     1     -16.371  -4.886 -19.905  1.00  0.00     0.000 C 
BRANCH   4   5
ATOM      5  C   UNL     1     -16.984  -5.942 -20.841  1.00  0.00     0.000 C 
BRANCH   5   6
ATOM      6  C   UNL     1     -17.118  -5.441 -22.288  1.00  0.00     0.000 C 
BRANCH   6   7
ATOM      7  C   UNL     1     -17.369  -6.580 -23.288  1.00  0.00     0.006 C 
BRANCH   7   8
ATOM      8  C   UNL     1     -17.116  -6.115 -24.724  1.00  0.00     0.053 C 
BRANCH   8   9
ATOM      9  C   UNL     1     -16.688  -7.266 -25.579  1.00  0.00     0.041 C 
ATOM     10  O   UNL     1     -17.473  -7.741 -26.442  1.00  0.00    -0.550 OA
ATOM     11  O   UNL     1     -15.403  -7.779 -25.461  1.00  0.00    -0.550 OA
ENDBRANCH   8   9
ENDBRANCH   7   8
ENDBRANCH   6   7
ENDBRANCH   5   6
ENDBRANCH   4   5
ENDBRANCH   3   4
ENDBRANCH   2   3
ENDBRANCH   1   2
BRANCH   1  12
ATOM     12  C   UNL     1     -14.217  -2.993 -16.257  1.00  0.00     0.000 C 
BRANCH  12  13
ATOM     13  C   UNL     1     -14.140  -2.823 -14.731  1.00  0.00    -0.000 C 
BRANCH  13  14
ATOM     14  C   UNL     1     -12.853  -2.114 -14.277  1.00  0.00    -0.000 C 
BRANCH  14  15
ATOM     15  C   UNL     1     -12.138  -2.859 -13.138  1.00  0.00    -0.000 C 
BRANCH  15  16
ATOM     16  C   UNL     1     -13.123  -3.508 -12.148  1.00  0.00    -0.000 C 
BRANCH  16  17
ATOM     17  C   UNL     1     -12.471  -3.827 -10.793  1.00  0.00    -0.000 C 
BRANCH  17  18
ATOM     18  C   UNL     1     -13.283  -3.284  -9.602  1.00  0.00    -0.000 C 
BRANCH  18  19
ATOM     19  C   UNL     1     -14.507  -4.154  -9.280  1.00  0.00    -0.003 C 
ATOM     20  C   UNL     1     -14.129  -5.581  -8.883  1.00  0.00     0.004 C 
ENDBRANCH  18  19
ENDBRANCH  17  18
ENDBRANCH  16  17
ENDBRANCH  15  16
ENDBRANCH  14  15
ENDBRANCH  13  14
ENDBRANCH  12  13
ENDBRANCH   1  12
TORSDOF 16
ENDMDL
MODEL 8
REMARK VINA RESULT:     3.866      4.379      9.802
REMARK INTER + INTRA:           6.500
REMARK INTER:                   5.159
REMARK INTRA:                   1.341
REMARK UNBOUND:                -0.982
REMARK SMILES CCCCCCCCCCCCCCCCCC(=O)[O-]
REMARK SMILES IDX 10 1 11 2 12 3 13 4 14 5 15 6 16 7 17 8 18 9 19 10 20 11
REMARK SMILES IDX 9 12 8 13 7 14 6 15 5 16 4 17 3 18 2 19 1 20
REMARK H PARENT
REMARK Flexibility Score: inf
ROOT
ATOM      1  C   UNL     1     -14.234  -6.537 -14.580  1.00  0.00     0.000 C 
ENDROOT
BRANCH   1   2
ATOM      2  C   UNL     1     -13.510  -5.181 -14.601  1.00  0.00     0.000 C 
BRANCH   2   3
ATOM      3  C   UNL     1     -14.305  -4.075 -13.884  1.00  0.00     0.000 C 
BRANCH   3   4
ATOM      4  C   UNL     1     -14.249  -2.731 -14.628  1.00  0.00     0.000 C 
BRANCH   4   5
ATOM      5  C   UNL     1     -12.901  -2.011 -14.451  1.00  0.00     0.000 C 
BRANCH   5   6
ATOM      6  C   UNL     1     -12.341  -2.149 -13.026  1.00  0.00     0.000 C 
BRANCH   6   7
ATOM      7  C   UNL     1     -12.331  -3.604 -12.533  1.00  0.00     0.006 C 
BRANCH   7   8
ATOM      8  C   UNL     1     -12.009  -3.674 -11.038  1.00  0.00     0.053 C 
BRANCH   8   9
ATOM      9  C   UNL     1     -13.249  -3.956 -10.248  1.00  0.00     0.041 C 
ATOM     10  O   UNL     1     -13.613  -5.145 -10.044  1.00  0.00    -0.550 OA
ATOM     11  O   UNL     1     -13.974  -2.910  -9.694  1.00  0.00    -0.550 OA
ENDBRANCH   8   9
ENDBRANCH   7   8
ENDBRANCH   6   7
ENDBRANCH   5   6
ENDBRANCH   4   5
ENDBRANCH   3   4
ENDBRANCH   2   3
ENDBRANCH   1   2
BRANCH   1  12
ATOM     12  C   UNL     1     -13.315  -7.702 -14.989  1.00  0.00     0.000 C 
BRANCH  12  13
ATOM     13  C   UNL     1     -13.140  -7.813 -16.513  1.00  0.00    -0.000 C 
BRANCH  13  14
ATOM     14  C   UNL     1     -13.899  -9.010 -17.111  1.00  0.00    -0.000 C 
BRANCH  14  15
ATOM     15  C   UNL     1     -13.089  -9.741 -18.195  1.00  0.00    -0.000 C 
BRANCH  15  16
ATOM     16  C   UNL     1     -11.875 -10.492 -17.619  1.00  0.00    -0.000 C 
BRANCH  16  17
ATOM     17  C   UNL     1     -11.879 -11.985 -17.984  1.00  0.00    -0.000 C 
BRANCH  17  18
ATOM     18  C   UNL     1     -12.576 -12.266 -19.327  1.00  0.00    -0.000 C 
BRANCH  18  19
ATOM     19  C   UNL     1     -12.022 -13.516 -20.027  1.00  0.00    -0.003 C 
ATOM     20  C   UNL     1     -12.984 -14.086 -21.068  1.00  0.00     0.004 C 
ENDBRANCH  18  19
ENDBRANCH  17  18
ENDBRANCH  16  17
ENDBRANCH  15  16
ENDBRANCH  14  15
ENDBRANCH  13  14
ENDBRANCH  12  13
ENDBRANCH   1  12
TORSDOF 16
ENDMDL
MODEL 9
REMARK VINA RESULT:     3.989      1.150      1.908
REMARK INTER + INTRA:           6.738
REMARK INTER:                   7.180
REMARK INTRA:                  -0.443
REMARK UNBOUND:                -0.982
REMARK SMILES CCCCCCCCCCCCCCCCCC(=O)[O-]
REMARK SMILES IDX 10 1 11 2 12 3 13 4 14 5 15 6 16 7 17 8 18 9 19 10 20 11
REMARK SMILES IDX 9 12 8 13 7 14 6 15 5 16 4 17 3 18 2 19 1 20
REMARK H PARENT
REMARK Flexibility Score: inf
ROOT
ATOM      1  C   UNL     1     -14.213  -3.711 -14.040  1.00  0.00     0.000 C 
ENDROOT
BRANCH   1   2
ATOM      2  C   UNL     1     -13.605  -4.906 -14.791  1.00  0.00     0.000 C 
BRANCH   2   3
ATOM      3  C   UNL     1     -14.620  -6.040 -15.018  1.00  0.00     0.000 C 
BRANCH   3   4
ATOM      4  C   UNL     1     -13.943  -7.404 -15.233  1.00  0.00     0.000 C 
BRANCH   4   5
ATOM      5  C   UNL     1     -13.386  -7.571 -16.658  1.00  0.00     0.000 C 
BRANCH   5   6
ATOM      6  C   UNL     1     -12.024  -8.283 -16.680  1.00  0.00     0.000 C 
BRANCH   6   7
ATOM      7  C   UNL     1     -12.141  -9.771 -17.042  1.00  0.00     0.006 C 
BRANCH   7   8
ATOM      8  C   UNL     1     -11.920  -9.989 -18.541  1.00  0.00     0.053 C 
BRANCH   8   9
ATOM      9  C   UNL     1     -11.933 -11.450 -18.866  1.00  0.00     0.041 C 
ATOM     10  O   UNL     1     -11.947 -11.833 -20.066  1.00  0.00    -0.550 OA
ATOM     11  O   UNL     1     -11.876 -12.390 -17.845  1.00  0.00    -0.550 OA
ENDBRANCH   8   9
ENDBRANCH   7   8
ENDBRANCH   6   7
ENDBRANCH   5   6
ENDBRANCH   4   5
ENDBRANCH   3   4
ENDBRANCH   2   3
ENDBRANCH   1   2
BRANCH   1  12
ATOM     12  C   UNL     1     -13.156  -2.670 -13.634  1.00  0.00     0.000 C 
BRANCH  12  13
ATOM     13  C   UNL     1     -12.361  -3.085 -12.385  1.00  0.00    -0.000 C 
BRANCH  13  14
ATOM     14  C   UNL     1     -11.913  -1.881 -11.540  1.00  0.00    -0.000 C 
BRANCH  14  15
ATOM     15  C   UNL     1     -11.885  -2.194 -10.034  1.00  0.00    -0.000 C 
BRANCH  15  16
ATOM     16  C   UNL     1     -13.202  -1.823  -9.330  1.00  0.00    -0.000 C 
BRANCH  16  17
ATOM     17  C   UNL     1     -14.038  -3.057  -8.954  1.00  0.00    -0.000 C 
BRANCH  17  18
ATOM     18  C   UNL     1     -13.877  -4.212  -9.960  1.00  0.00    -0.000 C 
BRANCH  18  19
ATOM     19  C   UNL     1     -13.359  -5.498  -9.299  1.00  0.00    -0.003 C 
ATOM     20  C   UNL     1     -14.421  -6.596  -9.232  1.00  0.00     0.004 C 
ENDBRANCH  18  19
ENDBRANCH  17  18
ENDBRANCH  16  17
ENDBRANCH  15  16
ENDBRANCH  14  15
ENDBRANCH  13  14
ENDBRANCH  12  13
ENDBRANCH   1  12
TORSDOF 16
ENDMDL
