MODEL 1
REMARK VINA RESULT:    -5.030      0.000      0.000
REMARK INTER + INTRA:          -5.324
REMARK INTER:                  -5.324
REMARK INTRA:                   0.000
REMARK UNBOUND:                 0.000
REMARK SMILES O=c1ccc2cc(O)c(O)cc2o1
REMARK SMILES IDX 4 1 3 2 2 3 1 4 13 5 12 6 11 7 9 8 7 9 6 10 5 11 8 12 10 14
REMARK H PARENT 8 13 10 15
REMARK Flexibility Score: inf
ROOT
ATOM      1  C   UNL     1      -8.642  -7.443  90.441  1.00  0.00     0.019 A 
ATOM      2  C   UNL     1      -9.784  -6.700  90.738  1.00  0.00     0.094 A 
ATOM      3  C   UNL     1     -11.041  -7.246  90.458  1.00  0.00     0.336 A 
ATOM      4  O   UNL     1     -12.083  -6.592  90.719  1.00  0.00    -0.246 OA
ATOM      5  O   UNL     1     -11.142  -8.457  89.915  1.00  0.00    -0.423 OA
ATOM      6  C   UNL     1     -10.079  -9.199  89.616  1.00  0.00     0.142 A 
ATOM      7  C   UNL     1     -10.246 -10.465  89.046  1.00  0.00     0.098 A 
ATOM      8  C   UNL     1      -9.133 -11.252  88.728  1.00  0.00     0.161 A 
ATOM      9  C   UNL     1      -7.837 -10.769  88.982  1.00  0.00     0.158 A 
ATOM     10  C   UNL     1      -7.662  -9.499  89.553  1.00  0.00     0.062 A 
ATOM     11  C   UNL     1      -8.778  -8.712  89.871  1.00  0.00     0.022 A 
ENDROOT
BRANCH   9  12
ATOM     12  O   UNL     1      -6.727 -11.550  88.667  1.00  0.00    -0.504 OA
ATOM     13  H   UNL     1      -6.085 -11.876  89.381  1.00  0.00     0.293 HD
ENDBRANCH   9  12
BRANCH   8  14
ATOM     14  O   UNL     1      -9.334 -12.510  88.161  1.00  0.00    -0.504 OA
ATOM     15  H   UNL     1      -9.001 -13.358  88.602  1.00  0.00     0.293 HD
ENDBRANCH   8  14
TORSDOF 2
ENDMDL
MODEL 2
REMARK VINA RESULT:    -4.817      1.242      2.301
REMARK INTER + INTRA:          -5.099
REMARK INTER:                  -5.099
REMARK INTRA:                   0.000
REMARK UNBOUND:                 0.000
REMARK SMILES O=c1ccc2cc(O)c(O)cc2o1
REMARK SMILES IDX 4 1 3 2 2 3 1 4 13 5 12 6 11 7 9 8 7 9 6 10 5 11 8 12 10 14
REMARK H PARENT 8 13 10 15
REMARK Flexibility Score: inf
ROOT
ATOM      1  C   UNL     1     -11.122  -8.143  89.960  1.00  0.00     0.019 A 
ATOM      2  C   UNL     1     -10.851  -6.887  90.502  1.00  0.00     0.094 A 
ATOM      3  C   UNL     1      -9.520  -6.512  90.711  1.00  0.00     0.336 A 
ATOM      4  O   UNL     1      -9.254  -5.382  91.198  1.00  0.00    -0.246 OA
ATOM      5  O   UNL     1      -8.529  -7.342  90.396  1.00  0.00    -0.423 OA
ATOM      6  C   UNL     1      -8.743  -8.549  89.877  1.00  0.00     0.142 A 
ATOM      7  C   UNL     1      -7.662  -9.379  89.566  1.00  0.00     0.098 A 
ATOM      8  C   UNL     1      -7.879 -10.649  89.020  1.00  0.00     0.161 A 
ATOM      9  C   UNL     1      -9.192 -11.096  88.781  1.00  0.00     0.158 A 
ATOM     10  C   UNL     1     -10.280 -10.267  89.092  1.00  0.00     0.062 A 
ATOM     11  C   UNL     1     -10.061  -8.995  89.638  1.00  0.00     0.022 A 
ENDROOT
BRANCH   9  12
ATOM     12  O   UNL     1      -9.410 -12.361  88.237  1.00  0.00    -0.504 OA
ATOM     13  H   UNL     1      -8.846 -13.159  88.505  1.00  0.00     0.293 HD
ENDBRANCH   9  12
BRANCH   8  14
ATOM     14  O   UNL     1      -6.780 -11.453  88.721  1.00  0.00    -0.504 OA
ATOM     15  H   UNL     1      -5.890 -11.345  89.192  1.00  0.00     0.293 HD
ENDBRANCH   8  14
TORSDOF 2
ENDMDL
MODEL 3
REMARK VINA RESULT:    -4.784      7.216      7.966
REMARK INTER + INTRA:          -5.064
REMARK INTER:                  -5.064
REMARK INTRA:                   0.000
REMARK UNBOUND:                 0.000
REMARK SMILES O=c1ccc2cc(O)c(O)cc2o1
REMARK SMILES IDX 4 1 3 2 2 3 1 4 13 5 12 6 11 7 9 8 7 9 6 10 5 11 8 12 10 14
REMARK H PARENT 8 13 10 15
REMARK Flexibility Score: inf
ROOT
ATOM      1  C   UNL     1     -13.514 -10.647  97.981  1.00  0.00     0.019 A 
ATOM      2  C   UNL     1     -14.430  -9.730  98.496  1.00  0.00     0.094 A 
ATOM      3  C   UNL     1     -15.291  -9.064  97.618  1.00  0.00     0.336 A 
ATOM      4  O   UNL     1     -16.125  -8.234  98.063  1.00  0.00    -0.246 OA
ATOM      5  O   UNL     1     -15.234  -9.303  96.310  1.00  0.00    -0.423 OA
ATOM      6  C   UNL     1     -14.376 -10.169  95.777  1.00  0.00     0.142 A 
ATOM      7  C   UNL     1     -14.362 -10.380  94.395  1.00  0.00     0.098 A 
ATOM      8  C   UNL     1     -13.463 -11.288  93.826  1.00  0.00     0.161 A 
ATOM      9  C   UNL     1     -12.566 -11.996  94.647  1.00  0.00     0.158 A 
ATOM     10  C   UNL     1     -12.575 -11.788  96.035  1.00  0.00     0.062 A 
ATOM     11  C   UNL     1     -13.477 -10.878  96.603  1.00  0.00     0.022 A 
ENDROOT
BRANCH   9  12
ATOM     12  O   UNL     1     -11.669 -12.902  94.083  1.00  0.00    -0.504 OA
ATOM     13  H   UNL     1     -10.742 -13.043  94.468  1.00  0.00     0.293 HD
ENDBRANCH   9  12
BRANCH   8  14
ATOM     14  O   UNL     1     -13.473 -11.476  92.444  1.00  0.00    -0.504 OA
ATOM     15  H   UNL     1     -13.036 -10.820  91.808  1.00  0.00     0.293 HD
ENDBRANCH   8  14
TORSDOF 2
ENDMDL
MODEL 4
REMARK VINA RESULT:    -4.680      7.476      8.329
REMARK INTER + INTRA:          -4.954
REMARK INTER:                  -4.954
REMARK INTRA:                   0.000
REMARK UNBOUND:                 0.000
REMARK SMILES O=c1ccc2cc(O)c(O)cc2o1
REMARK SMILES IDX 4 1 3 2 2 3 1 4 13 5 12 6 11 7 9 8 7 9 6 10 5 11 8 12 10 14
REMARK H PARENT 8 13 10 15
REMARK Flexibility Score: inf
ROOT
ATOM      1  C   UNL     1     -15.193  -9.307  96.620  1.00  0.00     0.019 A 
ATOM      2  C   UNL     1     -15.142  -9.221  98.011  1.00  0.00     0.094 A 
ATOM      3  C   UNL     1     -14.218 -10.008  98.705  1.00  0.00     0.336 A 
ATOM      4  O   UNL     1     -14.155  -9.945  99.960  1.00  0.00    -0.246 OA
ATOM      5  O   UNL     1     -13.401 -10.827  98.046  1.00  0.00    -0.423 OA
ATOM      6  C   UNL     1     -13.417 -10.939  96.720  1.00  0.00     0.142 A 
ATOM      7  C   UNL     1     -12.536 -11.816  96.081  1.00  0.00     0.098 A 
ATOM      8  C   UNL     1     -12.546 -11.941  94.688  1.00  0.00     0.161 A 
ATOM      9  C   UNL     1     -13.448 -11.180  93.922  1.00  0.00     0.158 A 
ATOM     10  C   UNL     1     -14.336 -10.299  94.557  1.00  0.00     0.062 A 
ATOM     11  C   UNL     1     -14.324 -10.175  95.953  1.00  0.00     0.022 A 
ENDROOT
BRANCH   9  12
ATOM     12  O   UNL     1     -13.460 -11.303  92.533  1.00  0.00    -0.504 OA
ATOM     13  H   UNL     1     -12.606 -11.428  92.003  1.00  0.00     0.293 HD
ENDBRANCH   9  12
BRANCH   8  14
ATOM     14  O   UNL     1     -11.654 -12.825  94.081  1.00  0.00    -0.504 OA
ATOM     15  H   UNL     1     -11.107 -13.489  94.615  1.00  0.00     0.293 HD
ENDBRANCH   8  14
TORSDOF 2
ENDMDL
MODEL 5
REMARK VINA RESULT:    -4.502      8.382     10.086
REMARK INTER + INTRA:          -4.765
REMARK INTER:                  -4.765
REMARK INTRA:                   0.000
REMARK UNBOUND:                 0.000
REMARK SMILES O=c1ccc2cc(O)c(O)cc2o1
REMARK SMILES IDX 4 1 3 2 2 3 1 4 13 5 12 6 11 7 9 8 7 9 6 10 5 11 8 12 10 14
REMARK H PARENT 8 13 10 15
REMARK Flexibility Score: inf
ROOT
ATOM      1  C   UNL     1     -12.668 -11.389  96.601  1.00  0.00     0.019 A 
ATOM      2  C   UNL     1     -12.870 -11.350  95.221  1.00  0.00     0.094 A 
ATOM      3  C   UNL     1     -13.915 -10.575  94.710  1.00  0.00     0.336 A 
ATOM      4  O   UNL     1     -14.113 -10.526  93.468  1.00  0.00    -0.246 OA
ATOM      5  O   UNL     1     -14.705  -9.885  95.529  1.00  0.00    -0.423 OA
ATOM      6  C   UNL     1     -14.547  -9.894  96.851  1.00  0.00     0.142 A 
ATOM      7  C   UNL     1     -15.408  -9.149  97.663  1.00  0.00     0.098 A 
ATOM      8  C   UNL     1     -15.250  -9.153  99.054  1.00  0.00     0.161 A 
ATOM      9  C   UNL     1     -14.219  -9.910  99.641  1.00  0.00     0.158 A 
ATOM     10  C   UNL     1     -13.353 -10.660  98.830  1.00  0.00     0.062 A 
ATOM     11  C   UNL     1     -13.513 -10.654  97.438  1.00  0.00     0.022 A 
ENDROOT
BRANCH   9  12
ATOM     12  O   UNL     1     -14.060  -9.915 101.025  1.00  0.00    -0.504 OA
ATOM     13  H   UNL     1     -14.288 -10.730 101.584  1.00  0.00     0.293 HD
ENDBRANCH   9  12
BRANCH   8  14
ATOM     14  O   UNL     1     -16.125  -8.400  99.836  1.00  0.00    -0.504 OA
ATOM     15  H   UNL     1     -15.963  -8.241 100.823  1.00  0.00     0.293 HD
ENDBRANCH   8  14
TORSDOF 2
ENDMDL
MODEL 6
REMARK VINA RESULT:    -4.277      1.864      2.187
REMARK INTER + INTRA:          -4.527
REMARK INTER:                  -4.527
REMARK INTRA:                   0.000
REMARK UNBOUND:                 0.000
REMARK SMILES O=c1ccc2cc(O)c(O)cc2o1
REMARK SMILES IDX 4 1 3 2 2 3 1 4 13 5 12 6 11 7 9 8 7 9 6 10 5 11 8 12 10 14
REMARK H PARENT 8 13 10 15
REMARK Flexibility Score: inf
ROOT
ATOM      1  C   UNL     1     -10.945  -8.735  91.661  1.00  0.00     0.019 A 
ATOM      2  C   UNL     1     -12.333  -8.746  91.804  1.00  0.00     0.094 A 
ATOM      3  C   UNL     1     -13.098  -9.531  90.935  1.00  0.00     0.336 A 
ATOM      4  O   UNL     1     -14.351  -9.555  91.047  1.00  0.00    -0.246 OA
ATOM      5  O   UNL     1     -12.508 -10.255  89.987  1.00  0.00    -0.423 OA
ATOM      6  C   UNL     1     -11.188 -10.274  89.817  1.00  0.00     0.142 A 
ATOM      7  C   UNL     1     -10.624 -11.055  88.804  1.00  0.00     0.098 A 
ATOM      8  C   UNL     1      -9.237 -11.080  88.617  1.00  0.00     0.161 A 
ATOM      9  C   UNL     1      -8.403 -10.315  89.454  1.00  0.00     0.158 A 
ATOM     10  C   UNL     1      -8.964  -9.529  90.472  1.00  0.00     0.062 A 
ATOM     11  C   UNL     1     -10.353  -9.506  90.657  1.00  0.00     0.022 A 
ENDROOT
BRANCH   9  12
ATOM     12  O   UNL     1      -7.021 -10.339  89.270  1.00  0.00    -0.504 OA
ATOM     13  H   UNL     1      -6.579  -9.853  88.498  1.00  0.00     0.293 HD
ENDBRANCH   9  12
BRANCH   8  14
ATOM     14  O   UNL     1      -8.706 -11.869  87.598  1.00  0.00    -0.504 OA
ATOM     15  H   UNL     1      -8.035 -12.605  87.781  1.00  0.00     0.293 HD
ENDBRANCH   8  14
TORSDOF 2
ENDMDL
MODEL 7
REMARK VINA RESULT:    -4.229      9.223     10.778
REMARK INTER + INTRA:          -4.476
REMARK INTER:                  -4.476
REMARK INTRA:                   0.000
REMARK UNBOUND:                 0.000
REMARK SMILES O=c1ccc2cc(O)c(O)cc2o1
REMARK SMILES IDX 4 1 3 2 2 3 1 4 13 5 12 6 11 7 9 8 7 9 6 10 5 11 8 12 10 14
REMARK H PARENT 8 13 10 15
REMARK Flexibility Score: inf
ROOT
ATOM      1  C   UNL     1     -13.331 -11.083  96.953  1.00  0.00     0.019 A 
ATOM      2  C   UNL     1     -13.352 -10.230  95.850  1.00  0.00     0.094 A 
ATOM      3  C   UNL     1     -13.688  -8.886  96.039  1.00  0.00     0.336 A 
ATOM      4  O   UNL     1     -13.712  -8.099  95.057  1.00  0.00    -0.246 OA
ATOM      5  O   UNL     1     -13.982  -8.430  97.254  1.00  0.00    -0.423 OA
ATOM      6  C   UNL     1     -13.974  -9.209  98.333  1.00  0.00     0.142 A 
ATOM      7  C   UNL     1     -14.292  -8.675  99.585  1.00  0.00     0.098 A 
ATOM      8  C   UNL     1     -14.286  -9.487 100.724  1.00  0.00     0.161 A 
ATOM      9  C   UNL     1     -13.958 -10.851 100.612  1.00  0.00     0.158 A 
ATOM     10  C   UNL     1     -13.638 -11.393  99.358  1.00  0.00     0.062 A 
ATOM     11  C   UNL     1     -13.645 -10.577  98.218  1.00  0.00     0.022 A 
ENDROOT
BRANCH   9  12
ATOM     12  O   UNL     1     -13.951 -11.662 101.746  1.00  0.00    -0.504 OA
ATOM     13  H   UNL     1     -13.450 -12.543 101.766  1.00  0.00     0.293 HD
ENDBRANCH   9  12
BRANCH   8  14
ATOM     14  O   UNL     1     -14.608  -8.924 101.958  1.00  0.00    -0.504 OA
ATOM     15  H   UNL     1     -15.364  -8.258 102.065  1.00  0.00     0.293 HD
ENDBRANCH   8  14
TORSDOF 2
ENDMDL
MODEL 8
REMARK VINA RESULT:    -4.161      2.708      3.841
REMARK INTER + INTRA:          -4.405
REMARK INTER:                  -4.405
REMARK INTRA:                   0.000
REMARK UNBOUND:                 0.000
REMARK SMILES O=c1ccc2cc(O)c(O)cc2o1
REMARK SMILES IDX 4 1 3 2 2 3 1 4 13 5 12 6 11 7 9 8 7 9 6 10 5 11 8 12 10 14
REMARK H PARENT 8 13 10 15
REMARK Flexibility Score: inf
ROOT
ATOM      1  C   UNL     1     -12.989 -10.083  90.529  1.00  0.00     0.019 A 
ATOM      2  C   UNL     1     -13.918 -10.510  89.580  1.00  0.00     0.094 A 
ATOM      3  C   UNL     1     -13.458 -10.983  88.347  1.00  0.00     0.336 A 
ATOM      4  O   UNL     1     -14.280 -11.373  87.477  1.00  0.00    -0.246 OA
ATOM      5  O   UNL     1     -12.154 -11.025  88.085  1.00  0.00    -0.423 OA
ATOM      6  C   UNL     1     -11.235 -10.628  88.963  1.00  0.00     0.142 A 
ATOM      7  C   UNL     1      -9.878 -10.695  88.633  1.00  0.00     0.098 A 
ATOM      8  C   UNL     1      -8.905 -10.280  89.549  1.00  0.00     0.161 A 
ATOM      9  C   UNL     1      -9.292  -9.791  90.811  1.00  0.00     0.158 A 
ATOM     10  C   UNL     1     -10.652  -9.722  91.147  1.00  0.00     0.062 A 
ATOM     11  C   UNL     1     -11.625 -10.139  90.228  1.00  0.00     0.022 A 
ENDROOT
BRANCH   9  12
ATOM     12  O   UNL     1      -8.325  -9.377  91.725  1.00  0.00    -0.504 OA
ATOM     13  H   UNL     1      -8.490  -9.409  92.725  1.00  0.00     0.293 HD
ENDBRANCH   9  12
BRANCH   8  14
ATOM     14  O   UNL     1      -7.560 -10.358  89.190  1.00  0.00    -0.504 OA
ATOM     15  H   UNL     1      -7.250 -10.231  88.234  1.00  0.00     0.293 HD
ENDBRANCH   8  14
TORSDOF 2
ENDMDL
MODEL 9
REMARK VINA RESULT:    -3.196      7.769      9.552
REMARK INTER + INTRA:          -3.383
REMARK INTER:                  -3.383
REMARK INTRA:                   0.000
REMARK UNBOUND:                 0.000
REMARK SMILES O=c1ccc2cc(O)c(O)cc2o1
REMARK SMILES IDX 4 1 3 2 2 3 1 4 13 5 12 6 11 7 9 8 7 9 6 10 5 11 8 12 10 14
REMARK H PARENT 8 13 10 15
REMARK Flexibility Score: inf
ROOT
ATOM      1  C   UNL     1     -13.862 -10.315  94.580  1.00  0.00     0.019 A 
ATOM      2  C   UNL     1     -12.823 -11.056  94.015  1.00  0.00     0.094 A 
ATOM      3  C   UNL     1     -11.929 -11.723  94.858  1.00  0.00     0.336 A 
ATOM      4  O   UNL     1     -10.986 -12.396  94.369  1.00  0.00    -0.246 OA
ATOM      5  O   UNL     1     -12.069 -11.651  96.180  1.00  0.00    -0.423 OA
ATOM      6  C   UNL     1     -13.046 -10.957  96.760  1.00  0.00     0.142 A 
ATOM      7  C   UNL     1     -13.144 -10.917  98.154  1.00  0.00     0.098 A 
ATOM      8  C   UNL     1     -14.167 -10.189  98.771  1.00  0.00     0.161 A 
ATOM      9  C   UNL     1     -15.105  -9.492  97.987  1.00  0.00     0.158 A 
ATOM     10  C   UNL     1     -15.011  -9.528  96.588  1.00  0.00     0.062 A 
ATOM     11  C   UNL     1     -13.985 -10.258  95.971  1.00  0.00     0.022 A 
ENDROOT
BRANCH   9  12
ATOM     12  O   UNL     1     -16.125  -8.767  98.600  1.00  0.00    -0.504 OA
ATOM     13  H   UNL     1     -16.546  -9.072  99.470  1.00  0.00     0.293 HD
ENDBRANCH   9  12
BRANCH   8  14
ATOM     14  O   UNL     1     -14.237 -10.169 100.164  1.00  0.00    -0.504 OA
ATOM     15  H   UNL     1     -14.080  -9.324 100.699  1.00  0.00     0.293 HD
ENDBRANCH   8  14
TORSDOF 2
ENDMDL
