MODEL 1
REMARK VINA RESULT:    -6.403      0.000      0.000
REMARK INTER + INTRA:          -7.954
REMARK INTER:                  -7.714
REMARK INTRA:                  -0.240
REMARK UNBOUND:                -0.240
REMARK SMILES Oc1cc(O)c2cc(O)c(-c3ccc(O)c(O)c3)[o+]c2c1
REMARK SMILES IDX 10 1 19 2 20 3 21 4 2 5 3 6 4 7 6 8 7 9 8 10 11 11 12 12
REMARK SMILES IDX 13 13 14 14 18 15 16 16 15 17 17 19 9 21 1 23 5 25
REMARK H PARENT 15 18 17 20 9 22 1 24 5 26
REMARK Flexibility Score: inf
ROOT
ATOM      1  C   UNL     1     132.610 131.801 143.355  1.00  0.00     0.402 A 
ATOM      2  O   UNL     1     132.846 131.018 142.306  1.00  0.00    -0.202 OA
ATOM      3  C   UNL     1     132.429 129.759 142.226  1.00  0.00     0.368 A 
ATOM      4  C   UNL     1     132.724 129.016 141.080  1.00  0.00     0.162 A 
ATOM      5  C   UNL     1     132.297 127.693 140.968  1.00  0.00     0.128 A 
ATOM      6  C   UNL     1     131.567 127.106 142.006  1.00  0.00     0.093 A 
ATOM      7  C   UNL     1     131.257 127.829 143.165  1.00  0.00     0.136 A 
ATOM      8  C   UNL     1     131.693 129.174 143.284  1.00  0.00     0.125 A 
ATOM      9  C   UNL     1     131.440 129.970 144.413  1.00  0.00     0.078 A 
ATOM     10  C   UNL     1     131.906 131.288 144.460  1.00  0.00     0.223 A 
ENDROOT
BRANCH   1  11
ATOM     11  C   UNL     1     133.119 133.191 143.321  1.00  0.00     0.087 A 
ATOM     12  C   UNL     1     132.503 134.130 142.480  1.00  0.00     0.022 A 
ATOM     13  C   UNL     1     132.953 135.453 142.445  1.00  0.00     0.051 A 
ATOM     14  C   UNL     1     134.015 135.859 143.259  1.00  0.00     0.157 A 
ATOM     15  C   UNL     1     134.173 133.607 144.155  1.00  0.00     0.068 A 
ATOM     16  C   UNL     1     134.626 134.933 144.122  1.00  0.00     0.158 A 
BRANCH  14  17
ATOM     17  O   UNL     1     134.444 137.185 143.202  1.00  0.00    -0.504 OA
ATOM     18  H   UNL     1     135.093 137.570 143.877  1.00  0.00     0.293 HD
ENDBRANCH  14  17
BRANCH  16  19
ATOM     19  O   UNL     1     135.674 135.336 144.948  1.00  0.00    -0.504 OA
ATOM     20  H   UNL     1     136.612 135.469 144.588  1.00  0.00     0.293 HD
ENDBRANCH  16  19
ENDBRANCH   1  11
BRANCH  10  21
ATOM     21  O   UNL     1     131.699 132.063 145.602  1.00  0.00    -0.500 OA
ATOM     22  H   UNL     1     131.027 131.795 146.312  1.00  0.00     0.294 HD
ENDBRANCH  10  21
BRANCH   5  23
ATOM     23  O   UNL     1     132.602 126.969 139.817  1.00  0.00    -0.507 OA
ATOM     24  H   UNL     1     131.897 126.761 139.119  1.00  0.00     0.293 HD
ENDBRANCH   5  23
BRANCH   7  25
ATOM     25  O   UNL     1     130.521 127.173 144.156  1.00  0.00    -0.507 OA
ATOM     26  H   UNL     1     130.929 126.669 144.930  1.00  0.00     0.293 HD
ENDBRANCH   7  25
TORSDOF 6
ENDMDL
MODEL 2
REMARK VINA RESULT:    -6.263      2.915      7.696
REMARK INTER + INTRA:          -7.784
REMARK INTER:                  -7.482
REMARK INTRA:                  -0.302
REMARK UNBOUND:                -0.240
REMARK SMILES Oc1cc(O)c2cc(O)c(-c3ccc(O)c(O)c3)[o+]c2c1
REMARK SMILES IDX 10 1 19 2 20 3 21 4 2 5 3 6 4 7 6 8 7 9 8 10 11 11 12 12
REMARK SMILES IDX 13 13 14 14 18 15 16 16 15 17 17 19 9 21 1 23 5 25
REMARK H PARENT 15 18 17 20 9 22 1 24 5 26
REMARK Flexibility Score: inf
ROOT
ATOM      1  C   UNL     1     133.148 127.902 143.795  1.00  0.00     0.402 A 
ATOM      2  O   UNL     1     132.366 128.966 143.963  1.00  0.00    -0.202 OA
ATOM      3  C   UNL     1     132.719 130.195 143.601  1.00  0.00     0.368 A 
ATOM      4  C   UNL     1     131.828 131.249 143.816  1.00  0.00     0.162 A 
ATOM      5  C   UNL     1     132.170 132.549 143.444  1.00  0.00     0.128 A 
ATOM      6  C   UNL     1     133.412 132.800 142.850  1.00  0.00     0.093 A 
ATOM      7  C   UNL     1     134.322 131.761 142.623  1.00  0.00     0.136 A 
ATOM      8  C   UNL     1     133.979 130.437 143.003  1.00  0.00     0.125 A 
ATOM      9  C   UNL     1     134.834 129.337 142.826  1.00  0.00     0.078 A 
ATOM     10  C   UNL     1     134.427 128.061 143.231  1.00  0.00     0.223 A 
ENDROOT
BRANCH   1  11
ATOM     11  C   UNL     1     132.637 126.582 144.230  1.00  0.00     0.087 A 
ATOM     12  C   UNL     1     131.749 125.879 143.403  1.00  0.00     0.022 A 
ATOM     13  C   UNL     1     131.269 124.623 143.783  1.00  0.00     0.051 A 
ATOM     14  C   UNL     1     131.680 124.045 144.989  1.00  0.00     0.157 A 
ATOM     15  C   UNL     1     133.066 125.990 145.432  1.00  0.00     0.068 A 
ATOM     16  C   UNL     1     132.586 124.729 145.816  1.00  0.00     0.158 A 
BRANCH  14  17
ATOM     17  O   UNL     1     131.182 122.792 145.343  1.00  0.00    -0.504 OA
ATOM     18  H   UNL     1     130.642 122.647 146.188  1.00  0.00     0.293 HD
ENDBRANCH  14  17
BRANCH  16  19
ATOM     19  O   UNL     1     133.013 124.152 147.011  1.00  0.00    -0.504 OA
ATOM     20  H   UNL     1     132.717 123.222 147.286  1.00  0.00     0.293 HD
ENDBRANCH  16  19
ENDBRANCH   1  11
BRANCH  10  21
ATOM     21  O   UNL     1     135.295 126.976 143.101  1.00  0.00    -0.500 OA
ATOM     22  H   UNL     1     136.043 126.972 142.417  1.00  0.00     0.294 HD
ENDBRANCH  10  21
BRANCH   5  23
ATOM     23  O   UNL     1     131.268 133.587 143.668  1.00  0.00    -0.507 OA
ATOM     24  H   UNL     1     130.915 133.792 144.595  1.00  0.00     0.293 HD
ENDBRANCH   5  23
BRANCH   7  25
ATOM     25  O   UNL     1     135.540 132.092 142.022  1.00  0.00    -0.507 OA
ATOM     26  H   UNL     1     135.877 131.694 141.158  1.00  0.00     0.293 HD
ENDBRANCH   7  25
TORSDOF 6
ENDMDL
MODEL 3
REMARK VINA RESULT:    -6.130      1.330      7.078
REMARK INTER + INTRA:          -7.625
REMARK INTER:                  -7.305
REMARK INTRA:                  -0.320
REMARK UNBOUND:                -0.240
REMARK SMILES Oc1cc(O)c2cc(O)c(-c3ccc(O)c(O)c3)[o+]c2c1
REMARK SMILES IDX 10 1 19 2 20 3 21 4 2 5 3 6 4 7 6 8 7 9 8 10 11 11 12 12
REMARK SMILES IDX 13 13 14 14 18 15 16 16 15 17 17 19 9 21 1 23 5 25
REMARK H PARENT 15 18 17 20 9 22 1 24 5 26
REMARK Flexibility Score: inf
ROOT
ATOM      1  C   UNL     1     131.984 131.536 142.472  1.00  0.00     0.402 A 
ATOM      2  O   UNL     1     133.002 132.015 143.183  1.00  0.00    -0.202 OA
ATOM      3  C   UNL     1     133.227 133.314 143.350  1.00  0.00     0.368 A 
ATOM      4  C   UNL     1     134.322 133.720 144.118  1.00  0.00     0.162 A 
ATOM      5  C   UNL     1     134.581 135.077 144.313  1.00  0.00     0.128 A 
ATOM      6  C   UNL     1     133.740 136.037 143.740  1.00  0.00     0.093 A 
ATOM      7  C   UNL     1     132.636 135.656 142.968  1.00  0.00     0.136 A 
ATOM      8  C   UNL     1     132.371 134.277 142.764  1.00  0.00     0.125 A 
ATOM      9  C   UNL     1     131.296 133.803 141.995  1.00  0.00     0.078 A 
ATOM     10  C   UNL     1     131.101 132.427 141.835  1.00  0.00     0.223 A 
ENDROOT
BRANCH   1  11
ATOM     11  C   UNL     1     131.833 130.067 142.367  1.00  0.00     0.087 A 
ATOM     12  C   UNL     1     132.324 129.402 141.234  1.00  0.00     0.022 A 
ATOM     13  C   UNL     1     132.211 128.014 141.121  1.00  0.00     0.051 A 
ATOM     14  C   UNL     1     131.619 127.268 142.146  1.00  0.00     0.157 A 
ATOM     15  C   UNL     1     131.257 129.313 143.406  1.00  0.00     0.068 A 
ATOM     16  C   UNL     1     131.143 127.920 143.296  1.00  0.00     0.158 A 
BRANCH  14  17
ATOM     17  O   UNL     1     131.518 125.884 142.005  1.00  0.00    -0.504 OA
ATOM     18  H   UNL     1     132.313 125.310 141.751  1.00  0.00     0.293 HD
ENDBRANCH  14  17
BRANCH  16  19
ATOM     19  O   UNL     1     130.566 127.180 144.328  1.00  0.00    -0.504 OA
ATOM     20  H   UNL     1     130.768 126.195 144.452  1.00  0.00     0.293 HD
ENDBRANCH  16  19
ENDBRANCH   1  11
BRANCH  10  21
ATOM     21  O   UNL     1     130.063 131.957 141.030  1.00  0.00    -0.500 OA
ATOM     22  H   UNL     1     129.299 132.558 140.740  1.00  0.00     0.294 HD
ENDBRANCH  10  21
BRANCH   5  23
ATOM     23  O   UNL     1     135.679 135.462 145.081  1.00  0.00    -0.507 OA
ATOM     24  H   UNL     1     136.557 135.729 144.653  1.00  0.00     0.293 HD
ENDBRANCH   5  23
BRANCH   7  25
ATOM     25  O   UNL     1     131.843 136.674 142.433  1.00  0.00    -0.507 OA
ATOM     26  H   UNL     1     131.220 137.256 142.974  1.00  0.00     0.293 HD
ENDBRANCH   7  25
TORSDOF 6
ENDMDL
MODEL 4
REMARK VINA RESULT:    -6.072      1.144      2.636
REMARK INTER + INTRA:          -7.554
REMARK INTER:                  -7.237
REMARK INTRA:                  -0.318
REMARK UNBOUND:                -0.240
REMARK SMILES Oc1cc(O)c2cc(O)c(-c3ccc(O)c(O)c3)[o+]c2c1
REMARK SMILES IDX 10 1 19 2 20 3 21 4 2 5 3 6 4 7 6 8 7 9 8 10 11 11 12 12
REMARK SMILES IDX 13 13 14 14 18 15 16 16 15 17 17 19 9 21 1 23 5 25
REMARK H PARENT 15 18 17 20 9 22 1 24 5 26
REMARK Flexibility Score: inf
ROOT
ATOM      1  C   UNL     1     132.886 132.259 142.318  1.00  0.00     0.402 A 
ATOM      2  O   UNL     1     132.203 131.431 143.104  1.00  0.00    -0.202 OA
ATOM      3  C   UNL     1     131.984 130.156 142.806  1.00  0.00     0.368 A 
ATOM      4  C   UNL     1     131.257 129.363 143.698  1.00  0.00     0.162 A 
ATOM      5  C   UNL     1     131.015 128.020 143.413  1.00  0.00     0.128 A 
ATOM      6  C   UNL     1     131.504 127.460 142.227  1.00  0.00     0.093 A 
ATOM      7  C   UNL     1     132.236 128.232 141.317  1.00  0.00     0.136 A 
ATOM      8  C   UNL     1     132.482 129.600 141.603  1.00  0.00     0.125 A 
ATOM      9  C   UNL     1     133.194 130.452 140.743  1.00  0.00     0.078 A 
ATOM     10  C   UNL     1     133.393 131.792 141.091  1.00  0.00     0.223 A 
ENDROOT
BRANCH   1  11
ATOM     11  C   UNL     1     133.071 133.658 142.766  1.00  0.00     0.087 A 
ATOM     12  C   UNL     1     132.230 134.661 142.261  1.00  0.00     0.022 A 
ATOM     13  C   UNL     1     132.373 135.985 142.684  1.00  0.00     0.051 A 
ATOM     14  C   UNL     1     133.348 136.325 143.628  1.00  0.00     0.157 A 
ATOM     15  C   UNL     1     134.037 133.997 143.731  1.00  0.00     0.068 A 
ATOM     16  C   UNL     1     134.182 135.325 144.158  1.00  0.00     0.158 A 
BRANCH  14  17
ATOM     17  O   UNL     1     133.469 137.654 144.029  1.00  0.00    -0.504 OA
ATOM     18  H   UNL     1     133.864 138.365 143.425  1.00  0.00     0.293 HD
ENDBRANCH  14  17
BRANCH  16  19
ATOM     19  O   UNL     1     135.145 135.654 145.110  1.00  0.00    -0.504 OA
ATOM     20  H   UNL     1     135.509 136.596 145.193  1.00  0.00     0.293 HD
ENDBRANCH  16  19
ENDBRANCH   1  11
BRANCH  10  21
ATOM     21  O   UNL     1     134.057 132.651 140.215  1.00  0.00    -0.500 OA
ATOM     22  H   UNL     1     134.571 132.302 139.414  1.00  0.00     0.294 HD
ENDBRANCH  10  21
BRANCH   5  23
ATOM     23  O   UNL     1     130.287 127.247 144.315  1.00  0.00    -0.507 OA
ATOM     24  H   UNL     1     130.632 126.354 144.647  1.00  0.00     0.293 HD
ENDBRANCH   5  23
BRANCH   7  25
ATOM     25  O   UNL     1     132.693 127.599 140.158  1.00  0.00    -0.507 OA
ATOM     26  H   UNL     1     132.591 126.612 139.969  1.00  0.00     0.293 HD
ENDBRANCH   7  25
TORSDOF 6
ENDMDL
MODEL 5
REMARK VINA RESULT:    -6.047      4.250      5.338
REMARK INTER + INTRA:          -7.524
REMARK INTER:                  -7.175
REMARK INTRA:                  -0.349
REMARK UNBOUND:                -0.240
REMARK SMILES Oc1cc(O)c2cc(O)c(-c3ccc(O)c(O)c3)[o+]c2c1
REMARK SMILES IDX 10 1 19 2 20 3 21 4 2 5 3 6 4 7 6 8 7 9 8 10 11 11 12 12
REMARK SMILES IDX 13 13 14 14 18 15 16 16 15 17 17 19 9 21 1 23 5 25
REMARK H PARENT 15 18 17 20 9 22 1 24 5 26
REMARK Flexibility Score: inf
ROOT
ATOM      1  C   UNL     1     135.502 132.911 141.404  1.00  0.00     0.402 A 
ATOM      2  O   UNL     1     136.270 133.308 140.392  1.00  0.00    -0.202 OA
ATOM      3  C   UNL     1     136.792 132.472 139.502  1.00  0.00     0.368 A 
ATOM      4  C   UNL     1     137.585 132.984 138.471  1.00  0.00     0.162 A 
ATOM      5  C   UNL     1     138.144 132.131 137.520  1.00  0.00     0.128 A 
ATOM      6  C   UNL     1     137.908 130.754 137.595  1.00  0.00     0.093 A 
ATOM      7  C   UNL     1     137.116 130.215 138.617  1.00  0.00     0.136 A 
ATOM      8  C   UNL     1     136.549 131.080 139.589  1.00  0.00     0.125 A 
ATOM      9  C   UNL     1     135.755 130.628 140.655  1.00  0.00     0.078 A 
ATOM     10  C   UNL     1     135.234 131.542 141.577  1.00  0.00     0.223 A 
ENDROOT
BRANCH   1  11
ATOM     11  C   UNL     1     134.971 133.941 142.326  1.00  0.00     0.087 A 
ATOM     12  C   UNL     1     133.710 134.504 142.079  1.00  0.00     0.022 A 
ATOM     13  C   UNL     1     133.179 135.463 142.945  1.00  0.00     0.051 A 
ATOM     14  C   UNL     1     133.894 135.865 144.078  1.00  0.00     0.157 A 
ATOM     15  C   UNL     1     135.679 134.331 143.477  1.00  0.00     0.068 A 
ATOM     16  C   UNL     1     135.149 135.292 144.349  1.00  0.00     0.158 A 
BRANCH  14  17
ATOM     17  O   UNL     1     133.341 136.825 144.924  1.00  0.00    -0.504 OA
ATOM     18  H   UNL     1     132.791 136.574 145.736  1.00  0.00     0.293 HD
ENDBRANCH  14  17
BRANCH  16  19
ATOM     19  O   UNL     1     135.859 135.676 145.485  1.00  0.00    -0.504 OA
ATOM     20  H   UNL     1     136.275 134.993 146.107  1.00  0.00     0.293 HD
ENDBRANCH  16  19
ENDBRANCH   1  11
BRANCH  10  21
ATOM     21  O   UNL     1     134.486 131.088 142.665  1.00  0.00    -0.500 OA
ATOM     22  H   UNL     1     134.889 131.008 143.591  1.00  0.00     0.294 HD
ENDBRANCH  10  21
BRANCH   5  23
ATOM     23  O   UNL     1     138.932 132.661 136.500  1.00  0.00    -0.507 OA
ATOM     24  H   UNL     1     139.775 132.195 136.185  1.00  0.00     0.293 HD
ENDBRANCH   5  23
BRANCH   7  25
ATOM     25  O   UNL     1     136.926 128.831 138.622  1.00  0.00    -0.507 OA
ATOM     26  H   UNL     1     136.346 128.332 137.963  1.00  0.00     0.293 HD
ENDBRANCH   7  25
TORSDOF 6
ENDMDL
MODEL 6
REMARK VINA RESULT:    -6.010      4.746      6.343
REMARK INTER + INTRA:          -7.480
REMARK INTER:                  -7.134
REMARK INTRA:                  -0.345
REMARK UNBOUND:                -0.240
REMARK SMILES Oc1cc(O)c2cc(O)c(-c3ccc(O)c(O)c3)[o+]c2c1
REMARK SMILES IDX 10 1 19 2 20 3 21 4 2 5 3 6 4 7 6 8 7 9 8 10 11 11 12 12
REMARK SMILES IDX 13 13 14 14 18 15 16 16 15 17 17 19 9 21 1 23 5 25
REMARK H PARENT 15 18 17 20 9 22 1 24 5 26
REMARK Flexibility Score: inf
ROOT
ATOM      1  C   UNL     1     134.997 132.151 140.419  1.00  0.00     0.402 A 
ATOM      2  O   UNL     1     136.044 131.330 140.375  1.00  0.00    -0.202 OA
ATOM      3  C   UNL     1     136.871 131.258 139.338  1.00  0.00     0.368 A 
ATOM      4  C   UNL     1     137.946 130.366 139.385  1.00  0.00     0.162 A 
ATOM      5  C   UNL     1     138.832 130.271 138.313  1.00  0.00     0.128 A 
ATOM      6  C   UNL     1     138.647 131.075 137.183  1.00  0.00     0.093 A 
ATOM      7  C   UNL     1     137.579 131.978 137.110  1.00  0.00     0.136 A 
ATOM      8  C   UNL     1     136.673 132.075 138.198  1.00  0.00     0.125 A 
ATOM      9  C   UNL     1     135.568 132.941 138.208  1.00  0.00     0.078 A 
ATOM     10  C   UNL     1     134.715 132.977 139.316  1.00  0.00     0.223 A 
ENDROOT
BRANCH   1  11
ATOM     11  C   UNL     1     134.154 132.145 141.636  1.00  0.00     0.087 A 
ATOM     12  C   UNL     1     133.041 131.294 141.701  1.00  0.00     0.022 A 
ATOM     13  C   UNL     1     132.242 131.257 142.847  1.00  0.00     0.051 A 
ATOM     14  C   UNL     1     132.552 132.060 143.950  1.00  0.00     0.157 A 
ATOM     15  C   UNL     1     134.476 132.936 142.755  1.00  0.00     0.068 A 
ATOM     16  C   UNL     1     133.677 132.901 143.906  1.00  0.00     0.158 A 
BRANCH  14  17
ATOM     17  O   UNL     1     131.735 132.004 145.079  1.00  0.00    -0.504 OA
ATOM     18  H   UNL     1     131.819 132.671 145.837  1.00  0.00     0.293 HD
ENDBRANCH  14  17
BRANCH  16  19
ATOM     19  O   UNL     1     134.000 133.691 145.008  1.00  0.00    -0.504 OA
ATOM     20  H   UNL     1     134.551 134.536 144.912  1.00  0.00     0.293 HD
ENDBRANCH  16  19
ENDBRANCH   1  11
BRANCH  10  21
ATOM     21  O   UNL     1     133.589 133.801 139.305  1.00  0.00    -0.500 OA
ATOM     22  H   UNL     1     133.573 134.687 139.798  1.00  0.00     0.294 HD
ENDBRANCH  10  21
BRANCH   5  23
ATOM     23  O   UNL     1     139.897 129.375 138.380  1.00  0.00    -0.507 OA
ATOM     24  H   UNL     1     140.548 129.383 139.156  1.00  0.00     0.293 HD
ENDBRANCH   5  23
BRANCH   7  25
ATOM     25  O   UNL     1     137.464 132.747 135.949  1.00  0.00    -0.507 OA
ATOM     26  H   UNL     1     137.545 133.753 135.921  1.00  0.00     0.293 HD
ENDBRANCH   7  25
TORSDOF 6
ENDMDL
MODEL 7
REMARK VINA RESULT:    -5.986      2.724      4.609
REMARK INTER + INTRA:          -7.451
REMARK INTER:                  -7.351
REMARK INTRA:                  -0.100
REMARK UNBOUND:                -0.240
REMARK SMILES Oc1cc(O)c2cc(O)c(-c3ccc(O)c(O)c3)[o+]c2c1
REMARK SMILES IDX 10 1 19 2 20 3 21 4 2 5 3 6 4 7 6 8 7 9 8 10 11 11 12 12
REMARK SMILES IDX 13 13 14 14 18 15 16 16 15 17 17 19 9 21 1 23 5 25
REMARK H PARENT 15 18 17 20 9 22 1 24 5 26
REMARK Flexibility Score: inf
ROOT
ATOM      1  C   UNL     1     131.221 127.933 143.155  1.00  0.00     0.402 A 
ATOM      2  O   UNL     1     130.113 127.400 142.645  1.00  0.00    -0.202 OA
ATOM      3  C   UNL     1     129.829 126.104 142.713  1.00  0.00     0.368 A 
ATOM      4  C   UNL     1     128.638 125.638 142.149  1.00  0.00     0.162 A 
ATOM      5  C   UNL     1     128.312 124.283 142.208  1.00  0.00     0.128 A 
ATOM      6  C   UNL     1     129.180 123.385 142.838  1.00  0.00     0.093 A 
ATOM      7  C   UNL     1     130.378 123.826 143.412  1.00  0.00     0.136 A 
ATOM      8  C   UNL     1     130.715 125.203 143.350  1.00  0.00     0.125 A 
ATOM      9  C   UNL     1     131.901 125.732 143.886  1.00  0.00     0.078 A 
ATOM     10  C   UNL     1     132.166 127.102 143.783  1.00  0.00     0.223 A 
ENDROOT
BRANCH   1  11
ATOM     11  C   UNL     1     131.420 129.394 143.023  1.00  0.00     0.087 A 
ATOM     12  C   UNL     1     131.275 129.999 141.766  1.00  0.00     0.022 A 
ATOM     13  C   UNL     1     131.439 131.379 141.621  1.00  0.00     0.051 A 
ATOM     14  C   UNL     1     131.735 132.177 142.731  1.00  0.00     0.157 A 
ATOM     15  C   UNL     1     131.696 130.200 144.143  1.00  0.00     0.068 A 
ATOM     16  C   UNL     1     131.860 131.585 144.000  1.00  0.00     0.158 A 
BRANCH  14  17
ATOM     17  O   UNL     1     131.895 133.551 142.556  1.00  0.00    -0.504 OA
ATOM     18  H   UNL     1     132.788 133.962 142.311  1.00  0.00     0.293 HD
ENDBRANCH  14  17
BRANCH  16  19
ATOM     19  O   UNL     1     132.139 132.377 145.113  1.00  0.00    -0.504 OA
ATOM     20  H   UNL     1     131.475 132.479 145.872  1.00  0.00     0.293 HD
ENDBRANCH  16  19
ENDBRANCH   1  11
BRANCH  10  21
ATOM     21  O   UNL     1     133.367 127.620 144.270  1.00  0.00    -0.500 OA
ATOM     22  H   UNL     1     133.495 127.831 145.253  1.00  0.00     0.294 HD
ENDBRANCH  10  21
BRANCH   5  23
ATOM     23  O   UNL     1     127.120 123.839 141.639  1.00  0.00    -0.507 OA
ATOM     24  H   UNL     1     126.582 124.425 141.012  1.00  0.00     0.293 HD
ENDBRANCH   5  23
BRANCH   7  25
ATOM     25  O   UNL     1     131.189 122.867 144.025  1.00  0.00    -0.507 OA
ATOM     26  H   UNL     1     131.351 122.807 145.019  1.00  0.00     0.293 HD
ENDBRANCH   7  25
TORSDOF 6
ENDMDL
MODEL 8
REMARK VINA RESULT:    -5.970      1.803      7.113
REMARK INTER + INTRA:          -7.431
REMARK INTER:                  -7.203
REMARK INTRA:                  -0.228
REMARK UNBOUND:                -0.240
REMARK SMILES Oc1cc(O)c2cc(O)c(-c3ccc(O)c(O)c3)[o+]c2c1
REMARK SMILES IDX 10 1 19 2 20 3 21 4 2 5 3 6 4 7 6 8 7 9 8 10 11 11 12 12
REMARK SMILES IDX 13 13 14 14 18 15 16 16 15 17 17 19 9 21 1 23 5 25
REMARK H PARENT 15 18 17 20 9 22 1 24 5 26
REMARK Flexibility Score: inf
ROOT
ATOM      1  C   UNL     1     133.091 130.724 142.722  1.00  0.00     0.402 A 
ATOM      2  O   UNL     1     133.517 131.616 143.612  1.00  0.00    -0.202 OA
ATOM      3  C   UNL     1     133.942 132.831 143.282  1.00  0.00     0.368 A 
ATOM      4  C   UNL     1     134.368 133.700 144.291  1.00  0.00     0.162 A 
ATOM      5  C   UNL     1     134.816 134.982 143.974  1.00  0.00     0.128 A 
ATOM      6  C   UNL     1     134.838 135.403 142.640  1.00  0.00     0.093 A 
ATOM      7  C   UNL     1     134.416 134.552 141.611  1.00  0.00     0.136 A 
ATOM      8  C   UNL     1     133.963 133.246 141.929  1.00  0.00     0.125 A 
ATOM      9  C   UNL     1     133.534 132.321 140.963  1.00  0.00     0.078 A 
ATOM     10  C   UNL     1     133.104 131.048 141.353  1.00  0.00     0.223 A 
ENDROOT
BRANCH   1  11
ATOM     11  C   UNL     1     132.633 129.405 143.215  1.00  0.00     0.087 A 
ATOM     12  C   UNL     1     131.283 129.049 143.080  1.00  0.00     0.022 A 
ATOM     13  C   UNL     1     130.830 127.803 143.520  1.00  0.00     0.051 A 
ATOM     14  C   UNL     1     131.722 126.888 144.089  1.00  0.00     0.157 A 
ATOM     15  C   UNL     1     133.533 128.476 143.768  1.00  0.00     0.068 A 
ATOM     16  C   UNL     1     133.082 127.224 144.210  1.00  0.00     0.158 A 
BRANCH  14  17
ATOM     17  O   UNL     1     131.242 125.653 144.522  1.00  0.00    -0.504 OA
ATOM     18  H   UNL     1     131.395 124.801 143.994  1.00  0.00     0.293 HD
ENDBRANCH  14  17
BRANCH  16  19
ATOM     19  O   UNL     1     133.979 126.310 144.761  1.00  0.00    -0.504 OA
ATOM     20  H   UNL     1     134.532 126.538 145.579  1.00  0.00     0.293 HD
ENDBRANCH  16  19
ENDBRANCH   1  11
BRANCH  10  21
ATOM     21  O   UNL     1     132.725 130.112 140.389  1.00  0.00    -0.500 OA
ATOM     22  H   UNL     1     133.392 129.464 139.986  1.00  0.00     0.294 HD
ENDBRANCH  10  21
BRANCH   5  23
ATOM     23  O   UNL     1     135.237 135.833 144.995  1.00  0.00    -0.507 OA
ATOM     24  H   UNL     1     136.068 136.404 144.899  1.00  0.00     0.293 HD
ENDBRANCH   5  23
BRANCH   7  25
ATOM     25  O   UNL     1     134.466 135.048 140.306  1.00  0.00    -0.507 OA
ATOM     26  H   UNL     1     134.404 134.476 139.476  1.00  0.00     0.293 HD
ENDBRANCH   7  25
TORSDOF 6
ENDMDL
MODEL 9
REMARK VINA RESULT:    -5.908      3.764      4.945
REMARK INTER + INTRA:          -7.358
REMARK INTER:                  -7.039
REMARK INTRA:                  -0.319
REMARK UNBOUND:                -0.240
REMARK SMILES Oc1cc(O)c2cc(O)c(-c3ccc(O)c(O)c3)[o+]c2c1
REMARK SMILES IDX 10 1 19 2 20 3 21 4 2 5 3 6 4 7 6 8 7 9 8 10 11 11 12 12
REMARK SMILES IDX 13 13 14 14 18 15 16 16 15 17 17 19 9 21 1 23 5 25
REMARK H PARENT 15 18 17 20 9 22 1 24 5 26
REMARK Flexibility Score: inf
ROOT
ATOM      1  C   UNL     1     134.907 132.005 140.474  1.00  0.00     0.402 A 
ATOM      2  O   UNL     1     136.131 131.636 140.105  1.00  0.00    -0.202 OA
ATOM      3  C   UNL     1     136.368 130.690 139.204  1.00  0.00     0.368 A 
ATOM      4  C   UNL     1     137.690 130.374 138.880  1.00  0.00     0.162 A 
ATOM      5  C   UNL     1     137.968 129.387 137.934  1.00  0.00     0.128 A 
ATOM      6  C   UNL     1     136.919 128.710 137.305  1.00  0.00     0.093 A 
ATOM      7  C   UNL     1     135.585 129.008 137.610  1.00  0.00     0.136 A 
ATOM      8  C   UNL     1     135.298 130.009 138.574  1.00  0.00     0.125 A 
ATOM      9  C   UNL     1     133.993 130.364 138.953  1.00  0.00     0.078 A 
ATOM     10  C   UNL     1     133.789 131.359 139.915  1.00  0.00     0.223 A 
ENDROOT
BRANCH   1  11
ATOM     11  C   UNL     1     134.773 133.080 141.483  1.00  0.00     0.087 A 
ATOM     12  C   UNL     1     134.840 134.421 141.075  1.00  0.00     0.022 A 
ATOM     13  C   UNL     1     134.696 135.453 142.005  1.00  0.00     0.051 A 
ATOM     14  C   UNL     1     134.471 135.162 143.355  1.00  0.00     0.157 A 
ATOM     15  C   UNL     1     134.524 132.789 142.837  1.00  0.00     0.068 A 
ATOM     16  C   UNL     1     134.379 133.823 143.772  1.00  0.00     0.158 A 
BRANCH  14  17
ATOM     17  O   UNL     1     134.334 136.213 144.261  1.00  0.00    -0.504 OA
ATOM     18  H   UNL     1     135.061 136.905 144.396  1.00  0.00     0.293 HD
ENDBRANCH  14  17
BRANCH  16  19
ATOM     19  O   UNL     1     134.138 133.526 145.113  1.00  0.00    -0.504 OA
ATOM     20  H   UNL     1     133.205 133.326 145.453  1.00  0.00     0.293 HD
ENDBRANCH  16  19
ENDBRANCH   1  11
BRANCH  10  21
ATOM     21  O   UNL     1     132.495 131.677 140.328  1.00  0.00    -0.500 OA
ATOM     22  H   UNL     1     131.704 131.083 140.107  1.00  0.00     0.294 HD
ENDBRANCH  10  21
BRANCH   5  23
ATOM     23  O   UNL     1     139.294 129.087 137.626  1.00  0.00    -0.507 OA
ATOM     24  H   UNL     1     139.822 129.642 136.962  1.00  0.00     0.293 HD
ENDBRANCH   5  23
BRANCH   7  25
ATOM     25  O   UNL     1     134.594 128.289 136.936  1.00  0.00    -0.507 OA
ATOM     26  H   UNL     1     134.467 128.295 135.935  1.00  0.00     0.293 HD
ENDBRANCH   7  25
TORSDOF 6
ENDMDL
