MODEL 1
REMARK VINA RESULT:    -3.156      0.000      0.000
REMARK INTER + INTRA:          -5.623
REMARK INTER:                  -5.001
REMARK INTRA:                  -0.622
REMARK UNBOUND:                -0.622
REMARK SMILES CCCCCCCCCCCC(=O)[O-]
REMARK SMILES IDX 7 1 8 2 9 3 10 4 11 5 12 6 13 7 14 8 6 9 5 10 4 11 3 12 2 13
REMARK SMILES IDX 1 14
REMARK H PARENT
REMARK Flexibility Score: inf
ROOT
ATOM      1  C   UNL     1      -1.523  30.831  25.085  1.00  0.00     0.000 C 
ENDROOT
BRANCH   1   2
ATOM      2  C   UNL     1      -2.927  30.620  25.680  1.00  0.00     0.000 C 
BRANCH   2   3
ATOM      3  C   UNL     1      -3.881  31.787  25.375  1.00  0.00     0.000 C 
BRANCH   3   4
ATOM      4  C   UNL     1      -4.152  32.664  26.609  1.00  0.00     0.006 C 
BRANCH   4   5
ATOM      5  C   UNL     1      -3.836  31.932  27.921  1.00  0.00     0.053 C 
BRANCH   5   6
ATOM      6  C   UNL     1      -5.079  31.451  28.604  1.00  0.00     0.041 C 
ATOM      7  O   UNL     1      -5.925  32.278  29.038  1.00  0.00    -0.550 OA
ATOM      8  O   UNL     1      -5.289  30.090  28.787  1.00  0.00    -0.550 OA
ENDBRANCH   5   6
ENDBRANCH   4   5
ENDBRANCH   3   4
ENDBRANCH   2   3
ENDBRANCH   1   2
BRANCH   1   9
ATOM      9  C   UNL     1      -0.490  31.255  26.141  1.00  0.00     0.000 C 
BRANCH   9  10
ATOM     10  C   UNL     1       0.947  30.871  25.749  1.00  0.00    -0.000 C 
BRANCH  10  11
ATOM     11  C   UNL     1       1.899  30.834  26.956  1.00  0.00    -0.000 C 
BRANCH  11  12
ATOM     12  C   UNL     1       1.529  31.860  28.036  1.00  0.00    -0.000 C 
BRANCH  12  13
ATOM     13  C   UNL     1       2.478  33.063  27.997  1.00  0.00    -0.003 C 
ATOM     14  C   UNL     1       3.882  32.673  28.452  1.00  0.00     0.004 C 
ENDBRANCH  12  13
ENDBRANCH  11  12
ENDBRANCH  10  11
ENDBRANCH   9  10
ENDBRANCH   1   9
TORSDOF 10
ENDMDL
MODEL 2
REMARK VINA RESULT:    -3.145      3.711      6.251
REMARK INTER + INTRA:          -5.605
REMARK INTER:                  -4.805
REMARK INTRA:                  -0.800
REMARK UNBOUND:                -0.622
REMARK SMILES CCCCCCCCCCCC(=O)[O-]
REMARK SMILES IDX 7 1 8 2 9 3 10 4 11 5 12 6 13 7 14 8 6 9 5 10 4 11 3 12 2 13
REMARK SMILES IDX 1 14
REMARK H PARENT
REMARK Flexibility Score: inf
ROOT
ATOM      1  C   UNL     1      -1.737  30.881  25.270  1.00  0.00     0.000 C 
ENDROOT
BRANCH   1   2
ATOM      2  C   UNL     1      -0.569  31.391  26.134  1.00  0.00     0.000 C 
BRANCH   2   3
ATOM      3  C   UNL     1       0.792  30.853  25.667  1.00  0.00     0.000 C 
BRANCH   3   4
ATOM      4  C   UNL     1       1.750  30.574  26.837  1.00  0.00     0.006 C 
BRANCH   4   5
ATOM      5  C   UNL     1       1.853  31.768  27.798  1.00  0.00     0.053 C 
BRANCH   5   6
ATOM      6  C   UNL     1       3.186  32.445  27.703  1.00  0.00     0.041 C 
ATOM      7  O   UNL     1       3.872  32.643  28.740  1.00  0.00    -0.550 OA
ATOM      8  O   UNL     1       3.655  32.884  26.471  1.00  0.00    -0.550 OA
ENDBRANCH   5   6
ENDBRANCH   4   5
ENDBRANCH   3   4
ENDBRANCH   2   3
ENDBRANCH   1   2
BRANCH   1   9
ATOM      9  C   UNL     1      -2.616  32.021  24.730  1.00  0.00     0.000 C 
BRANCH   9  10
ATOM     10  C   UNL     1      -4.043  31.988  25.304  1.00  0.00    -0.000 C 
BRANCH  10  11
ATOM     11  C   UNL     1      -4.109  32.503  26.751  1.00  0.00    -0.000 C 
BRANCH  11  12
ATOM     12  C   UNL     1      -4.251  31.370  27.778  1.00  0.00    -0.000 C 
BRANCH  12  13
ATOM     13  C   UNL     1      -3.638  31.773  29.125  1.00  0.00    -0.003 C 
ATOM     14  C   UNL     1      -2.443  32.702  28.932  1.00  0.00     0.004 C 
ENDBRANCH  12  13
ENDBRANCH  11  12
ENDBRANCH  10  11
ENDBRANCH   9  10
ENDBRANCH   1   9
TORSDOF 10
ENDMDL
MODEL 3
REMARK VINA RESULT:    -3.097      3.383      6.121
REMARK INTER + INTRA:          -5.530
REMARK INTER:                  -4.608
REMARK INTRA:                  -0.922
REMARK UNBOUND:                -0.622
REMARK SMILES CCCCCCCCCCCC(=O)[O-]
REMARK SMILES IDX 7 1 8 2 9 3 10 4 11 5 12 6 13 7 14 8 6 9 5 10 4 11 3 12 2 13
REMARK SMILES IDX 1 14
REMARK H PARENT
REMARK Flexibility Score: inf
ROOT
ATOM      1  C   UNL     1      -0.551  31.509  26.434  1.00  0.00     0.000 C 
ENDROOT
BRANCH   1   2
ATOM      2  C   UNL     1      -0.944  32.732  27.284  1.00  0.00     0.000 C 
BRANCH   2   3
ATOM      3  C   UNL     1      -0.315  32.704  28.686  1.00  0.00     0.000 C 
BRANCH   3   4
ATOM      4  C   UNL     1       1.170  33.105  28.674  1.00  0.00     0.006 C 
BRANCH   4   5
ATOM      5  C   UNL     1       2.092  31.920  28.992  1.00  0.00     0.053 C 
BRANCH   5   6
ATOM      6  C   UNL     1       2.620  31.276  27.747  1.00  0.00     0.041 C 
ATOM      7  O   UNL     1       3.168  31.974  26.854  1.00  0.00    -0.550 OA
ATOM      8  O   UNL     1       2.478  29.906  27.560  1.00  0.00    -0.550 OA
ENDBRANCH   5   6
ENDBRANCH   4   5
ENDBRANCH   3   4
ENDBRANCH   2   3
ENDBRANCH   1   2
BRANCH   1   9
ATOM      9  C   UNL     1      -1.617  31.148  25.387  1.00  0.00     0.000 C 
BRANCH   9  10
ATOM     10  C   UNL     1      -2.727  32.208  25.285  1.00  0.00    -0.000 C 
BRANCH  10  11
ATOM     11  C   UNL     1      -4.065  31.719  25.863  1.00  0.00    -0.000 C 
BRANCH  11  12
ATOM     12  C   UNL     1      -3.928  30.409  26.653  1.00  0.00    -0.000 C 
BRANCH  12  13
ATOM     13  C   UNL     1      -4.606  30.523  28.024  1.00  0.00    -0.003 C 
ATOM     14  C   UNL     1      -3.892  31.541  28.909  1.00  0.00     0.004 C 
ENDBRANCH  12  13
ENDBRANCH  11  12
ENDBRANCH  10  11
ENDBRANCH   9  10
ENDBRANCH   1   9
TORSDOF 10
ENDMDL
MODEL 4
REMARK VINA RESULT:    -3.067      3.531      6.283
REMARK INTER + INTRA:          -5.482
REMARK INTER:                  -4.538
REMARK INTRA:                  -0.944
REMARK UNBOUND:                -0.622
REMARK SMILES CCCCCCCCCCCC(=O)[O-]
REMARK SMILES IDX 7 1 8 2 9 3 10 4 11 5 12 6 13 7 14 8 6 9 5 10 4 11 3 12 2 13
REMARK SMILES IDX 1 14
REMARK H PARENT
REMARK Flexibility Score: inf
ROOT
ATOM      1  C   UNL     1      -2.208  33.038  28.348  1.00  0.00     0.000 C 
ENDROOT
BRANCH   1   2
ATOM      2  C   UNL     1      -0.919  32.712  29.125  1.00  0.00     0.000 C 
BRANCH   2   3
ATOM      3  C   UNL     1       0.337  32.780  28.242  1.00  0.00     0.000 C 
BRANCH   3   4
ATOM      4  C   UNL     1       0.397  31.640  27.212  1.00  0.00     0.006 C 
BRANCH   4   5
ATOM      5  C   UNL     1       1.835  31.334  26.770  1.00  0.00     0.053 C 
BRANCH   5   6
ATOM      6  C   UNL     1       2.765  31.224  27.939  1.00  0.00     0.041 C 
ATOM      7  O   UNL     1       3.700  32.054  28.086  1.00  0.00    -0.550 OA
ATOM      8  O   UNL     1       2.615  30.186  28.850  1.00  0.00    -0.550 OA
ENDBRANCH   5   6
ENDBRANCH   4   5
ENDBRANCH   3   4
ENDBRANCH   2   3
ENDBRANCH   1   2
BRANCH   1   9
ATOM      9  C   UNL     1      -3.430  32.270  28.878  1.00  0.00     0.000 C 
BRANCH   9  10
ATOM     10  C   UNL     1      -4.308  31.705  27.749  1.00  0.00    -0.000 C 
BRANCH  10  11
ATOM     11  C   UNL     1      -3.683  30.471  27.077  1.00  0.00    -0.000 C 
BRANCH  11  12
ATOM     12  C   UNL     1      -3.588  30.610  25.550  1.00  0.00    -0.000 C 
BRANCH  12  13
ATOM     13  C   UNL     1      -2.526  31.646  25.160  1.00  0.00    -0.003 C 
ATOM     14  C   UNL     1      -3.155  32.836  24.440  1.00  0.00     0.004 C 
ENDBRANCH  12  13
ENDBRANCH  11  12
ENDBRANCH  10  11
ENDBRANCH   9  10
ENDBRANCH   1   9
TORSDOF 10
ENDMDL
MODEL 5
REMARK VINA RESULT:    -2.786      1.363      1.899
REMARK INTER + INTRA:          -5.037
REMARK INTER:                  -3.958
REMARK INTRA:                  -1.080
REMARK UNBOUND:                -0.622
REMARK SMILES CCCCCCCCCCCC(=O)[O-]
REMARK SMILES IDX 7 1 8 2 9 3 10 4 11 5 12 6 13 7 14 8 6 9 5 10 4 11 3 12 2 13
REMARK SMILES IDX 1 14
REMARK H PARENT
REMARK Flexibility Score: inf
ROOT
ATOM      1  C   UNL     1      -0.684  31.613  26.501  1.00  0.00     0.000 C 
ENDROOT
BRANCH   1   2
ATOM      2  C   UNL     1      -1.975  31.421  25.684  1.00  0.00     0.000 C 
BRANCH   2   3
ATOM      3  C   UNL     1      -2.829  32.697  25.616  1.00  0.00     0.000 C 
BRANCH   3   4
ATOM      4  C   UNL     1      -4.270  32.468  26.103  1.00  0.00     0.006 C 
BRANCH   4   5
ATOM      5  C   UNL     1      -4.470  32.926  27.555  1.00  0.00     0.053 C 
BRANCH   5   6
ATOM      6  C   UNL     1      -4.599  31.766  28.492  1.00  0.00     0.041 C 
ATOM      7  O   UNL     1      -5.729  31.265  28.732  1.00  0.00    -0.550 OA
ATOM      8  O   UNL     1      -3.472  31.255  29.125  1.00  0.00    -0.550 OA
ENDBRANCH   5   6
ENDBRANCH   4   5
ENDBRANCH   3   4
ENDBRANCH   2   3
ENDBRANCH   1   2
BRANCH   1   9
ATOM      9  C   UNL     1      -0.779  32.786  27.490  1.00  0.00     0.000 C 
BRANCH   9  10
ATOM     10  C   UNL     1      -0.153  32.459  28.856  1.00  0.00    -0.000 C 
BRANCH  10  11
ATOM     11  C   UNL     1       1.370  32.661  28.871  1.00  0.00    -0.000 C 
BRANCH  11  12
ATOM     12  C   UNL     1       2.143  31.348  29.065  1.00  0.00    -0.000 C 
BRANCH  12  13
ATOM     13  C   UNL     1       2.742  30.865  27.739  1.00  0.00    -0.003 C 
ATOM     14  C   UNL     1       3.006  32.034  26.794  1.00  0.00     0.004 C 
ENDBRANCH  12  13
ENDBRANCH  11  12
ENDBRANCH  10  11
ENDBRANCH   9  10
ENDBRANCH   1   9
TORSDOF 10
ENDMDL
MODEL 6
REMARK VINA RESULT:    -2.779      4.055      6.910
REMARK INTER + INTRA:          -5.025
REMARK INTER:                  -4.557
REMARK INTRA:                  -0.468
REMARK UNBOUND:                -0.622
REMARK SMILES CCCCCCCCCCCC(=O)[O-]
REMARK SMILES IDX 7 1 8 2 9 3 10 4 11 5 12 6 13 7 14 8 6 9 5 10 4 11 3 12 2 13
REMARK SMILES IDX 1 14
REMARK H PARENT
REMARK Flexibility Score: inf
ROOT
ATOM      1  C   UNL     1       0.720  30.888  25.695  1.00  0.00     0.000 C 
ENDROOT
BRANCH   1   2
ATOM      2  C   UNL     1       1.740  31.246  26.791  1.00  0.00     0.000 C 
BRANCH   2   3
ATOM      3  C   UNL     1       1.153  32.176  27.864  1.00  0.00     0.000 C 
BRANCH   3   4
ATOM      4  C   UNL     1       2.035  32.254  29.123  1.00  0.00     0.006 C 
BRANCH   4   5
ATOM      5  C   UNL     1       3.303  33.087  28.890  1.00  0.00     0.053 C 
BRANCH   5   6
ATOM      6  C   UNL     1       4.546  32.270  29.063  1.00  0.00     0.041 C 
ATOM      7  O   UNL     1       5.671  32.831  29.125  1.00  0.00    -0.550 OA
ATOM      8  O   UNL     1       4.463  30.884  29.125  1.00  0.00    -0.550 OA
ENDBRANCH   5   6
ENDBRANCH   4   5
ENDBRANCH   3   4
ENDBRANCH   2   3
ENDBRANCH   1   2
BRANCH   1   9
ATOM      9  C   UNL     1      -0.723  31.241  26.091  1.00  0.00     0.000 C 
BRANCH   9  10
ATOM     10  C   UNL     1      -1.736  30.916  24.980  1.00  0.00    -0.000 C 
BRANCH  10  11
ATOM     11  C   UNL     1      -2.754  32.047  24.761  1.00  0.00    -0.000 C 
BRANCH  11  12
ATOM     12  C   UNL     1      -4.024  31.876  25.608  1.00  0.00    -0.000 C 
BRANCH  12  13
ATOM     13  C   UNL     1      -3.826  32.455  27.014  1.00  0.00    -0.003 C 
ATOM     14  C   UNL     1      -4.542  31.610  28.063  1.00  0.00     0.004 C 
ENDBRANCH  12  13
ENDBRANCH  11  12
ENDBRANCH  10  11
ENDBRANCH   9  10
ENDBRANCH   1   9
TORSDOF 10
ENDMDL
MODEL 7
REMARK VINA RESULT:    -2.702      2.328      3.420
REMARK INTER + INTRA:          -4.904
REMARK INTER:                  -4.454
REMARK INTRA:                  -0.450
REMARK UNBOUND:                -0.622
REMARK SMILES CCCCCCCCCCCC(=O)[O-]
REMARK SMILES IDX 7 1 8 2 9 3 10 4 11 5 12 6 13 7 14 8 6 9 5 10 4 11 3 12 2 13
REMARK SMILES IDX 1 14
REMARK H PARENT
REMARK Flexibility Score: inf
ROOT
ATOM      1  C   UNL     1      -2.809  33.004  29.125  1.00  0.00     0.000 C 
ENDROOT
BRANCH   1   2
ATOM      2  C   UNL     1      -3.421  32.235  27.939  1.00  0.00     0.000 C 
BRANCH   2   3
ATOM      3  C   UNL     1      -4.308  33.124  27.053  1.00  0.00     0.000 C 
BRANCH   3   4
ATOM      4  C   UNL     1      -4.300  32.683  25.580  1.00  0.00     0.006 C 
BRANCH   4   5
ATOM      5  C   UNL     1      -2.875  32.519  25.032  1.00  0.00     0.053 C 
BRANCH   5   6
ATOM      6  C   UNL     1      -2.451  31.083  25.003  1.00  0.00     0.041 C 
ATOM      7  O   UNL     1      -1.326  30.762  24.536  1.00  0.00    -0.550 OA
ATOM      8  O   UNL     1      -3.312  30.095  25.465  1.00  0.00    -0.550 OA
ENDBRANCH   5   6
ENDBRANCH   4   5
ENDBRANCH   3   4
ENDBRANCH   2   3
ENDBRANCH   1   2
BRANCH   1   9
ATOM      9  C   UNL     1      -1.272  32.965  29.125  1.00  0.00     0.000 C 
BRANCH   9  10
ATOM     10  C   UNL     1      -0.691  32.575  27.755  1.00  0.00    -0.000 C 
BRANCH  10  11
ATOM     11  C   UNL     1       0.835  32.391  27.792  1.00  0.00    -0.000 C 
BRANCH  11  12
ATOM     12  C   UNL     1       1.330  31.331  26.797  1.00  0.00    -0.000 C 
BRANCH  12  13
ATOM     13  C   UNL     1       2.360  30.404  27.452  1.00  0.00    -0.003 C 
ATOM     14  C   UNL     1       3.004  31.066  28.667  1.00  0.00     0.004 C 
ENDBRANCH  12  13
ENDBRANCH  11  12
ENDBRANCH  10  11
ENDBRANCH   9  10
ENDBRANCH   1   9
TORSDOF 10
ENDMDL
MODEL 8
REMARK VINA RESULT:    -2.474     16.992     18.922
REMARK INTER + INTRA:          -4.542
REMARK INTER:                  -4.162
REMARK INTRA:                  -0.380
REMARK UNBOUND:                -0.622
REMARK SMILES CCCCCCCCCCCC(=O)[O-]
REMARK SMILES IDX 7 1 8 2 9 3 10 4 11 5 12 6 13 7 14 8 6 9 5 10 4 11 3 12 2 13
REMARK SMILES IDX 1 14
REMARK H PARENT
REMARK Flexibility Score: inf
ROOT
ATOM      1  C   UNL     1       5.702  17.645  20.967  1.00  0.00     0.000 C 
ENDROOT
BRANCH   1   2
ATOM      2  C   UNL     1       5.082  17.715  22.375  1.00  0.00     0.000 C 
BRANCH   2   3
ATOM      3  C   UNL     1       5.322  19.070  23.060  1.00  0.00     0.000 C 
BRANCH   3   4
ATOM      4  C   UNL     1       6.165  18.942  24.340  1.00  0.00     0.006 C 
BRANCH   4   5
ATOM      5  C   UNL     1       7.511  18.252  24.080  1.00  0.00     0.053 C 
BRANCH   5   6
ATOM      6  C   UNL     1       7.876  17.308  25.184  1.00  0.00     0.041 C 
ATOM      7  O   UNL     1       8.360  17.747  26.261  1.00  0.00    -0.550 OA
ATOM      8  O   UNL     1       7.708  15.940  25.011  1.00  0.00    -0.550 OA
ENDBRANCH   5   6
ENDBRANCH   4   5
ENDBRANCH   3   4
ENDBRANCH   2   3
ENDBRANCH   1   2
BRANCH   1   9
ATOM      9  C   UNL     1       6.169  16.229  20.595  1.00  0.00     0.000 C 
BRANCH   9  10
ATOM     10  C   UNL     1       5.471  15.689  19.336  1.00  0.00    -0.000 C 
BRANCH  10  11
ATOM     11  C   UNL     1       5.783  14.206  19.078  1.00  0.00    -0.000 C 
BRANCH  11  12
ATOM     12  C   UNL     1       5.802  13.853  17.583  1.00  0.00    -0.000 C 
BRANCH  12  13
ATOM     13  C   UNL     1       7.235  13.609  17.096  1.00  0.00    -0.003 C 
ATOM     14  C   UNL     1       7.305  13.605  15.571  1.00  0.00     0.004 C 
ENDBRANCH  12  13
ENDBRANCH  11  12
ENDBRANCH  10  11
ENDBRANCH   9  10
ENDBRANCH   1   9
TORSDOF 10
ENDMDL
