MODEL 1
REMARK VINA RESULT:    -3.993      0.000      0.000
REMARK INTER + INTRA:         -10.501
REMARK INTER:                  -8.661
REMARK INTRA:                  -1.841
REMARK UNBOUND:                -1.841
REMARK SMILES CCCCCCCCCCCCCCCCCCCCCC(=O)[O-]
REMARK SMILES IDX 12 1 11 2 10 3 9 4 8 5 7 6 6 7 5 8 4 9 3 10 2 11 1 12 13 13
REMARK SMILES IDX 14 14 15 15 16 16 17 17 18 18 19 19 20 20 21 21 22 22 23 23
REMARK SMILES IDX 24 24
REMARK H PARENT
REMARK Flexibility Score: inf
ROOT
ATOM      1  C   UNL     1      34.197  47.475  25.640  1.00  0.00     0.000 C 
ENDROOT
BRANCH   1   2
ATOM      2  C   UNL     1      33.608  48.677  26.398  1.00  0.00     0.000 C 
BRANCH   2   3
ATOM      3  C   UNL     1      32.081  48.592  26.541  1.00  0.00     0.000 C 
BRANCH   3   4
ATOM      4  C   UNL     1      31.422  49.927  26.175  1.00  0.00    -0.000 C 
BRANCH   4   5
ATOM      5  C   UNL     1      31.652  50.269  24.698  1.00  0.00    -0.000 C 
BRANCH   5   6
ATOM      6  C   UNL     1      30.354  50.746  24.034  1.00  0.00    -0.000 C 
BRANCH   6   7
ATOM      7  C   UNL     1      29.179  50.692  25.021  1.00  0.00    -0.000 C 
BRANCH   7   8
ATOM      8  C   UNL     1      28.677  52.087  25.424  1.00  0.00    -0.000 C 
BRANCH   8   9
ATOM      9  C   UNL     1      29.308  52.590  26.735  1.00  0.00    -0.000 C 
BRANCH   9  10
ATOM     10  C   UNL     1      30.023  53.945  26.556  1.00  0.00    -0.000 C 
BRANCH  10  11
ATOM     11  C   UNL     1      31.401  53.828  25.884  1.00  0.00    -0.003 C 
ATOM     12  C   UNL     1      31.384  54.222  24.409  1.00  0.00     0.004 C 
ENDBRANCH  10  11
ENDBRANCH   9  10
ENDBRANCH   8   9
ENDBRANCH   7   8
ENDBRANCH   6   7
ENDBRANCH   5   6
ENDBRANCH   4   5
ENDBRANCH   3   4
ENDBRANCH   2   3
ENDBRANCH   1   2
BRANCH   1  13
ATOM     13  C   UNL     1      33.110  46.579  25.020  1.00  0.00     0.000 C 
BRANCH  13  14
ATOM     14  C   UNL     1      32.897  45.275  25.806  1.00  0.00     0.000 C 
BRANCH  14  15
ATOM     15  C   UNL     1      34.000  45.020  26.844  1.00  0.00     0.000 C 
BRANCH  15  16
ATOM     16  C   UNL     1      35.075  44.077  26.287  1.00  0.00     0.000 C 
BRANCH  16  17
ATOM     17  C   UNL     1      36.483  44.697  26.301  1.00  0.00     0.000 C 
BRANCH  17  18
ATOM     18  C   UNL     1      37.591  43.716  26.740  1.00  0.00     0.000 C 
BRANCH  18  19
ATOM     19  C   UNL     1      37.113  42.253  26.721  1.00  0.00     0.000 C 
BRANCH  19  20
ATOM     20  C   UNL     1      37.653  41.466  25.512  1.00  0.00     0.006 C 
BRANCH  20  21
ATOM     21  C   UNL     1      37.089  40.041  25.389  1.00  0.00     0.053 C 
BRANCH  21  22
ATOM     22  C   UNL     1      37.692  39.100  26.387  1.00  0.00     0.041 C 
ATOM     23  O   UNL     1      37.032  38.111  26.805  1.00  0.00    -0.550 OA
ATOM     24  O   UNL     1      38.980  39.315  26.858  1.00  0.00    -0.550 OA
ENDBRANCH  21  22
ENDBRANCH  20  21
ENDBRANCH  19  20
ENDBRANCH  18  19
ENDBRANCH  17  18
ENDBRANCH  16  17
ENDBRANCH  15  16
ENDBRANCH  14  15
ENDBRANCH  13  14
ENDBRANCH   1  13
TORSDOF 20
ENDMDL
MODEL 2
REMARK VINA RESULT:    -3.806      1.823      2.691
REMARK INTER + INTRA:         -10.097
REMARK INTER:                  -8.722
REMARK INTRA:                  -1.375
REMARK UNBOUND:                -1.841
REMARK SMILES CCCCCCCCCCCCCCCCCCCCCC(=O)[O-]
REMARK SMILES IDX 12 1 11 2 10 3 9 4 8 5 7 6 6 7 5 8 4 9 3 10 2 11 1 12 13 13
REMARK SMILES IDX 14 14 15 15 16 16 17 17 18 18 19 19 20 20 21 21 22 22 23 23
REMARK SMILES IDX 24 24
REMARK H PARENT
REMARK Flexibility Score: inf
ROOT
ATOM      1  C   UNL     1      33.354  48.258  24.887  1.00  0.00     0.000 C 
ENDROOT
BRANCH   1   2
ATOM      2  C   UNL     1      34.523  48.751  25.757  1.00  0.00     0.000 C 
BRANCH   2   3
ATOM      3  C   UNL     1      34.088  49.808  26.784  1.00  0.00     0.000 C 
BRANCH   3   4
ATOM      4  C   UNL     1      34.593  51.199  26.385  1.00  0.00    -0.000 C 
BRANCH   4   5
ATOM      5  C   UNL     1      33.821  52.299  27.125  1.00  0.00    -0.000 C 
BRANCH   5   6
ATOM      6  C   UNL     1      32.309  52.149  26.912  1.00  0.00    -0.000 C 
BRANCH   6   7
ATOM      7  C   UNL     1      31.619  53.520  26.887  1.00  0.00    -0.000 C 
BRANCH   7   8
ATOM      8  C   UNL     1      30.529  53.617  25.809  1.00  0.00    -0.000 C 
BRANCH   8   9
ATOM      9  C   UNL     1      29.284  52.776  26.147  1.00  0.00    -0.000 C 
BRANCH   9  10
ATOM     10  C   UNL     1      29.111  51.580  25.188  1.00  0.00    -0.000 C 
BRANCH  10  11
ATOM     11  C   UNL     1      30.368  50.703  25.066  1.00  0.00    -0.003 C 
ATOM     12  C   UNL     1      30.800  50.473  23.620  1.00  0.00     0.004 C 
ENDBRANCH  10  11
ENDBRANCH   9  10
ENDBRANCH   8   9
ENDBRANCH   7   8
ENDBRANCH   6   7
ENDBRANCH   5   6
ENDBRANCH   4   5
ENDBRANCH   3   4
ENDBRANCH   2   3
ENDBRANCH   1   2
BRANCH   1  13
ATOM     13  C   UNL     1      33.124  46.742  25.014  1.00  0.00     0.000 C 
BRANCH  13  14
ATOM     14  C   UNL     1      33.572  46.186  26.376  1.00  0.00     0.000 C 
BRANCH  14  15
ATOM     15  C   UNL     1      33.973  44.705  26.310  1.00  0.00     0.000 C 
BRANCH  15  16
ATOM     16  C   UNL     1      35.246  44.441  27.125  1.00  0.00     0.000 C 
BRANCH  16  17
ATOM     17  C   UNL     1      36.470  45.203  26.588  1.00  0.00     0.000 C 
BRANCH  17  18
ATOM     18  C   UNL     1      37.822  44.604  27.036  1.00  0.00     0.000 C 
BRANCH  18  19
ATOM     19  C   UNL     1      38.242  43.405  26.167  1.00  0.00     0.000 C 
BRANCH  19  20
ATOM     20  C   UNL     1      37.753  42.059  26.733  1.00  0.00     0.006 C 
BRANCH  20  21
ATOM     21  C   UNL     1      37.596  40.953  25.677  1.00  0.00     0.053 C 
BRANCH  21  22
ATOM     22  C   UNL     1      36.866  41.429  24.457  1.00  0.00     0.041 C 
ATOM     23  O   UNL     1      37.372  41.272  23.314  1.00  0.00    -0.550 OA
ATOM     24  O   UNL     1      35.628  42.046  24.582  1.00  0.00    -0.550 OA
ENDBRANCH  21  22
ENDBRANCH  20  21
ENDBRANCH  19  20
ENDBRANCH  18  19
ENDBRANCH  17  18
ENDBRANCH  16  17
ENDBRANCH  15  16
ENDBRANCH  14  15
ENDBRANCH  13  14
ENDBRANCH   1  13
TORSDOF 20
ENDMDL
MODEL 3
REMARK VINA RESULT:    -3.622      5.151     10.933
REMARK INTER + INTRA:          -9.696
REMARK INTER:                  -7.774
REMARK INTRA:                  -1.923
REMARK UNBOUND:                -1.841
REMARK SMILES CCCCCCCCCCCCCCCCCCCCCC(=O)[O-]
REMARK SMILES IDX 12 1 11 2 10 3 9 4 8 5 7 6 6 7 5 8 4 9 3 10 2 11 1 12 13 13
REMARK SMILES IDX 14 14 15 15 16 16 17 17 18 18 19 19 20 20 21 21 22 22 23 23
REMARK SMILES IDX 24 24
REMARK H PARENT
REMARK Flexibility Score: inf
ROOT
ATOM      1  C   UNL     1      32.808  46.273  24.510  1.00  0.00     0.000 C 
ENDROOT
BRANCH   1   2
ATOM      2  C   UNL     1      32.456  44.971  25.249  1.00  0.00     0.000 C 
BRANCH   2   3
ATOM      3  C   UNL     1      33.040  44.923  26.669  1.00  0.00     0.000 C 
BRANCH   3   4
ATOM      4  C   UNL     1      34.485  44.410  26.650  1.00  0.00    -0.000 C 
BRANCH   4   5
ATOM      5  C   UNL     1      35.483  45.573  26.701  1.00  0.00    -0.000 C 
BRANCH   5   6
ATOM      6  C   UNL     1      36.892  45.074  27.046  1.00  0.00    -0.000 C 
BRANCH   6   7
ATOM      7  C   UNL     1      36.930  43.541  27.120  1.00  0.00    -0.000 C 
BRANCH   7   8
ATOM      8  C   UNL     1      38.319  42.966  26.802  1.00  0.00    -0.000 C 
BRANCH   8   9
ATOM      9  C   UNL     1      38.369  42.258  25.435  1.00  0.00    -0.000 C 
BRANCH   9  10
ATOM     10  C   UNL     1      36.983  41.745  24.994  1.00  0.00    -0.000 C 
BRANCH  10  11
ATOM     11  C   UNL     1      36.803  40.228  25.176  1.00  0.00    -0.003 C 
ATOM     12  C   UNL     1      37.998  39.561  25.852  1.00  0.00     0.004 C 
ENDBRANCH  10  11
ENDBRANCH   9  10
ENDBRANCH   8   9
ENDBRANCH   7   8
ENDBRANCH   6   7
ENDBRANCH   5   6
ENDBRANCH   4   5
ENDBRANCH   3   4
ENDBRANCH   2   3
ENDBRANCH   1   2
BRANCH   1  13
ATOM     13  C   UNL     1      32.885  47.484  25.456  1.00  0.00     0.000 C 
BRANCH  13  14
ATOM     14  C   UNL     1      33.855  48.567  24.955  1.00  0.00     0.000 C 
BRANCH  14  15
ATOM     15  C   UNL     1      34.878  48.986  26.022  1.00  0.00     0.000 C 
BRANCH  15  16
ATOM     16  C   UNL     1      34.236  49.899  27.075  1.00  0.00     0.000 C 
BRANCH  16  17
ATOM     17  C   UNL     1      34.381  51.394  26.740  1.00  0.00     0.000 C 
BRANCH  17  18
ATOM     18  C   UNL     1      33.056  52.182  26.828  1.00  0.00     0.000 C 
BRANCH  18  19
ATOM     19  C   UNL     1      31.826  51.273  26.652  1.00  0.00     0.000 C 
BRANCH  19  20
ATOM     20  C   UNL     1      31.323  51.229  25.198  1.00  0.00     0.006 C 
BRANCH  20  21
ATOM     21  C   UNL     1      31.079  52.615  24.576  1.00  0.00     0.053 C 
BRANCH  21  22
ATOM     22  C   UNL     1      30.141  53.451  25.394  1.00  0.00     0.041 C 
ATOM     23  O   UNL     1      29.043  52.973  25.786  1.00  0.00    -0.550 OA
ATOM     24  O   UNL     1      30.479  54.758  25.722  1.00  0.00    -0.550 OA
ENDBRANCH  21  22
ENDBRANCH  20  21
ENDBRANCH  19  20
ENDBRANCH  18  19
ENDBRANCH  17  18
ENDBRANCH  16  17
ENDBRANCH  15  16
ENDBRANCH  14  15
ENDBRANCH  13  14
ENDBRANCH   1  13
TORSDOF 20
ENDMDL
MODEL 4
REMARK VINA RESULT:    -3.562      4.925     12.055
REMARK INTER + INTRA:          -9.568
REMARK INTER:                  -8.430
REMARK INTRA:                  -1.137
REMARK UNBOUND:                -1.841
REMARK SMILES CCCCCCCCCCCCCCCCCCCCCC(=O)[O-]
REMARK SMILES IDX 12 1 11 2 10 3 9 4 8 5 7 6 6 7 5 8 4 9 3 10 2 11 1 12 13 13
REMARK SMILES IDX 14 14 15 15 16 16 17 17 18 18 19 19 20 20 21 21 22 22 23 23
REMARK SMILES IDX 24 24
REMARK H PARENT
REMARK Flexibility Score: inf
ROOT
ATOM      1  C   UNL     1      32.796  45.364  25.249  1.00  0.00     0.000 C 
ENDROOT
BRANCH   1   2
ATOM      2  C   UNL     1      33.773  44.248  25.656  1.00  0.00     0.000 C 
BRANCH   2   3
ATOM      3  C   UNL     1      34.501  44.553  26.974  1.00  0.00     0.000 C 
BRANCH   3   4
ATOM      4  C   UNL     1      35.942  44.031  26.938  1.00  0.00    -0.000 C 
BRANCH   4   5
ATOM      5  C   UNL     1      36.203  43.225  25.660  1.00  0.00    -0.000 C 
BRANCH   5   6
ATOM      6  C   UNL     1      37.613  42.620  25.669  1.00  0.00    -0.000 C 
BRANCH   6   7
ATOM      7  C   UNL     1      37.564  41.108  25.405  1.00  0.00    -0.000 C 
BRANCH   7   8
ATOM      8  C   UNL     1      37.637  40.278  26.696  1.00  0.00    -0.000 C 
BRANCH   8   9
ATOM      9  C   UNL     1      38.008  38.807  26.436  1.00  0.00    -0.000 C 
BRANCH   9  10
ATOM     10  C   UNL     1      36.902  37.836  26.901  1.00  0.00    -0.000 C 
BRANCH  10  11
ATOM     11  C   UNL     1      37.340  36.362  26.900  1.00  0.00    -0.003 C 
ATOM     12  C   UNL     1      36.163  35.389  26.900  1.00  0.00     0.004 C 
ENDBRANCH  10  11
ENDBRANCH   9  10
ENDBRANCH   8   9
ENDBRANCH   7   8
ENDBRANCH   6   7
ENDBRANCH   5   6
ENDBRANCH   4   5
ENDBRANCH   3   4
ENDBRANCH   2   3
ENDBRANCH   1   2
BRANCH   1  13
ATOM     13  C   UNL     1      32.727  46.495  26.291  1.00  0.00     0.000 C 
BRANCH  13  14
ATOM     14  C   UNL     1      33.261  47.832  25.751  1.00  0.00     0.000 C 
BRANCH  14  15
ATOM     15  C   UNL     1      33.626  48.820  26.869  1.00  0.00     0.000 C 
BRANCH  15  16
ATOM     16  C   UNL     1      34.625  49.873  26.371  1.00  0.00     0.000 C 
BRANCH  16  17
ATOM     17  C   UNL     1      34.168  51.314  26.653  1.00  0.00     0.000 C 
BRANCH  17  18
ATOM     18  C   UNL     1      32.667  51.435  26.997  1.00  0.00     0.000 C 
BRANCH  18  19
ATOM     19  C   UNL     1      32.146  52.874  26.828  1.00  0.00     0.000 C 
BRANCH  19  20
ATOM     20  C   UNL     1      31.687  53.175  25.389  1.00  0.00     0.006 C 
BRANCH  20  21
ATOM     21  C   UNL     1      30.203  53.560  25.272  1.00  0.00     0.053 C 
BRANCH  21  22
ATOM     22  C   UNL     1      29.296  52.525  25.866  1.00  0.00     0.041 C 
ATOM     23  O   UNL     1      28.633  52.785  26.905  1.00  0.00    -0.550 OA
ATOM     24  O   UNL     1      29.185  51.274  25.274  1.00  0.00    -0.550 OA
ENDBRANCH  21  22
ENDBRANCH  20  21
ENDBRANCH  19  20
ENDBRANCH  18  19
ENDBRANCH  17  18
ENDBRANCH  16  17
ENDBRANCH  15  16
ENDBRANCH  14  15
ENDBRANCH  13  14
ENDBRANCH   1  13
TORSDOF 20
ENDMDL
MODEL 5
REMARK VINA RESULT:    -3.549      1.456      3.009
REMARK INTER + INTRA:          -9.539
REMARK INTER:                  -7.785
REMARK INTRA:                  -1.754
REMARK UNBOUND:                -1.841
REMARK SMILES CCCCCCCCCCCCCCCCCCCCCC(=O)[O-]
REMARK SMILES IDX 12 1 11 2 10 3 9 4 8 5 7 6 6 7 5 8 4 9 3 10 2 11 1 12 13 13
REMARK SMILES IDX 14 14 15 15 16 16 17 17 18 18 19 19 20 20 21 21 22 22 23 23
REMARK SMILES IDX 24 24
REMARK H PARENT
REMARK Flexibility Score: inf
ROOT
ATOM      1  C   UNL     1      32.396  49.110  24.514  1.00  0.00     0.000 C 
ENDROOT
BRANCH   1   2
ATOM      2  C   UNL     1      31.352  50.211  24.257  1.00  0.00     0.000 C 
BRANCH   2   3
ATOM      3  C   UNL     1      30.294  50.291  25.369  1.00  0.00     0.000 C 
BRANCH   3   4
ATOM      4  C   UNL     1      29.001  50.930  24.850  1.00  0.00    -0.000 C 
BRANCH   4   5
ATOM      5  C   UNL     1      28.597  52.133  25.710  1.00  0.00    -0.000 C 
BRANCH   5   6
ATOM      6  C   UNL     1      29.573  52.328  26.877  1.00  0.00    -0.000 C 
BRANCH   6   7
ATOM      7  C   UNL     1      29.845  53.819  27.122  1.00  0.00    -0.000 C 
BRANCH   7   8
ATOM      8  C   UNL     1      31.328  54.187  26.959  1.00  0.00    -0.000 C 
BRANCH   8   9
ATOM      9  C   UNL     1      32.000  53.436  25.795  1.00  0.00    -0.000 C 
BRANCH   9  10
ATOM     10  C   UNL     1      31.904  54.216  24.467  1.00  0.00    -0.000 C 
BRANCH  10  11
ATOM     11  C   UNL     1      30.780  53.718  23.542  1.00  0.00    -0.003 C 
ATOM     12  C   UNL     1      31.279  53.317  22.156  1.00  0.00     0.004 C 
ENDBRANCH  10  11
ENDBRANCH   9  10
ENDBRANCH   8   9
ENDBRANCH   7   8
ENDBRANCH   6   7
ENDBRANCH   5   6
ENDBRANCH   4   5
ENDBRANCH   3   4
ENDBRANCH   2   3
ENDBRANCH   1   2
BRANCH   1  13
ATOM     13  C   UNL     1      33.088  49.263  25.879  1.00  0.00     0.000 C 
BRANCH  13  14
ATOM     14  C   UNL     1      33.586  47.923  26.445  1.00  0.00     0.000 C 
BRANCH  14  15
ATOM     15  C   UNL     1      32.439  46.964  26.797  1.00  0.00     0.000 C 
BRANCH  15  16
ATOM     16  C   UNL     1      32.598  45.622  26.071  1.00  0.00     0.000 C 
BRANCH  16  17
ATOM     17  C   UNL     1      33.537  44.650  26.806  1.00  0.00     0.000 C 
BRANCH  17  18
ATOM     18  C   UNL     1      35.010  45.113  26.838  1.00  0.00     0.000 C 
BRANCH  18  19
ATOM     19  C   UNL     1      35.991  43.928  26.891  1.00  0.00     0.000 C 
BRANCH  19  20
ATOM     20  C   UNL     1      36.090  43.178  25.550  1.00  0.00     0.006 C 
BRANCH  20  21
ATOM     21  C   UNL     1      37.450  42.502  25.307  1.00  0.00     0.053 C 
BRANCH  21  22
ATOM     22  C   UNL     1      37.320  41.212  24.556  1.00  0.00     0.041 C 
ATOM     23  O   UNL     1      37.277  41.213  23.296  1.00  0.00    -0.550 OA
ATOM     24  O   UNL     1      37.245  40.008  25.245  1.00  0.00    -0.550 OA
ENDBRANCH  21  22
ENDBRANCH  20  21
ENDBRANCH  19  20
ENDBRANCH  18  19
ENDBRANCH  17  18
ENDBRANCH  16  17
ENDBRANCH  15  16
ENDBRANCH  14  15
ENDBRANCH  13  14
ENDBRANCH   1  13
TORSDOF 20
ENDMDL
MODEL 6
REMARK VINA RESULT:    -3.488      5.079     12.416
REMARK INTER + INTRA:          -9.407
REMARK INTER:                  -8.247
REMARK INTRA:                  -1.160
REMARK UNBOUND:                -1.841
REMARK SMILES CCCCCCCCCCCCCCCCCCCCCC(=O)[O-]
REMARK SMILES IDX 12 1 11 2 10 3 9 4 8 5 7 6 6 7 5 8 4 9 3 10 2 11 1 12 13 13
REMARK SMILES IDX 14 14 15 15 16 16 17 17 18 18 19 19 20 20 21 21 22 22 23 23
REMARK SMILES IDX 24 24
REMARK H PARENT
REMARK Flexibility Score: inf
ROOT
ATOM      1  C   UNL     1      34.141  45.181  25.853  1.00  0.00     0.000 C 
ENDROOT
BRANCH   1   2
ATOM      2  C   UNL     1      35.032  45.029  27.097  1.00  0.00     0.000 C 
BRANCH   2   3
ATOM      3  C   UNL     1      36.006  43.846  26.984  1.00  0.00     0.000 C 
BRANCH   3   4
ATOM      4  C   UNL     1      35.893  43.172  25.611  1.00  0.00    -0.000 C 
BRANCH   4   5
ATOM      5  C   UNL     1      37.172  42.398  25.270  1.00  0.00    -0.000 C 
BRANCH   5   6
ATOM      6  C   UNL     1      38.197  42.500  26.406  1.00  0.00    -0.000 C 
BRANCH   6   7
ATOM      7  C   UNL     1      38.358  41.153  27.125  1.00  0.00    -0.000 C 
BRANCH   7   8
ATOM      8  C   UNL     1      37.734  39.985  26.344  1.00  0.00    -0.000 C 
BRANCH   8   9
ATOM      9  C   UNL     1      38.397  38.634  26.667  1.00  0.00    -0.000 C 
BRANCH   9  10
ATOM     10  C   UNL     1      37.361  37.502  26.833  1.00  0.00    -0.000 C 
BRANCH  10  11
ATOM     11  C   UNL     1      37.699  36.238  26.026  1.00  0.00    -0.003 C 
ATOM     12  C   UNL     1      38.969  35.541  26.508  1.00  0.00     0.004 C 
ENDBRANCH  10  11
ENDBRANCH   9  10
ENDBRANCH   8   9
ENDBRANCH   7   8
ENDBRANCH   6   7
ENDBRANCH   5   6
ENDBRANCH   4   5
ENDBRANCH   3   4
ENDBRANCH   2   3
ENDBRANCH   1   2
BRANCH   1  13
ATOM     13  C   UNL     1      32.798  45.861  26.171  1.00  0.00     0.000 C 
BRANCH  13  14
ATOM     14  C   UNL     1      32.972  47.262  26.780  1.00  0.00     0.000 C 
BRANCH  14  15
ATOM     15  C   UNL     1      33.623  48.256  25.808  1.00  0.00     0.000 C 
BRANCH  15  16
ATOM     16  C   UNL     1      32.611  48.756  24.769  1.00  0.00     0.000 C 
BRANCH  16  17
ATOM     17  C   UNL     1      31.980  50.107  25.147  1.00  0.00     0.000 C 
BRANCH  17  18
ATOM     18  C   UNL     1      30.856  50.559  24.191  1.00  0.00     0.000 C 
BRANCH  18  19
ATOM     19  C   UNL     1      29.498  50.681  24.906  1.00  0.00     0.000 C 
BRANCH  19  20
ATOM     20  C   UNL     1      29.146  52.135  25.270  1.00  0.00     0.006 C 
BRANCH  20  21
ATOM     21  C   UNL     1      29.861  52.658  26.527  1.00  0.00     0.053 C 
BRANCH  21  22
ATOM     22  C   UNL     1      30.827  53.761  26.217  1.00  0.00     0.041 C 
ATOM     23  O   UNL     1      31.946  53.498  25.701  1.00  0.00    -0.550 OA
ATOM     24  O   UNL     1      30.494  55.079  26.500  1.00  0.00    -0.550 OA
ENDBRANCH  21  22
ENDBRANCH  20  21
ENDBRANCH  19  20
ENDBRANCH  18  19
ENDBRANCH  17  18
ENDBRANCH  16  17
ENDBRANCH  15  16
ENDBRANCH  14  15
ENDBRANCH  13  14
ENDBRANCH   1  13
TORSDOF 20
ENDMDL
MODEL 7
REMARK VINA RESULT:    -3.404      1.363      2.035
REMARK INTER + INTRA:          -9.225
REMARK INTER:                  -8.547
REMARK INTRA:                  -0.677
REMARK UNBOUND:                -1.841
REMARK SMILES CCCCCCCCCCCCCCCCCCCCCC(=O)[O-]
REMARK SMILES IDX 12 1 11 2 10 3 9 4 8 5 7 6 6 7 5 8 4 9 3 10 2 11 1 12 13 13
REMARK SMILES IDX 14 14 15 15 16 16 17 17 18 18 19 19 20 20 21 21 22 22 23 23
REMARK SMILES IDX 24 24
REMARK H PARENT
REMARK Flexibility Score: inf
ROOT
ATOM      1  C   UNL     1      35.040  47.623  26.373  1.00  0.00     0.000 C 
ENDROOT
BRANCH   1   2
ATOM      2  C   UNL     1      34.995  49.134  26.656  1.00  0.00     0.000 C 
BRANCH   2   3
ATOM      3  C   UNL     1      33.805  49.826  25.975  1.00  0.00     0.000 C 
BRANCH   3   4
ATOM      4  C   UNL     1      32.674  48.828  25.701  1.00  0.00    -0.000 C 
BRANCH   4   5
ATOM      5  C   UNL     1      31.305  49.451  26.000  1.00  0.00    -0.000 C 
BRANCH   5   6
ATOM      6  C   UNL     1      30.840  50.342  24.841  1.00  0.00    -0.000 C 
BRANCH   6   7
ATOM      7  C   UNL     1      29.367  50.740  25.010  1.00  0.00    -0.000 C 
BRANCH   7   8
ATOM      8  C   UNL     1      29.184  52.243  25.271  1.00  0.00    -0.000 C 
BRANCH   8   9
ATOM      9  C   UNL     1      29.500  52.635  26.726  1.00  0.00    -0.000 C 
BRANCH   9  10
ATOM     10  C   UNL     1      30.308  53.946  26.814  1.00  0.00    -0.000 C 
BRANCH  10  11
ATOM     11  C   UNL     1      30.469  54.659  25.461  1.00  0.00    -0.003 C 
ATOM     12  C   UNL     1      31.483  53.981  24.543  1.00  0.00     0.004 C 
ENDBRANCH  10  11
ENDBRANCH   9  10
ENDBRANCH   8   9
ENDBRANCH   7   8
ENDBRANCH   6   7
ENDBRANCH   5   6
ENDBRANCH   4   5
ENDBRANCH   3   4
ENDBRANCH   2   3
ENDBRANCH   1   2
BRANCH   1  13
ATOM     13  C   UNL     1      36.183  46.917  27.125  1.00  0.00     0.000 C 
BRANCH  13  14
ATOM     14  C   UNL     1      36.150  45.390  26.954  1.00  0.00     0.000 C 
BRANCH  14  15
ATOM     15  C   UNL     1      37.552  44.762  26.956  1.00  0.00     0.000 C 
BRANCH  15  16
ATOM     16  C   UNL     1      37.514  43.322  26.429  1.00  0.00     0.000 C 
BRANCH  16  17
ATOM     17  C   UNL     1      36.449  43.111  25.339  1.00  0.00     0.000 C 
BRANCH  17  18
ATOM     18  C   UNL     1      36.571  41.759  24.602  1.00  0.00     0.000 C 
BRANCH  18  19
ATOM     19  C   UNL     1      37.722  40.898  25.155  1.00  0.00     0.000 C 
BRANCH  19  20
ATOM     20  C   UNL     1      37.247  39.524  25.660  1.00  0.00     0.006 C 
BRANCH  20  21
ATOM     21  C   UNL     1      38.088  38.954  26.815  1.00  0.00     0.053 C 
BRANCH  21  22
ATOM     22  C   UNL     1      38.043  37.457  26.870  1.00  0.00     0.041 C 
ATOM     23  O   UNL     1      36.936  36.856  26.885  1.00  0.00    -0.550 OA
ATOM     24  O   UNL     1      39.223  36.726  26.908  1.00  0.00    -0.550 OA
ENDBRANCH  21  22
ENDBRANCH  20  21
ENDBRANCH  19  20
ENDBRANCH  18  19
ENDBRANCH  17  18
ENDBRANCH  16  17
ENDBRANCH  15  16
ENDBRANCH  14  15
ENDBRANCH  13  14
ENDBRANCH   1  13
TORSDOF 20
ENDMDL
MODEL 8
REMARK VINA RESULT:    -3.376      1.319      2.534
REMARK INTER + INTRA:          -9.164
REMARK INTER:                  -7.793
REMARK INTRA:                  -1.371
REMARK UNBOUND:                -1.841
REMARK SMILES CCCCCCCCCCCCCCCCCCCCCC(=O)[O-]
REMARK SMILES IDX 12 1 11 2 10 3 9 4 8 5 7 6 6 7 5 8 4 9 3 10 2 11 1 12 13 13
REMARK SMILES IDX 14 14 15 15 16 16 17 17 18 18 19 19 20 20 21 21 22 22 23 23
REMARK SMILES IDX 24 24
REMARK H PARENT
REMARK Flexibility Score: inf
ROOT
ATOM      1  C   UNL     1      32.759  46.352  24.162  1.00  0.00     0.000 C 
ENDROOT
BRANCH   1   2
ATOM      2  C   UNL     1      32.649  47.491  25.191  1.00  0.00     0.000 C 
BRANCH   2   3
ATOM      3  C   UNL     1      33.637  48.634  24.913  1.00  0.00     0.000 C 
BRANCH   3   4
ATOM      4  C   UNL     1      34.945  48.429  25.685  1.00  0.00    -0.000 C 
BRANCH   4   5
ATOM      5  C   UNL     1      35.047  49.403  26.865  1.00  0.00    -0.000 C 
BRANCH   5   6
ATOM      6  C   UNL     1      33.757  50.219  27.019  1.00  0.00    -0.000 C 
BRANCH   6   7
ATOM      7  C   UNL     1      34.063  51.720  27.118  1.00  0.00    -0.000 C 
BRANCH   7   8
ATOM      8  C   UNL     1      32.895  52.597  26.641  1.00  0.00    -0.000 C 
BRANCH   8   9
ATOM      9  C   UNL     1      32.011  51.891  25.597  1.00  0.00    -0.000 C 
BRANCH   9  10
ATOM     10  C   UNL     1      30.525  51.870  26.010  1.00  0.00    -0.000 C 
BRANCH  10  11
ATOM     11  C   UNL     1      29.843  53.246  25.919  1.00  0.00    -0.003 C 
ATOM     12  C   UNL     1      30.502  54.174  24.902  1.00  0.00     0.004 C 
ENDBRANCH  10  11
ENDBRANCH   9  10
ENDBRANCH   8   9
ENDBRANCH   7   8
ENDBRANCH   6   7
ENDBRANCH   5   6
ENDBRANCH   4   5
ENDBRANCH   3   4
ENDBRANCH   2   3
ENDBRANCH   1   2
BRANCH   1  13
ATOM     13  C   UNL     1      32.347  44.990  24.746  1.00  0.00     0.000 C 
BRANCH  13  14
ATOM     14  C   UNL     1      33.519  44.251  25.412  1.00  0.00     0.000 C 
BRANCH  14  15
ATOM     15  C   UNL     1      34.001  44.939  26.698  1.00  0.00     0.000 C 
BRANCH  15  16
ATOM     16  C   UNL     1      35.528  45.095  26.701  1.00  0.00     0.000 C 
BRANCH  16  17
ATOM     17  C   UNL     1      36.261  43.806  27.111  1.00  0.00     0.000 C 
BRANCH  17  18
ATOM     18  C   UNL     1      37.752  43.784  26.709  1.00  0.00     0.000 C 
BRANCH  18  19
ATOM     19  C   UNL     1      38.134  42.492  25.964  1.00  0.00     0.000 C 
BRANCH  19  20
ATOM     20  C   UNL     1      36.962  41.498  25.858  1.00  0.00     0.006 C 
BRANCH  20  21
ATOM     21  C   UNL     1      37.350  40.132  25.267  1.00  0.00     0.053 C 
BRANCH  21  22
ATOM     22  C   UNL     1      37.793  39.161  26.319  1.00  0.00     0.041 C 
ATOM     23  O   UNL     1      38.991  39.152  26.711  1.00  0.00    -0.550 OA
ATOM     24  O   UNL     1      36.885  38.262  26.864  1.00  0.00    -0.550 OA
ENDBRANCH  21  22
ENDBRANCH  20  21
ENDBRANCH  19  20
ENDBRANCH  18  19
ENDBRANCH  17  18
ENDBRANCH  16  17
ENDBRANCH  15  16
ENDBRANCH  14  15
ENDBRANCH  13  14
ENDBRANCH   1  13
TORSDOF 20
ENDMDL
MODEL 9
REMARK VINA RESULT:    -3.256      1.515      2.874
REMARK INTER + INTRA:          -8.904
REMARK INTER:                  -8.071
REMARK INTRA:                  -0.833
REMARK UNBOUND:                -1.841
REMARK SMILES CCCCCCCCCCCCCCCCCCCCCC(=O)[O-]
REMARK SMILES IDX 12 1 11 2 10 3 9 4 8 5 7 6 6 7 5 8 4 9 3 10 2 11 1 12 13 13
REMARK SMILES IDX 14 14 15 15 16 16 17 17 18 18 19 19 20 20 21 21 22 22 23 23
REMARK SMILES IDX 24 24
REMARK H PARENT
REMARK Flexibility Score: inf
ROOT
ATOM      1  C   UNL     1      33.038  45.689  25.334  1.00  0.00     0.000 C 
ENDROOT
BRANCH   1   2
ATOM      2  C   UNL     1      33.180  46.980  26.159  1.00  0.00     0.000 C 
BRANCH   2   3
ATOM      3  C   UNL     1      33.781  48.137  25.346  1.00  0.00     0.000 C 
BRANCH   3   4
ATOM      4  C   UNL     1      34.882  48.849  26.139  1.00  0.00    -0.000 C 
BRANCH   4   5
ATOM      5  C   UNL     1      34.297  49.960  27.019  1.00  0.00    -0.000 C 
BRANCH   5   6
ATOM      6  C   UNL     1      34.221  51.287  26.253  1.00  0.00    -0.000 C 
BRANCH   6   7
ATOM      7  C   UNL     1      32.903  52.018  26.549  1.00  0.00    -0.000 C 
BRANCH   7   8
ATOM      8  C   UNL     1      31.699  51.067  26.619  1.00  0.00    -0.000 C 
BRANCH   8   9
ATOM      9  C   UNL     1      30.392  51.790  26.991  1.00  0.00    -0.000 C 
BRANCH   9  10
ATOM     10  C   UNL     1      29.376  51.791  25.829  1.00  0.00    -0.000 C 
BRANCH  10  11
ATOM     11  C   UNL     1      29.626  50.680  24.795  1.00  0.00    -0.003 C 
ATOM     12  C   UNL     1      30.786  50.988  23.853  1.00  0.00     0.004 C 
ENDBRANCH  10  11
ENDBRANCH   9  10
ENDBRANCH   8   9
ENDBRANCH   7   8
ENDBRANCH   6   7
ENDBRANCH   5   6
ENDBRANCH   4   5
ENDBRANCH   3   4
ENDBRANCH   2   3
ENDBRANCH   1   2
BRANCH   1  13
ATOM     13  C   UNL     1      33.718  44.483  26.006  1.00  0.00     0.000 C 
BRANCH  13  14
ATOM     14  C   UNL     1      34.943  44.884  26.844  1.00  0.00     0.000 C 
BRANCH  14  15
ATOM     15  C   UNL     1      36.272  44.539  26.156  1.00  0.00     0.000 C 
BRANCH  15  16
ATOM     16  C   UNL     1      37.074  43.525  26.981  1.00  0.00     0.000 C 
BRANCH  16  17
ATOM     17  C   UNL     1      36.889  42.077  26.497  1.00  0.00     0.000 C 
BRANCH  17  18
ATOM     18  C   UNL     1      38.077  41.540  25.670  1.00  0.00     0.000 C 
BRANCH  18  19
ATOM     19  C   UNL     1      38.915  40.515  26.456  1.00  0.00     0.000 C 
BRANCH  19  20
ATOM     20  C   UNL     1      38.053  39.429  27.125  1.00  0.00     0.006 C 
BRANCH  20  21
ATOM     21  C   UNL     1      38.565  37.996  26.902  1.00  0.00     0.053 C 
BRANCH  21  22
ATOM     22  C   UNL     1      37.450  36.998  26.816  1.00  0.00     0.041 C 
ATOM     23  O   UNL     1      36.271  37.339  27.099  1.00  0.00    -0.550 OA
ATOM     24  O   UNL     1      37.713  35.691  26.426  1.00  0.00    -0.550 OA
ENDBRANCH  21  22
ENDBRANCH  20  21
ENDBRANCH  19  20
ENDBRANCH  18  19
ENDBRANCH  17  18
ENDBRANCH  16  17
ENDBRANCH  15  16
ENDBRANCH  14  15
ENDBRANCH  13  14
ENDBRANCH   1  13
TORSDOF 20
ENDMDL
