MODEL 1
REMARK VINA RESULT:    -3.066      0.000      0.000
REMARK INTER + INTRA:          -2.500
REMARK INTER:                  -3.335
REMARK INTRA:                   0.835
REMARK UNBOUND:                 0.835
REMARK SMILES C[C@H]1[C@H]2C3=CC[C@H]4[C@]5(C)CC[C@@H](O)C(C)(C)[C@@H]5CC[C@]4(C)[C@]3(C)CC[C@]2(C(=O)[O-])CC[C@@H]1C
REMARK SMILES IDX 26 1 30 2 25 3 3 4 31 5 24 6 4 7 2 8 32 9 22 10 5 11 1 12
REMARK SMILES IDX 33 13 23 14 20 15 6 16 7 17 19 18 21 19 8 20 18 21 17 22
REMARK SMILES IDX 10 23 9 24 14 25 11 26 12 27 15 28 16 29 27 30 28 31 29 32
REMARK SMILES IDX 13 33
REMARK H PARENT 13 34
REMARK Flexibility Score: inf
ROOT
ATOM      1  C   UNL     1      -2.024 -13.231  19.542  1.00  0.00     0.017 C 
ATOM      2  C   UNL     1      -3.209 -13.446  18.530  1.00  0.00     0.014 C 
ATOM      3  C   UNL     1      -1.145 -14.531  19.595  1.00  0.00     0.014 C 
ATOM      4  C   UNL     1      -1.159 -12.048  18.999  1.00  0.00     0.030 C 
ATOM      5  C   UNL     1      -3.785 -12.147  17.910  1.00  0.00     0.004 C 
ATOM      6  C   UNL     1       0.360 -14.392  20.002  1.00  0.00     0.013 C 
ATOM      7  C   UNL     1       0.304 -11.982  19.471  1.00  0.00    -0.063 C 
ATOM      8  C   UNL     1      -1.915 -10.675  18.857  1.00  0.00    -0.003 C 
ATOM      9  C   UNL     1      -3.457 -10.866  18.707  1.00  0.00    -0.011 C 
ATOM     10  C   UNL     1       0.861 -12.992  20.503  1.00  0.00    -0.006 C 
ATOM     11  C   UNL     1       1.124 -11.289  18.646  1.00  0.00    -0.027 C 
ATOM     12  C   UNL     1      -1.571  -9.617  19.932  1.00  0.00     0.008 C 
ATOM     13  C   UNL     1      -4.110  -9.652  18.026  1.00  0.00     0.008 C 
ATOM     14  C   UNL     1       0.242 -12.756  21.917  1.00  0.00     0.017 C 
ATOM     15  C   UNL     1       2.486 -12.906  20.638  1.00  0.00    -0.020 C 
ATOM     16  C   UNL     1       2.612 -11.363  18.646  1.00  0.00     0.032 C 
ATOM     17  C   UNL     1       3.155 -12.679  19.250  1.00  0.00     0.006 C 
ATOM     18  C   UNL     1       3.037 -14.248  21.160  1.00  0.00     0.008 C 
ATOM     19  C   UNL     1       2.905 -11.747  21.607  1.00  0.00     0.012 C 
ATOM     20  C   UNL     1       4.767 -12.832  19.160  1.00  0.00    -0.025 C 
ATOM     21  C   UNL     1       4.532 -14.280  21.421  1.00  0.00     0.005 C 
ATOM     22  C   UNL     1       5.474 -13.498  20.444  1.00  0.00     0.003 C 
ATOM     23  C   UNL     1       5.093 -13.675  17.876  1.00  0.00     0.010 C 
ATOM     24  C   UNL     1       5.421 -11.422  18.940  1.00  0.00     0.012 C 
ATOM     25  C   UNL     1       6.776 -14.365  20.110  1.00  0.00    -0.006 C 
ATOM     26  C   UNL     1       5.216 -15.172  18.171  1.00  0.00     0.033 C 
ATOM     27  C   UNL     1       6.407 -15.512  19.097  1.00  0.00     0.120 C 
ATOM     28  C   UNL     1       7.932 -13.474  19.556  1.00  0.00     0.014 C 
ATOM     29  C   UNL     1       7.382 -14.994  21.407  1.00  0.00     0.014 C 
ENDROOT
BRANCH   1  30
ATOM     30  C   UNL     1      -2.676 -13.011  20.906  1.00  0.00     0.048 C 
ATOM     31  O   UNL     1      -2.601 -11.912  21.511  1.00  0.00    -0.550 OA
ATOM     32  O   UNL     1      -3.381 -14.047  21.509  1.00  0.00    -0.550 OA
ENDBRANCH   1  30
BRANCH  27  33
ATOM     33  O   UNL     1       7.514 -15.873  18.306  1.00  0.00    -0.393 OA
ATOM     34  H   UNL     1       7.167 -16.080  17.400  1.00  0.00     0.210 HD
ENDBRANCH  27  33
TORSDOF 2
ENDMDL
MODEL 2
REMARK VINA RESULT:    -2.831      1.860      3.032
REMARK INTER + INTRA:          -2.245
REMARK INTER:                  -3.124
REMARK INTRA:                   0.880
REMARK UNBOUND:                 0.835
REMARK SMILES C[C@H]1[C@H]2C3=CC[C@H]4[C@]5(C)CC[C@@H](O)C(C)(C)[C@@H]5CC[C@]4(C)[C@]3(C)CC[C@]2(C(=O)[O-])CC[C@@H]1C
REMARK SMILES IDX 26 1 30 2 25 3 3 4 31 5 24 6 4 7 2 8 32 9 22 10 5 11 1 12
REMARK SMILES IDX 33 13 23 14 20 15 6 16 7 17 19 18 21 19 8 20 18 21 17 22
REMARK SMILES IDX 10 23 9 24 14 25 11 26 12 27 15 28 16 29 27 30 28 31 29 32
REMARK SMILES IDX 13 33
REMARK H PARENT 13 34
REMARK Flexibility Score: inf
ROOT
ATOM      1  C   UNL     1      -1.588 -13.267  19.076  1.00  0.00     0.017 C 
ATOM      2  C   UNL     1      -2.728 -12.192  18.940  1.00  0.00     0.014 C 
ATOM      3  C   UNL     1      -0.558 -13.083  17.906  1.00  0.00     0.014 C 
ATOM      4  C   UNL     1      -0.866 -13.007  20.439  1.00  0.00     0.030 C 
ATOM      5  C   UNL     1      -3.451 -11.831  20.263  1.00  0.00     0.004 C 
ATOM      6  C   UNL     1       0.915 -13.561  18.131  1.00  0.00     0.013 C 
ATOM      7  C   UNL     1       0.573 -13.533  20.576  1.00  0.00    -0.063 C 
ATOM      8  C   UNL     1      -1.782 -13.122  21.715  1.00  0.00    -0.003 C 
ATOM      9  C   UNL     1      -3.288 -12.884  21.380  1.00  0.00    -0.011 C 
ATOM     10  C   UNL     1       1.238 -14.355  19.446  1.00  0.00    -0.006 C 
ATOM     11  C   UNL     1       1.311 -12.896  21.515  1.00  0.00    -0.027 C 
ATOM     12  C   UNL     1      -1.579 -14.402  22.560  1.00  0.00     0.008 C 
ATOM     13  C   UNL     1      -4.077 -12.444  22.625  1.00  0.00     0.008 C 
ATOM     14  C   UNL     1       0.582 -15.766  19.311  1.00  0.00     0.017 C 
ATOM     15  C   UNL     1       2.840 -14.560  19.690  1.00  0.00    -0.020 C 
ATOM     16  C   UNL     1       2.796 -12.931  21.616  1.00  0.00     0.032 C 
ATOM     17  C   UNL     1       3.489 -13.272  20.276  1.00  0.00     0.006 C 
ATOM     18  C   UNL     1       3.543 -14.816  18.343  1.00  0.00     0.008 C 
ATOM     19  C   UNL     1       3.105 -15.760  20.664  1.00  0.00     0.012 C 
ATOM     20  C   UNL     1       5.108 -13.208  20.334  1.00  0.00    -0.025 C 
ATOM     21  C   UNL     1       5.029 -15.116  18.432  1.00  0.00     0.005 C 
ATOM     22  C   UNL     1       5.879 -14.352  19.503  1.00  0.00     0.003 C 
ATOM     23  C   UNL     1       5.546 -11.791  19.819  1.00  0.00     0.010 C 
ATOM     24  C   UNL     1       5.589 -13.303  21.825  1.00  0.00     0.012 C 
ATOM     25  C   UNL     1       7.279 -13.893  18.882  1.00  0.00    -0.006 C 
ATOM     26  C   UNL     1       5.847 -11.778  18.318  1.00  0.00     0.033 C 
ATOM     27  C   UNL     1       7.062 -12.656  17.935  1.00  0.00     0.120 C 
ATOM     28  C   UNL     1       8.324 -13.573  19.997  1.00  0.00     0.014 C 
ATOM     29  C   UNL     1       7.944 -15.054  18.073  1.00  0.00     0.014 C 
ENDROOT
BRANCH   1  30
ATOM     30  C   UNL     1      -2.274 -14.624  18.933  1.00  0.00     0.048 C 
ATOM     31  O   UNL     1      -1.955 -15.612  19.640  1.00  0.00    -0.550 OA
ATOM     32  O   UNL     1      -3.290 -14.787  17.996  1.00  0.00    -0.550 OA
ENDBRANCH   1  30
BRANCH  27  33
ATOM     33  O   UNL     1       8.211 -11.846  17.876  1.00  0.00    -0.393 OA
ATOM     34  H   UNL     1       8.493 -11.811  16.925  1.00  0.00     0.210 HD
ENDBRANCH  27  33
TORSDOF 2
ENDMDL
MODEL 3
REMARK VINA RESULT:    -1.110      2.011      3.605
REMARK INTER + INTRA:          -0.372
REMARK INTER:                  -1.233
REMARK INTRA:                   0.860
REMARK UNBOUND:                 0.835
REMARK SMILES C[C@H]1[C@H]2C3=CC[C@H]4[C@]5(C)CC[C@@H](O)C(C)(C)[C@@H]5CC[C@]4(C)[C@]3(C)CC[C@]2(C(=O)[O-])CC[C@@H]1C
REMARK SMILES IDX 26 1 30 2 25 3 3 4 31 5 24 6 4 7 2 8 32 9 22 10 5 11 1 12
REMARK SMILES IDX 33 13 23 14 20 15 6 16 7 17 19 18 21 19 8 20 18 21 17 22
REMARK SMILES IDX 10 23 9 24 14 25 11 26 12 27 15 28 16 29 27 30 28 31 29 32
REMARK SMILES IDX 13 33
REMARK H PARENT 13 34
REMARK Flexibility Score: inf
ROOT
ATOM      1  C   UNL     1      -1.030 -13.890  21.821  1.00  0.00     0.017 C 
ATOM      2  C   UNL     1      -1.912 -14.635  22.890  1.00  0.00     0.014 C 
ATOM      3  C   UNL     1       0.216 -13.252  22.530  1.00  0.00     0.014 C 
ATOM      4  C   UNL     1      -0.542 -14.963  20.794  1.00  0.00     0.030 C 
ATOM      5  C   UNL     1      -2.793 -15.782  22.330  1.00  0.00     0.004 C 
ATOM      6  C   UNL     1       1.510 -13.013  21.683  1.00  0.00     0.013 C 
ATOM      7  C   UNL     1       0.727 -14.630  19.990  1.00  0.00    -0.063 C 
ATOM      8  C   UNL     1      -1.686 -15.720  20.021  1.00  0.00    -0.003 C 
ATOM      9  C   UNL     1      -3.034 -15.707  20.807  1.00  0.00    -0.011 C 
ATOM     10  C   UNL     1       1.433 -13.260  20.135  1.00  0.00    -0.006 C 
ATOM     11  C   UNL     1       1.378 -15.714  19.506  1.00  0.00    -0.027 C 
ATOM     12  C   UNL     1      -1.879 -15.295  18.546  1.00  0.00     0.008 C 
ATOM     13  C   UNL     1      -3.950 -16.863  20.371  1.00  0.00     0.008 C 
ATOM     14  C   UNL     1       0.569 -12.112  19.523  1.00  0.00     0.017 C 
ATOM     15  C   UNL     1       2.896 -13.239  19.411  1.00  0.00    -0.020 C 
ATOM     16  C   UNL     1       2.788 -15.730  19.025  1.00  0.00     0.032 C 
ATOM     17  C   UNL     1       3.646 -14.588  19.617  1.00  0.00     0.006 C 
ATOM     18  C   UNL     1       3.782 -12.157  20.060  1.00  0.00     0.008 C 
ATOM     19  C   UNL     1       2.754 -12.958  17.875  1.00  0.00     0.012 C 
ATOM     20  C   UNL     1       5.210 -14.649  19.194  1.00  0.00    -0.025 C 
ATOM     21  C   UNL     1       5.146 -11.964  19.421  1.00  0.00     0.005 C 
ATOM     22  C   UNL     1       5.903 -13.227  18.890  1.00  0.00     0.003 C 
ATOM     23  C   UNL     1       5.985 -15.382  20.346  1.00  0.00     0.010 C 
ATOM     24  C   UNL     1       5.378 -15.539  17.913  1.00  0.00     0.012 C 
ATOM     25  C   UNL     1       7.455 -13.150  19.270  1.00  0.00    -0.006 C 
ATOM     26  C   UNL     1       6.559 -14.411  21.381  1.00  0.00     0.033 C 
ATOM     27  C   UNL     1       7.645 -13.476  20.798  1.00  0.00     0.120 C 
ATOM     28  C   UNL     1       8.312 -14.102  18.380  1.00  0.00     0.014 C 
ATOM     29  C   UNL     1       8.038 -11.732  18.967  1.00  0.00     0.014 C 
ENDROOT
BRANCH   1  30
ATOM     30  C   UNL     1      -1.911 -12.778  21.256  1.00  0.00     0.048 C 
ATOM     31  O   UNL     1      -1.963 -12.527  20.026  1.00  0.00    -0.550 OA
ATOM     32  O   UNL     1      -2.690 -12.011  22.117  1.00  0.00    -0.550 OA
ENDBRANCH   1  30
BRANCH  27  33
ATOM     33  O   UNL     1       8.913 -14.034  21.049  1.00  0.00    -0.393 OA
ATOM     34  H   UNL     1       8.940 -14.268  22.014  1.00  0.00     0.210 HD
ENDBRANCH  27  33
TORSDOF 2
ENDMDL
MODEL 4
REMARK VINA RESULT:    -0.764      1.665      2.354
REMARK INTER + INTRA:           0.004
REMARK INTER:                  -1.003
REMARK INTRA:                   1.007
REMARK UNBOUND:                 0.835
REMARK SMILES C[C@H]1[C@H]2C3=CC[C@H]4[C@]5(C)CC[C@@H](O)C(C)(C)[C@@H]5CC[C@]4(C)[C@]3(C)CC[C@]2(C(=O)[O-])CC[C@@H]1C
REMARK SMILES IDX 26 1 30 2 25 3 3 4 31 5 24 6 4 7 2 8 32 9 22 10 5 11 1 12
REMARK SMILES IDX 33 13 23 14 20 15 6 16 7 17 19 18 21 19 8 20 18 21 17 22
REMARK SMILES IDX 10 23 9 24 14 25 11 26 12 27 15 28 16 29 27 30 28 31 29 32
REMARK SMILES IDX 13 33
REMARK H PARENT 13 34
REMARK Flexibility Score: inf
ROOT
ATOM      1  C   UNL     1      -0.744 -15.785  20.615  1.00  0.00     0.017 C 
ATOM      2  C   UNL     1      -1.788 -16.790  20.002  1.00  0.00     0.014 C 
ATOM      3  C   UNL     1       0.576 -16.558  20.967  1.00  0.00     0.014 C 
ATOM      4  C   UNL     1      -0.434 -14.714  19.519  1.00  0.00     0.030 C 
ATOM      5  C   UNL     1      -2.851 -16.147  19.074  1.00  0.00     0.004 C 
ATOM      6  C   UNL     1       1.920 -15.757  20.994  1.00  0.00     0.013 C 
ATOM      7  C   UNL     1       0.903 -13.961  19.640  1.00  0.00    -0.063 C 
ATOM      8  C   UNL     1      -1.673 -13.873  19.033  1.00  0.00    -0.003 C 
ATOM      9  C   UNL     1      -3.021 -14.625  19.267  1.00  0.00    -0.011 C 
ATOM     10  C   UNL     1       1.851 -14.197  20.840  1.00  0.00    -0.006 C 
ATOM     11  C   UNL     1       1.352 -13.436  18.476  1.00  0.00    -0.027 C 
ATOM     12  C   UNL     1      -1.731 -12.419  19.557  1.00  0.00     0.008 C 
ATOM     13  C   UNL     1      -4.124 -14.105  18.330  1.00  0.00     0.008 C 
ATOM     14  C   UNL     1       1.244 -13.626  22.161  1.00  0.00     0.017 C 
ATOM     15  C   UNL     1       3.316 -13.512  20.615  1.00  0.00    -0.020 C 
ATOM     16  C   UNL     1       2.749 -12.989  18.213  1.00  0.00     0.032 C 
ATOM     17  C   UNL     1       3.787 -13.663  19.140  1.00  0.00     0.006 C 
ATOM     18  C   UNL     1       4.368 -14.239  21.475  1.00  0.00     0.008 C 
ATOM     19  C   UNL     1       3.283 -11.990  20.992  1.00  0.00     0.012 C 
ATOM     20  C   UNL     1       5.325 -13.276  18.800  1.00  0.00    -0.025 C 
ATOM     21  C   UNL     1       5.765 -13.646  21.433  1.00  0.00     0.005 C 
ATOM     22  C   UNL     1       6.286 -13.066  20.075  1.00  0.00     0.003 C 
ATOM     23  C   UNL     1       5.906 -14.406  17.877  1.00  0.00     0.010 C 
ATOM     24  C   UNL     1       5.365 -11.954  17.956  1.00  0.00     0.012 C 
ATOM     25  C   UNL     1       7.810 -13.489  19.835  1.00  0.00    -0.006 C 
ATOM     26  C   UNL     1       6.618 -15.506  18.669  1.00  0.00     0.033 C 
ATOM     27  C   UNL     1       7.882 -15.001  19.405  1.00  0.00     0.120 C 
ATOM     28  C   UNL     1       8.501 -12.570  18.780  1.00  0.00     0.014 C 
ATOM     29  C   UNL     1       8.663 -13.277  21.127  1.00  0.00     0.014 C 
ENDROOT
BRANCH   1  30
ATOM     30  C   UNL     1      -1.377 -15.259  21.901  1.00  0.00     0.048 C 
ATOM     31  O   UNL     1      -1.127 -14.111  22.347  1.00  0.00    -0.550 OA
ATOM     32  O   UNL     1      -2.263 -16.062  22.612  1.00  0.00    -0.550 OA
ENDBRANCH   1  30
BRANCH  27  33
ATOM     33  O   UNL     1       9.010 -15.253  18.603  1.00  0.00    -0.393 OA
ATOM     34  H   UNL     1       9.265 -16.201  18.750  1.00  0.00     0.210 HD
ENDBRANCH  27  33
TORSDOF 2
ENDMDL
