MODEL 1
REMARK VINA RESULT:    -5.286      0.000      0.000
REMARK INTER + INTRA:         -10.726
REMARK INTER:                  -9.921
REMARK INTRA:                  -0.805
REMARK UNBOUND:                -0.805
REMARK SMILES CCCCCCCCC=CCCCCCCCC(=O)[O-]
REMARK SMILES IDX 10 1 9 2 11 3 12 4 13 5 14 6 15 7 16 8 17 9 18 10 19 11
REMARK SMILES IDX 20 12 8 13 7 14 6 15 5 16 4 17 3 18 2 19 1 20
REMARK H PARENT
REMARK Flexibility Score: inf
ROOT
ATOM      1  C   UNL     1     -18.019  -2.189   3.242  1.00  0.00    -0.031 C 
ATOM      2  C   UNL     1     -17.393  -1.031   3.505  1.00  0.00    -0.031 C 
ENDROOT
BRANCH   1   3
ATOM      3  C   UNL     1     -18.585  -3.045   4.340  1.00  0.00     0.027 C 
BRANCH   3   4
ATOM      4  C   UNL     1     -18.776  -4.495   3.872  1.00  0.00     0.004 C 
BRANCH   4   5
ATOM      5  C   UNL     1     -17.914  -5.487   4.671  1.00  0.00     0.000 C 
BRANCH   5   6
ATOM      6  C   UNL     1     -16.749  -4.801   5.404  1.00  0.00     0.000 C 
BRANCH   6   7
ATOM      7  C   UNL     1     -16.972  -4.752   6.930  1.00  0.00     0.000 C 
BRANCH   7   8
ATOM      8  C   UNL     1     -18.236  -5.497   7.392  1.00  0.00     0.006 C 
BRANCH   8   9
ATOM      9  C   UNL     1     -18.094  -6.105   8.791  1.00  0.00     0.053 C 
BRANCH   9  10
ATOM     10  C   UNL     1     -18.975  -5.388   9.765  1.00  0.00     0.041 C 
ATOM     11  O   UNL     1     -18.968  -4.131   9.821  1.00  0.00    -0.550 OA
ATOM     12  O   UNL     1     -19.840  -6.109  10.579  1.00  0.00    -0.550 OA
ENDBRANCH   9  10
ENDBRANCH   8   9
ENDBRANCH   7   8
ENDBRANCH   6   7
ENDBRANCH   5   6
ENDBRANCH   4   5
ENDBRANCH   3   4
ENDBRANCH   1   3
BRANCH   2  13
ATOM     13  C   UNL     1     -16.807  -0.185   2.408  1.00  0.00     0.027 C 
BRANCH  13  14
ATOM     14  C   UNL     1     -17.684   1.032   2.068  1.00  0.00     0.004 C 
BRANCH  14  15
ATOM     15  C   UNL     1     -18.087   1.886   3.286  1.00  0.00     0.000 C 
BRANCH  15  16
ATOM     16  C   UNL     1     -19.393   2.687   3.120  1.00  0.00     0.000 C 
BRANCH  16  17
ATOM     17  C   UNL     1     -19.307   4.167   3.535  1.00  0.00    -0.000 C 
BRANCH  17  18
ATOM     18  C   UNL     1     -20.674   4.867   3.535  1.00  0.00    -0.000 C 
BRANCH  18  19
ATOM     19  C   UNL     1     -20.631   6.154   2.705  1.00  0.00    -0.003 C 
ATOM     20  C   UNL     1     -19.772   7.219   3.382  1.00  0.00     0.004 C 
ENDBRANCH  18  19
ENDBRANCH  17  18
ENDBRANCH  16  17
ENDBRANCH  15  16
ENDBRANCH  14  15
ENDBRANCH  13  14
ENDBRANCH   2  13
TORSDOF 15
ENDMDL
MODEL 2
REMARK VINA RESULT:    -5.198      2.027      3.084
REMARK INTER + INTRA:         -10.561
REMARK INTER:                  -8.981
REMARK INTRA:                  -1.580
REMARK UNBOUND:                -0.805
REMARK SMILES CCCCCCCCC=CCCCCCCCC(=O)[O-]
REMARK SMILES IDX 10 1 9 2 11 3 12 4 13 5 14 6 15 7 16 8 17 9 18 10 19 11
REMARK SMILES IDX 20 12 8 13 7 14 6 15 5 16 4 17 3 18 2 19 1 20
REMARK H PARENT
REMARK Flexibility Score: inf
ROOT
ATOM      1  C   UNL     1     -17.000  -1.525   2.882  1.00  0.00    -0.031 C 
ATOM      2  C   UNL     1     -17.631  -1.217   4.025  1.00  0.00    -0.031 C 
ENDROOT
BRANCH   1   3
ATOM      3  C   UNL     1     -15.525  -1.808   2.848  1.00  0.00     0.027 C 
BRANCH   3   4
ATOM      4  C   UNL     1     -15.236  -3.174   2.207  1.00  0.00     0.004 C 
BRANCH   4   5
ATOM      5  C   UNL     1     -16.473  -3.770   1.515  1.00  0.00     0.000 C 
BRANCH   5   6
ATOM      6  C   UNL     1     -16.872  -5.138   2.095  1.00  0.00     0.000 C 
BRANCH   6   7
ATOM      7  C   UNL     1     -18.379  -5.212   2.421  1.00  0.00     0.000 C 
BRANCH   7   8
ATOM      8  C   UNL     1     -18.715  -4.817   3.870  1.00  0.00     0.006 C 
BRANCH   8   9
ATOM      9  C   UNL     1     -17.491  -4.833   4.791  1.00  0.00     0.053 C 
BRANCH   9  10
ATOM     10  C   UNL     1     -17.729  -5.734   5.962  1.00  0.00     0.041 C 
ATOM     11  O   UNL     1     -18.275  -6.856   5.797  1.00  0.00    -0.550 OA
ATOM     12  O   UNL     1     -17.304  -5.354   7.229  1.00  0.00    -0.550 OA
ENDBRANCH   9  10
ENDBRANCH   8   9
ENDBRANCH   7   8
ENDBRANCH   6   7
ENDBRANCH   5   6
ENDBRANCH   4   5
ENDBRANCH   3   4
ENDBRANCH   1   3
BRANCH   2  13
ATOM     13  C   UNL     1     -19.104  -0.911   4.056  1.00  0.00     0.027 C 
BRANCH  13  14
ATOM     14  C   UNL     1     -19.393   0.596   4.168  1.00  0.00     0.004 C 
BRANCH  14  15
ATOM     15  C   UNL     1     -19.242   1.373   2.845  1.00  0.00     0.000 C 
BRANCH  15  16
ATOM     16  C   UNL     1     -18.851   2.856   2.999  1.00  0.00     0.000 C 
BRANCH  16  17
ATOM     17  C   UNL     1     -19.856   3.859   2.403  1.00  0.00    -0.000 C 
BRANCH  17  18
ATOM     18  C   UNL     1     -20.493   4.767   3.464  1.00  0.00    -0.000 C 
BRANCH  18  19
ATOM     19  C   UNL     1     -20.787   6.158   2.892  1.00  0.00    -0.003 C 
ATOM     20  C   UNL     1     -19.757   7.179   3.369  1.00  0.00     0.004 C 
ENDBRANCH  18  19
ENDBRANCH  17  18
ENDBRANCH  16  17
ENDBRANCH  15  16
ENDBRANCH  14  15
ENDBRANCH  13  14
ENDBRANCH   2  13
TORSDOF 15
ENDMDL
MODEL 3
REMARK VINA RESULT:    -5.170      4.188      9.510
REMARK INTER + INTRA:         -10.508
REMARK INTER:                  -9.469
REMARK INTRA:                  -1.039
REMARK UNBOUND:                -0.805
REMARK SMILES CCCCCCCCC=CCCCCCCCC(=O)[O-]
REMARK SMILES IDX 10 1 9 2 11 3 12 4 13 5 14 6 15 7 16 8 17 9 18 10 19 11
REMARK SMILES IDX 20 12 8 13 7 14 6 15 5 16 4 17 3 18 2 19 1 20
REMARK H PARENT
REMARK Flexibility Score: inf
ROOT
ATOM      1  C   UNL     1     -16.580  -1.747   4.401  1.00  0.00    -0.031 C 
ATOM      2  C   UNL     1     -17.585  -1.905   3.526  1.00  0.00    -0.031 C 
ENDROOT
BRANCH   1   3
ATOM      3  C   UNL     1     -16.151  -0.386   4.871  1.00  0.00     0.027 C 
BRANCH   3   4
ATOM      4  C   UNL     1     -17.178   0.687   4.476  1.00  0.00     0.004 C 
BRANCH   4   5
ATOM      5  C   UNL     1     -16.570   1.777   3.579  1.00  0.00     0.000 C 
BRANCH   5   6
ATOM      6  C   UNL     1     -17.442   2.084   2.349  1.00  0.00     0.000 C 
BRANCH   6   7
ATOM      7  C   UNL     1     -18.949   1.985   2.667  1.00  0.00     0.000 C 
BRANCH   7   8
ATOM      8  C   UNL     1     -19.534   3.269   3.281  1.00  0.00     0.006 C 
BRANCH   8   9
ATOM      9  C   UNL     1     -20.093   4.233   2.230  1.00  0.00     0.053 C 
BRANCH   9  10
ATOM     10  C   UNL     1     -20.214   5.613   2.796  1.00  0.00     0.041 C 
ATOM     11  O   UNL     1     -21.075   6.411   2.344  1.00  0.00    -0.550 OA
ATOM     12  O   UNL     1     -19.405   6.001   3.857  1.00  0.00    -0.550 OA
ENDBRANCH   9  10
ENDBRANCH   8   9
ENDBRANCH   7   8
ENDBRANCH   6   7
ENDBRANCH   5   6
ENDBRANCH   4   5
ENDBRANCH   3   4
ENDBRANCH   1   3
BRANCH   2  13
ATOM     13  C   UNL     1     -17.999  -3.267   3.037  1.00  0.00     0.027 C 
BRANCH  13  14
ATOM     14  C   UNL     1     -18.882  -4.015   4.052  1.00  0.00     0.004 C 
BRANCH  14  15
ATOM     15  C   UNL     1     -18.244  -5.294   4.628  1.00  0.00     0.000 C 
BRANCH  15  16
ATOM     16  C   UNL     1     -17.509  -5.111   5.971  1.00  0.00     0.000 C 
BRANCH  16  17
ATOM     17  C   UNL     1     -18.144  -5.844   7.166  1.00  0.00    -0.000 C 
BRANCH  17  18
ATOM     18  C   UNL     1     -17.912  -5.121   8.500  1.00  0.00    -0.000 C 
BRANCH  18  19
ATOM     19  C   UNL     1     -19.243  -4.815   9.197  1.00  0.00    -0.003 C 
ATOM     20  C   UNL     1     -19.502  -5.791  10.342  1.00  0.00     0.004 C 
ENDBRANCH  18  19
ENDBRANCH  17  18
ENDBRANCH  16  17
ENDBRANCH  15  16
ENDBRANCH  14  15
ENDBRANCH  13  14
ENDBRANCH   2  13
TORSDOF 15
ENDMDL
MODEL 4
REMARK VINA RESULT:    -4.989      4.536      9.211
REMARK INTER + INTRA:         -10.168
REMARK INTER:                  -8.860
REMARK INTRA:                  -1.308
REMARK UNBOUND:                -0.805
REMARK SMILES CCCCCCCCC=CCCCCCCCC(=O)[O-]
REMARK SMILES IDX 10 1 9 2 11 3 12 4 13 5 14 6 15 7 16 8 17 9 18 10 19 11
REMARK SMILES IDX 20 12 8 13 7 14 6 15 5 16 4 17 3 18 2 19 1 20
REMARK H PARENT
REMARK Flexibility Score: inf
ROOT
ATOM      1  C   UNL     1     -19.096  -1.866   4.150  1.00  0.00    -0.031 C 
ATOM      2  C   UNL     1     -18.069  -1.834   3.287  1.00  0.00    -0.031 C 
ENDROOT
BRANCH   1   3
ATOM      3  C   UNL     1     -19.693  -0.606   4.710  1.00  0.00     0.027 C 
BRANCH   3   4
ATOM      4  C   UNL     1     -18.716   0.573   4.591  1.00  0.00     0.004 C 
BRANCH   4   5
ATOM      5  C   UNL     1     -19.209   1.646   3.606  1.00  0.00     0.000 C 
BRANCH   5   6
ATOM      6  C   UNL     1     -18.115   2.663   3.242  1.00  0.00     0.000 C 
BRANCH   6   7
ATOM      7  C   UNL     1     -16.725   2.002   3.121  1.00  0.00     0.000 C 
BRANCH   7   8
ATOM      8  C   UNL     1     -16.172   1.990   1.685  1.00  0.00     0.006 C 
BRANCH   8   9
ATOM      9  C   UNL     1     -16.429   0.667   0.957  1.00  0.00     0.053 C 
BRANCH   9  10
ATOM     10  C   UNL     1     -15.475   0.503  -0.184  1.00  0.00     0.041 C 
ATOM     11  O   UNL     1     -14.345   1.055  -0.149  1.00  0.00    -0.550 OA
ATOM     12  O   UNL     1     -15.818  -0.298  -1.266  1.00  0.00    -0.550 OA
ENDBRANCH   9  10
ENDBRANCH   8   9
ENDBRANCH   7   8
ENDBRANCH   6   7
ENDBRANCH   5   6
ENDBRANCH   4   5
ENDBRANCH   3   4
ENDBRANCH   1   3
BRANCH   2  13
ATOM     13  C   UNL     1     -17.456  -3.096   2.743  1.00  0.00     0.027 C 
BRANCH  13  14
ATOM     14  C   UNL     1     -18.086  -4.365   3.344  1.00  0.00     0.004 C 
BRANCH  14  15
ATOM     15  C   UNL     1     -17.180  -5.114   4.342  1.00  0.00     0.000 C 
BRANCH  15  16
ATOM     16  C   UNL     1     -17.914  -5.752   5.538  1.00  0.00     0.000 C 
BRANCH  16  17
ATOM     17  C   UNL     1     -17.677  -5.058   6.892  1.00  0.00    -0.000 C 
BRANCH  17  18
ATOM     18  C   UNL     1     -18.117  -5.916   8.086  1.00  0.00    -0.000 C 
BRANCH  18  19
ATOM     19  C   UNL     1     -18.612  -5.038   9.240  1.00  0.00    -0.003 C 
ATOM     20  C   UNL     1     -19.692  -5.749  10.051  1.00  0.00     0.004 C 
ENDBRANCH  18  19
ENDBRANCH  17  18
ENDBRANCH  16  17
ENDBRANCH  15  16
ENDBRANCH  14  15
ENDBRANCH  13  14
ENDBRANCH   2  13
TORSDOF 15
ENDMDL
MODEL 5
REMARK VINA RESULT:    -4.988      4.316      9.391
REMARK INTER + INTRA:         -10.167
REMARK INTER:                  -8.516
REMARK INTRA:                  -1.651
REMARK UNBOUND:                -0.805
REMARK SMILES CCCCCCCCC=CCCCCCCCC(=O)[O-]
REMARK SMILES IDX 10 1 9 2 11 3 12 4 13 5 14 6 15 7 16 8 17 9 18 10 19 11
REMARK SMILES IDX 20 12 8 13 7 14 6 15 5 16 4 17 3 18 2 19 1 20
REMARK H PARENT
REMARK Flexibility Score: inf
ROOT
ATOM      1  C   UNL     1     -17.788  -2.713   4.229  1.00  0.00    -0.031 C 
ATOM      2  C   UNL     1     -18.402  -3.906   4.199  1.00  0.00    -0.031 C 
ENDROOT
BRANCH   1   3
ATOM      3  C   UNL     1     -18.351  -1.519   3.510  1.00  0.00     0.027 C 
BRANCH   3   4
ATOM      4  C   UNL     1     -19.412  -0.807   4.361  1.00  0.00     0.004 C 
BRANCH   4   5
ATOM      5  C   UNL     1     -19.191   0.713   4.422  1.00  0.00     0.000 C 
BRANCH   5   6
ATOM      6  C   UNL     1     -18.060   1.183   3.492  1.00  0.00     0.000 C 
BRANCH   6   7
ATOM      7  C   UNL     1     -18.500   2.358   2.592  1.00  0.00     0.000 C 
BRANCH   7   8
ATOM      8  C   UNL     1     -19.376   3.394   3.317  1.00  0.00     0.006 C 
BRANCH   8   9
ATOM      9  C   UNL     1     -20.102   4.339   2.354  1.00  0.00     0.053 C 
BRANCH   9  10
ATOM     10  C   UNL     1     -20.242   5.700   2.962  1.00  0.00     0.041 C 
ATOM     11  O   UNL     1     -19.405   6.105   3.810  1.00  0.00    -0.550 OA
ATOM     12  O   UNL     1     -21.273   6.539   2.557  1.00  0.00    -0.550 OA
ENDBRANCH   9  10
ENDBRANCH   8   9
ENDBRANCH   7   8
ENDBRANCH   6   7
ENDBRANCH   5   6
ENDBRANCH   4   5
ENDBRANCH   3   4
ENDBRANCH   1   3
BRANCH   2  13
ATOM     13  C   UNL     1     -17.828  -5.107   4.900  1.00  0.00     0.027 C 
BRANCH  13  14
ATOM     14  C   UNL     1     -18.012  -5.043   6.427  1.00  0.00     0.004 C 
BRANCH  14  15
ATOM     15  C   UNL     1     -16.699  -5.129   7.230  1.00  0.00     0.000 C 
BRANCH  15  16
ATOM     16  C   UNL     1     -15.708  -3.974   6.988  1.00  0.00     0.000 C 
BRANCH  16  17
ATOM     17  C   UNL     1     -14.223  -4.376   7.005  1.00  0.00    -0.000 C 
BRANCH  17  18
ATOM     18  C   UNL     1     -13.688  -4.738   5.611  1.00  0.00    -0.000 C 
BRANCH  18  19
ATOM     19  C   UNL     1     -14.271  -3.808   4.541  1.00  0.00    -0.003 C 
ATOM     20  C   UNL     1     -14.564  -4.569   3.251  1.00  0.00     0.004 C 
ENDBRANCH  18  19
ENDBRANCH  17  18
ENDBRANCH  16  17
ENDBRANCH  15  16
ENDBRANCH  14  15
ENDBRANCH  13  14
ENDBRANCH   2  13
TORSDOF 15
ENDMDL
MODEL 6
REMARK VINA RESULT:    -4.987      3.167      3.898
REMARK INTER + INTRA:         -10.165
REMARK INTER:                  -9.217
REMARK INTRA:                  -0.948
REMARK UNBOUND:                -0.805
REMARK SMILES CCCCCCCCC=CCCCCCCCC(=O)[O-]
REMARK SMILES IDX 10 1 9 2 11 3 12 4 13 5 14 6 15 7 16 8 17 9 18 10 19 11
REMARK SMILES IDX 20 12 8 13 7 14 6 15 5 16 4 17 3 18 2 19 1 20
REMARK H PARENT
REMARK Flexibility Score: inf
ROOT
ATOM      1  C   UNL     1     -18.704  -3.118   4.155  1.00  0.00    -0.031 C 
ATOM      2  C   UNL     1     -17.876  -2.389   3.392  1.00  0.00    -0.031 C 
ENDROOT
BRANCH   1   3
ATOM      3  C   UNL     1     -18.661  -4.620   4.150  1.00  0.00     0.027 C 
BRANCH   3   4
ATOM      4  C   UNL     1     -17.384  -5.142   4.824  1.00  0.00     0.004 C 
BRANCH   4   5
ATOM      5  C   UNL     1     -17.329  -4.799   6.321  1.00  0.00     0.000 C 
BRANCH   5   6
ATOM      6  C   UNL     1     -16.018  -4.099   6.719  1.00  0.00     0.000 C 
BRANCH   6   7
ATOM      7  C   UNL     1     -14.837  -4.522   5.820  1.00  0.00     0.000 C 
BRANCH   7   8
ATOM      8  C   UNL     1     -13.459  -4.174   6.409  1.00  0.00     0.006 C 
BRANCH   8   9
ATOM      9  C   UNL     1     -12.577  -5.406   6.632  1.00  0.00     0.053 C 
BRANCH   9  10
ATOM     10  C   UNL     1     -11.789  -5.263   7.897  1.00  0.00     0.041 C 
ATOM     11  O   UNL     1     -12.356  -5.381   9.014  1.00  0.00    -0.550 OA
ATOM     12  O   UNL     1     -10.417  -5.046   7.839  1.00  0.00    -0.550 OA
ENDBRANCH   9  10
ENDBRANCH   8   9
ENDBRANCH   7   8
ENDBRANCH   6   7
ENDBRANCH   5   6
ENDBRANCH   4   5
ENDBRANCH   3   4
ENDBRANCH   1   3
BRANCH   2  13
ATOM     13  C   UNL     1     -17.933  -0.885   3.381  1.00  0.00     0.027 C 
BRANCH  13  14
ATOM     14  C   UNL     1     -19.274  -0.341   3.904  1.00  0.00     0.004 C 
BRANCH  14  15
ATOM     15  C   UNL     1     -19.361   1.197   3.953  1.00  0.00     0.000 C 
BRANCH  15  16
ATOM     16  C   UNL     1     -18.862   1.920   2.687  1.00  0.00     0.000 C 
BRANCH  16  17
ATOM     17  C   UNL     1     -19.565   3.255   2.380  1.00  0.00    -0.000 C 
BRANCH  17  18
ATOM     18  C   UNL     1     -20.077   3.964   3.642  1.00  0.00    -0.000 C 
BRANCH  18  19
ATOM     19  C   UNL     1     -19.794   5.468   3.579  1.00  0.00    -0.003 C 
ATOM     20  C   UNL     1     -20.816   6.185   2.699  1.00  0.00     0.004 C 
ENDBRANCH  18  19
ENDBRANCH  17  18
ENDBRANCH  16  17
ENDBRANCH  15  16
ENDBRANCH  14  15
ENDBRANCH  13  14
ENDBRANCH   2  13
TORSDOF 15
ENDMDL
MODEL 7
REMARK VINA RESULT:    -4.961      5.503      8.059
REMARK INTER + INTRA:         -10.117
REMARK INTER:                  -7.559
REMARK INTRA:                  -2.557
REMARK UNBOUND:                -0.805
REMARK SMILES CCCCCCCCC=CCCCCCCCC(=O)[O-]
REMARK SMILES IDX 10 1 9 2 11 3 12 4 13 5 14 6 15 7 16 8 17 9 18 10 19 11
REMARK SMILES IDX 20 12 8 13 7 14 6 15 5 16 4 17 3 18 2 19 1 20
REMARK H PARENT
REMARK Flexibility Score: inf
ROOT
ATOM      1  C   UNL     1     -14.477  -4.682   6.656  1.00  0.00    -0.031 C 
ATOM      2  C   UNL     1     -13.477  -4.337   7.481  1.00  0.00    -0.031 C 
ENDROOT
BRANCH   1   3
ATOM      3  C   UNL     1     -15.379  -3.650   6.038  1.00  0.00     0.027 C 
BRANCH   3   4
ATOM      4  C   UNL     1     -15.747  -4.026   4.595  1.00  0.00     0.004 C 
BRANCH   4   5
ATOM      5  C   UNL     1     -17.264  -4.184   4.400  1.00  0.00     0.000 C 
BRANCH   5   6
ATOM      6  C   UNL     1     -17.996  -4.528   5.708  1.00  0.00     0.000 C 
BRANCH   6   7
ATOM      7  C   UNL     1     -18.144  -6.052   5.907  1.00  0.00     0.000 C 
BRANCH   7   8
ATOM      8  C   UNL     1     -18.103  -6.487   7.382  1.00  0.00     0.006 C 
BRANCH   8   9
ATOM      9  C   UNL     1     -17.871  -5.316   8.343  1.00  0.00     0.053 C 
BRANCH   9  10
ATOM     10  C   UNL     1     -19.095  -5.066   9.168  1.00  0.00     0.041 C 
ATOM     11  O   UNL     1     -19.907  -4.162   8.840  1.00  0.00    -0.550 OA
ATOM     12  O   UNL     1     -19.362  -5.864  10.273  1.00  0.00    -0.550 OA
ENDBRANCH   9  10
ENDBRANCH   8   9
ENDBRANCH   7   8
ENDBRANCH   6   7
ENDBRANCH   5   6
ENDBRANCH   4   5
ENDBRANCH   3   4
ENDBRANCH   1   3
BRANCH   2  13
ATOM     13  C   UNL     1     -12.587  -5.371   8.117  1.00  0.00     0.027 C 
BRANCH  13  14
ATOM     14  C   UNL     1     -11.094  -5.021   7.995  1.00  0.00     0.004 C 
BRANCH  14  15
ATOM     15  C   UNL     1     -10.813  -3.635   7.380  1.00  0.00     0.000 C 
BRANCH  15  16
ATOM     16  C   UNL     1     -10.185  -3.660   5.973  1.00  0.00     0.000 C 
BRANCH  16  17
ATOM     17  C   UNL     1     -11.075  -3.091   4.853  1.00  0.00    -0.000 C 
BRANCH  17  18
ATOM     18  C   UNL     1     -11.883  -4.174   4.125  1.00  0.00    -0.000 C 
BRANCH  18  19
ATOM     19  C   UNL     1     -11.118  -5.502   4.093  1.00  0.00    -0.003 C 
ATOM     20  C   UNL     1     -11.950  -6.633   4.692  1.00  0.00     0.004 C 
ENDBRANCH  18  19
ENDBRANCH  17  18
ENDBRANCH  16  17
ENDBRANCH  15  16
ENDBRANCH  14  15
ENDBRANCH  13  14
ENDBRANCH   2  13
TORSDOF 15
ENDMDL
MODEL 8
REMARK VINA RESULT:    -4.948      4.050      8.320
REMARK INTER + INTRA:         -10.092
REMARK INTER:                  -7.609
REMARK INTRA:                  -2.483
REMARK UNBOUND:                -0.805
REMARK SMILES CCCCCCCCC=CCCCCCCCC(=O)[O-]
REMARK SMILES IDX 10 1 9 2 11 3 12 4 13 5 14 6 15 7 16 8 17 9 18 10 19 11
REMARK SMILES IDX 20 12 8 13 7 14 6 15 5 16 4 17 3 18 2 19 1 20
REMARK H PARENT
REMARK Flexibility Score: inf
ROOT
ATOM      1  C   UNL     1     -15.456  -4.054   6.041  1.00  0.00    -0.031 C 
ATOM      2  C   UNL     1     -15.141  -2.753   6.138  1.00  0.00    -0.031 C 
ENDROOT
BRANCH   1   3
ATOM      3  C   UNL     1     -16.368  -4.719   7.032  1.00  0.00     0.027 C 
BRANCH   3   4
ATOM      4  C   UNL     1     -17.648  -5.230   6.353  1.00  0.00     0.004 C 
BRANCH   4   5
ATOM      5  C   UNL     1     -17.572  -5.144   4.820  1.00  0.00     0.000 C 
BRANCH   5   6
ATOM      6  C   UNL     1     -18.885  -4.647   4.190  1.00  0.00     0.000 C 
BRANCH   6   7
ATOM      7  C   UNL     1     -19.068  -3.123   4.358  1.00  0.00     0.000 C 
BRANCH   7   8
ATOM      8  C   UNL     1     -18.065  -2.290   3.542  1.00  0.00     0.006 C 
BRANCH   8   9
ATOM      9  C   UNL     1     -17.824  -0.898   4.136  1.00  0.00     0.053 C 
BRANCH   9  10
ATOM     10  C   UNL     1     -19.070  -0.073   4.059  1.00  0.00     0.041 C 
ATOM     11  O   UNL     1     -19.563   0.228   2.941  1.00  0.00    -0.550 OA
ATOM     12  O   UNL     1     -19.713   0.325   5.225  1.00  0.00    -0.550 OA
ENDBRANCH   9  10
ENDBRANCH   8   9
ENDBRANCH   7   8
ENDBRANCH   6   7
ENDBRANCH   5   6
ENDBRANCH   4   5
ENDBRANCH   3   4
ENDBRANCH   1   3
BRANCH   2  13
ATOM     13  C   UNL     1     -14.209  -2.091   5.159  1.00  0.00     0.027 C 
BRANCH  13  14
ATOM     14  C   UNL     1     -13.413  -3.108   4.322  1.00  0.00     0.004 C 
BRANCH  14  15
ATOM     15  C   UNL     1     -11.896  -3.108   4.595  1.00  0.00     0.000 C 
BRANCH  15  16
ATOM     16  C   UNL     1     -11.484  -2.603   5.992  1.00  0.00     0.000 C 
BRANCH  16  17
ATOM     17  C   UNL     1     -11.152  -3.708   7.012  1.00  0.00    -0.000 C 
BRANCH  17  18
ATOM     18  C   UNL     1     -11.066  -5.102   6.373  1.00  0.00    -0.000 C 
BRANCH  18  19
ATOM     19  C   UNL     1     -12.139  -6.034   6.946  1.00  0.00    -0.003 C 
ATOM     20  C   UNL     1     -12.682  -5.502   8.270  1.00  0.00     0.004 C 
ENDBRANCH  18  19
ENDBRANCH  17  18
ENDBRANCH  16  17
ENDBRANCH  15  16
ENDBRANCH  14  15
ENDBRANCH  13  14
ENDBRANCH   2  13
TORSDOF 15
ENDMDL
MODEL 9
REMARK VINA RESULT:    -4.927      2.061      2.929
REMARK INTER + INTRA:         -10.053
REMARK INTER:                  -8.645
REMARK INTRA:                  -1.408
REMARK UNBOUND:                -0.805
REMARK SMILES CCCCCCCCC=CCCCCCCCC(=O)[O-]
REMARK SMILES IDX 10 1 9 2 11 3 12 4 13 5 14 6 15 7 16 8 17 9 18 10 19 11
REMARK SMILES IDX 20 12 8 13 7 14 6 15 5 16 4 17 3 18 2 19 1 20
REMARK H PARENT
REMARK Flexibility Score: inf
ROOT
ATOM      1  C   UNL     1     -15.989  -3.017   1.916  1.00  0.00    -0.031 C 
ATOM      2  C   UNL     1     -16.487  -1.812   1.597  1.00  0.00    -0.031 C 
ENDROOT
BRANCH   1   3
ATOM      3  C   UNL     1     -16.795  -4.022   2.690  1.00  0.00     0.027 C 
BRANCH   3   4
ATOM      4  C   UNL     1     -18.048  -3.377   3.302  1.00  0.00     0.004 C 
BRANCH   4   5
ATOM      5  C   UNL     1     -18.985  -4.412   3.946  1.00  0.00     0.000 C 
BRANCH   5   6
ATOM      6  C   UNL     1     -18.219  -5.542   4.654  1.00  0.00     0.000 C 
BRANCH   6   7
ATOM      7  C   UNL     1     -17.816  -5.158   6.094  1.00  0.00     0.000 C 
BRANCH   7   8
ATOM      8  C   UNL     1     -18.179  -6.226   7.140  1.00  0.00     0.006 C 
BRANCH   8   9
ATOM      9  C   UNL     1     -17.872  -5.785   8.575  1.00  0.00     0.053 C 
BRANCH   9  10
ATOM     10  C   UNL     1     -19.124  -5.350   9.268  1.00  0.00     0.041 C 
ATOM     11  O   UNL     1     -19.582  -6.020  10.230  1.00  0.00    -0.550 OA
ATOM     12  O   UNL     1     -19.761  -4.177   8.881  1.00  0.00    -0.550 OA
ENDBRANCH   9  10
ENDBRANCH   8   9
ENDBRANCH   7   8
ENDBRANCH   6   7
ENDBRANCH   5   6
ENDBRANCH   4   5
ENDBRANCH   3   4
ENDBRANCH   1   3
BRANCH   2  13
ATOM     13  C   UNL     1     -15.672  -0.797   0.841  1.00  0.00     0.027 C 
BRANCH  13  14
ATOM     14  C   UNL     1     -16.441   0.512   0.595  1.00  0.00     0.004 C 
BRANCH  14  15
ATOM     15  C   UNL     1     -16.073   1.657   1.559  1.00  0.00     0.000 C 
BRANCH  15  16
ATOM     16  C   UNL     1     -16.765   1.599   2.935  1.00  0.00     0.000 C 
BRANCH  16  17
ATOM     17  C   UNL     1     -18.043   2.448   3.057  1.00  0.00    -0.000 C 
BRANCH  17  18
ATOM     18  C   UNL     1     -19.316   1.660   2.715  1.00  0.00    -0.000 C 
BRANCH  18  19
ATOM     19  C   UNL     1     -19.198   0.202   3.170  1.00  0.00    -0.003 C 
ATOM     20  C   UNL     1     -19.527   0.059   4.654  1.00  0.00     0.004 C 
ENDBRANCH  18  19
ENDBRANCH  17  18
ENDBRANCH  16  17
ENDBRANCH  15  16
ENDBRANCH  14  15
ENDBRANCH  13  14
ENDBRANCH   2  13
TORSDOF 15
ENDMDL
