MODEL 1
REMARK VINA RESULT:    -5.667      0.000      0.000
REMARK INTER + INTRA:         -13.742
REMARK INTER:                 -10.968
REMARK INTRA:                  -2.774
REMARK UNBOUND:                -2.774
REMARK SMILES CCCCCCCCCCCCCCCCCC(=O)[O-]
REMARK SMILES IDX 10 1 11 2 12 3 13 4 14 5 15 6 16 7 17 8 18 9 19 10 20 11
REMARK SMILES IDX 9 12 8 13 7 14 6 15 5 16 4 17 3 18 2 19 1 20
REMARK H PARENT
REMARK Flexibility Score: inf
ROOT
ATOM      1  C   UNL     1      12.283 -13.832  37.364  1.00  0.00     0.000 C 
ENDROOT
BRANCH   1   2
ATOM      2  C   UNL     1      13.590 -13.652  36.577  1.00  0.00     0.000 C 
BRANCH   2   3
ATOM      3  C   UNL     1      13.356 -13.154  35.142  1.00  0.00     0.000 C 
BRANCH   3   4
ATOM      4  C   UNL     1      14.150 -11.875  34.824  1.00  0.00     0.000 C 
BRANCH   4   5
ATOM      5  C   UNL     1      13.307 -10.601  34.997  1.00  0.00     0.000 C 
BRANCH   5   6
ATOM      6  C   UNL     1      11.798 -10.893  35.070  1.00  0.00     0.000 C 
BRANCH   6   7
ATOM      7  C   UNL     1      11.137 -10.330  36.340  1.00  0.00     0.006 C 
BRANCH   7   8
ATOM      8  C   UNL     1      12.124  -9.653  37.309  1.00  0.00     0.053 C 
BRANCH   8   9
ATOM      9  C   UNL     1      12.119 -10.281  38.671  1.00  0.00     0.041 C 
ATOM     10  O   UNL     1      11.091 -10.871  39.095  1.00  0.00    -0.550 OA
ATOM     11  O   UNL     1      13.240 -10.183  39.486  1.00  0.00    -0.550 OA
ENDBRANCH   8   9
ENDBRANCH   7   8
ENDBRANCH   6   7
ENDBRANCH   5   6
ENDBRANCH   4   5
ENDBRANCH   3   4
ENDBRANCH   2   3
ENDBRANCH   1   2
BRANCH   1  12
ATOM     12  C   UNL     1      11.148 -14.303  36.445  1.00  0.00     0.000 C 
BRANCH  12  13
ATOM     13  C   UNL     1      10.283 -15.366  37.139  1.00  0.00    -0.000 C 
BRANCH  13  14
ATOM     14  C   UNL     1       9.812 -14.929  38.535  1.00  0.00    -0.000 C 
BRANCH  14  15
ATOM     15  C   UNL     1       8.390 -14.341  38.521  1.00  0.00    -0.000 C 
BRANCH  15  16
ATOM     16  C   UNL     1       8.377 -12.804  38.424  1.00  0.00    -0.000 C 
BRANCH  16  17
ATOM     17  C   UNL     1       8.011 -12.243  37.038  1.00  0.00    -0.000 C 
BRANCH  17  18
ATOM     18  C   UNL     1       7.234 -13.248  36.171  1.00  0.00    -0.000 C 
BRANCH  18  19
ATOM     19  C   UNL     1       7.957 -13.573  34.855  1.00  0.00    -0.003 C 
ATOM     20  C   UNL     1       8.430 -12.321  34.118  1.00  0.00     0.004 C 
ENDBRANCH  18  19
ENDBRANCH  17  18
ENDBRANCH  16  17
ENDBRANCH  15  16
ENDBRANCH  14  15
ENDBRANCH  13  14
ENDBRANCH  12  13
ENDBRANCH   1  12
TORSDOF 16
ENDMDL
MODEL 2
REMARK VINA RESULT:    -5.648      2.357      5.649
REMARK INTER + INTRA:         -13.704
REMARK INTER:                 -11.212
REMARK INTRA:                  -2.491
REMARK UNBOUND:                -2.774
REMARK SMILES CCCCCCCCCCCCCCCCCC(=O)[O-]
REMARK SMILES IDX 10 1 11 2 12 3 13 4 14 5 15 6 16 7 17 8 18 9 19 10 20 11
REMARK SMILES IDX 9 12 8 13 7 14 6 15 5 16 4 17 3 18 2 19 1 20
REMARK H PARENT
REMARK Flexibility Score: inf
ROOT
ATOM      1  C   UNL     1      12.264 -14.991  37.269  1.00  0.00     0.000 C 
ENDROOT
BRANCH   1   2
ATOM      2  C   UNL     1      10.773 -14.897  36.916  1.00  0.00     0.000 C 
BRANCH   2   3
ATOM      3  C   UNL     1       9.872 -14.807  38.158  1.00  0.00     0.000 C 
BRANCH   3   4
ATOM      4  C   UNL     1       9.413 -13.368  38.451  1.00  0.00     0.000 C 
BRANCH   4   5
ATOM      5  C   UNL     1       9.456 -12.470  37.203  1.00  0.00     0.000 C 
BRANCH   5   6
ATOM      6  C   UNL     1       8.251 -11.517  37.116  1.00  0.00     0.000 C 
BRANCH   6   7
ATOM      7  C   UNL     1       7.233 -11.930  36.038  1.00  0.00     0.006 C 
BRANCH   7   8
ATOM      8  C   UNL     1       7.587 -13.243  35.316  1.00  0.00     0.053 C 
BRANCH   8   9
ATOM      9  C   UNL     1       8.014 -13.026  33.896  1.00  0.00     0.041 C 
ATOM     10  O   UNL     1       8.795 -12.082  33.605  1.00  0.00    -0.550 OA
ATOM     11  O   UNL     1       7.522 -13.846  32.888  1.00  0.00    -0.550 OA
ENDBRANCH   8   9
ENDBRANCH   7   8
ENDBRANCH   6   7
ENDBRANCH   5   6
ENDBRANCH   4   5
ENDBRANCH   3   4
ENDBRANCH   2   3
ENDBRANCH   1   2
BRANCH   1  12
ATOM     12  C   UNL     1      12.981 -13.665  36.985  1.00  0.00     0.000 C 
BRANCH  12  13
ATOM     13  C   UNL     1      12.722 -13.197  35.544  1.00  0.00    -0.000 C 
BRANCH  13  14
ATOM     14  C   UNL     1      13.842 -12.294  35.003  1.00  0.00    -0.000 C 
BRANCH  14  15
ATOM     15  C   UNL     1      13.325 -10.913  34.561  1.00  0.00    -0.000 C 
BRANCH  15  16
ATOM     16  C   UNL     1      11.864 -10.659  34.976  1.00  0.00    -0.000 C 
BRANCH  16  17
ATOM     17  C   UNL     1      11.681  -9.672  36.142  1.00  0.00    -0.000 C 
BRANCH  17  18
ATOM     18  C   UNL     1      12.737  -9.845  37.246  1.00  0.00    -0.000 C 
BRANCH  18  19
ATOM     19  C   UNL     1      12.137 -10.364  38.561  1.00  0.00    -0.003 C 
ATOM     20  C   UNL     1      13.140 -10.347  39.714  1.00  0.00     0.004 C 
ENDBRANCH  18  19
ENDBRANCH  17  18
ENDBRANCH  16  17
ENDBRANCH  15  16
ENDBRANCH  14  15
ENDBRANCH  13  14
ENDBRANCH  12  13
ENDBRANCH   1  12
TORSDOF 16
ENDMDL
MODEL 3
REMARK VINA RESULT:    -5.622      0.834      1.706
REMARK INTER + INTRA:         -13.655
REMARK INTER:                 -10.885
REMARK INTRA:                  -2.770
REMARK UNBOUND:                -2.774
REMARK SMILES CCCCCCCCCCCCCCCCCC(=O)[O-]
REMARK SMILES IDX 10 1 11 2 12 3 13 4 14 5 15 6 16 7 17 8 18 9 19 10 20 11
REMARK SMILES IDX 9 12 8 13 7 14 6 15 5 16 4 17 3 18 2 19 1 20
REMARK H PARENT
REMARK Flexibility Score: inf
ROOT
ATOM      1  C   UNL     1      10.970 -15.160  36.762  1.00  0.00     0.000 C 
ENDROOT
BRANCH   1   2
ATOM      2  C   UNL     1      11.634 -13.985  37.497  1.00  0.00     0.000 C 
BRANCH   2   3
ATOM      3  C   UNL     1      13.081 -13.741  37.041  1.00  0.00     0.000 C 
BRANCH   3   4
ATOM      4  C   UNL     1      13.175 -13.361  35.553  1.00  0.00     0.000 C 
BRANCH   4   5
ATOM      5  C   UNL     1      12.708 -11.921  35.283  1.00  0.00     0.000 C 
BRANCH   5   6
ATOM      6  C   UNL     1      13.838 -10.890  35.444  1.00  0.00     0.000 C 
BRANCH   6   7
ATOM      7  C   UNL     1      13.709 -10.052  36.729  1.00  0.00     0.006 C 
BRANCH   7   8
ATOM      8  C   UNL     1      12.272  -9.959  37.272  1.00  0.00     0.053 C 
BRANCH   8   9
ATOM      9  C   UNL     1      12.170 -10.364  38.711  1.00  0.00     0.041 C 
ATOM     10  O   UNL     1      11.100 -10.853  39.160  1.00  0.00    -0.550 OA
ATOM     11  O   UNL     1      13.248 -10.170  39.566  1.00  0.00    -0.550 OA
ENDBRANCH   8   9
ENDBRANCH   7   8
ENDBRANCH   6   7
ENDBRANCH   5   6
ENDBRANCH   4   5
ENDBRANCH   3   4
ENDBRANCH   2   3
ENDBRANCH   1   2
BRANCH   1  12
ATOM     12  C   UNL     1       9.940 -15.858  37.660  1.00  0.00     0.000 C 
BRANCH  12  13
ATOM     13  C   UNL     1       9.494 -14.935  38.806  1.00  0.00    -0.000 C 
BRANCH  13  14
ATOM     14  C   UNL     1       8.142 -14.258  38.530  1.00  0.00    -0.000 C 
BRANCH  14  15
ATOM     15  C   UNL     1       8.238 -12.722  38.539  1.00  0.00    -0.000 C 
BRANCH  15  16
ATOM     16  C   UNL     1       7.896 -12.092  37.176  1.00  0.00    -0.000 C 
BRANCH  16  17
ATOM     17  C   UNL     1       9.109 -11.619  36.355  1.00  0.00    -0.000 C 
BRANCH  17  18
ATOM     18  C   UNL     1       9.138 -12.208  34.935  1.00  0.00    -0.000 C 
BRANCH  18  19
ATOM     19  C   UNL     1       8.324 -13.505  34.816  1.00  0.00    -0.003 C 
ATOM     20  C   UNL     1       7.665 -13.663  33.447  1.00  0.00     0.004 C 
ENDBRANCH  18  19
ENDBRANCH  17  18
ENDBRANCH  16  17
ENDBRANCH  15  16
ENDBRANCH  14  15
ENDBRANCH  13  14
ENDBRANCH  12  13
ENDBRANCH   1  12
TORSDOF 16
ENDMDL
MODEL 4
REMARK VINA RESULT:    -5.610      2.381      5.727
REMARK INTER + INTRA:         -13.630
REMARK INTER:                 -11.069
REMARK INTRA:                  -2.561
REMARK UNBOUND:                -2.774
REMARK SMILES CCCCCCCCCCCCCCCCCC(=O)[O-]
REMARK SMILES IDX 10 1 11 2 12 3 13 4 14 5 15 6 16 7 17 8 18 9 19 10 20 11
REMARK SMILES IDX 9 12 8 13 7 14 6 15 5 16 4 17 3 18 2 19 1 20
REMARK H PARENT
REMARK Flexibility Score: inf
ROOT
ATOM      1  C   UNL     1      10.261 -15.970  37.658  1.00  0.00     0.000 C 
ENDROOT
BRANCH   1   2
ATOM      2  C   UNL     1       9.864 -14.960  38.745  1.00  0.00     0.000 C 
BRANCH   2   3
ATOM      3  C   UNL     1       8.341 -14.799  38.879  1.00  0.00     0.000 C 
BRANCH   3   4
ATOM      4  C   UNL     1       7.904 -13.324  38.911  1.00  0.00     0.000 C 
BRANCH   4   5
ATOM      5  C   UNL     1       8.867 -12.409  38.137  1.00  0.00     0.000 C 
BRANCH   5   6
ATOM      6  C   UNL     1       8.158 -11.594  37.041  1.00  0.00     0.000 C 
BRANCH   6   7
ATOM      7  C   UNL     1       7.215 -12.446  36.172  1.00  0.00     0.006 C 
BRANCH   7   8
ATOM      8  C   UNL     1       7.937 -13.516  35.333  1.00  0.00     0.053 C 
BRANCH   8   9
ATOM      9  C   UNL     1       8.108 -13.109  33.901  1.00  0.00     0.041 C 
ATOM     10  O   UNL     1       8.689 -12.030  33.612  1.00  0.00    -0.550 OA
ATOM     11  O   UNL     1       7.596 -13.906  32.885  1.00  0.00    -0.550 OA
ENDBRANCH   8   9
ENDBRANCH   7   8
ENDBRANCH   6   7
ENDBRANCH   5   6
ENDBRANCH   4   5
ENDBRANCH   3   4
ENDBRANCH   2   3
ENDBRANCH   1   2
BRANCH   1  12
ATOM     12  C   UNL     1      11.072 -15.291  36.547  1.00  0.00     0.000 C 
BRANCH  12  13
ATOM     13  C   UNL     1      11.893 -14.118  37.105  1.00  0.00    -0.000 C 
BRANCH  13  14
ATOM     14  C   UNL     1      12.603 -13.314  36.003  1.00  0.00    -0.000 C 
BRANCH  14  15
ATOM     15  C   UNL     1      11.693 -12.244  35.375  1.00  0.00    -0.000 C 
BRANCH  15  16
ATOM     16  C   UNL     1      12.467 -10.996  34.910  1.00  0.00    -0.000 C 
BRANCH  16  17
ATOM     17  C   UNL     1      13.491 -10.451  35.923  1.00  0.00    -0.000 C 
BRANCH  17  18
ATOM     18  C   UNL     1      12.834  -9.717  37.104  1.00  0.00    -0.000 C 
BRANCH  18  19
ATOM     19  C   UNL     1      12.973 -10.486  38.427  1.00  0.00    -0.003 C 
ATOM     20  C   UNL     1      11.710 -10.414  39.284  1.00  0.00     0.004 C 
ENDBRANCH  18  19
ENDBRANCH  17  18
ENDBRANCH  16  17
ENDBRANCH  15  16
ENDBRANCH  14  15
ENDBRANCH  13  14
ENDBRANCH  12  13
ENDBRANCH   1  12
TORSDOF 16
ENDMDL
MODEL 5
REMARK VINA RESULT:    -5.417      2.338      5.500
REMARK INTER + INTRA:         -13.258
REMARK INTER:                 -10.713
REMARK INTRA:                  -2.545
REMARK UNBOUND:                -2.774
REMARK SMILES CCCCCCCCCCCCCCCCCC(=O)[O-]
REMARK SMILES IDX 10 1 11 2 12 3 13 4 14 5 15 6 16 7 17 8 18 9 19 10 20 11
REMARK SMILES IDX 9 12 8 13 7 14 6 15 5 16 4 17 3 18 2 19 1 20
REMARK H PARENT
REMARK Flexibility Score: inf
ROOT
ATOM      1  C   UNL     1      12.531  -9.655  36.765  1.00  0.00     0.000 C 
ENDROOT
BRANCH   1   2
ATOM      2  C   UNL     1      12.328 -10.080  38.227  1.00  0.00     0.000 C 
BRANCH   2   3
ATOM      3  C   UNL     1      11.340 -11.248  38.376  1.00  0.00     0.000 C 
BRANCH   3   4
ATOM      4  C   UNL     1      10.309 -11.298  37.235  1.00  0.00     0.000 C 
BRANCH   4   5
ATOM      5  C   UNL     1       8.977 -11.929  37.673  1.00  0.00     0.000 C 
BRANCH   5   6
ATOM      6  C   UNL     1       7.772 -11.372  36.896  1.00  0.00     0.000 C 
BRANCH   6   7
ATOM      7  C   UNL     1       6.970 -12.463  36.163  1.00  0.00     0.006 C 
BRANCH   7   8
ATOM      8  C   UNL     1       7.846 -13.470  35.397  1.00  0.00     0.053 C 
BRANCH   8   9
ATOM      9  C   UNL     1       8.072 -13.071  33.970  1.00  0.00     0.041 C 
ATOM     10  O   UNL     1       8.738 -12.038  33.696  1.00  0.00    -0.550 OA
ATOM     11  O   UNL     1       7.517 -13.823  32.941  1.00  0.00    -0.550 OA
ENDBRANCH   8   9
ENDBRANCH   7   8
ENDBRANCH   6   7
ENDBRANCH   5   6
ENDBRANCH   4   5
ENDBRANCH   3   4
ENDBRANCH   2   3
ENDBRANCH   1   2
BRANCH   1  12
ATOM     12  C   UNL     1      13.884 -10.146  36.233  1.00  0.00     0.000 C 
BRANCH  12  13
ATOM     13  C   UNL     1      13.736 -10.748  34.827  1.00  0.00    -0.000 C 
BRANCH  13  14
ATOM     14  C   UNL     1      14.052 -12.251  34.789  1.00  0.00    -0.000 C 
BRANCH  14  15
ATOM     15  C   UNL     1      12.962 -13.101  35.467  1.00  0.00    -0.000 C 
BRANCH  15  16
ATOM     16  C   UNL     1      13.430 -13.728  36.793  1.00  0.00    -0.000 C 
BRANCH  16  17
ATOM     17  C   UNL     1      12.434 -14.710  37.435  1.00  0.00    -0.000 C 
BRANCH  17  18
ATOM     18  C   UNL     1      11.166 -14.918  36.589  1.00  0.00    -0.000 C 
BRANCH  18  19
ATOM     19  C   UNL     1      10.095 -15.739  37.322  1.00  0.00    -0.003 C 
ATOM     20  C   UNL     1       9.761 -15.174  38.701  1.00  0.00     0.004 C 
ENDBRANCH  18  19
ENDBRANCH  17  18
ENDBRANCH  16  17
ENDBRANCH  15  16
ENDBRANCH  14  15
ENDBRANCH  13  14
ENDBRANCH  12  13
ENDBRANCH   1  12
TORSDOF 16
ENDMDL
MODEL 6
REMARK VINA RESULT:    -5.248      1.738      5.655
REMARK INTER + INTRA:         -12.930
REMARK INTER:                 -10.693
REMARK INTRA:                  -2.237
REMARK UNBOUND:                -2.774
REMARK SMILES CCCCCCCCCCCCCCCCCC(=O)[O-]
REMARK SMILES IDX 10 1 11 2 12 3 13 4 14 5 15 6 16 7 17 8 18 9 19 10 20 11
REMARK SMILES IDX 9 12 8 13 7 14 6 15 5 16 4 17 3 18 2 19 1 20
REMARK H PARENT
REMARK Flexibility Score: inf
ROOT
ATOM      1  C   UNL     1       8.017 -13.625  35.351  1.00  0.00     0.000 C 
ENDROOT
BRANCH   1   2
ATOM      2  C   UNL     1       7.050 -13.217  36.472  1.00  0.00     0.000 C 
BRANCH   2   3
ATOM      3  C   UNL     1       7.740 -13.100  37.841  1.00  0.00     0.000 C 
BRANCH   3   4
ATOM      4  C   UNL     1       7.575 -14.369  38.695  1.00  0.00     0.000 C 
BRANCH   4   5
ATOM      5  C   UNL     1       8.907 -15.106  38.916  1.00  0.00     0.000 C 
BRANCH   5   6
ATOM      6  C   UNL     1      10.102 -14.379  38.275  1.00  0.00     0.000 C 
BRANCH   6   7
ATOM      7  C   UNL     1      10.873 -15.255  37.272  1.00  0.00     0.006 C 
BRANCH   7   8
ATOM      8  C   UNL     1      11.505 -14.466  36.111  1.00  0.00     0.053 C 
BRANCH   8   9
ATOM      9  C   UNL     1      12.872 -13.949  36.440  1.00  0.00     0.041 C 
ATOM     10  O   UNL     1      13.323 -14.044  37.612  1.00  0.00    -0.550 OA
ATOM     11  O   UNL     1      13.637 -13.331  35.458  1.00  0.00    -0.550 OA
ENDBRANCH   8   9
ENDBRANCH   7   8
ENDBRANCH   6   7
ENDBRANCH   5   6
ENDBRANCH   4   5
ENDBRANCH   3   4
ENDBRANCH   2   3
ENDBRANCH   1   2
BRANCH   1  12
ATOM     12  C   UNL     1       7.948 -12.638  34.179  1.00  0.00     0.000 C 
BRANCH  12  13
ATOM     13  C   UNL     1       9.294 -11.924  33.980  1.00  0.00    -0.000 C 
BRANCH  13  14
ATOM     14  C   UNL     1       9.979 -11.569  35.309  1.00  0.00    -0.000 C 
BRANCH  14  15
ATOM     15  C   UNL     1      11.305 -10.815  35.107  1.00  0.00    -0.000 C 
BRANCH  15  16
ATOM     16  C   UNL     1      11.272  -9.382  35.671  1.00  0.00    -0.000 C 
BRANCH  16  17
ATOM     17  C   UNL     1      12.407  -9.044  36.654  1.00  0.00    -0.000 C 
BRANCH  17  18
ATOM     18  C   UNL     1      13.087 -10.294  37.238  1.00  0.00    -0.000 C 
BRANCH  18  19
ATOM     19  C   UNL     1      12.762 -10.501  38.725  1.00  0.00    -0.003 C 
ATOM     20  C   UNL     1      11.323 -10.960  38.955  1.00  0.00     0.004 C 
ENDBRANCH  18  19
ENDBRANCH  17  18
ENDBRANCH  16  17
ENDBRANCH  15  16
ENDBRANCH  14  15
ENDBRANCH  13  14
ENDBRANCH  12  13
ENDBRANCH   1  12
TORSDOF 16
ENDMDL
MODEL 7
REMARK VINA RESULT:    -5.228      2.120      5.728
REMARK INTER + INTRA:         -12.892
REMARK INTER:                 -10.358
REMARK INTRA:                  -2.533
REMARK UNBOUND:                -2.774
REMARK SMILES CCCCCCCCCCCCCCCCCC(=O)[O-]
REMARK SMILES IDX 10 1 11 2 12 3 13 4 14 5 15 6 16 7 17 8 18 9 19 10 20 11
REMARK SMILES IDX 9 12 8 13 7 14 6 15 5 16 4 17 3 18 2 19 1 20
REMARK H PARENT
REMARK Flexibility Score: inf
ROOT
ATOM      1  C   UNL     1       9.746 -11.076  36.111  1.00  0.00     0.000 C 
ENDROOT
BRANCH   1   2
ATOM      2  C   UNL     1       9.882 -11.805  34.765  1.00  0.00     0.000 C 
BRANCH   2   3
ATOM      3  C   UNL     1       8.562 -12.440  34.298  1.00  0.00     0.000 C 
BRANCH   3   4
ATOM      4  C   UNL     1       8.119 -13.608  35.195  1.00  0.00     0.000 C 
BRANCH   4   5
ATOM      5  C   UNL     1       7.126 -13.170  36.284  1.00  0.00     0.000 C 
BRANCH   5   6
ATOM      6  C   UNL     1       7.314 -13.938  37.604  1.00  0.00     0.000 C 
BRANCH   6   7
ATOM      7  C   UNL     1       8.329 -13.272  38.550  1.00  0.00     0.006 C 
BRANCH   7   8
ATOM      8  C   UNL     1       9.782 -13.728  38.326  1.00  0.00     0.053 C 
BRANCH   8   9
ATOM      9  C   UNL     1       9.925 -15.219  38.317  1.00  0.00     0.041 C 
ATOM     10  O   UNL     1      10.437 -15.803  37.326  1.00  0.00    -0.550 OA
ATOM     11  O   UNL     1       9.462 -15.970  39.391  1.00  0.00    -0.550 OA
ENDBRANCH   8   9
ENDBRANCH   7   8
ENDBRANCH   6   7
ENDBRANCH   5   6
ENDBRANCH   4   5
ENDBRANCH   3   4
ENDBRANCH   2   3
ENDBRANCH   1   2
BRANCH   1  12
ATOM     12  C   UNL     1      10.947 -10.153  36.359  1.00  0.00     0.000 C 
BRANCH  12  13
ATOM     13  C   UNL     1      11.642 -10.501  37.685  1.00  0.00    -0.000 C 
BRANCH  13  14
ATOM     14  C   UNL     1      13.154 -10.225  37.653  1.00  0.00    -0.000 C 
BRANCH  14  15
ATOM     15  C   UNL     1      13.635  -9.737  36.275  1.00  0.00    -0.000 C 
BRANCH  15  16
ATOM     16  C   UNL     1      14.503 -10.776  35.540  1.00  0.00    -0.000 C 
BRANCH  16  17
ATOM     17  C   UNL     1      13.753 -11.636  34.507  1.00  0.00    -0.000 C 
BRANCH  17  18
ATOM     18  C   UNL     1      13.784 -13.137  34.842  1.00  0.00    -0.000 C 
BRANCH  18  19
ATOM     19  C   UNL     1      12.710 -13.536  35.865  1.00  0.00    -0.003 C 
ATOM     20  C   UNL     1      13.300 -13.897  37.227  1.00  0.00     0.004 C 
ENDBRANCH  18  19
ENDBRANCH  17  18
ENDBRANCH  16  17
ENDBRANCH  15  16
ENDBRANCH  14  15
ENDBRANCH  13  14
ENDBRANCH  12  13
ENDBRANCH   1  12
TORSDOF 16
ENDMDL
MODEL 8
REMARK VINA RESULT:    -5.151      1.943      3.475
REMARK INTER + INTRA:         -12.743
REMARK INTER:                 -10.608
REMARK INTRA:                  -2.135
REMARK UNBOUND:                -2.774
REMARK SMILES CCCCCCCCCCCCCCCCCC(=O)[O-]
REMARK SMILES IDX 10 1 11 2 12 3 13 4 14 5 15 6 16 7 17 8 18 9 19 10 20 11
REMARK SMILES IDX 9 12 8 13 7 14 6 15 5 16 4 17 3 18 2 19 1 20
REMARK H PARENT
REMARK Flexibility Score: inf
ROOT
ATOM      1  C   UNL     1      13.244 -10.500  38.263  1.00  0.00     0.000 C 
ENDROOT
BRANCH   1   2
ATOM      2  C   UNL     1      13.820 -10.103  36.895  1.00  0.00     0.000 C 
BRANCH   2   3
ATOM      3  C   UNL     1      12.729  -9.775  35.863  1.00  0.00     0.000 C 
BRANCH   3   4
ATOM      4  C   UNL     1      12.632 -10.833  34.751  1.00  0.00     0.000 C 
BRANCH   4   5
ATOM      5  C   UNL     1      13.900 -11.697  34.648  1.00  0.00     0.000 C 
BRANCH   5   6
ATOM      6  C   UNL     1      13.703 -13.111  35.223  1.00  0.00     0.000 C 
BRANCH   6   7
ATOM      7  C   UNL     1      12.303 -13.328  35.823  1.00  0.00     0.006 C 
BRANCH   7   8
ATOM      8  C   UNL     1      12.285 -14.273  37.038  1.00  0.00     0.053 C 
BRANCH   8   9
ATOM      9  C   UNL     1      10.985 -15.005  37.182  1.00  0.00     0.041 C 
ATOM     10  O   UNL     1      10.311 -15.310  36.163  1.00  0.00    -0.550 OA
ATOM     11  O   UNL     1      10.501 -15.321  38.446  1.00  0.00    -0.550 OA
ENDBRANCH   8   9
ENDBRANCH   7   8
ENDBRANCH   6   7
ENDBRANCH   5   6
ENDBRANCH   4   5
ENDBRANCH   3   4
ENDBRANCH   2   3
ENDBRANCH   1   2
BRANCH   1  12
ATOM     12  C   UNL     1      11.781 -10.056  38.393  1.00  0.00     0.000 C 
BRANCH  12  13
ATOM     13  C   UNL     1      10.887 -11.229  38.825  1.00  0.00    -0.000 C 
BRANCH  13  14
ATOM     14  C   UNL     1       9.840 -11.600  37.762  1.00  0.00    -0.000 C 
BRANCH  14  15
ATOM     15  C   UNL     1       8.447 -11.848  38.367  1.00  0.00    -0.000 C 
BRANCH  15  16
ATOM     16  C   UNL     1       7.961 -13.297  38.180  1.00  0.00    -0.000 C 
BRANCH  16  17
ATOM     17  C   UNL     1       7.231 -13.572  36.853  1.00  0.00    -0.000 C 
BRANCH  17  18
ATOM     18  C   UNL     1       6.884 -12.287  36.082  1.00  0.00    -0.000 C 
BRANCH  18  19
ATOM     19  C   UNL     1       7.703 -12.135  34.791  1.00  0.00    -0.003 C 
ATOM     20  C   UNL     1       7.929 -13.466  34.077  1.00  0.00     0.004 C 
ENDBRANCH  18  19
ENDBRANCH  17  18
ENDBRANCH  16  17
ENDBRANCH  15  16
ENDBRANCH  14  15
ENDBRANCH  13  14
ENDBRANCH  12  13
ENDBRANCH   1  12
TORSDOF 16
ENDMDL
MODEL 9
REMARK VINA RESULT:    -5.133      2.208      5.593
REMARK INTER + INTRA:         -12.707
REMARK INTER:                 -10.407
REMARK INTRA:                  -2.300
REMARK UNBOUND:                -2.774
REMARK SMILES CCCCCCCCCCCCCCCCCC(=O)[O-]
REMARK SMILES IDX 10 1 11 2 12 3 13 4 14 5 15 6 16 7 17 8 18 9 19 10 20 11
REMARK SMILES IDX 9 12 8 13 7 14 6 15 5 16 4 17 3 18 2 19 1 20
REMARK H PARENT
REMARK Flexibility Score: inf
ROOT
ATOM      1  C   UNL     1      11.174 -14.004  36.548  1.00  0.00     0.000 C 
ENDROOT
BRANCH   1   2
ATOM      2  C   UNL     1      10.484 -15.295  37.012  1.00  0.00     0.000 C 
BRANCH   2   3
ATOM      3  C   UNL     1      10.154 -15.286  38.513  1.00  0.00     0.000 C 
BRANCH   3   4
ATOM      4  C   UNL     1       8.642 -15.370  38.786  1.00  0.00     0.000 C 
BRANCH   4   5
ATOM      5  C   UNL     1       7.964 -13.990  38.767  1.00  0.00     0.000 C 
BRANCH   5   6
ATOM      6  C   UNL     1       7.299 -13.674  37.416  1.00  0.00     0.000 C 
BRANCH   6   7
ATOM      7  C   UNL     1       7.770 -12.340  36.810  1.00  0.00     0.006 C 
BRANCH   7   8
ATOM      8  C   UNL     1       7.216 -12.065  35.400  1.00  0.00     0.053 C 
BRANCH   8   9
ATOM      9  C   UNL     1       8.111 -12.583  34.316  1.00  0.00     0.041 C 
ATOM     10  O   UNL     1       7.707 -13.484  33.534  1.00  0.00    -0.550 OA
ATOM     11  O   UNL     1       9.405 -12.093  34.189  1.00  0.00    -0.550 OA
ENDBRANCH   8   9
ENDBRANCH   7   8
ENDBRANCH   6   7
ENDBRANCH   5   6
ENDBRANCH   4   5
ENDBRANCH   3   4
ENDBRANCH   2   3
ENDBRANCH   1   2
BRANCH   1  12
ATOM     12  C   UNL     1      11.729 -13.217  37.742  1.00  0.00     0.000 C 
BRANCH  12  13
ATOM     13  C   UNL     1      10.918 -11.933  37.979  1.00  0.00    -0.000 C 
BRANCH  13  14
ATOM     14  C   UNL     1      11.792 -10.756  38.441  1.00  0.00    -0.000 C 
BRANCH  14  15
ATOM     15  C   UNL     1      13.215 -10.814  37.859  1.00  0.00    -0.000 C 
BRANCH  15  16
ATOM     16  C   UNL     1      13.475  -9.728  36.798  1.00  0.00    -0.000 C 
BRANCH  16  17
ATOM     17  C   UNL     1      12.540  -9.775  35.577  1.00  0.00    -0.000 C 
BRANCH  17  18
ATOM     18  C   UNL     1      12.635 -11.097  34.799  1.00  0.00    -0.000 C 
BRANCH  18  19
ATOM     19  C   UNL     1      14.087 -11.504  34.503  1.00  0.00    -0.003 C 
ATOM     20  C   UNL     1      14.346 -12.988  34.756  1.00  0.00     0.004 C 
ENDBRANCH  18  19
ENDBRANCH  17  18
ENDBRANCH  16  17
ENDBRANCH  15  16
ENDBRANCH  14  15
ENDBRANCH  13  14
ENDBRANCH  12  13
ENDBRANCH   1  12
TORSDOF 16
ENDMDL
