MODEL 1
REMARK VINA RESULT:    -6.565      0.000      0.000
REMARK INTER + INTRA:          -8.215
REMARK INTER:                  -7.908
REMARK INTRA:                  -0.307
REMARK UNBOUND:                -0.307
REMARK SMILES O=c1c(O)c(-c2ccc(O)c(O)c2)oc2cc(O)cc(O)c12
REMARK SMILES IDX 5 1 3 2 2 3 1 4 22 5 20 6 19 7 17 8 16 9 15 10 14 11 6 12
REMARK SMILES IDX 7 13 8 14 9 15 13 16 11 17 10 18 12 20 4 22 21 24 18 26
REMARK H PARENT 10 19 12 21 4 23 21 25 18 27
REMARK Flexibility Score: inf
ROOT
ATOM      1  C   UNL     1      26.657   9.180 -32.681  1.00  0.00     0.180 A 
ATOM      2  C   UNL     1      26.617  10.503 -32.200  1.00  0.00     0.208 A 
ATOM      3  C   UNL     1      27.689  11.362 -32.487  1.00  0.00     0.238 A 
ATOM      4  O   UNL     1      27.669  12.546 -32.052  1.00  0.00    -0.285 OA
ATOM      5  C   UNL     1      28.770  10.893 -33.260  1.00  0.00     0.111 A 
ATOM      6  C   UNL     1      29.888  11.695 -33.597  1.00  0.00     0.134 A 
ATOM      7  C   UNL     1      30.920  11.157 -34.379  1.00  0.00     0.093 A 
ATOM      8  C   UNL     1      30.856   9.835 -34.832  1.00  0.00     0.123 A 
ATOM      9  C   UNL     1      29.756   9.040 -34.503  1.00  0.00     0.094 A 
ATOM     10  C   UNL     1      28.718   9.557 -33.723  1.00  0.00     0.146 A 
ATOM     11  O   UNL     1      27.686   8.776 -33.420  1.00  0.00    -0.452 OA
ENDROOT
BRANCH   1  12
ATOM     12  C   UNL     1      25.573   8.209 -32.405  1.00  0.00     0.025 A 
ATOM     13  C   UNL     1      24.654   7.896 -33.418  1.00  0.00     0.016 A 
ATOM     14  C   UNL     1      23.636   6.966 -33.187  1.00  0.00     0.051 A 
ATOM     15  C   UNL     1      23.532   6.326 -31.945  1.00  0.00     0.157 A 
ATOM     16  C   UNL     1      25.479   7.548 -31.167  1.00  0.00     0.062 A 
ATOM     17  C   UNL     1      24.462   6.616 -30.932  1.00  0.00     0.158 A 
BRANCH  15  18
ATOM     18  O   UNL     1      22.514   5.401 -31.716  1.00  0.00    -0.504 OA
ATOM     19  H   UNL     1      21.543   5.684 -31.662  1.00  0.00     0.293 HD
ENDBRANCH  15  18
BRANCH  17  20
ATOM     20  O   UNL     1      24.394   5.984 -29.691  1.00  0.00    -0.504 OA
ATOM     21  H   UNL     1      24.032   5.045 -29.583  1.00  0.00     0.293 HD
ENDBRANCH  17  20
ENDBRANCH   1  12
BRANCH   2  22
ATOM     22  O   UNL     1      25.510  10.958 -31.477  1.00  0.00    -0.502 OA
ATOM     23  H   UNL     1      24.862  11.639 -31.850  1.00  0.00     0.293 HD
ENDBRANCH   2  22
BRANCH   6  24
ATOM     24  O   UNL     1      29.980  13.017 -33.161  1.00  0.00    -0.507 OA
ATOM     25  H   UNL     1      29.741  13.796 -33.764  1.00  0.00     0.293 HD
ENDBRANCH   6  24
BRANCH   8  26
ATOM     26  O   UNL     1      31.880   9.300 -35.611  1.00  0.00    -0.508 OA
ATOM     27  H   UNL     1      32.069   9.644 -36.544  1.00  0.00     0.293 HD
ENDBRANCH   8  26
TORSDOF 6
ENDMDL
MODEL 2
REMARK VINA RESULT:    -6.354      1.805      7.180
REMARK INTER + INTRA:          -7.961
REMARK INTER:                  -7.639
REMARK INTRA:                  -0.322
REMARK UNBOUND:                -0.307
REMARK SMILES O=c1c(O)c(-c2ccc(O)c(O)c2)oc2cc(O)cc(O)c12
REMARK SMILES IDX 5 1 3 2 2 3 1 4 22 5 20 6 19 7 17 8 16 9 15 10 14 11 6 12
REMARK SMILES IDX 7 13 8 14 9 15 13 16 11 17 10 18 12 20 4 22 21 24 18 26
REMARK H PARENT 10 19 12 21 4 23 21 25 18 27
REMARK Flexibility Score: inf
ROOT
ATOM      1  C   UNL     1      26.229   8.337 -31.548  1.00  0.00     0.180 A 
ATOM      2  C   UNL     1      24.945   8.198 -32.108  1.00  0.00     0.208 A 
ATOM      3  C   UNL     1      24.089   7.207 -31.604  1.00  0.00     0.238 A 
ATOM      4  O   UNL     1      22.940   7.065 -32.105  1.00  0.00    -0.285 OA
ATOM      5  C   UNL     1      24.521   6.387 -30.541  1.00  0.00     0.111 A 
ATOM      6  C   UNL     1      23.719   5.368 -29.973  1.00  0.00     0.134 A 
ATOM      7  C   UNL     1      24.217   4.600 -28.910  1.00  0.00     0.093 A 
ATOM      8  C   UNL     1      25.501   4.833 -28.405  1.00  0.00     0.123 A 
ATOM      9  C   UNL     1      26.296   5.837 -28.962  1.00  0.00     0.094 A 
ATOM     10  C   UNL     1      25.817   6.612 -30.022  1.00  0.00     0.146 A 
ATOM     11  O   UNL     1      26.598   7.556 -30.536  1.00  0.00    -0.452 OA
ENDROOT
BRANCH   1  12
ATOM     12  C   UNL     1      27.196   9.347 -32.037  1.00  0.00     0.025 A 
ATOM     13  C   UNL     1      28.096   9.002 -33.057  1.00  0.00     0.016 A 
ATOM     14  C   UNL     1      29.003   9.944 -33.550  1.00  0.00     0.051 A 
ATOM     15  C   UNL     1      29.012  11.249 -33.040  1.00  0.00     0.157 A 
ATOM     16  C   UNL     1      27.194  10.663 -31.544  1.00  0.00     0.062 A 
ATOM     17  C   UNL     1      28.099  11.611 -32.035  1.00  0.00     0.158 A 
BRANCH  15  18
ATOM     18  O   UNL     1      29.920  12.187 -33.531  1.00  0.00    -0.504 OA
ATOM     19  H   UNL     1      30.705  11.913 -34.109  1.00  0.00     0.293 HD
ENDBRANCH  15  18
BRANCH  17  20
ATOM     20  O   UNL     1      28.074  12.905 -31.518  1.00  0.00    -0.504 OA
ATOM     21  H   UNL     1      27.689  13.114 -30.605  1.00  0.00     0.293 HD
ENDBRANCH  17  20
ENDBRANCH   1  12
BRANCH   2  22
ATOM     22  O   UNL     1      24.523   9.056 -33.128  1.00  0.00    -0.502 OA
ATOM     23  H   UNL     1      25.108   9.796 -33.491  1.00  0.00     0.293 HD
ENDBRANCH   2  22
BRANCH   6  24
ATOM     24  O   UNL     1      22.434   5.113 -30.455  1.00  0.00    -0.507 OA
ATOM     25  H   UNL     1      21.769   5.858 -30.621  1.00  0.00     0.293 HD
ENDBRANCH   6  24
BRANCH   8  26
ATOM     26  O   UNL     1      25.997   4.072 -27.348  1.00  0.00    -0.508 OA
ATOM     27  H   UNL     1      26.983   4.073 -27.113  1.00  0.00     0.293 HD
ENDBRANCH   8  26
TORSDOF 6
ENDMDL
MODEL 3
REMARK VINA RESULT:    -6.242      1.832      6.906
REMARK INTER + INTRA:          -7.826
REMARK INTER:                  -7.934
REMARK INTRA:                   0.108
REMARK UNBOUND:                -0.307
REMARK SMILES O=c1c(O)c(-c2ccc(O)c(O)c2)oc2cc(O)cc(O)c12
REMARK SMILES IDX 5 1 3 2 2 3 1 4 22 5 20 6 19 7 17 8 16 9 15 10 14 11 6 12
REMARK SMILES IDX 7 13 8 14 9 15 13 16 11 17 10 18 12 20 4 22 21 24 18 26
REMARK H PARENT 10 19 12 21 4 23 21 25 18 27
REMARK Flexibility Score: inf
ROOT
ATOM      1  C   UNL     1      27.188   8.322 -32.181  1.00  0.00     0.180 A 
ATOM      2  C   UNL     1      25.860   8.790 -32.130  1.00  0.00     0.208 A 
ATOM      3  C   UNL     1      24.896   8.021 -31.458  1.00  0.00     0.238 A 
ATOM      4  O   UNL     1      23.702   8.424 -31.415  1.00  0.00    -0.285 OA
ATOM      5  C   UNL     1      25.276   6.814 -30.838  1.00  0.00     0.111 A 
ATOM      6  C   UNL     1      24.367   5.983 -30.139  1.00  0.00     0.134 A 
ATOM      7  C   UNL     1      24.825   4.800 -29.539  1.00  0.00     0.093 A 
ATOM      8  C   UNL     1      26.172   4.434 -29.624  1.00  0.00     0.123 A 
ATOM      9  C   UNL     1      27.073   5.250 -30.313  1.00  0.00     0.094 A 
ATOM     10  C   UNL     1      26.635   6.431 -30.918  1.00  0.00     0.146 A 
ATOM     11  O   UNL     1      27.513   7.186 -31.571  1.00  0.00    -0.452 OA
ENDROOT
BRANCH   1  12
ATOM     12  C   UNL     1      28.257   9.067 -32.885  1.00  0.00     0.025 A 
ATOM     13  C   UNL     1      28.380  10.450 -32.687  1.00  0.00     0.016 A 
ATOM     14  C   UNL     1      29.395  11.170 -33.324  1.00  0.00     0.051 A 
ATOM     15  C   UNL     1      30.310  10.513 -34.156  1.00  0.00     0.157 A 
ATOM     16  C   UNL     1      29.191   8.408 -33.704  1.00  0.00     0.062 A 
ATOM     17  C   UNL     1      30.210   9.124 -34.343  1.00  0.00     0.158 A 
BRANCH  15  18
ATOM     18  O   UNL     1      31.320  11.233 -34.792  1.00  0.00    -0.504 OA
ATOM     19  H   UNL     1      31.179  12.189 -35.097  1.00  0.00     0.293 HD
ENDBRANCH  15  18
BRANCH  17  20
ATOM     20  O   UNL     1      31.115   8.440 -35.153  1.00  0.00    -0.504 OA
ATOM     21  H   UNL     1      30.830   7.974 -36.006  1.00  0.00     0.293 HD
ENDBRANCH  17  20
ENDBRANCH   1  12
BRANCH   2  22
ATOM     22  O   UNL     1      25.520  10.014 -32.711  1.00  0.00    -0.502 OA
ATOM     23  H   UNL     1      24.562  10.270 -32.914  1.00  0.00     0.293 HD
ENDBRANCH   2  22
BRANCH   6  24
ATOM     24  O   UNL     1      23.017   6.322 -30.036  1.00  0.00    -0.507 OA
ATOM     25  H   UNL     1      22.718   7.205 -29.640  1.00  0.00     0.293 HD
ENDBRANCH   6  24
BRANCH   8  26
ATOM     26  O   UNL     1      26.629   3.260 -29.028  1.00  0.00    -0.508 OA
ATOM     27  H   UNL     1      27.552   2.892 -29.223  1.00  0.00     0.293 HD
ENDBRANCH   8  26
TORSDOF 6
ENDMDL
MODEL 4
REMARK VINA RESULT:    -6.168     12.711     14.468
REMARK INTER + INTRA:          -7.737
REMARK INTER:                  -7.420
REMARK INTRA:                  -0.317
REMARK UNBOUND:                -0.307
REMARK SMILES O=c1c(O)c(-c2ccc(O)c(O)c2)oc2cc(O)cc(O)c12
REMARK SMILES IDX 5 1 3 2 2 3 1 4 22 5 20 6 19 7 17 8 16 9 15 10 14 11 6 12
REMARK SMILES IDX 7 13 8 14 9 15 13 16 11 17 10 18 12 20 4 22 21 24 18 26
REMARK H PARENT 10 19 12 21 4 23 21 25 18 27
REMARK Flexibility Score: inf
ROOT
ATOM      1  C   UNL     1      34.971   6.066 -22.346  1.00  0.00     0.180 A 
ATOM      2  C   UNL     1      34.633   6.997 -21.345  1.00  0.00     0.208 A 
ATOM      3  C   UNL     1      33.288   7.368 -21.189  1.00  0.00     0.238 A 
ATOM      4  O   UNL     1      32.976   8.209 -20.304  1.00  0.00    -0.285 OA
ATOM      5  C   UNL     1      32.306   6.791 -22.020  1.00  0.00     0.111 A 
ATOM      6  C   UNL     1      30.929   7.108 -21.925  1.00  0.00     0.134 A 
ATOM      7  C   UNL     1      30.011   6.483 -22.782  1.00  0.00     0.093 A 
ATOM      8  C   UNL     1      30.443   5.549 -23.729  1.00  0.00     0.123 A 
ATOM      9  C   UNL     1      31.800   5.234 -23.827  1.00  0.00     0.094 A 
ATOM     10  C   UNL     1      32.730   5.846 -22.983  1.00  0.00     0.146 A 
ATOM     11  O   UNL     1      34.015   5.531 -23.101  1.00  0.00    -0.452 OA
ENDROOT
BRANCH   1  12
ATOM     12  C   UNL     1      36.369   5.639 -22.584  1.00  0.00     0.025 A 
ATOM     13  C   UNL     1      36.805   4.399 -22.091  1.00  0.00     0.016 A 
ATOM     14  C   UNL     1      38.113   3.966 -22.322  1.00  0.00     0.051 A 
ATOM     15  C   UNL     1      38.999   4.759 -23.063  1.00  0.00     0.157 A 
ATOM     16  C   UNL     1      37.255   6.422 -23.346  1.00  0.00     0.062 A 
ATOM     17  C   UNL     1      38.565   5.991 -23.581  1.00  0.00     0.158 A 
BRANCH  15  18
ATOM     18  O   UNL     1      40.305   4.326 -23.290  1.00  0.00    -0.504 OA
ATOM     19  H   UNL     1      40.691   3.526 -22.802  1.00  0.00     0.293 HD
ENDBRANCH  15  18
BRANCH  17  20
ATOM     20  O   UNL     1      39.419   6.796 -24.334  1.00  0.00    -0.504 OA
ATOM     21  H   UNL     1      39.490   6.712 -25.341  1.00  0.00     0.293 HD
ENDBRANCH  17  20
ENDBRANCH   1  12
BRANCH   2  22
ATOM     22  O   UNL     1      35.620   7.517 -20.503  1.00  0.00    -0.502 OA
ATOM     23  H   UNL     1      36.248   6.926 -19.974  1.00  0.00     0.293 HD
ENDBRANCH   2  22
BRANCH   6  24
ATOM     24  O   UNL     1      30.468   8.035 -20.990  1.00  0.00    -0.507 OA
ATOM     25  H   UNL     1      29.526   7.995 -20.617  1.00  0.00     0.293 HD
ENDBRANCH   6  24
BRANCH   8  26
ATOM     26  O   UNL     1      29.531   4.927 -24.581  1.00  0.00    -0.508 OA
ATOM     27  H   UNL     1      29.350   3.932 -24.525  1.00  0.00     0.293 HD
ENDBRANCH   8  26
TORSDOF 6
ENDMDL
MODEL 5
REMARK VINA RESULT:    -6.079     10.271     11.312
REMARK INTER + INTRA:          -7.629
REMARK INTER:                  -7.338
REMARK INTRA:                  -0.291
REMARK UNBOUND:                -0.307
REMARK SMILES O=c1c(O)c(-c2ccc(O)c(O)c2)oc2cc(O)cc(O)c12
REMARK SMILES IDX 5 1 3 2 2 3 1 4 22 5 20 6 19 7 17 8 16 9 15 10 14 11 6 12
REMARK SMILES IDX 7 13 8 14 9 15 13 16 11 17 10 18 12 20 4 22 21 24 18 26
REMARK H PARENT 10 19 12 21 4 23 21 25 18 27
REMARK Flexibility Score: inf
ROOT
ATOM      1  C   UNL     1      31.122   5.478 -23.924  1.00  0.00     0.180 A 
ATOM      2  C   UNL     1      30.337   6.192 -22.999  1.00  0.00     0.208 A 
ATOM      3  C   UNL     1      30.978   6.901 -21.970  1.00  0.00     0.238 A 
ATOM      4  O   UNL     1      30.285   7.536 -21.129  1.00  0.00    -0.285 OA
ATOM      5  C   UNL     1      32.386   6.898 -21.894  1.00  0.00     0.111 A 
ATOM      6  C   UNL     1      33.109   7.589 -20.891  1.00  0.00     0.134 A 
ATOM      7  C   UNL     1      34.511   7.546 -20.889  1.00  0.00     0.093 A 
ATOM      8  C   UNL     1      35.202   6.826 -21.870  1.00  0.00     0.123 A 
ATOM      9  C   UNL     1      34.494   6.143 -22.861  1.00  0.00     0.094 A 
ATOM     10  C   UNL     1      33.097   6.174 -22.879  1.00  0.00     0.146 A 
ATOM     11  O   UNL     1      32.449   5.510 -23.830  1.00  0.00    -0.452 OA
ENDROOT
BRANCH   1  12
ATOM     12  C   UNL     1      30.520   4.692 -25.025  1.00  0.00     0.025 A 
ATOM     13  C   UNL     1      29.972   3.429 -24.752  1.00  0.00     0.016 A 
ATOM     14  C   UNL     1      29.379   2.679 -25.772  1.00  0.00     0.051 A 
ATOM     15  C   UNL     1      29.312   3.187 -27.075  1.00  0.00     0.157 A 
ATOM     16  C   UNL     1      30.431   5.208 -26.330  1.00  0.00     0.062 A 
ATOM     17  C   UNL     1      29.837   4.461 -27.354  1.00  0.00     0.158 A 
BRANCH  15  18
ATOM     18  O   UNL     1      28.723   2.436 -28.091  1.00  0.00    -0.504 OA
ATOM     19  H   UNL     1      29.159   2.338 -29.000  1.00  0.00     0.293 HD
ENDBRANCH  15  18
BRANCH  17  20
ATOM     20  O   UNL     1      29.772   5.001 -28.638  1.00  0.00    -0.504 OA
ATOM     21  H   UNL     1      30.588   5.076 -29.233  1.00  0.00     0.293 HD
ENDBRANCH  17  20
ENDBRANCH   1  12
BRANCH   2  22
ATOM     22  O   UNL     1      28.946   6.219 -23.125  1.00  0.00    -0.502 OA
ATOM     23  H   UNL     1      28.439   7.061 -23.368  1.00  0.00     0.293 HD
ENDBRANCH   2  22
BRANCH   6  24
ATOM     24  O   UNL     1      32.447   8.315 -19.901  1.00  0.00    -0.507 OA
ATOM     25  H   UNL     1      32.837   8.430 -18.973  1.00  0.00     0.293 HD
ENDBRANCH   6  24
BRANCH   8  26
ATOM     26  O   UNL     1      36.596   6.784 -21.870  1.00  0.00    -0.508 OA
ATOM     27  H   UNL     1      37.109   6.290 -21.150  1.00  0.00     0.293 HD
ENDBRANCH   8  26
TORSDOF 6
ENDMDL
MODEL 6
REMARK VINA RESULT:    -5.848     12.895     14.515
REMARK INTER + INTRA:          -7.351
REMARK INTER:                  -7.081
REMARK INTRA:                  -0.270
REMARK UNBOUND:                -0.307
REMARK SMILES O=c1c(O)c(-c2ccc(O)c(O)c2)oc2cc(O)cc(O)c12
REMARK SMILES IDX 5 1 3 2 2 3 1 4 22 5 20 6 19 7 17 8 16 9 15 10 14 11 6 12
REMARK SMILES IDX 7 13 8 14 9 15 13 16 11 17 10 18 12 20 4 22 21 24 18 26
REMARK H PARENT 10 19 12 21 4 23 21 25 18 27
REMARK Flexibility Score: inf
ROOT
ATOM      1  C   UNL     1      34.832   5.980 -22.239  1.00  0.00     0.180 A 
ATOM      2  C   UNL     1      34.584   6.983 -21.283  1.00  0.00     0.208 A 
ATOM      3  C   UNL     1      33.265   7.427 -21.092  1.00  0.00     0.238 A 
ATOM      4  O   UNL     1      33.032   8.333 -20.246  1.00  0.00    -0.285 OA
ATOM      5  C   UNL     1      32.221   6.851 -21.843  1.00  0.00     0.111 A 
ATOM      6  C   UNL     1      30.865   7.239 -21.709  1.00  0.00     0.134 A 
ATOM      7  C   UNL     1      29.881   6.611 -22.487  1.00  0.00     0.093 A 
ATOM      8  C   UNL     1      30.227   5.603 -23.394  1.00  0.00     0.123 A 
ATOM      9  C   UNL     1      31.562   5.218 -23.530  1.00  0.00     0.094 A 
ATOM     10  C   UNL     1      32.557   5.833 -22.765  1.00  0.00     0.146 A 
ATOM     11  O   UNL     1      33.820   5.449 -22.919  1.00  0.00    -0.452 OA
ENDROOT
BRANCH   1  12
ATOM     12  C   UNL     1      36.197   5.473 -22.511  1.00  0.00     0.025 A 
ATOM     13  C   UNL     1      37.089   6.259 -23.255  1.00  0.00     0.016 A 
ATOM     14  C   UNL     1      38.389   5.810 -23.506  1.00  0.00     0.051 A 
ATOM     15  C   UNL     1      38.819   4.576 -23.003  1.00  0.00     0.157 A 
ATOM     16  C   UNL     1      36.639   4.245 -21.989  1.00  0.00     0.062 A 
ATOM     17  C   UNL     1      37.940   3.792 -22.236  1.00  0.00     0.158 A 
BRANCH  15  18
ATOM     18  O   UNL     1      40.115   4.129 -23.256  1.00  0.00    -0.504 OA
ATOM     19  H   UNL     1      40.451   3.243 -22.897  1.00  0.00     0.293 HD
ENDBRANCH  15  18
BRANCH  17  20
ATOM     20  O   UNL     1      38.343   2.566 -21.709  1.00  0.00    -0.504 OA
ATOM     21  H   UNL     1      39.280   2.412 -21.357  1.00  0.00     0.293 HD
ENDBRANCH  17  20
ENDBRANCH   1  12
BRANCH   2  22
ATOM     22  O   UNL     1      35.630   7.503 -20.516  1.00  0.00    -0.502 OA
ATOM     23  H   UNL     1      36.329   6.914 -20.082  1.00  0.00     0.293 HD
ENDBRANCH   2  22
BRANCH   6  24
ATOM     24  O   UNL     1      30.490   8.240 -20.812  1.00  0.00    -0.507 OA
ATOM     25  H   UNL     1      29.520   8.497 -20.674  1.00  0.00     0.293 HD
ENDBRANCH   6  24
BRANCH   8  26
ATOM     26  O   UNL     1      29.250   4.977 -24.166  1.00  0.00    -0.508 OA
ATOM     27  H   UNL     1      28.912   4.050 -23.941  1.00  0.00     0.293 HD
ENDBRANCH   8  26
TORSDOF 6
ENDMDL
MODEL 7
REMARK VINA RESULT:    -5.825     12.746     13.764
REMARK INTER + INTRA:          -7.324
REMARK INTER:                  -7.034
REMARK INTRA:                  -0.291
REMARK UNBOUND:                -0.307
REMARK SMILES O=c1c(O)c(-c2ccc(O)c(O)c2)oc2cc(O)cc(O)c12
REMARK SMILES IDX 5 1 3 2 2 3 1 4 22 5 20 6 19 7 17 8 16 9 15 10 14 11 6 12
REMARK SMILES IDX 7 13 8 14 9 15 13 16 11 17 10 18 12 20 4 22 21 24 18 26
REMARK H PARENT 10 19 12 21 4 23 21 25 18 27
REMARK Flexibility Score: inf
ROOT
ATOM      1  C   UNL     1      31.854   4.334 -21.157  1.00  0.00     0.180 A 
ATOM      2  C   UNL     1      31.432   4.819 -22.410  1.00  0.00     0.208 A 
ATOM      3  C   UNL     1      32.333   5.566 -23.187  1.00  0.00     0.238 A 
ATOM      4  O   UNL     1      31.963   6.014 -24.306  1.00  0.00    -0.285 OA
ATOM      5  C   UNL     1      33.638   5.799 -22.709  1.00  0.00     0.111 A 
ATOM      6  C   UNL     1      34.607   6.538 -23.430  1.00  0.00     0.134 A 
ATOM      7  C   UNL     1      35.889   6.718 -22.891  1.00  0.00     0.093 A 
ATOM      8  C   UNL     1      36.220   6.173 -21.645  1.00  0.00     0.123 A 
ATOM      9  C   UNL     1      35.269   5.444 -20.930  1.00  0.00     0.094 A 
ATOM     10  C   UNL     1      33.985   5.254 -21.450  1.00  0.00     0.146 A 
ATOM     11  O   UNL     1      33.098   4.561 -20.745  1.00  0.00    -0.452 OA
ENDROOT
BRANCH   1  12
ATOM     12  C   UNL     1      30.957   3.555 -20.273  1.00  0.00     0.025 A 
ATOM     13  C   UNL     1      30.764   2.187 -20.520  1.00  0.00     0.016 A 
ATOM     14  C   UNL     1      29.939   1.426 -19.686  1.00  0.00     0.051 A 
ATOM     15  C   UNL     1      29.309   2.020 -18.585  1.00  0.00     0.157 A 
ATOM     16  C   UNL     1      30.340   4.141 -19.155  1.00  0.00     0.062 A 
ATOM     17  C   UNL     1      29.515   3.384 -18.316  1.00  0.00     0.158 A 
BRANCH  15  18
ATOM     18  O   UNL     1      28.485   1.260 -17.755  1.00  0.00    -0.504 OA
ATOM     19  H   UNL     1      28.097   1.640 -16.900  1.00  0.00     0.293 HD
ENDBRANCH  15  18
BRANCH  17  20
ATOM     20  O   UNL     1      28.913   4.000 -17.219  1.00  0.00    -0.504 OA
ATOM     21  H   UNL     1      27.907   4.035 -17.105  1.00  0.00     0.293 HD
ENDBRANCH  17  20
ENDBRANCH   1  12
BRANCH   2  22
ATOM     22  O   UNL     1      30.149   4.532 -22.883  1.00  0.00    -0.502 OA
ATOM     23  H   UNL     1      29.883   3.611 -23.205  1.00  0.00     0.293 HD
ENDBRANCH   2  22
BRANCH   6  24
ATOM     24  O   UNL     1      34.306   7.093 -24.675  1.00  0.00    -0.507 OA
ATOM     25  H   UNL     1      33.392   6.987 -25.099  1.00  0.00     0.293 HD
ENDBRANCH   6  24
BRANCH   8  26
ATOM     26  O   UNL     1      37.495   6.350 -21.109  1.00  0.00    -0.508 OA
ATOM     27  H   UNL     1      37.879   7.275 -20.956  1.00  0.00     0.293 HD
ENDBRANCH   8  26
TORSDOF 6
ENDMDL
MODEL 8
REMARK VINA RESULT:    -5.677     14.886     15.550
REMARK INTER + INTRA:          -7.146
REMARK INTER:                  -6.824
REMARK INTRA:                  -0.321
REMARK UNBOUND:                -0.307
REMARK SMILES O=c1c(O)c(-c2ccc(O)c(O)c2)oc2cc(O)cc(O)c12
REMARK SMILES IDX 5 1 3 2 2 3 1 4 22 5 20 6 19 7 17 8 16 9 15 10 14 11 6 12
REMARK SMILES IDX 7 13 8 14 9 15 13 16 11 17 10 18 12 20 4 22 21 24 18 26
REMARK H PARENT 10 19 12 21 4 23 21 25 18 27
REMARK Flexibility Score: inf
ROOT
ATOM      1  C   UNL     1      36.091   6.613 -20.794  1.00  0.00     0.180 A 
ATOM      2  C   UNL     1      36.777   6.294 -19.607  1.00  0.00     0.208 A 
ATOM      3  C   UNL     1      38.141   5.970 -19.678  1.00  0.00     0.238 A 
ATOM      4  O   UNL     1      38.764   5.673 -18.622  1.00  0.00    -0.285 OA
ATOM      5  C   UNL     1      38.797   5.986 -20.925  1.00  0.00     0.111 A 
ATOM      6  C   UNL     1      40.170   5.674 -21.083  1.00  0.00     0.134 A 
ATOM      7  C   UNL     1      40.752   5.722 -22.358  1.00  0.00     0.093 A 
ATOM      8  C   UNL     1      39.990   6.076 -23.476  1.00  0.00     0.123 A 
ATOM      9  C   UNL     1      38.636   6.383 -23.326  1.00  0.00     0.094 A 
ATOM     10  C   UNL     1      38.037   6.340 -22.064  1.00  0.00     0.146 A 
ATOM     11  O   UNL     1      36.746   6.632 -21.952  1.00  0.00    -0.452 OA
ENDROOT
BRANCH   1  12
ATOM     12  C   UNL     1      34.648   6.948 -20.804  1.00  0.00     0.025 A 
ATOM     13  C   UNL     1      34.247   8.276 -20.591  1.00  0.00     0.016 A 
ATOM     14  C   UNL     1      32.893   8.619 -20.617  1.00  0.00     0.051 A 
ATOM     15  C   UNL     1      31.921   7.642 -20.871  1.00  0.00     0.157 A 
ATOM     16  C   UNL     1      33.672   5.975 -21.079  1.00  0.00     0.062 A 
ATOM     17  C   UNL     1      32.314   6.314 -21.108  1.00  0.00     0.158 A 
BRANCH  15  18
ATOM     18  O   UNL     1      30.570   7.987 -20.893  1.00  0.00    -0.504 OA
ATOM     19  H   UNL     1      29.982   7.883 -20.075  1.00  0.00     0.293 HD
ENDBRANCH  15  18
BRANCH  17  20
ATOM     20  O   UNL     1      31.372   5.323 -21.377  1.00  0.00    -0.504 OA
ATOM     21  H   UNL     1      30.549   5.500 -21.941  1.00  0.00     0.293 HD
ENDBRANCH  17  20
ENDBRANCH   1  12
BRANCH   2  22
ATOM     22  O   UNL     1      36.115   6.334 -18.376  1.00  0.00    -0.502 OA
ATOM     23  H   UNL     1      36.594   6.178 -17.498  1.00  0.00     0.293 HD
ENDBRANCH   2  22
BRANCH   6  24
ATOM     24  O   UNL     1      40.956   5.319 -19.986  1.00  0.00    -0.507 OA
ATOM     25  H   UNL     1      41.254   6.002 -19.299  1.00  0.00     0.293 HD
ENDBRANCH   6  24
BRANCH   8  26
ATOM     26  O   UNL     1      40.568   6.125 -24.744  1.00  0.00    -0.508 OA
ATOM     27  H   UNL     1      40.171   6.690 -25.484  1.00  0.00     0.293 HD
ENDBRANCH   8  26
TORSDOF 6
ENDMDL
MODEL 9
REMARK VINA RESULT:    -5.634     12.954     14.158
REMARK INTER + INTRA:          -7.094
REMARK INTER:                  -6.930
REMARK INTRA:                  -0.163
REMARK UNBOUND:                -0.307
REMARK SMILES O=c1c(O)c(-c2ccc(O)c(O)c2)oc2cc(O)cc(O)c12
REMARK SMILES IDX 5 1 3 2 2 3 1 4 22 5 20 6 19 7 17 8 16 9 15 10 14 11 6 12
REMARK SMILES IDX 7 13 8 14 9 15 13 16 11 17 10 18 12 20 4 22 21 24 18 26
REMARK H PARENT 10 19 12 21 4 23 21 25 18 27
REMARK Flexibility Score: inf
ROOT
ATOM      1  C   UNL     1      31.222   4.145 -20.190  1.00  0.00     0.180 A 
ATOM      2  C   UNL     1      30.685   5.379 -20.603  1.00  0.00     0.208 A 
ATOM      3  C   UNL     1      31.470   6.228 -21.399  1.00  0.00     0.238 A 
ATOM      4  O   UNL     1      31.004   7.341 -21.765  1.00  0.00    -0.285 OA
ATOM      5  C   UNL     1      32.766   5.824 -21.781  1.00  0.00     0.111 A 
ATOM      6  C   UNL     1      33.620   6.619 -22.584  1.00  0.00     0.134 A 
ATOM      7  C   UNL     1      34.892   6.142 -22.930  1.00  0.00     0.093 A 
ATOM      8  C   UNL     1      35.326   4.886 -22.490  1.00  0.00     0.123 A 
ATOM      9  C   UNL     1      34.488   4.099 -21.699  1.00  0.00     0.094 A 
ATOM     10  C   UNL     1      33.216   4.558 -21.342  1.00  0.00     0.146 A 
ATOM     11  O   UNL     1      32.442   3.790 -20.583  1.00  0.00    -0.452 OA
ENDROOT
BRANCH   1  12
ATOM     12  C   UNL     1      30.462   3.203 -19.336  1.00  0.00     0.025 A 
ATOM     13  C   UNL     1      30.111   3.585 -18.032  1.00  0.00     0.016 A 
ATOM     14  C   UNL     1      29.376   2.721 -17.215  1.00  0.00     0.051 A 
ATOM     15  C   UNL     1      28.970   1.469 -17.696  1.00  0.00     0.157 A 
ATOM     16  C   UNL     1      30.034   1.955 -19.822  1.00  0.00     0.062 A 
ATOM     17  C   UNL     1      29.297   1.087 -19.008  1.00  0.00     0.158 A 
BRANCH  15  18
ATOM     18  O   UNL     1      28.239   0.608 -16.878  1.00  0.00    -0.504 OA
ATOM     19  H   UNL     1      28.569  -0.324 -16.661  1.00  0.00     0.293 HD
ENDBRANCH  15  18
BRANCH  17  20
ATOM     20  O   UNL     1      28.894  -0.145 -19.520  1.00  0.00    -0.504 OA
ATOM     21  H   UNL     1      28.774  -0.960 -18.931  1.00  0.00     0.293 HD
ENDBRANCH  17  20
ENDBRANCH   1  12
BRANCH   2  22
ATOM     22  O   UNL     1      29.380   5.735 -20.252  1.00  0.00    -0.502 OA
ATOM     23  H   UNL     1      28.793   5.144 -19.677  1.00  0.00     0.293 HD
ENDBRANCH   2  22
BRANCH   6  24
ATOM     24  O   UNL     1      33.215   7.875 -23.038  1.00  0.00    -0.507 OA
ATOM     25  H   UNL     1      32.476   7.982 -23.723  1.00  0.00     0.293 HD
ENDBRANCH   6  24
BRANCH   8  26
ATOM     26  O   UNL     1      36.590   4.411 -22.835  1.00  0.00    -0.508 OA
ATOM     27  H   UNL     1      37.009   4.624 -23.732  1.00  0.00     0.293 HD
ENDBRANCH   8  26
TORSDOF 6
ENDMDL
