MODEL 1
REMARK VINA RESULT:     6.584      0.000      0.000
REMARK INTER + INTRA:           7.815
REMARK INTER:                   7.931
REMARK INTRA:                  -0.116
REMARK UNBOUND:                -0.116
REMARK SMILES O=c1c(O)c(-c2ccc(O)c(O)c2)oc2cc(O)cc(O)c12
REMARK SMILES IDX 5 1 3 2 2 3 1 4 22 5 20 6 19 7 17 8 16 9 15 10 14 11 6 12
REMARK SMILES IDX 7 13 8 14 9 15 13 16 11 17 10 18 12 20 4 22 21 24 18 26
REMARK H PARENT 10 19 12 21 4 23 21 25 18 27
REMARK Flexibility Score: inf
ROOT
ATOM      1  C   UNL     1      -0.025  60.479  -3.256  1.00  0.00     0.180 A 
ATOM      2  C   UNL     1       0.895  60.351  -4.311  1.00  0.00     0.208 A 
ATOM      3  C   UNL     1       0.430  59.959  -5.577  1.00  0.00     0.238 A 
ATOM      4  O   UNL     1       1.250  59.899  -6.530  1.00  0.00    -0.285 OA
ATOM      5  C   UNL     1      -0.946  59.683  -5.768  1.00  0.00     0.111 A 
ATOM      6  C   UNL     1      -1.520  59.238  -6.997  1.00  0.00     0.134 A 
ATOM      7  C   UNL     1      -2.911  59.122  -7.107  1.00  0.00     0.093 A 
ATOM      8  C   UNL     1      -3.743  59.372  -6.012  1.00  0.00     0.123 A 
ATOM      9  C   UNL     1      -3.188  59.748  -4.792  1.00  0.00     0.094 A 
ATOM     10  C   UNL     1      -1.805  59.907  -4.662  1.00  0.00     0.146 A 
ATOM     11  O   UNL     1      -1.318  60.277  -3.484  1.00  0.00    -0.452 OA
ENDROOT
BRANCH   1  12
ATOM     12  C   UNL     1       0.392  60.865  -1.889  1.00  0.00     0.025 A 
ATOM     13  C   UNL     1       0.222  59.957  -0.832  1.00  0.00     0.016 A 
ATOM     14  C   UNL     1       0.628  60.292   0.462  1.00  0.00     0.051 A 
ATOM     15  C   UNL     1       1.225  61.534   0.714  1.00  0.00     0.157 A 
ATOM     16  C   UNL     1       1.011  62.102  -1.635  1.00  0.00     0.062 A 
ATOM     17  C   UNL     1       1.420  62.440  -0.336  1.00  0.00     0.158 A 
BRANCH  15  18
ATOM     18  O   UNL     1       1.630  61.874   2.004  1.00  0.00    -0.504 OA
ATOM     19  H   UNL     1       0.962  62.157   2.712  1.00  0.00     0.293 HD
ENDBRANCH  15  18
BRANCH  17  20
ATOM     20  O   UNL     1       2.027  63.669  -0.085  1.00  0.00    -0.504 OA
ATOM     21  H   UNL     1       1.481  64.499   0.117  1.00  0.00     0.293 HD
ENDBRANCH  17  20
ENDBRANCH   1  12
BRANCH   2  22
ATOM     22  O   UNL     1       2.245  60.650  -4.107  1.00  0.00    -0.502 OA
ATOM     23  H   UNL     1       2.633  61.569  -4.286  1.00  0.00     0.293 HD
ENDBRANCH   2  22
BRANCH   6  24
ATOM     24  O   UNL     1      -0.772  58.876  -8.122  1.00  0.00    -0.507 OA
ATOM     25  H   UNL     1      -0.720  59.412  -8.974  1.00  0.00     0.293 HD
ENDBRANCH   6  24
BRANCH   8  26
ATOM     26  O   UNL     1      -5.125  59.238  -6.126  1.00  0.00    -0.508 OA
ATOM     27  H   UNL     1      -5.551  58.368  -6.422  1.00  0.00     0.293 HD
ENDBRANCH   8  26
TORSDOF 6
ENDMDL
MODEL 2
REMARK VINA RESULT:     7.994      0.560      1.418
REMARK INTER + INTRA:           9.513
REMARK INTER:                   9.572
REMARK INTRA:                  -0.059
REMARK UNBOUND:                -0.116
REMARK SMILES O=c1c(O)c(-c2ccc(O)c(O)c2)oc2cc(O)cc(O)c12
REMARK SMILES IDX 5 1 3 2 2 3 1 4 22 5 20 6 19 7 17 8 16 9 15 10 14 11 6 12
REMARK SMILES IDX 7 13 8 14 9 15 13 16 11 17 10 18 12 20 4 22 21 24 18 26
REMARK H PARENT 10 19 12 21 4 23 21 25 18 27
REMARK Flexibility Score: inf
ROOT
ATOM      1  C   UNL     1       0.081  60.573  -3.321  1.00  0.00     0.180 A 
ATOM      2  C   UNL     1       0.972  60.381  -4.390  1.00  0.00     0.208 A 
ATOM      3  C   UNL     1       0.465  59.975  -5.635  1.00  0.00     0.238 A 
ATOM      4  O   UNL     1       1.261  59.857  -6.603  1.00  0.00    -0.285 OA
ATOM      5  C   UNL     1      -0.925  59.750  -5.791  1.00  0.00     0.111 A 
ATOM      6  C   UNL     1      -1.543  59.296  -6.995  1.00  0.00     0.134 A 
ATOM      7  C   UNL     1      -2.939  59.233  -7.073  1.00  0.00     0.093 A 
ATOM      8  C   UNL     1      -3.737  59.543  -5.968  1.00  0.00     0.123 A 
ATOM      9  C   UNL     1      -3.140  59.928  -4.770  1.00  0.00     0.094 A 
ATOM     10  C   UNL     1      -1.751  60.036  -4.673  1.00  0.00     0.146 A 
ATOM     11  O   UNL     1      -1.223  60.417  -3.516  1.00  0.00    -0.452 OA
ENDROOT
BRANCH   1  12
ATOM     12  C   UNL     1       0.543  60.977  -1.973  1.00  0.00     0.025 A 
ATOM     13  C   UNL     1       1.260  62.173  -1.818  1.00  0.00     0.016 A 
ATOM     14  C   UNL     1       1.687  62.585  -0.553  1.00  0.00     0.051 A 
ATOM     15  C   UNL     1       1.388  61.813   0.577  1.00  0.00     0.157 A 
ATOM     16  C   UNL     1       0.227  60.216  -0.833  1.00  0.00     0.062 A 
ATOM     17  C   UNL     1       0.654  60.629   0.438  1.00  0.00     0.158 A 
BRANCH  15  18
ATOM     18  O   UNL     1       1.814  62.218   1.842  1.00  0.00    -0.504 OA
ATOM     19  H   UNL     1       2.790  62.173   2.111  1.00  0.00     0.293 HD
ENDBRANCH  15  18
BRANCH  17  20
ATOM     20  O   UNL     1       0.346  59.870   1.567  1.00  0.00    -0.504 OA
ATOM     21  H   UNL     1       0.488  60.230   2.503  1.00  0.00     0.293 HD
ENDBRANCH  17  20
ENDBRANCH   1  12
BRANCH   2  22
ATOM     22  O   UNL     1       2.337  60.631  -4.222  1.00  0.00    -0.502 OA
ATOM     23  H   UNL     1       2.907  60.119  -3.560  1.00  0.00     0.293 HD
ENDBRANCH   2  22
BRANCH   6  24
ATOM     24  O   UNL     1      -0.834  58.875  -8.125  1.00  0.00    -0.507 OA
ATOM     25  H   UNL     1      -1.194  58.247  -8.827  1.00  0.00     0.293 HD
ENDBRANCH   6  24
BRANCH   8  26
ATOM     26  O   UNL     1      -5.125  59.462  -6.050  1.00  0.00    -0.508 OA
ATOM     27  H   UNL     1      -5.588  59.107  -6.878  1.00  0.00     0.293 HD
ENDBRANCH   8  26
TORSDOF 6
ENDMDL
