MODEL 1
REMARK VINA RESULT:    -5.839      0.000      0.000
REMARK INTER + INTRA:          -7.319
REMARK INTER:                  -7.034
REMARK INTRA:                  -0.285
REMARK UNBOUND:                -0.285
REMARK SMILES O=c1c(O)c(-c2ccc(O)c(O)c2)oc2cc(O)cc(O)c12
REMARK SMILES IDX 5 1 3 2 2 3 1 4 22 5 20 6 19 7 17 8 16 9 15 10 14 11 6 12
REMARK SMILES IDX 7 13 8 14 9 15 13 16 11 17 10 18 12 20 4 22 21 24 18 26
REMARK H PARENT 10 19 12 21 4 23 21 25 18 27
REMARK Flexibility Score: inf
ROOT
ATOM      1  C   UNL     1     -18.413  -8.854   3.313  1.00  0.00     0.180 A 
ATOM      2  C   UNL     1     -18.802  -8.914   4.665  1.00  0.00     0.208 A 
ATOM      3  C   UNL     1     -18.136  -8.107   5.599  1.00  0.00     0.238 A 
ATOM      4  O   UNL     1     -18.484  -8.145   6.811  1.00  0.00    -0.285 OA
ATOM      5  C   UNL     1     -17.083  -7.271   5.174  1.00  0.00     0.111 A 
ATOM      6  C   UNL     1     -16.358  -6.431   6.052  1.00  0.00     0.134 A 
ATOM      7  C   UNL     1     -15.317  -5.635   5.553  1.00  0.00     0.093 A 
ATOM      8  C   UNL     1     -14.986  -5.664   4.193  1.00  0.00     0.123 A 
ATOM      9  C   UNL     1     -15.699  -6.492   3.324  1.00  0.00     0.094 A 
ATOM     10  C   UNL     1     -16.741  -7.291   3.802  1.00  0.00     0.146 A 
ATOM     11  O   UNL     1     -17.405  -8.065   2.950  1.00  0.00    -0.452 OA
ENDROOT
BRANCH   1  12
ATOM     12  C   UNL     1     -19.079  -9.660   2.266  1.00  0.00     0.025 A 
ATOM     13  C   UNL     1     -20.056  -9.063   1.452  1.00  0.00     0.016 A 
ATOM     14  C   UNL     1     -20.713  -9.809   0.471  1.00  0.00     0.051 A 
ATOM     15  C   UNL     1     -20.418 -11.165   0.299  1.00  0.00     0.157 A 
ATOM     16  C   UNL     1     -18.800 -11.028   2.104  1.00  0.00     0.062 A 
ATOM     17  C   UNL     1     -19.460 -11.780   1.121  1.00  0.00     0.158 A 
BRANCH  15  18
ATOM     18  O   UNL     1     -21.088 -11.884  -0.691  1.00  0.00    -0.504 OA
ATOM     19  H   UNL     1     -22.084 -12.067  -0.642  1.00  0.00     0.293 HD
ENDBRANCH  15  18
BRANCH  17  20
ATOM     20  O   UNL     1     -19.171 -13.135   0.963  1.00  0.00    -0.504 OA
ATOM     21  H   UNL     1     -19.471 -13.649   0.142  1.00  0.00     0.293 HD
ENDBRANCH  17  20
ENDBRANCH   1  12
BRANCH   2  22
ATOM     22  O   UNL     1     -19.815  -9.787   5.069  1.00  0.00    -0.502 OA
ATOM     23  H   UNL     1     -19.847 -10.189   5.998  1.00  0.00     0.293 HD
ENDBRANCH   2  22
BRANCH   6  24
ATOM     24  O   UNL     1     -16.664  -6.380   7.413  1.00  0.00    -0.507 OA
ATOM     25  H   UNL     1     -15.947  -6.469   8.124  1.00  0.00     0.293 HD
ENDBRANCH   6  24
BRANCH   8  26
ATOM     26  O   UNL     1     -13.952  -4.875   3.696  1.00  0.00    -0.508 OA
ATOM     27  H   UNL     1     -13.437  -5.139   2.863  1.00  0.00     0.293 HD
ENDBRANCH   8  26
TORSDOF 6
ENDMDL
MODEL 2
REMARK VINA RESULT:    -5.596      1.412      3.083
REMARK INTER + INTRA:          -7.026
REMARK INTER:                  -6.697
REMARK INTRA:                  -0.329
REMARK UNBOUND:                -0.285
REMARK SMILES O=c1c(O)c(-c2ccc(O)c(O)c2)oc2cc(O)cc(O)c12
REMARK SMILES IDX 5 1 3 2 2 3 1 4 22 5 20 6 19 7 17 8 16 9 15 10 14 11 6 12
REMARK SMILES IDX 7 13 8 14 9 15 13 16 11 17 10 18 12 20 4 22 21 24 18 26
REMARK H PARENT 10 19 12 21 4 23 21 25 18 27
REMARK Flexibility Score: inf
ROOT
ATOM      1  C   UNL     1     -17.763  -8.608   1.792  1.00  0.00     0.180 A 
ATOM      2  C   UNL     1     -16.876  -7.785   1.072  1.00  0.00     0.208 A 
ATOM      3  C   UNL     1     -16.083  -6.865   1.773  1.00  0.00     0.238 A 
ATOM      4  O   UNL     1     -15.277  -6.131   1.139  1.00  0.00    -0.285 OA
ATOM      5  C   UNL     1     -16.201  -6.768   3.175  1.00  0.00     0.111 A 
ATOM      6  C   UNL     1     -15.441  -5.864   3.955  1.00  0.00     0.134 A 
ATOM      7  C   UNL     1     -15.624  -5.821   5.345  1.00  0.00     0.093 A 
ATOM      8  C   UNL     1     -16.552  -6.663   5.969  1.00  0.00     0.123 A 
ATOM      9  C   UNL     1     -17.303  -7.556   5.202  1.00  0.00     0.094 A 
ATOM     10  C   UNL     1     -17.135  -7.615   3.816  1.00  0.00     0.146 A 
ATOM     11  O   UNL     1     -17.859  -8.479   3.113  1.00  0.00    -0.452 OA
ENDROOT
BRANCH   1  12
ATOM     12  C   UNL     1     -18.619  -9.616   1.126  1.00  0.00     0.025 A 
ATOM     13  C   UNL     1     -19.956  -9.302   0.834  1.00  0.00     0.016 A 
ATOM     14  C   UNL     1     -20.787 -10.244   0.225  1.00  0.00     0.051 A 
ATOM     15  C   UNL     1     -20.303 -11.518  -0.087  1.00  0.00     0.157 A 
ATOM     16  C   UNL     1     -18.140 -10.905   0.832  1.00  0.00     0.062 A 
ATOM     17  C   UNL     1     -18.974 -11.852   0.221  1.00  0.00     0.158 A 
BRANCH  15  18
ATOM     18  O   UNL     1     -21.156 -12.437  -0.697  1.00  0.00    -0.504 OA
ATOM     19  H   UNL     1     -21.143 -13.422  -0.462  1.00  0.00     0.293 HD
ENDBRANCH  15  18
BRANCH  17  20
ATOM     20  O   UNL     1     -18.489 -13.126  -0.074  1.00  0.00    -0.504 OA
ATOM     21  H   UNL     1     -19.054 -13.807  -0.570  1.00  0.00     0.293 HD
ENDBRANCH  17  20
ENDBRANCH   1  12
BRANCH   2  22
ATOM     22  O   UNL     1     -16.813  -7.867  -0.322  1.00  0.00    -0.502 OA
ATOM     23  H   UNL     1     -16.374  -7.151  -0.888  1.00  0.00     0.293 HD
ENDBRANCH   2  22
BRANCH   6  24
ATOM     24  O   UNL     1     -14.509  -5.011   3.363  1.00  0.00    -0.507 OA
ATOM     25  H   UNL     1     -14.450  -4.031   3.611  1.00  0.00     0.293 HD
ENDBRANCH   6  24
BRANCH   8  26
ATOM     26  O   UNL     1     -16.735  -6.621   7.349  1.00  0.00    -0.508 OA
ATOM     27  H   UNL     1     -16.765  -7.468   7.905  1.00  0.00     0.293 HD
ENDBRANCH   8  26
TORSDOF 6
ENDMDL
MODEL 3
REMARK VINA RESULT:    -5.566      3.002      7.073
REMARK INTER + INTRA:          -6.991
REMARK INTER:                  -6.674
REMARK INTRA:                  -0.317
REMARK UNBOUND:                -0.285
REMARK SMILES O=c1c(O)c(-c2ccc(O)c(O)c2)oc2cc(O)cc(O)c12
REMARK SMILES IDX 5 1 3 2 2 3 1 4 22 5 20 6 19 7 17 8 16 9 15 10 14 11 6 12
REMARK SMILES IDX 7 13 8 14 9 15 13 16 11 17 10 18 12 20 4 22 21 24 18 26
REMARK H PARENT 10 19 12 21 4 23 21 25 18 27
REMARK Flexibility Score: inf
ROOT
ATOM      1  C   UNL     1     -19.329 -10.350   3.657  1.00  0.00     0.180 A 
ATOM      2  C   UNL     1     -19.250  -9.561   2.493  1.00  0.00     0.208 A 
ATOM      3  C   UNL     1     -18.932 -10.180   1.275  1.00  0.00     0.238 A 
ATOM      4  O   UNL     1     -18.868  -9.484   0.224  1.00  0.00    -0.285 OA
ATOM      5  C   UNL     1     -18.681 -11.567   1.241  1.00  0.00     0.111 A 
ATOM      6  C   UNL     1     -18.350 -12.265   0.056  1.00  0.00     0.134 A 
ATOM      7  C   UNL     1     -18.106 -13.645   0.107  1.00  0.00     0.093 A 
ATOM      8  C   UNL     1     -18.183 -14.339   1.320  1.00  0.00     0.123 A 
ATOM      9  C   UNL     1     -18.509 -13.653   2.492  1.00  0.00     0.094 A 
ATOM     10  C   UNL     1     -18.758 -12.278   2.461  1.00  0.00     0.146 A 
ATOM     11  O   UNL     1     -19.071 -11.653   3.591  1.00  0.00    -0.452 OA
ENDROOT
BRANCH   1  12
ATOM     12  C   UNL     1     -19.677  -9.774   4.976  1.00  0.00     0.025 A 
ATOM     13  C   UNL     1     -21.018  -9.760   5.391  1.00  0.00     0.016 A 
ATOM     14  C   UNL     1     -21.372  -9.203   6.622  1.00  0.00     0.051 A 
ATOM     15  C   UNL     1     -20.398  -8.637   7.449  1.00  0.00     0.157 A 
ATOM     16  C   UNL     1     -18.701  -9.185   5.799  1.00  0.00     0.062 A 
ATOM     17  C   UNL     1     -19.055  -8.624   7.035  1.00  0.00     0.158 A 
BRANCH  15  18
ATOM     18  O   UNL     1     -20.781  -8.091   8.673  1.00  0.00    -0.504 OA
ATOM     19  H   UNL     1     -21.610  -8.402   9.165  1.00  0.00     0.293 HD
ENDBRANCH  15  18
BRANCH  17  20
ATOM     20  O   UNL     1     -18.080  -8.049   7.849  1.00  0.00    -0.504 OA
ATOM     21  H   UNL     1     -17.557  -7.232   7.553  1.00  0.00     0.293 HD
ENDBRANCH  17  20
ENDBRANCH   1  12
BRANCH   2  22
ATOM     22  O   UNL     1     -19.454  -8.180   2.562  1.00  0.00    -0.502 OA
ATOM     23  H   UNL     1     -20.378  -7.772   2.631  1.00  0.00     0.293 HD
ENDBRANCH   2  22
BRANCH   6  24
ATOM     24  O   UNL     1     -18.265 -11.602  -1.169  1.00  0.00    -0.507 OA
ATOM     25  H   UNL     1     -17.375 -11.300  -1.550  1.00  0.00     0.293 HD
ENDBRANCH   6  24
BRANCH   8  26
ATOM     26  O   UNL     1     -17.939 -15.709   1.372  1.00  0.00    -0.508 OA
ATOM     27  H   UNL     1     -18.670 -16.368   1.615  1.00  0.00     0.293 HD
ENDBRANCH   8  26
TORSDOF 6
ENDMDL
MODEL 4
REMARK VINA RESULT:    -5.504      2.386      4.566
REMARK INTER + INTRA:          -6.916
REMARK INTER:                  -6.705
REMARK INTRA:                  -0.211
REMARK UNBOUND:                -0.285
REMARK SMILES O=c1c(O)c(-c2ccc(O)c(O)c2)oc2cc(O)cc(O)c12
REMARK SMILES IDX 5 1 3 2 2 3 1 4 22 5 20 6 19 7 17 8 16 9 15 10 14 11 6 12
REMARK SMILES IDX 7 13 8 14 9 15 13 16 11 17 10 18 12 20 4 22 21 24 18 26
REMARK H PARENT 10 19 12 21 4 23 21 25 18 27
REMARK Flexibility Score: inf
ROOT
ATOM      1  C   UNL     1     -18.823 -10.980   1.041  1.00  0.00     0.180 A 
ATOM      2  C   UNL     1     -18.013  -9.928   0.571  1.00  0.00     0.208 A 
ATOM      3  C   UNL     1     -17.773  -8.830   1.411  1.00  0.00     0.238 A 
ATOM      4  O   UNL     1     -17.040  -7.887   1.004  1.00  0.00    -0.285 OA
ATOM      5  C   UNL     1     -18.358  -8.791   2.693  1.00  0.00     0.111 A 
ATOM      6  C   UNL     1     -18.170  -7.719   3.598  1.00  0.00     0.134 A 
ATOM      7  C   UNL     1     -18.794  -7.750   4.853  1.00  0.00     0.093 A 
ATOM      8  C   UNL     1     -19.605  -8.830   5.219  1.00  0.00     0.123 A 
ATOM      9  C   UNL     1     -19.794  -9.890   4.329  1.00  0.00     0.094 A 
ATOM     10  C   UNL     1     -19.178  -9.878   3.074  1.00  0.00     0.146 A 
ATOM     11  O   UNL     1     -19.372 -10.902   2.250  1.00  0.00    -0.452 OA
ENDROOT
BRANCH   1  12
ATOM     12  C   UNL     1     -19.108 -12.180   0.222  1.00  0.00     0.025 A 
ATOM     13  C   UNL     1     -18.515 -13.406   0.565  1.00  0.00     0.016 A 
ATOM     14  C   UNL     1     -18.753 -14.547  -0.205  1.00  0.00     0.051 A 
ATOM     15  C   UNL     1     -19.571 -14.478  -1.337  1.00  0.00     0.157 A 
ATOM     16  C   UNL     1     -19.913 -12.108  -0.928  1.00  0.00     0.062 A 
ATOM     17  C   UNL     1     -20.151 -13.253  -1.704  1.00  0.00     0.158 A 
BRANCH  15  18
ATOM     18  O   UNL     1     -19.792 -15.634  -2.085  1.00  0.00    -0.504 OA
ATOM     19  H   UNL     1     -19.998 -16.526  -1.650  1.00  0.00     0.293 HD
ENDBRANCH  15  18
BRANCH  17  20
ATOM     20  O   UNL     1     -20.956 -13.175  -2.840  1.00  0.00    -0.504 OA
ATOM     21  H   UNL     1     -21.207 -12.283  -3.252  1.00  0.00     0.293 HD
ENDBRANCH  17  20
ENDBRANCH   1  12
BRANCH   2  22
ATOM     22  O   UNL     1     -17.485  -9.968  -0.722  1.00  0.00    -0.502 OA
ATOM     23  H   UNL     1     -16.519 -10.211  -0.906  1.00  0.00     0.293 HD
ENDBRANCH   2  22
BRANCH   6  24
ATOM     24  O   UNL     1     -17.367  -6.628   3.261  1.00  0.00    -0.507 OA
ATOM     25  H   UNL     1     -17.682  -5.916   2.613  1.00  0.00     0.293 HD
ENDBRANCH   6  24
BRANCH   8  26
ATOM     26  O   UNL     1     -20.227  -8.862   6.465  1.00  0.00    -0.508 OA
ATOM     27  H   UNL     1     -21.172  -9.213   6.577  1.00  0.00     0.293 HD
ENDBRANCH   8  26
TORSDOF 6
ENDMDL
MODEL 5
REMARK VINA RESULT:    -5.477     13.152     14.237
REMARK INTER + INTRA:          -6.883
REMARK INTER:                  -6.631
REMARK INTRA:                  -0.252
REMARK UNBOUND:                -0.285
REMARK SMILES O=c1c(O)c(-c2ccc(O)c(O)c2)oc2cc(O)cc(O)c12
REMARK SMILES IDX 5 1 3 2 2 3 1 4 22 5 20 6 19 7 17 8 16 9 15 10 14 11 6 12
REMARK SMILES IDX 7 13 8 14 9 15 13 16 11 17 10 18 12 20 4 22 21 24 18 26
REMARK H PARENT 10 19 12 21 4 23 21 25 18 27
REMARK Flexibility Score: inf
ROOT
ATOM      1  C   UNL     1     -14.104 -18.047  13.432  1.00  0.00     0.180 A 
ATOM      2  C   UNL     1     -12.801 -18.343  13.879  1.00  0.00     0.208 A 
ATOM      3  C   UNL     1     -11.910 -17.286  14.116  1.00  0.00     0.238 A 
ATOM      4  O   UNL     1     -10.744 -17.539  14.526  1.00  0.00    -0.285 OA
ATOM      5  C   UNL     1     -12.324 -15.958  13.886  1.00  0.00     0.111 A 
ATOM      6  C   UNL     1     -11.485 -14.838  14.095  1.00  0.00     0.134 A 
ATOM      7  C   UNL     1     -11.969 -13.548  13.834  1.00  0.00     0.093 A 
ATOM      8  C   UNL     1     -13.273 -13.357  13.365  1.00  0.00     0.123 A 
ATOM      9  C   UNL     1     -14.104 -14.460  13.156  1.00  0.00     0.094 A 
ATOM     10  C   UNL     1     -13.641 -15.753  13.413  1.00  0.00     0.146 A 
ATOM     11  O   UNL     1     -14.455 -16.783  13.210  1.00  0.00    -0.452 OA
ENDROOT
BRANCH   1  12
ATOM     12  C   UNL     1     -15.107 -19.105  13.178  1.00  0.00     0.025 A 
ATOM     13  C   UNL     1     -16.135 -19.320  14.110  1.00  0.00     0.016 A 
ATOM     14  C   UNL     1     -17.081 -20.326  13.901  1.00  0.00     0.051 A 
ATOM     15  C   UNL     1     -17.007 -21.143  12.769  1.00  0.00     0.157 A 
ATOM     16  C   UNL     1     -15.022 -19.941  12.050  1.00  0.00     0.062 A 
ATOM     17  C   UNL     1     -15.970 -20.953  11.840  1.00  0.00     0.158 A 
BRANCH  15  18
ATOM     18  O   UNL     1     -17.967 -22.137  12.586  1.00  0.00    -0.504 OA
ATOM     19  H   UNL     1     -18.590 -22.144  11.787  1.00  0.00     0.293 HD
ENDBRANCH  15  18
BRANCH  17  20
ATOM     20  O   UNL     1     -15.882 -21.774  10.716  1.00  0.00    -0.504 OA
ATOM     21  H   UNL     1     -16.062 -21.417   9.784  1.00  0.00     0.293 HD
ENDBRANCH  17  20
ENDBRANCH   1  12
BRANCH   2  22
ATOM     22  O   UNL     1     -12.400 -19.670  14.052  1.00  0.00    -0.502 OA
ATOM     23  H   UNL     1     -12.126 -20.040  14.954  1.00  0.00     0.293 HD
ENDBRANCH   2  22
BRANCH   6  24
ATOM     24  O   UNL     1     -10.179 -14.996  14.562  1.00  0.00    -0.507 OA
ATOM     25  H   UNL     1      -9.574 -14.200  14.731  1.00  0.00     0.293 HD
ENDBRANCH   6  24
BRANCH   8  26
ATOM     26  O   UNL     1     -13.755 -12.076  13.104  1.00  0.00    -0.508 OA
ATOM     27  H   UNL     1     -13.128 -11.290  12.978  1.00  0.00     0.293 HD
ENDBRANCH   8  26
TORSDOF 6
ENDMDL
MODEL 6
REMARK VINA RESULT:    -5.430      1.554      2.362
REMARK INTER + INTRA:          -6.826
REMARK INTER:                  -6.513
REMARK INTRA:                  -0.314
REMARK UNBOUND:                -0.285
REMARK SMILES O=c1c(O)c(-c2ccc(O)c(O)c2)oc2cc(O)cc(O)c12
REMARK SMILES IDX 5 1 3 2 2 3 1 4 22 5 20 6 19 7 17 8 16 9 15 10 14 11 6 12
REMARK SMILES IDX 7 13 8 14 9 15 13 16 11 17 10 18 12 20 4 22 21 24 18 26
REMARK H PARENT 10 19 12 21 4 23 21 25 18 27
REMARK Flexibility Score: inf
ROOT
ATOM      1  C   UNL     1     -19.180 -10.538   2.417  1.00  0.00     0.180 A 
ATOM      2  C   UNL     1     -20.028 -10.648   3.537  1.00  0.00     0.208 A 
ATOM      3  C   UNL     1     -19.826  -9.789   4.627  1.00  0.00     0.238 A 
ATOM      4  O   UNL     1     -20.586  -9.871   5.631  1.00  0.00    -0.285 OA
ATOM      5  C   UNL     1     -18.774  -8.850   4.591  1.00  0.00     0.111 A 
ATOM      6  C   UNL     1     -18.501  -7.952   5.649  1.00  0.00     0.134 A 
ATOM      7  C   UNL     1     -17.430  -7.054   5.541  1.00  0.00     0.093 A 
ATOM      8  C   UNL     1     -16.625  -7.038   4.395  1.00  0.00     0.123 A 
ATOM      9  C   UNL     1     -16.891  -7.923   3.349  1.00  0.00     0.094 A 
ATOM     10  C   UNL     1     -17.956  -8.825   3.437  1.00  0.00     0.146 A 
ATOM     11  O   UNL     1     -18.189  -9.652   2.424  1.00  0.00    -0.452 OA
ENDROOT
BRANCH   1  12
ATOM     12  C   UNL     1     -19.342 -11.396   1.222  1.00  0.00     0.025 A 
ATOM     13  C   UNL     1     -20.283 -11.043   0.241  1.00  0.00     0.016 A 
ATOM     14  C   UNL     1     -20.466 -11.848  -0.885  1.00  0.00     0.051 A 
ATOM     15  C   UNL     1     -19.727 -13.024  -1.042  1.00  0.00     0.157 A 
ATOM     16  C   UNL     1     -18.614 -12.589   1.072  1.00  0.00     0.062 A 
ATOM     17  C   UNL     1     -18.799 -13.400  -0.057  1.00  0.00     0.158 A 
BRANCH  15  18
ATOM     18  O   UNL     1     -19.930 -13.807  -2.179  1.00  0.00    -0.504 OA
ATOM     19  H   UNL     1     -20.853 -14.113  -2.464  1.00  0.00     0.293 HD
ENDBRANCH  15  18
BRANCH  17  20
ATOM     20  O   UNL     1     -18.068 -14.579  -0.201  1.00  0.00    -0.504 OA
ATOM     21  H   UNL     1     -17.382 -14.865   0.488  1.00  0.00     0.293 HD
ENDBRANCH  17  20
ENDBRANCH   1  12
BRANCH   2  22
ATOM     22  O   UNL     1     -21.031 -11.620   3.569  1.00  0.00    -0.502 OA
ATOM     23  H   UNL     1     -21.153 -12.248   4.354  1.00  0.00     0.293 HD
ENDBRANCH   2  22
BRANCH   6  24
ATOM     24  O   UNL     1     -19.284  -7.943   6.804  1.00  0.00    -0.507 OA
ATOM     25  H   UNL     1     -20.274  -8.157   6.778  1.00  0.00     0.293 HD
ENDBRANCH   6  24
BRANCH   8  26
ATOM     26  O   UNL     1     -15.560  -6.148   4.286  1.00  0.00    -0.508 OA
ATOM     27  H   UNL     1     -14.922  -6.179   3.499  1.00  0.00     0.293 HD
ENDBRANCH   8  26
TORSDOF 6
ENDMDL
MODEL 7
REMARK VINA RESULT:    -5.354     14.989     17.122
REMARK INTER + INTRA:          -6.735
REMARK INTER:                  -6.404
REMARK INTRA:                  -0.331
REMARK UNBOUND:                -0.285
REMARK SMILES O=c1c(O)c(-c2ccc(O)c(O)c2)oc2cc(O)cc(O)c12
REMARK SMILES IDX 5 1 3 2 2 3 1 4 22 5 20 6 19 7 17 8 16 9 15 10 14 11 6 12
REMARK SMILES IDX 7 13 8 14 9 15 13 16 11 17 10 18 12 20 4 22 21 24 18 26
REMARK H PARENT 10 19 12 21 4 23 21 25 18 27
REMARK Flexibility Score: inf
ROOT
ATOM      1  C   UNL     1     -12.802 -19.491  14.126  1.00  0.00     0.180 A 
ATOM      2  C   UNL     1     -12.839 -20.845  13.738  1.00  0.00     0.208 A 
ATOM      3  C   UNL     1     -13.940 -21.310  13.005  1.00  0.00     0.238 A 
ATOM      4  O   UNL     1     -13.979 -22.518  12.643  1.00  0.00    -0.285 OA
ATOM      5  C   UNL     1     -14.992 -20.426  12.688  1.00  0.00     0.111 A 
ATOM      6  C   UNL     1     -16.139 -20.816  11.957  1.00  0.00     0.134 A 
ATOM      7  C   UNL     1     -17.147 -19.879  11.691  1.00  0.00     0.093 A 
ATOM      8  C   UNL     1     -17.031 -18.559  12.143  1.00  0.00     0.123 A 
ATOM      9  C   UNL     1     -15.901 -18.170  12.864  1.00  0.00     0.094 A 
ATOM     10  C   UNL     1     -14.885 -19.089  13.139  1.00  0.00     0.146 A 
ATOM     11  O   UNL     1     -13.819 -18.689  13.823  1.00  0.00    -0.452 OA
ENDROOT
BRANCH   1  12
ATOM     12  C   UNL     1     -11.666 -18.921  14.884  1.00  0.00     0.025 A 
ATOM     13  C   UNL     1     -11.758 -18.800  16.280  1.00  0.00     0.016 A 
ATOM     14  C   UNL     1     -10.707 -18.246  17.013  1.00  0.00     0.051 A 
ATOM     15  C   UNL     1      -9.556 -17.789  16.365  1.00  0.00     0.157 A 
ATOM     16  C   UNL     1     -10.516 -18.442  14.232  1.00  0.00     0.062 A 
ATOM     17  C   UNL     1      -9.460 -17.883  14.967  1.00  0.00     0.158 A 
BRANCH  15  18
ATOM     18  O   UNL     1      -8.521 -17.243  17.125  1.00  0.00    -0.504 OA
ATOM     19  H   UNL     1      -7.618 -17.021  16.723  1.00  0.00     0.293 HD
ENDBRANCH  15  18
BRANCH  17  20
ATOM     20  O   UNL     1      -8.320 -17.417  14.313  1.00  0.00    -0.504 OA
ATOM     21  H   UNL     1      -8.344 -16.586  13.732  1.00  0.00     0.293 HD
ENDBRANCH  17  20
ENDBRANCH   1  12
BRANCH   2  22
ATOM     22  O   UNL     1     -11.808 -21.712  14.107  1.00  0.00    -0.502 OA
ATOM     23  H   UNL     1     -10.863 -21.612  13.756  1.00  0.00     0.293 HD
ENDBRANCH   2  22
BRANCH   6  24
ATOM     24  O   UNL     1     -16.284 -22.125  11.494  1.00  0.00    -0.507 OA
ATOM     25  H   UNL     1     -17.095 -22.686  11.728  1.00  0.00     0.293 HD
ENDBRANCH   6  24
BRANCH   8  26
ATOM     26  O   UNL     1     -18.032 -17.627  11.879  1.00  0.00    -0.508 OA
ATOM     27  H   UNL     1     -18.210 -17.292  10.939  1.00  0.00     0.293 HD
ENDBRANCH   8  26
TORSDOF 6
ENDMDL
MODEL 8
REMARK VINA RESULT:    -5.353      3.234      8.606
REMARK INTER + INTRA:          -6.734
REMARK INTER:                  -6.581
REMARK INTRA:                  -0.153
REMARK UNBOUND:                -0.285
REMARK SMILES O=c1c(O)c(-c2ccc(O)c(O)c2)oc2cc(O)cc(O)c12
REMARK SMILES IDX 5 1 3 2 2 3 1 4 22 5 20 6 19 7 17 8 16 9 15 10 14 11 6 12
REMARK SMILES IDX 7 13 8 14 9 15 13 16 11 17 10 18 12 20 4 22 21 24 18 26
REMARK H PARENT 10 19 12 21 4 23 21 25 18 27
REMARK Flexibility Score: inf
ROOT
ATOM      1  C   UNL     1     -15.250  -6.188   7.343  1.00  0.00     0.180 A 
ATOM      2  C   UNL     1     -14.786  -5.654   6.124  1.00  0.00     0.208 A 
ATOM      3  C   UNL     1     -15.491  -5.941   4.946  1.00  0.00     0.238 A 
ATOM      4  O   UNL     1     -15.091  -5.459   3.851  1.00  0.00    -0.285 OA
ATOM      5  C   UNL     1     -16.632  -6.769   4.999  1.00  0.00     0.111 A 
ATOM      6  C   UNL     1     -17.395  -7.110   3.858  1.00  0.00     0.134 A 
ATOM      7  C   UNL     1     -18.512  -7.947   3.992  1.00  0.00     0.093 A 
ATOM      8  C   UNL     1     -18.878  -8.451   5.245  1.00  0.00     0.123 A 
ATOM      9  C   UNL     1     -18.128  -8.117   6.374  1.00  0.00     0.094 A 
ATOM     10  C   UNL     1     -17.012  -7.283   6.261  1.00  0.00     0.146 A 
ATOM     11  O   UNL     1     -16.320  -6.977   7.353  1.00  0.00    -0.452 OA
ENDROOT
BRANCH   1  12
ATOM     12  C   UNL     1     -14.572  -5.915   8.630  1.00  0.00     0.025 A 
ATOM     13  C   UNL     1     -15.233  -5.162   9.613  1.00  0.00     0.016 A 
ATOM     14  C   UNL     1     -14.605  -4.875  10.826  1.00  0.00     0.051 A 
ATOM     15  C   UNL     1     -13.302  -5.320  11.071  1.00  0.00     0.157 A 
ATOM     16  C   UNL     1     -13.254  -6.344   8.869  1.00  0.00     0.062 A 
ATOM     17  C   UNL     1     -12.621  -6.055  10.087  1.00  0.00     0.158 A 
BRANCH  15  18
ATOM     18  O   UNL     1     -12.702  -5.020  12.294  1.00  0.00    -0.504 OA
ATOM     19  H   UNL     1     -12.572  -5.719  13.016  1.00  0.00     0.293 HD
ENDBRANCH  15  18
BRANCH  17  20
ATOM     20  O   UNL     1     -11.316  -6.490  10.320  1.00  0.00    -0.504 OA
ATOM     21  H   UNL     1     -10.680  -6.690   9.556  1.00  0.00     0.293 HD
ENDBRANCH  17  20
ENDBRANCH   1  12
BRANCH   2  22
ATOM     22  O   UNL     1     -13.625  -4.877   6.091  1.00  0.00    -0.502 OA
ATOM     23  H   UNL     1     -12.905  -4.947   6.800  1.00  0.00     0.293 HD
ENDBRANCH   2  22
BRANCH   6  24
ATOM     24  O   UNL     1     -17.055  -6.623   2.594  1.00  0.00    -0.507 OA
ATOM     25  H   UNL     1     -17.758  -6.427   1.892  1.00  0.00     0.293 HD
ENDBRANCH   6  24
BRANCH   8  26
ATOM     26  O   UNL     1     -19.987  -9.284   5.380  1.00  0.00    -0.508 OA
ATOM     27  H   UNL     1     -19.968 -10.097   5.985  1.00  0.00     0.293 HD
ENDBRANCH   8  26
TORSDOF 6
ENDMDL
MODEL 9
REMARK VINA RESULT:    -5.248     13.994     15.067
REMARK INTER + INTRA:          -6.607
REMARK INTER:                  -6.311
REMARK INTRA:                  -0.296
REMARK UNBOUND:                -0.285
REMARK SMILES O=c1c(O)c(-c2ccc(O)c(O)c2)oc2cc(O)cc(O)c12
REMARK SMILES IDX 5 1 3 2 2 3 1 4 22 5 20 6 19 7 17 8 16 9 15 10 14 11 6 12
REMARK SMILES IDX 7 13 8 14 9 15 13 16 11 17 10 18 12 20 4 22 21 24 18 26
REMARK H PARENT 10 19 12 21 4 23 21 25 18 27
REMARK Flexibility Score: inf
ROOT
ATOM      1  C   UNL     1     -13.820 -18.249  13.545  1.00  0.00     0.180 A 
ATOM      2  C   UNL     1     -13.926 -16.928  13.070  1.00  0.00     0.208 A 
ATOM      3  C   UNL     1     -12.879 -16.030  13.324  1.00  0.00     0.238 A 
ATOM      4  O   UNL     1     -12.959 -14.846  12.894  1.00  0.00    -0.285 OA
ATOM      5  C   UNL     1     -11.756 -16.457  14.062  1.00  0.00     0.111 A 
ATOM      6  C   UNL     1     -10.661 -15.614  14.366  1.00  0.00     0.134 A 
ATOM      7  C   UNL     1      -9.585 -16.112  15.113  1.00  0.00     0.093 A 
ATOM      8  C   UNL     1      -9.584 -17.437  15.566  1.00  0.00     0.123 A 
ATOM      9  C   UNL     1     -10.662 -18.272  15.269  1.00  0.00     0.094 A 
ATOM     10  C   UNL     1     -11.744 -17.795  14.523  1.00  0.00     0.146 A 
ATOM     11  O   UNL     1     -12.753 -18.614  14.251  1.00  0.00    -0.452 OA
ENDROOT
BRANCH   1  12
ATOM     12  C   UNL     1     -14.874 -19.260  13.301  1.00  0.00     0.025 A 
ATOM     13  C   UNL     1     -16.016 -19.278  14.118  1.00  0.00     0.016 A 
ATOM     14  C   UNL     1     -17.013 -20.235  13.919  1.00  0.00     0.051 A 
ATOM     15  C   UNL     1     -16.879 -21.198  12.915  1.00  0.00     0.157 A 
ATOM     16  C   UNL     1     -14.731 -20.242  12.306  1.00  0.00     0.062 A 
ATOM     17  C   UNL     1     -15.730 -21.206  12.106  1.00  0.00     0.158 A 
BRANCH  15  18
ATOM     18  O   UNL     1     -17.892 -22.140  12.739  1.00  0.00    -0.504 OA
ATOM     19  H   UNL     1     -18.462 -22.167  11.901  1.00  0.00     0.293 HD
ENDBRANCH  15  18
BRANCH  17  20
ATOM     20  O   UNL     1     -15.584 -22.173  11.112  1.00  0.00    -0.504 OA
ATOM     21  H   UNL     1     -16.277 -22.900  10.973  1.00  0.00     0.293 HD
ENDBRANCH  17  20
ENDBRANCH   1  12
BRANCH   2  22
ATOM     22  O   UNL     1     -15.071 -16.515  12.384  1.00  0.00    -0.502 OA
ATOM     23  H   UNL     1     -15.104 -16.447  11.374  1.00  0.00     0.293 HD
ENDBRANCH   2  22
BRANCH   6  24
ATOM     24  O   UNL     1     -10.634 -14.288  13.930  1.00  0.00    -0.507 OA
ATOM     25  H   UNL     1     -11.212 -13.575  14.358  1.00  0.00     0.293 HD
ENDBRANCH   6  24
BRANCH   8  26
ATOM     26  O   UNL     1      -8.516 -17.933  16.309  1.00  0.00    -0.508 OA
ATOM     27  H   UNL     1      -7.616 -18.123  15.883  1.00  0.00     0.293 HD
ENDBRANCH   8  26
TORSDOF 6
ENDMDL
