MODEL 1
REMARK VINA RESULT:    -5.023      0.000      0.000
REMARK INTER + INTRA:          -5.894
REMARK INTER:                  -5.758
REMARK INTRA:                  -0.136
REMARK UNBOUND:                -0.136
REMARK SMILES O=C([O-])C=Cc1ccc(O)cc1
REMARK SMILES IDX 6 1 7 2 12 3 8 4 11 5 9 6 5 7 4 8 2 9 1 10 3 11 10 12
REMARK H PARENT 10 13
REMARK Flexibility Score: inf
ROOT
ATOM      1  C   UNL     1     -21.505  -2.425  18.758  1.00  0.00    -0.025 A 
ATOM      2  C   UNL     1     -21.764  -1.631  19.890  1.00  0.00     0.012 A 
ATOM      3  C   UNL     1     -20.990  -3.724  18.944  1.00  0.00     0.012 A 
ATOM      4  C   UNL     1     -21.539  -2.130  21.176  1.00  0.00     0.047 A 
ATOM      5  C   UNL     1     -20.765  -4.218  20.232  1.00  0.00     0.047 A 
ATOM      6  C   UNL     1     -21.041  -3.427  21.350  1.00  0.00     0.115 A 
ENDROOT
BRANCH   1   7
ATOM      7  C   UNL     1     -21.751  -1.846  17.414  1.00  0.00     0.010 C 
ATOM      8  C   UNL     1     -22.971  -1.557  16.940  1.00  0.00     0.025 C 
BRANCH   8   9
ATOM      9  C   UNL     1     -23.167  -0.972  15.603  1.00  0.00     0.064 C 
ATOM     10  O   UNL     1     -23.285  -1.730  14.606  1.00  0.00    -0.545 OA
ATOM     11  O   UNL     1     -23.219   0.405  15.423  1.00  0.00    -0.545 OA
ENDBRANCH   8   9
ENDBRANCH   1   7
BRANCH   6  12
ATOM     12  O   UNL     1     -20.812  -3.935  22.627  1.00  0.00    -0.508 OA
ATOM     13  H   UNL     1     -21.006  -4.904  22.853  1.00  0.00     0.293 HD
ENDBRANCH   6  12
TORSDOF 3
ENDMDL
MODEL 2
REMARK VINA RESULT:    -4.962      0.620      1.537
REMARK INTER + INTRA:          -5.823
REMARK INTER:                  -5.686
REMARK INTRA:                  -0.137
REMARK UNBOUND:                -0.136
REMARK SMILES O=C([O-])C=Cc1ccc(O)cc1
REMARK SMILES IDX 6 1 7 2 12 3 8 4 11 5 9 6 5 7 4 8 2 9 1 10 3 11 10 12
REMARK H PARENT 10 13
REMARK Flexibility Score: inf
ROOT
ATOM      1  C   UNL     1     -21.455  -2.356  18.804  1.00  0.00    -0.025 A 
ATOM      2  C   UNL     1     -21.016  -3.676  19.008  1.00  0.00     0.012 A 
ATOM      3  C   UNL     1     -21.754  -1.558  19.927  1.00  0.00     0.012 A 
ATOM      4  C   UNL     1     -20.855  -4.180  20.302  1.00  0.00     0.047 A 
ATOM      5  C   UNL     1     -21.594  -2.067  21.219  1.00  0.00     0.047 A 
ATOM      6  C   UNL     1     -21.141  -3.375  21.411  1.00  0.00     0.115 A 
ENDROOT
BRANCH   1   7
ATOM      7  C   UNL     1     -21.619  -1.871  17.410  1.00  0.00     0.010 C 
ATOM      8  C   UNL     1     -22.792  -1.849  16.764  1.00  0.00     0.025 C 
BRANCH   8   9
ATOM      9  C   UNL     1     -22.911  -1.347  15.385  1.00  0.00     0.064 C 
ATOM     10  O   UNL     1     -21.921  -1.421  14.611  1.00  0.00    -0.545 OA
ATOM     11  O   UNL     1     -24.098  -0.789  14.923  1.00  0.00    -0.545 OA
ENDBRANCH   8   9
ENDBRANCH   1   7
BRANCH   6  12
ATOM     12  O   UNL     1     -20.985  -3.866  22.706  1.00  0.00    -0.508 OA
ATOM     13  H   UNL     1     -20.094  -4.221  23.032  1.00  0.00     0.293 HD
ENDBRANCH   6  12
TORSDOF 3
ENDMDL
MODEL 3
REMARK VINA RESULT:    -4.960      3.070      5.403
REMARK INTER + INTRA:          -5.821
REMARK INTER:                  -5.674
REMARK INTRA:                  -0.148
REMARK UNBOUND:                -0.136
REMARK SMILES O=C([O-])C=Cc1ccc(O)cc1
REMARK SMILES IDX 6 1 7 2 12 3 8 4 11 5 9 6 5 7 4 8 2 9 1 10 3 11 10 12
REMARK H PARENT 10 13
REMARK Flexibility Score: inf
ROOT
ATOM      1  C   UNL     1     -20.455  -2.634  19.180  1.00  0.00    -0.025 A 
ATOM      2  C   UNL     1     -19.282  -3.375  19.413  1.00  0.00     0.012 A 
ATOM      3  C   UNL     1     -20.766  -2.254  17.858  1.00  0.00     0.012 A 
ATOM      4  C   UNL     1     -18.454  -3.749  18.350  1.00  0.00     0.047 A 
ATOM      5  C   UNL     1     -19.934  -2.629  16.800  1.00  0.00     0.047 A 
ATOM      6  C   UNL     1     -18.779  -3.379  17.041  1.00  0.00     0.115 A 
ENDROOT
BRANCH   1   7
ATOM      7  C   UNL     1     -21.296  -2.253  20.342  1.00  0.00     0.010 C 
ATOM      8  C   UNL     1     -21.365  -2.964  21.475  1.00  0.00     0.025 C 
BRANCH   8   9
ATOM      9  C   UNL     1     -22.205  -2.541  22.608  1.00  0.00     0.064 C 
ATOM     10  O   UNL     1     -23.009  -3.360  23.125  1.00  0.00    -0.545 OA
ATOM     11  O   UNL     1     -22.129  -1.248  23.115  1.00  0.00    -0.545 OA
ENDBRANCH   8   9
ENDBRANCH   1   7
BRANCH   6  12
ATOM     12  O   UNL     1     -17.961  -3.745  15.974  1.00  0.00    -0.508 OA
ATOM     13  H   UNL     1     -17.220  -3.138  15.643  1.00  0.00     0.293 HD
ENDBRANCH   6  12
TORSDOF 3
ENDMDL
MODEL 4
REMARK VINA RESULT:    -4.775      3.037      3.848
REMARK INTER + INTRA:          -5.610
REMARK INTER:                  -5.469
REMARK INTRA:                  -0.140
REMARK UNBOUND:                -0.136
REMARK SMILES O=C([O-])C=Cc1ccc(O)cc1
REMARK SMILES IDX 6 1 7 2 12 3 8 4 11 5 9 6 5 7 4 8 2 9 1 10 3 11 10 12
REMARK H PARENT 10 13
REMARK Flexibility Score: inf
ROOT
ATOM      1  C   UNL     1     -20.731  -2.997  19.285  1.00  0.00    -0.025 A 
ATOM      2  C   UNL     1     -20.603  -3.937  20.322  1.00  0.00     0.012 A 
ATOM      3  C   UNL     1     -21.393  -1.780  19.550  1.00  0.00     0.012 A 
ATOM      4  C   UNL     1     -21.100  -3.660  21.600  1.00  0.00     0.047 A 
ATOM      5  C   UNL     1     -21.890  -1.508  20.828  1.00  0.00     0.047 A 
ATOM      6  C   UNL     1     -21.743  -2.444  21.856  1.00  0.00     0.115 A 
ENDROOT
BRANCH   1   7
ATOM      7  C   UNL     1     -20.196  -3.341  17.944  1.00  0.00     0.010 C 
ATOM      8  C   UNL     1     -18.934  -3.735  17.726  1.00  0.00     0.025 C 
BRANCH   8   9
ATOM      9  C   UNL     1     -18.449  -4.078  16.379  1.00  0.00     0.064 C 
ATOM     10  O   UNL     1     -18.097  -3.160  15.593  1.00  0.00    -0.545 OA
ATOM     11  O   UNL     1     -18.377  -5.401  15.958  1.00  0.00    -0.545 OA
ENDBRANCH   8   9
ENDBRANCH   1   7
BRANCH   6  12
ATOM     12  O   UNL     1     -22.243  -2.157  23.125  1.00  0.00    -0.508 OA
ATOM     13  H   UNL     1     -22.008  -2.730  23.927  1.00  0.00     0.293 HD
ENDBRANCH   6  12
TORSDOF 3
ENDMDL
MODEL 5
REMARK VINA RESULT:    -4.674      4.827      8.011
REMARK INTER + INTRA:          -5.494
REMARK INTER:                  -5.352
REMARK INTRA:                  -0.142
REMARK UNBOUND:                -0.136
REMARK SMILES O=C([O-])C=Cc1ccc(O)cc1
REMARK SMILES IDX 6 1 7 2 12 3 8 4 11 5 9 6 5 7 4 8 2 9 1 10 3 11 10 12
REMARK H PARENT 10 13
REMARK Flexibility Score: inf
ROOT
ATOM      1  C   UNL     1     -24.271   2.960  18.233  1.00  0.00    -0.025 A 
ATOM      2  C   UNL     1     -23.945   2.234  17.074  1.00  0.00     0.012 A 
ATOM      3  C   UNL     1     -24.813   4.253  18.093  1.00  0.00     0.012 A 
ATOM      4  C   UNL     1     -24.178   2.775  15.806  1.00  0.00     0.047 A 
ATOM      5  C   UNL     1     -25.043   4.791  16.823  1.00  0.00     0.047 A 
ATOM      6  C   UNL     1     -24.730   4.054  15.678  1.00  0.00     0.115 A 
ENDROOT
BRANCH   1   7
ATOM      7  C   UNL     1     -23.995   2.346  19.556  1.00  0.00     0.010 C 
ATOM      8  C   UNL     1     -22.784   1.920  19.940  1.00  0.00     0.025 C 
BRANCH   8   9
ATOM      9  C   UNL     1     -22.554   1.327  21.268  1.00  0.00     0.064 C 
ATOM     10  O   UNL     1     -22.935   1.944  22.297  1.00  0.00    -0.545 OA
ATOM     11  O   UNL     1     -21.919   0.098  21.406  1.00  0.00    -0.545 OA
ENDBRANCH   8   9
ENDBRANCH   1   7
BRANCH   6  12
ATOM     12  O   UNL     1     -24.967   4.604  14.419  1.00  0.00    -0.508 OA
ATOM     13  H   UNL     1     -25.446   4.081  13.696  1.00  0.00     0.293 HD
ENDBRANCH   6  12
TORSDOF 3
ENDMDL
MODEL 6
REMARK VINA RESULT:    -4.614     17.728     19.022
REMARK INTER + INTRA:          -5.424
REMARK INTER:                  -5.280
REMARK INTRA:                  -0.144
REMARK UNBOUND:                -0.136
REMARK SMILES O=C([O-])C=Cc1ccc(O)cc1
REMARK SMILES IDX 6 1 7 2 12 3 8 4 11 5 9 6 5 7 4 8 2 9 1 10 3 11 10 12
REMARK H PARENT 10 13
REMARK Flexibility Score: inf
ROOT
ATOM      1  C   UNL     1      -7.523  -4.735   7.971  1.00  0.00    -0.025 A 
ATOM      2  C   UNL     1      -6.959  -3.468   7.738  1.00  0.00     0.012 A 
ATOM      3  C   UNL     1      -8.164  -5.398   6.905  1.00  0.00     0.012 A 
ATOM      4  C   UNL     1      -7.011  -2.889   6.467  1.00  0.00     0.047 A 
ATOM      5  C   UNL     1      -8.215  -4.815   5.636  1.00  0.00     0.047 A 
ATOM      6  C   UNL     1      -7.637  -3.562   5.412  1.00  0.00     0.115 A 
ENDROOT
BRANCH   1   7
ATOM      7  C   UNL     1      -7.451  -5.303   9.340  1.00  0.00     0.010 C 
ATOM      8  C   UNL     1      -6.343  -5.289  10.094  1.00  0.00     0.025 C 
BRANCH   8   9
ATOM      9  C   UNL     1      -6.321  -5.855  11.453  1.00  0.00     0.064 C 
ATOM     10  O   UNL     1      -6.744  -7.025  11.646  1.00  0.00    -0.545 OA
ATOM     11  O   UNL     1      -5.844  -5.116  12.530  1.00  0.00    -0.545 OA
ENDBRANCH   8   9
ENDBRANCH   1   7
BRANCH   6  12
ATOM     12  O   UNL     1      -7.695  -2.995   4.140  1.00  0.00    -0.508 OA
ATOM     13  H   UNL     1      -7.532  -2.005   3.996  1.00  0.00     0.293 HD
ENDBRANCH   6  12
TORSDOF 3
ENDMDL
MODEL 7
REMARK VINA RESULT:    -4.601      3.615      4.337
REMARK INTER + INTRA:          -5.410
REMARK INTER:                  -5.273
REMARK INTRA:                  -0.136
REMARK UNBOUND:                -0.136
REMARK SMILES O=C([O-])C=Cc1ccc(O)cc1
REMARK SMILES IDX 6 1 7 2 12 3 8 4 11 5 9 6 5 7 4 8 2 9 1 10 3 11 10 12
REMARK H PARENT 10 13
REMARK Flexibility Score: inf
ROOT
ATOM      1  C   UNL     1     -19.766  -3.043  17.891  1.00  0.00    -0.025 A 
ATOM      2  C   UNL     1     -20.975  -2.328  17.838  1.00  0.00     0.012 A 
ATOM      3  C   UNL     1     -19.218  -3.360  19.150  1.00  0.00     0.012 A 
ATOM      4  C   UNL     1     -21.635  -1.960  19.014  1.00  0.00     0.047 A 
ATOM      5  C   UNL     1     -19.881  -2.989  20.324  1.00  0.00     0.047 A 
ATOM      6  C   UNL     1     -21.091  -2.292  20.260  1.00  0.00     0.115 A 
ENDROOT
BRANCH   1   7
ATOM      7  C   UNL     1     -19.098  -3.402  16.615  1.00  0.00     0.010 C 
ATOM      8  C   UNL     1     -18.414  -4.539  16.427  1.00  0.00     0.025 C 
BRANCH   8   9
ATOM      9  C   UNL     1     -17.777  -4.860  15.139  1.00  0.00     0.064 C 
ATOM     10  O   UNL     1     -16.630  -4.408  14.885  1.00  0.00    -0.545 OA
ATOM     11  O   UNL     1     -18.423  -5.650  14.195  1.00  0.00    -0.545 OA
ENDBRANCH   8   9
ENDBRANCH   1   7
BRANCH   6  12
ATOM     12  O   UNL     1     -21.740  -1.930  21.439  1.00  0.00    -0.508 OA
ATOM     13  H   UNL     1     -22.708  -2.180  21.608  1.00  0.00     0.293 HD
ENDBRANCH   6  12
TORSDOF 3
ENDMDL
MODEL 8
REMARK VINA RESULT:    -4.484     17.700     19.024
REMARK INTER + INTRA:          -5.276
REMARK INTER:                  -5.132
REMARK INTRA:                  -0.145
REMARK UNBOUND:                -0.136
REMARK SMILES O=C([O-])C=Cc1ccc(O)cc1
REMARK SMILES IDX 6 1 7 2 12 3 8 4 11 5 9 6 5 7 4 8 2 9 1 10 3 11 10 12
REMARK H PARENT 10 13
REMARK Flexibility Score: inf
ROOT
ATOM      1  C   UNL     1      -7.418  -4.963   7.994  1.00  0.00    -0.025 A 
ATOM      2  C   UNL     1      -8.043  -5.579   6.896  1.00  0.00     0.012 A 
ATOM      3  C   UNL     1      -6.875  -3.673   7.831  1.00  0.00     0.012 A 
ATOM      4  C   UNL     1      -8.146  -4.913   5.671  1.00  0.00     0.047 A 
ATOM      5  C   UNL     1      -6.978  -3.012   6.603  1.00  0.00     0.047 A 
ATOM      6  C   UNL     1      -7.616  -3.627   5.522  1.00  0.00     0.115 A 
ENDROOT
BRANCH   1   7
ATOM      7  C   UNL     1      -7.326  -5.714   9.271  1.00  0.00     0.010 C 
ATOM      8  C   UNL     1      -6.564  -5.332  10.306  1.00  0.00     0.025 C 
BRANCH   8   9
ATOM      9  C   UNL     1      -6.512  -6.103  11.559  1.00  0.00     0.064 C 
ATOM     10  O   UNL     1      -6.850  -7.316  11.556  1.00  0.00    -0.545 OA
ATOM     11  O   UNL     1      -6.099  -5.513  12.748  1.00  0.00    -0.545 OA
ENDBRANCH   8   9
ENDBRANCH   1   7
BRANCH   6  12
ATOM     12  O   UNL     1      -7.712  -2.954   4.306  1.00  0.00    -0.508 OA
ATOM     13  H   UNL     1      -7.237  -2.072   4.151  1.00  0.00     0.293 HD
ENDBRANCH   6  12
TORSDOF 3
ENDMDL
MODEL 9
REMARK VINA RESULT:    -4.408     15.338     17.699
REMARK INTER + INTRA:          -5.189
REMARK INTER:                  -5.048
REMARK INTRA:                  -0.141
REMARK UNBOUND:                -0.136
REMARK SMILES O=C([O-])C=Cc1ccc(O)cc1
REMARK SMILES IDX 6 1 7 2 12 3 8 4 11 5 9 6 5 7 4 8 2 9 1 10 3 11 10 12
REMARK H PARENT 10 13
REMARK Flexibility Score: inf
ROOT
ATOM      1  C   UNL     1     -13.397   4.569   4.985  1.00  0.00    -0.025 A 
ATOM      2  C   UNL     1     -13.353   4.511   3.581  1.00  0.00     0.012 A 
ATOM      3  C   UNL     1     -12.334   4.007   5.720  1.00  0.00     0.012 A 
ATOM      4  C   UNL     1     -12.263   3.931   2.926  1.00  0.00     0.047 A 
ATOM      5  C   UNL     1     -11.247   3.426   5.061  1.00  0.00     0.047 A 
ATOM      6  C   UNL     1     -11.206   3.389   3.665  1.00  0.00     0.115 A 
ENDROOT
BRANCH   1   7
ATOM      7  C   UNL     1     -14.580   5.186   5.634  1.00  0.00     0.010 C 
ATOM      8  C   UNL     1     -14.634   5.506   6.934  1.00  0.00     0.025 C 
BRANCH   8   9
ATOM      9  C   UNL     1     -15.826   6.129   7.533  1.00  0.00     0.064 C 
ATOM     10  O   UNL     1     -15.717   6.763   8.615  1.00  0.00    -0.545 OA
ATOM     11  O   UNL     1     -17.072   6.025   6.925  1.00  0.00    -0.545 OA
ENDBRANCH   8   9
ENDBRANCH   1   7
BRANCH   6  12
ATOM     12  O   UNL     1     -10.114   2.807   3.023  1.00  0.00    -0.508 OA
ATOM     13  H   UNL     1      -9.716   3.214   2.185  1.00  0.00     0.293 HD
ENDBRANCH   6  12
TORSDOF 3
ENDMDL
