MODEL 1
REMARK VINA RESULT:     4.247      0.000      0.000
REMARK INTER + INTRA:           8.246
REMARK INTER:                   6.234
REMARK INTRA:                   2.013
REMARK UNBOUND:                 2.013
REMARK SMILES O=c1c(O[C@H]2O[C@H](CO)[C@@H](O)[C@@H](O)[C@H]2O)c(-c2ccc(O)c(O)c2)oc2cc(O)cc(O)c12
REMARK SMILES IDX 4 1 3 2 16 3 25 4 2 5 26 6 1 7 33 8 27 9 31 10 28 11 30 12
REMARK SMILES IDX 17 13 18 14 19 15 20 16 24 17 22 18 21 19 23 21 32 23 29 25
REMARK SMILES IDX 5 27 14 28 6 29 12 30 7 31 10 32 15 33 13 35 8 37 9 38 11 40
REMARK H PARENT 21 20 23 22 32 24 29 26 15 34 13 36 9 39 11 41
REMARK Flexibility Score: inf
ROOT
ATOM      1  O   UNL     1      14.298 -10.571  29.716  1.00  0.00    -0.454 OA
ENDROOT
BRANCH   1   2
ATOM      2  C   UNL     1      14.573 -11.644  28.862  1.00  0.00     0.214 A 
ATOM      3  C   UNL     1      14.975 -11.440  27.522  1.00  0.00     0.180 A 
ATOM      4  O   UNL     1      15.367 -12.485  26.797  1.00  0.00    -0.452 OA
ATOM      5  C   UNL     1      14.451 -12.951  29.342  1.00  0.00     0.239 A 
ATOM      6  C   UNL     1      15.349 -13.733  27.242  1.00  0.00     0.146 A 
ATOM      7  O   UNL     1      13.984 -13.139  30.496  1.00  0.00    -0.285 OA
ATOM      8  C   UNL     1      14.853 -14.030  28.533  1.00  0.00     0.111 A 
ATOM      9  C   UNL     1      15.821 -14.757  26.417  1.00  0.00     0.094 A 
ATOM     10  C   UNL     1      14.802 -15.378  28.962  1.00  0.00     0.134 A 
ATOM     11  C   UNL     1      15.801 -16.087  26.856  1.00  0.00     0.123 A 
ATOM     12  C   UNL     1      15.276 -16.395  28.118  1.00  0.00     0.093 A 
BRANCH   3  13
ATOM     13  C   UNL     1      14.941 -10.109  26.859  1.00  0.00     0.025 A 
ATOM     14  C   UNL     1      13.701  -9.513  26.575  1.00  0.00     0.016 A 
ATOM     15  C   UNL     1      13.641  -8.219  26.057  1.00  0.00     0.051 A 
ATOM     16  C   UNL     1      14.808  -7.491  25.811  1.00  0.00     0.157 A 
ATOM     17  C   UNL     1      16.116  -9.360  26.648  1.00  0.00     0.062 A 
ATOM     18  C   UNL     1      16.063  -8.064  26.120  1.00  0.00     0.158 A 
BRANCH  16  19
ATOM     19  O   UNL     1      14.675  -6.207  25.265  1.00  0.00    -0.504 OA
ATOM     20  H   UNL     1      15.259  -5.421  25.514  1.00  0.00     0.293 HD
ENDBRANCH  16  19
BRANCH  18  21
ATOM     21  O   UNL     1      17.268  -7.383  25.925  1.00  0.00    -0.504 OA
ATOM     22  H   UNL     1      17.908  -7.147  26.668  1.00  0.00     0.293 HD
ENDBRANCH  18  21
ENDBRANCH   3  13
BRANCH  10  23
ATOM     23  O   UNL     1      14.287 -15.715  30.216  1.00  0.00    -0.507 OA
ATOM     24  H   UNL     1      14.521 -16.589  30.668  1.00  0.00     0.293 HD
ENDBRANCH  10  23
BRANCH  11  25
ATOM     25  O   UNL     1      16.310 -17.108  26.049  1.00  0.00    -0.508 OA
ATOM     26  H   UNL     1      15.961 -18.060  26.114  1.00  0.00     0.293 HD
ENDBRANCH  11  25
ENDBRANCH   1   2
BRANCH   1  27
ATOM     27  C   UNL     1      13.180  -9.692  29.516  1.00  0.00     0.339 C 
ATOM     28  C   UNL     1      12.447  -9.407  30.835  1.00  0.00     0.214 C 
ATOM     29  O   UNL     1      12.286 -10.231  28.558  1.00  0.00    -0.332 OA
ATOM     30  C   UNL     1      11.796 -10.696  31.381  1.00  0.00     0.180 C 
ATOM     31  C   UNL     1      11.764 -11.489  28.964  1.00  0.00     0.179 C 
ATOM     32  C   UNL     1      10.948 -11.364  30.277  1.00  0.00     0.177 C 
BRANCH  28  33
ATOM     33  O   UNL     1      13.332  -8.849  31.769  1.00  0.00    -0.384 OA
ATOM     34  H   UNL     1      14.220  -8.804  31.331  1.00  0.00     0.211 HD
ENDBRANCH  28  33
BRANCH  30  35
ATOM     35  O   UNL     1      12.772 -11.602  31.837  1.00  0.00    -0.387 OA
ATOM     36  H   UNL     1      13.591 -11.075  32.030  1.00  0.00     0.211 HD
ENDBRANCH  30  35
BRANCH  31  37
ATOM     37  C   UNL     1      10.893 -12.028  27.816  1.00  0.00     0.191 C 
BRANCH  37  38
ATOM     38  O   UNL     1      10.795 -13.431  27.885  1.00  0.00    -0.394 OA
ATOM     39  H   UNL     1      10.295 -13.652  28.716  1.00  0.00     0.210 HD
ENDBRANCH  37  38
ENDBRANCH  31  37
BRANCH  32  40
ATOM     40  O   UNL     1      10.528 -12.635  30.701  1.00  0.00    -0.387 OA
ATOM     41  H   UNL     1       9.576 -12.721  30.442  1.00  0.00     0.211 HD
ENDBRANCH  32  40
ENDBRANCH   1  27
TORSDOF 12
ENDMDL
MODEL 2
REMARK VINA RESULT:     4.899      5.878     10.218
REMARK INTER + INTRA:           9.203
REMARK INTER:                   8.325
REMARK INTRA:                   0.879
REMARK UNBOUND:                 2.013
REMARK SMILES O=c1c(O[C@H]2O[C@H](CO)[C@@H](O)[C@@H](O)[C@H]2O)c(-c2ccc(O)c(O)c2)oc2cc(O)cc(O)c12
REMARK SMILES IDX 4 1 3 2 16 3 25 4 2 5 26 6 1 7 33 8 27 9 31 10 28 11 30 12
REMARK SMILES IDX 17 13 18 14 19 15 20 16 24 17 22 18 21 19 23 21 32 23 29 25
REMARK SMILES IDX 5 27 14 28 6 29 12 30 7 31 10 32 15 33 13 35 8 37 9 38 11 40
REMARK H PARENT 21 20 23 22 32 24 29 26 15 34 13 36 9 39 11 41
REMARK Flexibility Score: inf
ROOT
ATOM      1  O   UNL     1      18.017  -2.284  25.934  1.00  0.00    -0.454 OA
ENDROOT
BRANCH   1   2
ATOM      2  C   UNL     1      16.968  -3.200  26.063  1.00  0.00     0.214 A 
ATOM      3  C   UNL     1      15.622  -2.777  26.165  1.00  0.00     0.180 A 
ATOM      4  O   UNL     1      14.653  -3.687  26.137  1.00  0.00    -0.452 OA
ATOM      5  C   UNL     1      17.252  -4.569  26.089  1.00  0.00     0.239 A 
ATOM      6  C   UNL     1      14.875  -4.993  26.075  1.00  0.00     0.146 A 
ATOM      7  O   UNL     1      18.453  -4.944  26.115  1.00  0.00    -0.285 OA
ATOM      8  C   UNL     1      16.196  -5.499  26.084  1.00  0.00     0.111 A 
ATOM      9  C   UNL     1      13.787  -5.866  26.008  1.00  0.00     0.094 A 
ATOM     10  C   UNL     1      16.400  -6.900  26.067  1.00  0.00     0.134 A 
ATOM     11  C   UNL     1      13.992  -7.251  25.956  1.00  0.00     0.123 A 
ATOM     12  C   UNL     1      15.296  -7.763  26.004  1.00  0.00     0.093 A 
BRANCH   3  13
ATOM     13  C   UNL     1      15.232  -1.353  26.349  1.00  0.00     0.025 A 
ATOM     14  C   UNL     1      15.291  -0.784  27.632  1.00  0.00     0.016 A 
ATOM     15  C   UNL     1      15.039   0.577  27.813  1.00  0.00     0.051 A 
ATOM     16  C   UNL     1      14.724   1.399  26.727  1.00  0.00     0.157 A 
ATOM     17  C   UNL     1      14.955  -0.517  25.249  1.00  0.00     0.062 A 
ATOM     18  C   UNL     1      14.692   0.847  25.425  1.00  0.00     0.158 A 
BRANCH  16  19
ATOM     19  O   UNL     1      14.457   2.749  26.985  1.00  0.00    -0.504 OA
ATOM     20  H   UNL     1      14.028   3.091  27.835  1.00  0.00     0.293 HD
ENDBRANCH  16  19
BRANCH  18  21
ATOM     21  O   UNL     1      14.412   1.615  24.292  1.00  0.00    -0.504 OA
ATOM     22  H   UNL     1      15.062   1.759  23.534  1.00  0.00     0.293 HD
ENDBRANCH  18  21
ENDBRANCH   3  13
BRANCH  10  23
ATOM     23  O   UNL     1      17.689  -7.439  26.109  1.00  0.00    -0.507 OA
ATOM     24  H   UNL     1      17.903  -8.256  26.665  1.00  0.00     0.293 HD
ENDBRANCH  10  23
BRANCH  11  25
ATOM     25  O   UNL     1      12.908  -8.125  25.847  1.00  0.00    -0.508 OA
ATOM     26  H   UNL     1      12.958  -8.966  25.278  1.00  0.00     0.293 HD
ENDBRANCH  11  25
ENDBRANCH   1   2
BRANCH   1  27
ATOM     27  C   UNL     1      18.260  -1.249  26.899  1.00  0.00     0.339 C 
ATOM     28  C   UNL     1      19.759  -0.932  27.015  1.00  0.00     0.214 C 
ATOM     29  O   UNL     1      17.730  -1.609  28.163  1.00  0.00    -0.332 OA
ATOM     30  C   UNL     1      20.525  -2.144  27.588  1.00  0.00     0.180 C 
ATOM     31  C   UNL     1      18.317  -2.801  28.668  1.00  0.00     0.179 C 
ATOM     32  C   UNL     1      19.843  -2.630  28.885  1.00  0.00     0.177 C 
BRANCH  28  33
ATOM     33  O   UNL     1      20.271  -0.550  25.766  1.00  0.00    -0.384 OA
ATOM     34  H   UNL     1      19.493  -0.315  25.199  1.00  0.00     0.211 HD
ENDBRANCH  28  33
BRANCH  30  35
ATOM     35  O   UNL     1      20.572  -3.199  26.657  1.00  0.00    -0.387 OA
ATOM     36  H   UNL     1      21.424  -3.685  26.812  1.00  0.00     0.211 HD
ENDBRANCH  30  35
BRANCH  31  37
ATOM     37  C   UNL     1      17.603  -3.154  29.984  1.00  0.00     0.191 C 
BRANCH  37  38
ATOM     38  O   UNL     1      17.034  -2.004  30.562  1.00  0.00    -0.394 OA
ATOM     39  H   UNL     1      16.049  -2.141  30.586  1.00  0.00     0.210 HD
ENDBRANCH  37  38
ENDBRANCH  31  37
BRANCH  32  40
ATOM     40  O   UNL     1      20.406  -3.851  29.292  1.00  0.00    -0.387 OA
ATOM     41  H   UNL     1      20.159  -3.974  30.243  1.00  0.00     0.211 HD
ENDBRANCH  32  40
ENDBRANCH   1  27
TORSDOF 12
ENDMDL
MODEL 3
REMARK VINA RESULT:     4.913      6.767     12.035
REMARK INTER + INTRA:           9.224
REMARK INTER:                   5.545
REMARK INTRA:                   3.678
REMARK UNBOUND:                 2.013
REMARK SMILES O=c1c(O[C@H]2O[C@H](CO)[C@@H](O)[C@@H](O)[C@H]2O)c(-c2ccc(O)c(O)c2)oc2cc(O)cc(O)c12
REMARK SMILES IDX 4 1 3 2 16 3 25 4 2 5 26 6 1 7 33 8 27 9 31 10 28 11 30 12
REMARK SMILES IDX 17 13 18 14 19 15 20 16 24 17 22 18 21 19 23 21 32 23 29 25
REMARK SMILES IDX 5 27 14 28 6 29 12 30 7 31 10 32 15 33 13 35 8 37 9 38 11 40
REMARK H PARENT 21 20 23 22 32 24 29 26 15 34 13 36 9 39 11 41
REMARK Flexibility Score: inf
ROOT
ATOM      1  O   UNL     1      15.788  -2.396  28.833  1.00  0.00    -0.454 OA
ENDROOT
BRANCH   1   2
ATOM      2  C   UNL     1      15.600  -1.608  27.693  1.00  0.00     0.214 A 
ATOM      3  C   UNL     1      15.425  -2.184  26.413  1.00  0.00     0.180 A 
ATOM      4  O   UNL     1      15.103  -1.399  25.389  1.00  0.00    -0.452 OA
ATOM      5  C   UNL     1      15.581  -0.216  27.818  1.00  0.00     0.239 A 
ATOM      6  C   UNL     1      14.990  -0.082  25.481  1.00  0.00     0.146 A 
ATOM      7  O   UNL     1      15.851   0.303  28.933  1.00  0.00    -0.285 OA
ATOM      8  C   UNL     1      15.261   0.579  26.702  1.00  0.00     0.111 A 
ATOM      9  C   UNL     1      14.605   0.649  24.355  1.00  0.00     0.094 A 
ATOM     10  C   UNL     1      15.178   1.992  26.757  1.00  0.00     0.134 A 
ATOM     11  C   UNL     1      14.491   2.044  24.420  1.00  0.00     0.123 A 
ATOM     12  C   UNL     1      14.796   2.711  25.614  1.00  0.00     0.093 A 
BRANCH   3  13
ATOM     13  C   UNL     1      15.628  -3.632  26.142  1.00  0.00     0.025 A 
ATOM     14  C   UNL     1      16.923  -4.172  26.217  1.00  0.00     0.016 A 
ATOM     15  C   UNL     1      17.126  -5.545  26.077  1.00  0.00     0.051 A 
ATOM     16  C   UNL     1      16.049  -6.410  25.862  1.00  0.00     0.157 A 
ATOM     17  C   UNL     1      14.539  -4.508  25.965  1.00  0.00     0.062 A 
ATOM     18  C   UNL     1      14.736  -5.887  25.815  1.00  0.00     0.158 A 
BRANCH  16  19
ATOM     19  O   UNL     1      16.328  -7.774  25.704  1.00  0.00    -0.504 OA
ATOM     20  H   UNL     1      16.458  -8.419  26.471  1.00  0.00     0.293 HD
ENDBRANCH  16  19
BRANCH  18  21
ATOM     21  O   UNL     1      13.612  -6.696  25.631  1.00  0.00    -0.504 OA
ATOM     22  H   UNL     1      12.815  -6.435  25.070  1.00  0.00     0.293 HD
ENDBRANCH  18  21
ENDBRANCH   3  13
BRANCH  10  23
ATOM     23  O   UNL     1      15.471   2.684  27.935  1.00  0.00    -0.507 OA
ATOM     24  H   UNL     1      15.933   3.583  27.921  1.00  0.00     0.293 HD
ENDBRANCH  10  23
BRANCH  11  25
ATOM     25  O   UNL     1      14.068   2.774  23.307  1.00  0.00    -0.508 OA
ATOM     26  H   UNL     1      14.370   3.733  23.154  1.00  0.00     0.293 HD
ENDBRANCH  11  25
ENDBRANCH   1   2
BRANCH   1  27
ATOM     27  C   UNL     1      16.880  -3.320  28.959  1.00  0.00     0.339 C 
ATOM     28  C   UNL     1      17.559  -3.201  30.333  1.00  0.00     0.214 C 
ATOM     29  O   UNL     1      17.824  -3.125  27.921  1.00  0.00    -0.332 OA
ATOM     30  C   UNL     1      18.237  -1.823  30.482  1.00  0.00     0.180 C 
ATOM     31  C   UNL     1      18.377  -1.816  27.942  1.00  0.00     0.179 C 
ATOM     32  C   UNL     1      19.144  -1.549  29.263  1.00  0.00     0.177 C 
BRANCH  28  33
ATOM     33  O   UNL     1      16.624  -3.423  31.355  1.00  0.00    -0.384 OA
ATOM     34  H   UNL     1      16.850  -4.296  31.765  1.00  0.00     0.211 HD
ENDBRANCH  28  33
BRANCH  30  35
ATOM     35  O   UNL     1      17.279  -0.797  30.596  1.00  0.00    -0.387 OA
ATOM     36  H   UNL     1      16.402  -1.235  30.752  1.00  0.00     0.211 HD
ENDBRANCH  30  35
BRANCH  31  37
ATOM     37  C   UNL     1      19.304  -1.679  26.722  1.00  0.00     0.191 C 
BRANCH  37  38
ATOM     38  O   UNL     1      19.358  -0.340  26.289  1.00  0.00    -0.394 OA
ATOM     39  H   UNL     1      19.590   0.217  27.080  1.00  0.00     0.210 HD
ENDBRANCH  37  38
ENDBRANCH  31  37
BRANCH  32  40
ATOM     40  O   UNL     1      19.595  -0.219  29.293  1.00  0.00    -0.387 OA
ATOM     41  H   UNL     1      18.908   0.324  28.828  1.00  0.00     0.211 HD
ENDBRANCH  32  40
ENDBRANCH   1  27
TORSDOF 12
ENDMDL
MODEL 4
REMARK VINA RESULT:     5.885      6.423      9.911
REMARK INTER + INTRA:          10.651
REMARK INTER:                   9.951
REMARK INTRA:                   0.699
REMARK UNBOUND:                 2.013
REMARK SMILES O=c1c(O[C@H]2O[C@H](CO)[C@@H](O)[C@@H](O)[C@H]2O)c(-c2ccc(O)c(O)c2)oc2cc(O)cc(O)c12
REMARK SMILES IDX 4 1 3 2 16 3 25 4 2 5 26 6 1 7 33 8 27 9 31 10 28 11 30 12
REMARK SMILES IDX 17 13 18 14 19 15 20 16 24 17 22 18 21 19 23 21 32 23 29 25
REMARK SMILES IDX 5 27 14 28 6 29 12 30 7 31 10 32 15 33 13 35 8 37 9 38 11 40
REMARK H PARENT 21 20 23 22 32 24 29 26 15 34 13 36 9 39 11 41
REMARK Flexibility Score: inf
ROOT
ATOM      1  O   UNL     1      16.690  -3.719  27.798  1.00  0.00    -0.454 OA
ENDROOT
BRANCH   1   2
ATOM      2  C   UNL     1      16.136  -4.213  26.613  1.00  0.00     0.214 A 
ATOM      3  C   UNL     1      15.620  -3.349  25.619  1.00  0.00     0.180 A 
ATOM      4  O   UNL     1      15.241  -3.860  24.451  1.00  0.00    -0.452 OA
ATOM      5  C   UNL     1      16.090  -5.594  26.401  1.00  0.00     0.239 A 
ATOM      6  C   UNL     1      15.263  -5.156  24.176  1.00  0.00     0.146 A 
ATOM      7  O   UNL     1      16.441  -6.368  27.330  1.00  0.00    -0.285 OA
ATOM      8  C   UNL     1      15.658  -6.094  25.158  1.00  0.00     0.111 A 
ATOM      9  C   UNL     1      14.883  -5.588  22.903  1.00  0.00     0.094 A 
ATOM     10  C   UNL     1      15.625  -7.475  24.850  1.00  0.00     0.134 A 
ATOM     11  C   UNL     1      14.883  -6.954  22.589  1.00  0.00     0.123 A 
ATOM     12  C   UNL     1      15.236  -7.892  23.568  1.00  0.00     0.093 A 
BRANCH   3  13
ATOM     13  C   UNL     1      15.437  -1.888  25.830  1.00  0.00     0.025 A 
ATOM     14  C   UNL     1      15.255  -1.050  24.717  1.00  0.00     0.016 A 
ATOM     15  C   UNL     1      14.970   0.305  24.892  1.00  0.00     0.051 A 
ATOM     16  C   UNL     1      14.860   0.855  26.173  1.00  0.00     0.157 A 
ATOM     17  C   UNL     1      15.285  -1.343  27.121  1.00  0.00     0.062 A 
ATOM     18  C   UNL     1      15.009   0.018  27.303  1.00  0.00     0.158 A 
BRANCH  16  19
ATOM     19  O   UNL     1      14.598   2.227  26.275  1.00  0.00    -0.504 OA
ATOM     20  H   UNL     1      14.757   2.892  25.531  1.00  0.00     0.293 HD
ENDBRANCH  16  19
BRANCH  18  21
ATOM     21  O   UNL     1      14.884   0.494  28.611  1.00  0.00    -0.504 OA
ATOM     22  H   UNL     1      15.144   1.426  28.899  1.00  0.00     0.293 HD
ENDBRANCH  18  21
ENDBRANCH   3  13
BRANCH  10  23
ATOM     23  O   UNL     1      15.975  -8.433  25.805  1.00  0.00    -0.507 OA
ATOM     24  H   UNL     1      16.891  -8.861  25.815  1.00  0.00     0.293 HD
ENDBRANCH  10  23
BRANCH  11  25
ATOM     25  O   UNL     1      14.543  -7.386  21.305  1.00  0.00    -0.508 OA
ATOM     26  H   UNL     1      14.779  -8.320  20.979  1.00  0.00     0.293 HD
ENDBRANCH  11  25
ENDBRANCH   1   2
BRANCH   1  27
ATOM     27  C   UNL     1      18.087  -3.839  28.105  1.00  0.00     0.339 C 
ATOM     28  C   UNL     1      18.444  -3.086  29.396  1.00  0.00     0.214 C 
ATOM     29  O   UNL     1      18.878  -3.375  27.026  1.00  0.00    -0.332 OA
ATOM     30  C   UNL     1      18.248  -1.566  29.207  1.00  0.00     0.180 C 
ATOM     31  C   UNL     1      18.629  -2.007  26.730  1.00  0.00     0.179 C 
ATOM     32  C   UNL     1      18.985  -1.097  27.934  1.00  0.00     0.177 C 
BRANCH  28  33
ATOM     33  O   UNL     1      17.676  -3.569  30.466  1.00  0.00    -0.384 OA
ATOM     34  H   UNL     1      18.057  -3.177  31.292  1.00  0.00     0.211 HD
ENDBRANCH  28  33
BRANCH  30  35
ATOM     35  O   UNL     1      16.882  -1.241  29.107  1.00  0.00    -0.387 OA
ATOM     36  H   UNL     1      16.824  -0.375  28.625  1.00  0.00     0.211 HD
ENDBRANCH  30  35
BRANCH  31  37
ATOM     37  C   UNL     1      19.457  -1.637  25.488  1.00  0.00     0.191 C 
BRANCH  37  38
ATOM     38  O   UNL     1      20.157  -0.435  25.700  1.00  0.00    -0.394 OA
ATOM     39  H   UNL     1      20.512  -0.139  24.819  1.00  0.00     0.210 HD
ENDBRANCH  37  38
ENDBRANCH  31  37
BRANCH  32  40
ATOM     40  O   UNL     1      18.638   0.233  27.645  1.00  0.00    -0.387 OA
ATOM     41  H   UNL     1      19.414   0.792  27.906  1.00  0.00     0.211 HD
ENDBRANCH  32  40
ENDBRANCH   1  27
TORSDOF 12
ENDMDL
MODEL 5
REMARK VINA RESULT:     6.192      1.427      6.142
REMARK INTER + INTRA:          11.101
REMARK INTER:                  10.132
REMARK INTRA:                   0.969
REMARK UNBOUND:                 2.013
REMARK SMILES O=c1c(O[C@H]2O[C@H](CO)[C@@H](O)[C@@H](O)[C@H]2O)c(-c2ccc(O)c(O)c2)oc2cc(O)cc(O)c12
REMARK SMILES IDX 4 1 3 2 16 3 25 4 2 5 26 6 1 7 33 8 27 9 31 10 28 11 30 12
REMARK SMILES IDX 17 13 18 14 19 15 20 16 24 17 22 18 21 19 23 21 32 23 29 25
REMARK SMILES IDX 5 27 14 28 6 29 12 30 7 31 10 32 15 33 13 35 8 37 9 38 11 40
REMARK H PARENT 21 20 23 22 32 24 29 26 15 34 13 36 9 39 11 41
REMARK Flexibility Score: inf
ROOT
ATOM      1  O   UNL     1      12.290 -11.707  27.355  1.00  0.00    -0.454 OA
ENDROOT
BRANCH   1   2
ATOM      2  C   UNL     1      13.374 -10.834  27.212  1.00  0.00     0.214 A 
ATOM      3  C   UNL     1      14.708 -11.274  27.380  1.00  0.00     0.180 A 
ATOM      4  O   UNL     1      15.705 -10.443  27.089  1.00  0.00    -0.452 OA
ATOM      5  C   UNL     1      13.137  -9.494  26.894  1.00  0.00     0.239 A 
ATOM      6  C   UNL     1      15.524  -9.189  26.700  1.00  0.00     0.146 A 
ATOM      7  O   UNL     1      11.951  -9.073  26.859  1.00  0.00    -0.285 OA
ATOM      8  C   UNL     1      14.223  -8.641  26.618  1.00  0.00     0.111 A 
ATOM      9  C   UNL     1      16.638  -8.409  26.377  1.00  0.00     0.094 A 
ATOM     10  C   UNL     1      14.065  -7.285  26.247  1.00  0.00     0.134 A 
ATOM     11  C   UNL     1      16.477  -7.076  25.977  1.00  0.00     0.123 A 
ATOM     12  C   UNL     1      15.195  -6.514  25.931  1.00  0.00     0.093 A 
BRANCH   3  13
ATOM     13  C   UNL     1      15.057 -12.618  27.912  1.00  0.00     0.025 A 
ATOM     14  C   UNL     1      14.939 -12.865  29.290  1.00  0.00     0.016 A 
ATOM     15  C   UNL     1      15.151 -14.147  29.800  1.00  0.00     0.051 A 
ATOM     16  C   UNL     1      15.485 -15.208  28.953  1.00  0.00     0.157 A 
ATOM     17  C   UNL     1      15.353 -13.696  27.054  1.00  0.00     0.062 A 
ATOM     18  C   UNL     1      15.577 -14.983  27.560  1.00  0.00     0.158 A 
BRANCH  16  19
ATOM     19  O   UNL     1      15.711 -16.462  29.535  1.00  0.00    -0.504 OA
ATOM     20  H   UNL     1      16.118 -17.249  29.049  1.00  0.00     0.293 HD
ENDBRANCH  16  19
BRANCH  18  21
ATOM     21  O   UNL     1      15.880 -16.003  26.654  1.00  0.00    -0.504 OA
ATOM     22  H   UNL     1      16.504 -15.893  25.869  1.00  0.00     0.293 HD
ENDBRANCH  18  21
ENDBRANCH   3  13
BRANCH  10  23
ATOM     23  O   UNL     1      12.798  -6.698  26.188  1.00  0.00    -0.507 OA
ATOM     24  H   UNL     1      12.233  -6.739  25.351  1.00  0.00     0.293 HD
ENDBRANCH  10  23
BRANCH  11  25
ATOM     25  O   UNL     1      17.585  -6.306  25.614  1.00  0.00    -0.508 OA
ATOM     26  H   UNL     1      17.978  -5.612  26.244  1.00  0.00     0.293 HD
ENDBRANCH  11  25
ENDBRANCH   1   2
BRANCH   1  27
ATOM     27  C   UNL     1      12.082 -12.489  28.541  1.00  0.00     0.339 C 
ATOM     28  C   UNL     1      10.595 -12.822  28.739  1.00  0.00     0.214 C 
ATOM     29  O   UNL     1      12.596 -11.821  29.679  1.00  0.00    -0.332 OA
ATOM     30  C   UNL     1       9.785 -11.536  29.011  1.00  0.00     0.180 C 
ATOM     31  C   UNL     1      11.966 -10.563  29.889  1.00  0.00     0.179 C 
ATOM     32  C   UNL     1      10.447 -10.731  30.150  1.00  0.00     0.177 C 
BRANCH  28  33
ATOM     33  O   UNL     1      10.100 -13.508  27.620  1.00  0.00    -0.384 OA
ATOM     34  H   UNL     1      10.854 -13.601  26.984  1.00  0.00     0.211 HD
ENDBRANCH  28  33
BRANCH  30  35
ATOM     35  O   UNL     1       9.703 -10.736  27.856  1.00  0.00    -0.387 OA
ATOM     36  H   UNL     1      10.601 -10.743  27.432  1.00  0.00     0.211 HD
ENDBRANCH  30  35
BRANCH  31  37
ATOM     37  C   UNL     1      12.664  -9.882  31.078  1.00  0.00     0.191 C 
BRANCH  37  38
ATOM     38  O   UNL     1      13.515 -10.789  31.739  1.00  0.00    -0.394 OA
ATOM     39  H   UNL     1      13.378 -11.681  31.321  1.00  0.00     0.210 HD
ENDBRANCH  37  38
ENDBRANCH  31  37
BRANCH  32  40
ATOM     40  O   UNL     1       9.840  -9.469  30.258  1.00  0.00    -0.387 OA
ATOM     41  H   UNL     1       9.436  -9.272  29.375  1.00  0.00     0.211 HD
ENDBRANCH  32  40
ENDBRANCH   1  27
TORSDOF 12
ENDMDL
