MODEL 1
REMARK VINA RESULT:    -4.852      0.000      0.000
REMARK INTER + INTRA:          -8.988
REMARK INTER:                  -7.689
REMARK INTRA:                  -1.299
REMARK UNBOUND:                -1.299
REMARK SMILES CCCCCCCCCCCC(=O)[O-]
REMARK SMILES IDX 7 1 8 2 9 3 10 4 11 5 12 6 13 7 14 8 6 9 5 10 4 11 3 12 2 13
REMARK SMILES IDX 1 14
REMARK H PARENT
REMARK Flexibility Score: inf
ROOT
ATOM      1  C   UNL     1       1.623   8.718  12.198  1.00  0.00     0.000 C 
ENDROOT
BRANCH   1   2
ATOM      2  C   UNL     1       1.110   9.042  10.784  1.00  0.00     0.000 C 
BRANCH   2   3
ATOM      3  C   UNL     1       2.251   9.231   9.771  1.00  0.00     0.000 C 
BRANCH   3   4
ATOM      4  C   UNL     1       2.071   8.375   8.508  1.00  0.00     0.006 C 
BRANCH   4   5
ATOM      5  C   UNL     1       2.735   7.004   8.677  1.00  0.00     0.053 C 
BRANCH   5   6
ATOM      6  C   UNL     1       2.732   6.258   7.381  1.00  0.00     0.041 C 
ATOM      7  O   UNL     1       1.897   6.548   6.485  1.00  0.00    -0.550 OA
ATOM      8  O   UNL     1       3.620   5.208   7.180  1.00  0.00    -0.550 OA
ENDBRANCH   5   6
ENDBRANCH   4   5
ENDBRANCH   3   4
ENDBRANCH   2   3
ENDBRANCH   1   2
BRANCH   1   9
ATOM      9  C   UNL     1       0.882   7.532  12.836  1.00  0.00     0.000 C 
BRANCH   9  10
ATOM     10  C   UNL     1       0.798   6.311  11.902  1.00  0.00    -0.000 C 
BRANCH  10  11
ATOM     11  C   UNL     1      -0.647   5.841  11.674  1.00  0.00    -0.000 C 
BRANCH  11  12
ATOM     12  C   UNL     1      -0.771   4.861  10.498  1.00  0.00    -0.000 C 
BRANCH  12  13
ATOM     13  C   UNL     1      -0.586   5.585   9.160  1.00  0.00    -0.003 C 
ATOM     14  C   UNL     1      -1.381   6.888   9.123  1.00  0.00     0.004 C 
ENDBRANCH  12  13
ENDBRANCH  11  12
ENDBRANCH  10  11
ENDBRANCH   9  10
ENDBRANCH   1   9
TORSDOF 10
ENDMDL
MODEL 2
REMARK VINA RESULT:    -4.758      3.815      6.904
REMARK INTER + INTRA:          -8.838
REMARK INTER:                  -7.415
REMARK INTRA:                  -1.423
REMARK UNBOUND:                -1.299
REMARK SMILES CCCCCCCCCCCC(=O)[O-]
REMARK SMILES IDX 7 1 8 2 9 3 10 4 11 5 12 6 13 7 14 8 6 9 5 10 4 11 3 12 2 13
REMARK SMILES IDX 1 14
REMARK H PARENT
REMARK Flexibility Score: inf
ROOT
ATOM      1  C   UNL     1       7.470   4.683   7.957  1.00  0.00     0.000 C 
ENDROOT
BRANCH   1   2
ATOM      2  C   UNL     1       6.062   4.214   7.552  1.00  0.00     0.000 C 
BRANCH   2   3
ATOM      3  C   UNL     1       4.952   5.088   8.157  1.00  0.00     0.000 C 
BRANCH   3   4
ATOM      4  C   UNL     1       3.702   5.160   7.268  1.00  0.00     0.006 C 
BRANCH   4   5
ATOM      5  C   UNL     1       2.565   5.900   7.981  1.00  0.00     0.053 C 
BRANCH   5   6
ATOM      6  C   UNL     1       2.327   7.232   7.344  1.00  0.00     0.041 C 
ATOM      7  O   UNL     1       2.050   8.234   8.055  1.00  0.00    -0.550 OA
ATOM      8  O   UNL     1       2.362   7.359   5.961  1.00  0.00    -0.550 OA
ENDBRANCH   5   6
ENDBRANCH   4   5
ENDBRANCH   3   4
ENDBRANCH   2   3
ENDBRANCH   1   2
BRANCH   1   9
ATOM      9  C   UNL     1       7.566   6.211   8.092  1.00  0.00     0.000 C 
BRANCH   9  10
ATOM     10  C   UNL     1       8.630   6.824   7.165  1.00  0.00    -0.000 C 
BRANCH  10  11
ATOM     11  C   UNL     1       8.021   7.746   6.096  1.00  0.00    -0.000 C 
BRANCH  11  12
ATOM     12  C   UNL     1       6.520   7.987   6.310  1.00  0.00    -0.000 C 
BRANCH  12  13
ATOM     13  C   UNL     1       5.731   7.700   5.028  1.00  0.00    -0.003 C 
ATOM     14  C   UNL     1       6.107   6.342   4.440  1.00  0.00     0.004 C 
ENDBRANCH  12  13
ENDBRANCH  11  12
ENDBRANCH  10  11
ENDBRANCH   9  10
ENDBRANCH   1   9
TORSDOF 10
ENDMDL
MODEL 3
REMARK VINA RESULT:    -4.662      1.096      1.860
REMARK INTER + INTRA:          -8.686
REMARK INTER:                  -7.419
REMARK INTRA:                  -1.267
REMARK UNBOUND:                -1.299
REMARK SMILES CCCCCCCCCCCC(=O)[O-]
REMARK SMILES IDX 7 1 8 2 9 3 10 4 11 5 12 6 13 7 14 8 6 9 5 10 4 11 3 12 2 13
REMARK SMILES IDX 1 14
REMARK H PARENT
REMARK Flexibility Score: inf
ROOT
ATOM      1  C   UNL     1       1.204   9.004  10.743  1.00  0.00     0.000 C 
ENDROOT
BRANCH   1   2
ATOM      2  C   UNL     1       2.440   8.814   9.848  1.00  0.00     0.000 C 
BRANCH   2   3
ATOM      3  C   UNL     1       2.219   7.755   8.755  1.00  0.00     0.000 C 
BRANCH   3   4
ATOM      4  C   UNL     1       3.418   6.808   8.596  1.00  0.00     0.006 C 
BRANCH   4   5
ATOM      5  C   UNL     1       3.039   5.375   8.987  1.00  0.00     0.053 C 
BRANCH   5   6
ATOM      6  C   UNL     1       3.578   4.400   7.989  1.00  0.00     0.041 C 
ATOM      7  O   UNL     1       4.818   4.192   7.914  1.00  0.00    -0.550 OA
ATOM      8  O   UNL     1       2.717   3.756   7.110  1.00  0.00    -0.550 OA
ENDBRANCH   5   6
ENDBRANCH   4   5
ENDBRANCH   3   4
ENDBRANCH   2   3
ENDBRANCH   1   2
BRANCH   1   9
ATOM      9  C   UNL     1       1.510   8.758  12.229  1.00  0.00     0.000 C 
BRANCH   9  10
ATOM     10  C   UNL     1       0.783   7.522  12.789  1.00  0.00    -0.000 C 
BRANCH  10  11
ATOM     11  C   UNL     1       0.795   6.337  11.811  1.00  0.00    -0.000 C 
BRANCH  11  12
ATOM     12  C   UNL     1      -0.619   5.872  11.430  1.00  0.00    -0.000 C 
BRANCH  12  13
ATOM     13  C   UNL     1      -0.710   5.568   9.930  1.00  0.00    -0.003 C 
ATOM     14  C   UNL     1      -1.304   6.747   9.164  1.00  0.00     0.004 C 
ENDBRANCH  12  13
ENDBRANCH  11  12
ENDBRANCH  10  11
ENDBRANCH   9  10
ENDBRANCH   1   9
TORSDOF 10
ENDMDL
MODEL 4
REMARK VINA RESULT:    -4.626      4.671      6.881
REMARK INTER + INTRA:          -8.629
REMARK INTER:                  -7.432
REMARK INTRA:                  -1.197
REMARK UNBOUND:                -1.299
REMARK SMILES CCCCCCCCCCCC(=O)[O-]
REMARK SMILES IDX 7 1 8 2 9 3 10 4 11 5 12 6 13 7 14 8 6 9 5 10 4 11 3 12 2 13
REMARK SMILES IDX 1 14
REMARK H PARENT
REMARK Flexibility Score: inf
ROOT
ATOM      1  C   UNL     1       7.742   7.802   5.533  1.00  0.00     0.000 C 
ENDROOT
BRANCH   1   2
ATOM      2  C   UNL     1       6.317   8.159   5.075  1.00  0.00     0.000 C 
BRANCH   2   3
ATOM      3  C   UNL     1       5.332   6.991   5.249  1.00  0.00     0.000 C 
BRANCH   3   4
ATOM      4  C   UNL     1       4.143   7.348   6.154  1.00  0.00     0.006 C 
BRANCH   4   5
ATOM      5  C   UNL     1       4.475   8.549   7.046  1.00  0.00     0.053 C 
BRANCH   5   6
ATOM      6  C   UNL     1       3.235   9.321   7.367  1.00  0.00     0.041 C 
ATOM      7  O   UNL     1       3.240  10.579   7.307  1.00  0.00    -0.550 OA
ATOM      8  O   UNL     1       2.087   8.656   7.778  1.00  0.00    -0.550 OA
ENDBRANCH   5   6
ENDBRANCH   4   5
ENDBRANCH   3   4
ENDBRANCH   2   3
ENDBRANCH   1   2
BRANCH   1   9
ATOM      9  C   UNL     1       7.839   7.600   7.054  1.00  0.00     0.000 C 
BRANCH   9  10
ATOM     10  C   UNL     1       8.947   6.609   7.453  1.00  0.00    -0.000 C 
BRANCH  10  11
ATOM     11  C   UNL     1       8.395   5.358   8.153  1.00  0.00    -0.000 C 
BRANCH  11  12
ATOM     12  C   UNL     1       6.867   5.390   8.303  1.00  0.00    -0.000 C 
BRANCH  12  13
ATOM     13  C   UNL     1       6.224   4.173   7.629  1.00  0.00    -0.003 C 
ATOM     14  C   UNL     1       4.706   4.191   7.788  1.00  0.00     0.004 C 
ENDBRANCH  12  13
ENDBRANCH  11  12
ENDBRANCH  10  11
ENDBRANCH   9  10
ENDBRANCH   1   9
TORSDOF 10
ENDMDL
MODEL 5
REMARK VINA RESULT:    -4.593      3.878      6.854
REMARK INTER + INTRA:          -8.578
REMARK INTER:                  -7.234
REMARK INTRA:                  -1.343
REMARK UNBOUND:                -1.299
REMARK SMILES CCCCCCCCCCCC(=O)[O-]
REMARK SMILES IDX 7 1 8 2 9 3 10 4 11 5 12 6 13 7 14 8 6 9 5 10 4 11 3 12 2 13
REMARK SMILES IDX 1 14
REMARK H PARENT
REMARK Flexibility Score: inf
ROOT
ATOM      1  C   UNL     1       6.099   4.419   7.277  1.00  0.00     0.000 C 
ENDROOT
BRANCH   1   2
ATOM      2  C   UNL     1       4.768   4.017   7.934  1.00  0.00     0.000 C 
BRANCH   2   3
ATOM      3  C   UNL     1       3.923   5.233   8.346  1.00  0.00     0.000 C 
BRANCH   3   4
ATOM      4  C   UNL     1       3.960   6.362   7.306  1.00  0.00     0.006 C 
BRANCH   4   5
ATOM      5  C   UNL     1       3.978   7.734   7.989  1.00  0.00     0.053 C 
BRANCH   5   6
ATOM      6  C   UNL     1       2.629   8.377   7.907  1.00  0.00     0.041 C 
ATOM      7  O   UNL     1       2.418   9.302   7.080  1.00  0.00    -0.550 OA
ATOM      8  O   UNL     1       1.619   7.987   8.778  1.00  0.00    -0.550 OA
ENDBRANCH   5   6
ENDBRANCH   4   5
ENDBRANCH   3   4
ENDBRANCH   2   3
ENDBRANCH   1   2
BRANCH   1   9
ATOM      9  C   UNL     1       7.265   4.447   8.278  1.00  0.00     0.000 C 
BRANCH   9  10
ATOM     10  C   UNL     1       8.267   5.581   7.992  1.00  0.00    -0.000 C 
BRANCH  10  11
ATOM     11  C   UNL     1       7.574   6.897   7.608  1.00  0.00    -0.000 C 
BRANCH  11  12
ATOM     12  C   UNL     1       8.117   7.491   6.300  1.00  0.00    -0.000 C 
BRANCH  12  13
ATOM     13  C   UNL     1       6.979   8.048   5.438  1.00  0.00    -0.003 C 
ATOM     14  C   UNL     1       6.334   6.949   4.597  1.00  0.00     0.004 C 
ENDBRANCH  12  13
ENDBRANCH  11  12
ENDBRANCH  10  11
ENDBRANCH   9  10
ENDBRANCH   1   9
TORSDOF 10
ENDMDL
MODEL 6
REMARK VINA RESULT:    -4.574      1.407      3.355
REMARK INTER + INTRA:          -8.547
REMARK INTER:                  -7.212
REMARK INTRA:                  -1.334
REMARK UNBOUND:                -1.299
REMARK SMILES CCCCCCCCCCCC(=O)[O-]
REMARK SMILES IDX 7 1 8 2 9 3 10 4 11 5 12 6 13 7 14 8 6 9 5 10 4 11 3 12 2 13
REMARK SMILES IDX 1 14
REMARK H PARENT
REMARK Flexibility Score: inf
ROOT
ATOM      1  C   UNL     1      -0.878   5.280   9.985  1.00  0.00     0.000 C 
ENDROOT
BRANCH   1   2
ATOM      2  C   UNL     1       0.531   4.895   9.502  1.00  0.00     0.000 C 
BRANCH   2   3
ATOM      3  C   UNL     1       1.041   5.813   8.380  1.00  0.00     0.000 C 
BRANCH   3   4
ATOM      4  C   UNL     1       2.520   6.192   8.549  1.00  0.00     0.006 C 
BRANCH   4   5
ATOM      5  C   UNL     1       3.345   4.986   9.012  1.00  0.00     0.053 C 
BRANCH   5   6
ATOM      6  C   UNL     1       3.825   4.198   7.835  1.00  0.00     0.041 C 
ATOM      7  O   UNL     1       3.125   3.260   7.372  1.00  0.00    -0.550 OA
ATOM      8  O   UNL     1       5.069   4.468   7.278  1.00  0.00    -0.550 OA
ENDBRANCH   5   6
ENDBRANCH   4   5
ENDBRANCH   3   4
ENDBRANCH   2   3
ENDBRANCH   1   2
BRANCH   1   9
ATOM      9  C   UNL     1      -0.914   5.623  11.483  1.00  0.00     0.000 C 
BRANCH   9  10
ATOM     10  C   UNL     1       0.483   5.910  12.062  1.00  0.00    -0.000 C 
BRANCH  10  11
ATOM     11  C   UNL     1       0.584   7.305  12.698  1.00  0.00    -0.000 C 
BRANCH  11  12
ATOM     12  C   UNL     1       1.632   8.193  12.013  1.00  0.00    -0.000 C 
BRANCH  12  13
ATOM     13  C   UNL     1       1.048   8.867  10.766  1.00  0.00    -0.003 C 
ATOM     14  C   UNL     1       2.125   9.623   9.992  1.00  0.00     0.004 C 
ENDBRANCH  12  13
ENDBRANCH  11  12
ENDBRANCH  10  11
ENDBRANCH   9  10
ENDBRANCH   1   9
TORSDOF 10
ENDMDL
MODEL 7
REMARK VINA RESULT:    -4.573      2.866      4.071
REMARK INTER + INTRA:          -8.545
REMARK INTER:                  -6.990
REMARK INTRA:                  -1.556
REMARK UNBOUND:                -1.299
REMARK SMILES CCCCCCCCCCCC(=O)[O-]
REMARK SMILES IDX 7 1 8 2 9 3 10 4 11 5 12 6 13 7 14 8 6 9 5 10 4 11 3 12 2 13
REMARK SMILES IDX 1 14
REMARK H PARENT
REMARK Flexibility Score: inf
ROOT
ATOM      1  C   UNL     1       3.703   6.812   9.259  1.00  0.00     0.000 C 
ENDROOT
BRANCH   1   2
ATOM      2  C   UNL     1       3.425   8.095   8.458  1.00  0.00     0.000 C 
BRANCH   2   3
ATOM      3  C   UNL     1       2.178   8.844   8.957  1.00  0.00     0.000 C 
BRANCH   3   4
ATOM      4  C   UNL     1       2.289   9.264  10.431  1.00  0.00     0.006 C 
BRANCH   4   5
ATOM      5  C   UNL     1       1.032   8.863  11.210  1.00  0.00     0.053 C 
BRANCH   5   6
ATOM      6  C   UNL     1       1.399   8.341  12.563  1.00  0.00     0.041 C 
ATOM      7  O   UNL     1       2.302   8.905  13.235  1.00  0.00    -0.550 OA
ATOM      8  O   UNL     1       0.777   7.204  13.062  1.00  0.00    -0.550 OA
ENDBRANCH   5   6
ENDBRANCH   4   5
ENDBRANCH   3   4
ENDBRANCH   2   3
ENDBRANCH   1   2
BRANCH   1   9
ATOM      9  C   UNL     1       3.516   5.539   8.418  1.00  0.00     0.000 C 
BRANCH   9  10
ATOM     10  C   UNL     1       2.404   4.625   8.961  1.00  0.00    -0.000 C 
BRANCH  10  11
ATOM     11  C   UNL     1       1.789   5.155  10.266  1.00  0.00    -0.000 C 
BRANCH  11  12
ATOM     12  C   UNL     1       0.264   5.307  10.181  1.00  0.00    -0.000 C 
BRANCH  12  13
ATOM     13  C   UNL     1      -0.146   5.998   8.875  1.00  0.00    -0.003 C 
ATOM     14  C   UNL     1      -1.348   6.913   9.087  1.00  0.00     0.004 C 
ENDBRANCH  12  13
ENDBRANCH  11  12
ENDBRANCH  10  11
ENDBRANCH   9  10
ENDBRANCH   1   9
TORSDOF 10
ENDMDL
MODEL 8
REMARK VINA RESULT:    -4.560      3.713      5.761
REMARK INTER + INTRA:          -8.525
REMARK INTER:                  -6.943
REMARK INTRA:                  -1.582
REMARK UNBOUND:                -1.299
REMARK SMILES CCCCCCCCCCCC(=O)[O-]
REMARK SMILES IDX 7 1 8 2 9 3 10 4 11 5 12 6 13 7 14 8 6 9 5 10 4 11 3 12 2 13
REMARK SMILES IDX 1 14
REMARK H PARENT
REMARK Flexibility Score: inf
ROOT
ATOM      1  C   UNL     1       3.565   5.869   9.287  1.00  0.00     0.000 C 
ENDROOT
BRANCH   1   2
ATOM      2  C   UNL     1       3.627   7.390   9.068  1.00  0.00     0.000 C 
BRANCH   2   3
ATOM      3  C   UNL     1       4.828   7.815   8.207  1.00  0.00     0.000 C 
BRANCH   3   4
ATOM      4  C   UNL     1       4.408   8.456   6.876  1.00  0.00     0.006 C 
BRANCH   4   5
ATOM      5  C   UNL     1       4.445   7.430   5.739  1.00  0.00     0.053 C 
BRANCH   5   6
ATOM      6  C   UNL     1       5.737   7.522   4.992  1.00  0.00     0.041 C 
ATOM      7  O   UNL     1       6.141   6.549   4.303  1.00  0.00    -0.550 OA
ATOM      8  O   UNL     1       6.521   8.664   5.095  1.00  0.00    -0.550 OA
ENDBRANCH   5   6
ENDBRANCH   4   5
ENDBRANCH   3   4
ENDBRANCH   2   3
ENDBRANCH   1   2
BRANCH   1   9
ATOM      9  C   UNL     1       2.858   5.136   8.136  1.00  0.00     0.000 C 
BRANCH   9  10
ATOM     10  C   UNL     1       3.824   4.290   7.287  1.00  0.00    -0.000 C 
BRANCH  10  11
ATOM     11  C   UNL     1       5.154   4.014   8.005  1.00  0.00    -0.000 C 
BRANCH  11  12
ATOM     12  C   UNL     1       6.368   4.525   7.216  1.00  0.00    -0.000 C 
BRANCH  12  13
ATOM     13  C   UNL     1       7.464   5.028   8.163  1.00  0.00    -0.003 C 
ATOM     14  C   UNL     1       8.117   6.299   7.626  1.00  0.00     0.004 C 
ENDBRANCH  12  13
ENDBRANCH  11  12
ENDBRANCH  10  11
ENDBRANCH   9  10
ENDBRANCH   1   9
TORSDOF 10
ENDMDL
MODEL 9
REMARK VINA RESULT:    -4.513      3.551      6.610
REMARK INTER + INTRA:          -8.450
REMARK INTER:                  -7.242
REMARK INTRA:                  -1.208
REMARK UNBOUND:                -1.299
REMARK SMILES CCCCCCCCCCCC(=O)[O-]
REMARK SMILES IDX 7 1 8 2 9 3 10 4 11 5 12 6 13 7 14 8 6 9 5 10 4 11 3 12 2 13
REMARK SMILES IDX 1 14
REMARK H PARENT
REMARK Flexibility Score: inf
ROOT
ATOM      1  C   UNL     1       5.473   4.003   8.062  1.00  0.00     0.000 C 
ENDROOT
BRANCH   1   2
ATOM      2  C   UNL     1       4.316   4.624   7.261  1.00  0.00     0.000 C 
BRANCH   2   3
ATOM      3  C   UNL     1       3.532   5.669   8.071  1.00  0.00     0.000 C 
BRANCH   3   4
ATOM      4  C   UNL     1       2.943   5.095   9.368  1.00  0.00     0.006 C 
BRANCH   4   5
ATOM      5  C   UNL     1       1.576   4.452   9.111  1.00  0.00     0.053 C 
BRANCH   5   6
ATOM      6  C   UNL     1       0.477   5.428   9.385  1.00  0.00     0.041 C 
ATOM      7  O   UNL     1       0.063   5.602  10.561  1.00  0.00    -0.550 OA
ATOM      8  O   UNL     1      -0.123   6.113   8.336  1.00  0.00    -0.550 OA
ENDBRANCH   5   6
ENDBRANCH   4   5
ENDBRANCH   3   4
ENDBRANCH   2   3
ENDBRANCH   1   2
BRANCH   1   9
ATOM      9  C   UNL     1       6.851   4.380   7.496  1.00  0.00     0.000 C 
BRANCH   9  10
ATOM     10  C   UNL     1       7.376   5.717   8.048  1.00  0.00    -0.000 C 
BRANCH  10  11
ATOM     11  C   UNL     1       7.547   6.782   6.953  1.00  0.00    -0.000 C 
BRANCH  11  12
ATOM     12  C   UNL     1       6.395   7.796   6.930  1.00  0.00    -0.000 C 
BRANCH  12  13
ATOM     13  C   UNL     1       5.769   7.882   5.533  1.00  0.00    -0.003 C 
ATOM     14  C   UNL     1       6.153   6.675   4.681  1.00  0.00     0.004 C 
ENDBRANCH  12  13
ENDBRANCH  11  12
ENDBRANCH  10  11
ENDBRANCH   9  10
ENDBRANCH   1   9
TORSDOF 10
ENDMDL
