MODEL 1
REMARK VINA RESULT:     4.753      0.000      0.000
REMARK INTER + INTRA:           4.753
REMARK INTER:                   4.753
REMARK INTRA:                   0.000
REMARK UNBOUND:                 0.000
REMARK SMILES CC1(C)O[C@]2(C)CC[C@H]1CC2
REMARK SMILES IDX 1 1 2 2 9 3 10 4 11 5 5 6 4 7 7 8 8 9 6 10 3 11
REMARK H PARENT
REMARK Flexibility Score: inf
ROOT
ATOM      1  C   UNL     1       3.151 -14.318  15.200  1.00  0.00     0.042 C 
ATOM      2  C   UNL     1       1.767 -13.878  14.675  1.00  0.00     0.066 C 
ATOM      3  C   UNL     1       0.621 -14.381  15.634  1.00  0.00     0.021 C 
ATOM      4  C   UNL     1       0.808 -13.710  17.016  1.00  0.00     0.009 C 
ATOM      5  C   UNL     1       0.937 -12.180  16.824  1.00  0.00     0.035 C 
ATOM      6  C   UNL     1       0.745 -11.818  15.323  1.00  0.00     0.066 C 
ATOM      7  O   UNL     1       1.770 -12.447  14.553  1.00  0.00    -0.369 OA
ATOM      8  C   UNL     1      -0.642 -12.342  14.850  1.00  0.00     0.035 C 
ATOM      9  C   UNL     1      -0.734 -13.869  15.089  1.00  0.00     0.009 C 
ATOM     10  C   UNL     1       0.837 -10.301  15.123  1.00  0.00     0.042 C 
ATOM     11  C   UNL     1       1.600 -14.478  13.262  1.00  0.00     0.042 C 
ENDROOT
TORSDOF 0
ENDMDL
MODEL 2
REMARK VINA RESULT:     4.846      0.831      3.313
REMARK INTER + INTRA:           4.846
REMARK INTER:                   4.846
REMARK INTRA:                   0.000
REMARK UNBOUND:                 0.000
REMARK SMILES CC1(C)O[C@]2(C)CC[C@H]1CC2
REMARK SMILES IDX 1 1 2 2 9 3 10 4 11 5 5 6 4 7 7 8 8 9 6 10 3 11
REMARK H PARENT
REMARK Flexibility Score: inf
ROOT
ATOM      1  C   UNL     1      -1.035 -11.783  14.881  1.00  0.00     0.042 C 
ATOM      2  C   UNL     1       0.470 -12.026  15.131  1.00  0.00     0.066 C 
ATOM      3  C   UNL     1       0.686 -12.891  16.433  1.00  0.00     0.021 C 
ATOM      4  C   UNL     1       0.039 -14.279  16.213  1.00  0.00     0.009 C 
ATOM      5  C   UNL     1       0.560 -14.876  14.883  1.00  0.00     0.035 C 
ATOM      6  C   UNL     1       1.624 -13.927  14.259  1.00  0.00     0.066 C 
ATOM      7  O   UNL     1       1.017 -12.667  13.969  1.00  0.00    -0.369 OA
ATOM      8  C   UNL     1       2.775 -13.715  15.285  1.00  0.00     0.035 C 
ATOM      9  C   UNL     1       2.202 -13.146  16.605  1.00  0.00     0.009 C 
ATOM     10  C   UNL     1       2.173 -14.523  12.958  1.00  0.00     0.042 C 
ATOM     11  C   UNL     1       1.141 -10.643  15.276  1.00  0.00     0.042 C 
ENDROOT
TORSDOF 0
ENDMDL
MODEL 3
REMARK VINA RESULT:     6.333      1.167      2.036
REMARK INTER + INTRA:           6.333
REMARK INTER:                   6.333
REMARK INTRA:                   0.000
REMARK UNBOUND:                 0.000
REMARK SMILES CC1(C)O[C@]2(C)CC[C@H]1CC2
REMARK SMILES IDX 1 1 2 2 9 3 10 4 11 5 5 6 4 7 7 8 8 9 6 10 3 11
REMARK H PARENT
REMARK Flexibility Score: inf
ROOT
ATOM      1  C   UNL     1       3.022 -15.124  16.726  1.00  0.00     0.042 C 
ATOM      2  C   UNL     1       2.835 -14.385  15.383  1.00  0.00     0.066 C 
ATOM      3  C   UNL     1       1.773 -15.125  14.482  1.00  0.00     0.021 C 
ATOM      4  C   UNL     1       0.405 -15.088  15.205  1.00  0.00     0.009 C 
ATOM      5  C   UNL     1       0.084 -13.629  15.609  1.00  0.00     0.035 C 
ATOM      6  C   UNL     1       1.194 -12.677  15.075  1.00  0.00     0.066 C 
ATOM      7  O   UNL     1       2.443 -13.034  15.667  1.00  0.00    -0.369 OA
ATOM      8  C   UNL     1       1.297 -12.837  13.531  1.00  0.00     0.035 C 
ATOM      9  C   UNL     1       1.589 -14.315  13.176  1.00  0.00     0.009 C 
ATOM     10  C   UNL     1       0.871 -11.223  15.439  1.00  0.00     0.042 C 
ATOM     11  C   UNL     1       4.212 -14.348  14.685  1.00  0.00     0.042 C 
ENDROOT
TORSDOF 0
ENDMDL
