MODEL 1
REMARK VINA RESULT:     5.818      0.000      0.000
REMARK INTER + INTRA:          11.021
REMARK INTER:                  10.580
REMARK INTRA:                   0.441
REMARK UNBOUND:                 0.441
REMARK SMILES CCCCCCCCCCCCCCCC(=O)[O-]
REMARK SMILES IDX 9 1 10 2 11 3 12 4 13 5 14 6 15 7 16 8 17 9 18 10 8 11 7 12
REMARK SMILES IDX 6 13 5 14 4 15 3 16 2 17 1 18
REMARK H PARENT
REMARK Flexibility Score: inf
ROOT
ATOM      1  C   UNL     1      37.644 -11.588 -21.410  1.00  0.00     0.000 C 
ENDROOT
BRANCH   1   2
ATOM      2  C   UNL     1      36.471 -10.620 -21.167  1.00  0.00     0.000 C 
BRANCH   2   3
ATOM      3  C   UNL     1      36.882  -9.369 -20.376  1.00  0.00     0.000 C 
BRANCH   3   4
ATOM      4  C   UNL     1      37.790  -9.738 -19.198  1.00  0.00     0.000 C 
BRANCH   4   5
ATOM      5  C   UNL     1      39.138  -9.006 -19.292  1.00  0.00     0.000 C 
BRANCH   5   6
ATOM      6  C   UNL     1      39.923  -9.038 -17.971  1.00  0.00     0.006 C 
BRANCH   6   7
ATOM      7  C   UNL     1      41.312  -8.400 -18.095  1.00  0.00     0.053 C 
BRANCH   7   8
ATOM      8  C   UNL     1      42.359  -9.319 -17.546  1.00  0.00     0.041 C 
ATOM      9  O   UNL     1      43.293  -8.862 -16.836  1.00  0.00    -0.550 OA
ATOM     10  O   UNL     1      42.332 -10.671 -17.861  1.00  0.00    -0.550 OA
ENDBRANCH   7   8
ENDBRANCH   6   7
ENDBRANCH   5   6
ENDBRANCH   4   5
ENDBRANCH   3   4
ENDBRANCH   2   3
ENDBRANCH   1   2
BRANCH   1  11
ATOM     11  C   UNL     1      37.470 -12.988 -20.789  1.00  0.00     0.000 C 
BRANCH  11  12
ATOM     12  C   UNL     1      36.384 -13.091 -19.702  1.00  0.00    -0.000 C 
BRANCH  12  13
ATOM     13  C   UNL     1      36.371 -14.445 -18.961  1.00  0.00    -0.000 C 
BRANCH  13  14
ATOM     14  C   UNL     1      36.637 -15.636 -19.897  1.00  0.00    -0.000 C 
BRANCH  14  15
ATOM     15  C   UNL     1      37.878 -15.412 -20.787  1.00  0.00    -0.000 C 
BRANCH  15  16
ATOM     16  C   UNL     1      37.842 -16.201 -22.107  1.00  0.00    -0.000 C 
BRANCH  16  17
ATOM     17  C   UNL     1      36.518 -16.036 -22.864  1.00  0.00    -0.003 C 
ATOM     18  C   UNL     1      36.494 -16.897 -24.124  1.00  0.00     0.004 C 
ENDBRANCH  16  17
ENDBRANCH  15  16
ENDBRANCH  14  15
ENDBRANCH  13  14
ENDBRANCH  12  13
ENDBRANCH  11  12
ENDBRANCH   1  11
TORSDOF 14
ENDMDL
MODEL 2
REMARK VINA RESULT:     6.033      3.298      7.429
REMARK INTER + INTRA:          11.413
REMARK INTER:                  10.543
REMARK INTRA:                   0.869
REMARK UNBOUND:                 0.441
REMARK SMILES CCCCCCCCCCCCCCCC(=O)[O-]
REMARK SMILES IDX 9 1 10 2 11 3 12 4 13 5 14 6 15 7 16 8 17 9 18 10 8 11 7 12
REMARK SMILES IDX 6 13 5 14 4 15 3 16 2 17 1 18
REMARK H PARENT
REMARK Flexibility Score: inf
ROOT
ATOM      1  C   UNL     1      36.184 -10.660 -21.046  1.00  0.00     0.000 C 
ENDROOT
BRANCH   1   2
ATOM      2  C   UNL     1      37.277 -11.613 -21.566  1.00  0.00     0.000 C 
BRANCH   2   3
ATOM      3  C   UNL     1      37.430 -12.874 -20.703  1.00  0.00     0.000 C 
BRANCH   3   4
ATOM      4  C   UNL     1      36.484 -12.833 -19.497  1.00  0.00     0.000 C 
BRANCH   4   5
ATOM      5  C   UNL     1      36.331 -14.228 -18.871  1.00  0.00     0.000 C 
BRANCH   5   6
ATOM      6  C   UNL     1      36.484 -15.359 -19.900  1.00  0.00     0.006 C 
BRANCH   6   7
ATOM      7  C   UNL     1      37.778 -15.242 -20.717  1.00  0.00     0.053 C 
BRANCH   7   8
ATOM      8  C   UNL     1      37.719 -16.132 -21.918  1.00  0.00     0.041 C 
ATOM      9  O   UNL     1      38.694 -16.876 -22.203  1.00  0.00    -0.550 OA
ATOM     10  O   UNL     1      36.608 -16.104 -22.752  1.00  0.00    -0.550 OA
ENDBRANCH   7   8
ENDBRANCH   6   7
ENDBRANCH   5   6
ENDBRANCH   4   5
ENDBRANCH   3   4
ENDBRANCH   2   3
ENDBRANCH   1   2
BRANCH   1  11
ATOM     11  C   UNL     1      36.705  -9.344 -20.436  1.00  0.00     0.000 C 
BRANCH  11  12
ATOM     12  C   UNL     1      37.599  -9.508 -19.193  1.00  0.00    -0.000 C 
BRANCH  12  13
ATOM     13  C   UNL     1      39.091  -9.211 -19.455  1.00  0.00    -0.000 C 
BRANCH  13  14
ATOM     14  C   UNL     1      39.895  -9.026 -18.156  1.00  0.00    -0.000 C 
BRANCH  14  15
ATOM     15  C   UNL     1      41.080  -8.053 -18.337  1.00  0.00    -0.000 C 
BRANCH  15  16
ATOM     16  C   UNL     1      42.233  -8.294 -17.347  1.00  0.00    -0.000 C 
BRANCH  16  17
ATOM     17  C   UNL     1      42.404  -9.774 -16.981  1.00  0.00    -0.003 C 
ATOM     18  C   UNL     1      42.869 -10.588 -18.185  1.00  0.00     0.004 C 
ENDBRANCH  16  17
ENDBRANCH  15  16
ENDBRANCH  14  15
ENDBRANCH  13  14
ENDBRANCH  12  13
ENDBRANCH  11  12
ENDBRANCH   1  11
TORSDOF 14
ENDMDL
MODEL 3
REMARK VINA RESULT:     6.344      1.338      2.721
REMARK INTER + INTRA:          11.978
REMARK INTER:                  12.310
REMARK INTRA:                  -0.332
REMARK UNBOUND:                 0.441
REMARK SMILES CCCCCCCCCCCCCCCC(=O)[O-]
REMARK SMILES IDX 9 1 10 2 11 3 12 4 13 5 14 6 15 7 16 8 17 9 18 10 8 11 7 12
REMARK SMILES IDX 6 13 5 14 4 15 3 16 2 17 1 18
REMARK H PARENT
REMARK Flexibility Score: inf
ROOT
ATOM      1  C   UNL     1      36.428 -10.498 -21.286  1.00  0.00     0.000 C 
ENDROOT
BRANCH   1   2
ATOM      2  C   UNL     1      36.863  -9.341 -20.366  1.00  0.00     0.000 C 
BRANCH   2   3
ATOM      3  C   UNL     1      37.720  -9.809 -19.180  1.00  0.00     0.000 C 
BRANCH   3   4
ATOM      4  C   UNL     1      39.184  -9.393 -19.363  1.00  0.00     0.000 C 
BRANCH   4   5
ATOM      5  C   UNL     1      39.767  -8.846 -18.051  1.00  0.00     0.000 C 
BRANCH   5   6
ATOM      6  C   UNL     1      41.103  -8.114 -18.256  1.00  0.00     0.006 C 
BRANCH   6   7
ATOM      7  C   UNL     1      42.209  -8.631 -17.327  1.00  0.00     0.053 C 
BRANCH   7   8
ATOM      8  C   UNL     1      42.646  -9.999 -17.745  1.00  0.00     0.041 C 
ATOM      9  O   UNL     1      41.933 -11.002 -17.476  1.00  0.00    -0.550 OA
ATOM     10  O   UNL     1      43.865 -10.174 -18.388  1.00  0.00    -0.550 OA
ENDBRANCH   7   8
ENDBRANCH   6   7
ENDBRANCH   5   6
ENDBRANCH   4   5
ENDBRANCH   3   4
ENDBRANCH   2   3
ENDBRANCH   1   2
BRANCH   1  11
ATOM     11  C   UNL     1      36.926 -11.891 -20.858  1.00  0.00     0.000 C 
BRANCH  11  12
ATOM     12  C   UNL     1      38.031 -12.492 -21.746  1.00  0.00    -0.000 C 
BRANCH  12  13
ATOM     13  C   UNL     1      37.802 -13.975 -22.109  1.00  0.00    -0.000 C 
BRANCH  13  14
ATOM     14  C   UNL     1      38.103 -14.925 -20.936  1.00  0.00    -0.000 C 
BRANCH  14  15
ATOM     15  C   UNL     1      36.929 -15.883 -20.645  1.00  0.00    -0.000 C 
BRANCH  15  16
ATOM     16  C   UNL     1      36.163 -15.546 -19.354  1.00  0.00    -0.000 C 
BRANCH  16  17
ATOM     17  C   UNL     1      36.060 -14.037 -19.099  1.00  0.00    -0.003 C 
ATOM     18  C   UNL     1      36.103 -13.728 -17.605  1.00  0.00     0.004 C 
ENDBRANCH  16  17
ENDBRANCH  15  16
ENDBRANCH  14  15
ENDBRANCH  13  14
ENDBRANCH  12  13
ENDBRANCH  11  12
ENDBRANCH   1  11
TORSDOF 14
ENDMDL
MODEL 4
REMARK VINA RESULT:     7.101      2.841      7.223
REMARK INTER + INTRA:          13.354
REMARK INTER:                  13.720
REMARK INTRA:                  -0.367
REMARK UNBOUND:                 0.441
REMARK SMILES CCCCCCCCCCCCCCCC(=O)[O-]
REMARK SMILES IDX 9 1 10 2 11 3 12 4 13 5 14 6 15 7 16 8 17 9 18 10 8 11 7 12
REMARK SMILES IDX 6 13 5 14 4 15 3 16 2 17 1 18
REMARK H PARENT
REMARK Flexibility Score: inf
ROOT
ATOM      1  C   UNL     1      36.712 -11.641 -20.826  1.00  0.00     0.000 C 
ENDROOT
BRANCH   1   2
ATOM      2  C   UNL     1      37.891 -11.874 -21.789  1.00  0.00     0.000 C 
BRANCH   2   3
ATOM      3  C   UNL     1      37.705 -13.116 -22.673  1.00  0.00     0.000 C 
BRANCH   3   4
ATOM      4  C   UNL     1      38.549 -14.288 -22.159  1.00  0.00     0.000 C 
BRANCH   4   5
ATOM      5  C   UNL     1      37.730 -15.588 -22.137  1.00  0.00     0.000 C 
BRANCH   5   6
ATOM      6  C   UNL     1      36.946 -15.772 -20.828  1.00  0.00     0.006 C 
BRANCH   6   7
ATOM      7  C   UNL     1      37.216 -14.651 -19.816  1.00  0.00     0.053 C 
BRANCH   7   8
ATOM      8  C   UNL     1      36.136 -14.611 -18.781  1.00  0.00     0.041 C 
ATOM      9  O   UNL     1      35.984 -13.587 -18.063  1.00  0.00    -0.550 OA
ATOM     10  O   UNL     1      35.330 -15.723 -18.573  1.00  0.00    -0.550 OA
ENDBRANCH   7   8
ENDBRANCH   6   7
ENDBRANCH   5   6
ENDBRANCH   4   5
ENDBRANCH   3   4
ENDBRANCH   2   3
ENDBRANCH   1   2
BRANCH   1  11
ATOM     11  C   UNL     1      36.214 -10.185 -20.749  1.00  0.00     0.000 C 
BRANCH  11  12
ATOM     12  C   UNL     1      37.284  -9.147 -20.365  1.00  0.00    -0.000 C 
BRANCH  12  13
ATOM     13  C   UNL     1      37.997  -9.449 -19.030  1.00  0.00    -0.000 C 
BRANCH  13  14
ATOM     14  C   UNL     1      39.524  -9.280 -19.122  1.00  0.00    -0.000 C 
BRANCH  14  15
ATOM     15  C   UNL     1      40.143  -8.837 -17.779  1.00  0.00    -0.000 C 
BRANCH  15  16
ATOM     16  C   UNL     1      41.549  -8.227 -17.919  1.00  0.00    -0.000 C 
BRANCH  16  17
ATOM     17  C   UNL     1      42.644  -9.109 -17.305  1.00  0.00    -0.003 C 
ATOM     18  C   UNL     1      42.606 -10.518 -17.889  1.00  0.00     0.004 C 
ENDBRANCH  16  17
ENDBRANCH  15  16
ENDBRANCH  14  15
ENDBRANCH  13  14
ENDBRANCH  12  13
ENDBRANCH  11  12
ENDBRANCH   1  11
TORSDOF 14
ENDMDL
MODEL 5
REMARK VINA RESULT:     7.427      4.691      9.121
REMARK INTER + INTRA:          13.946
REMARK INTER:                  14.367
REMARK INTRA:                  -0.421
REMARK UNBOUND:                 0.441
REMARK SMILES CCCCCCCCCCCCCCCC(=O)[O-]
REMARK SMILES IDX 9 1 10 2 11 3 12 4 13 5 14 6 15 7 16 8 17 9 18 10 8 11 7 12
REMARK SMILES IDX 6 13 5 14 4 15 3 16 2 17 1 18
REMARK H PARENT
REMARK Flexibility Score: inf
ROOT
ATOM      1  C   UNL     1      38.235  -8.713 -20.121  1.00  0.00     0.000 C 
ENDROOT
BRANCH   1   2
ATOM      2  C   UNL     1      37.780 -10.135 -19.740  1.00  0.00     0.000 C 
BRANCH   2   3
ATOM      3  C   UNL     1      36.503 -10.571 -20.473  1.00  0.00     0.000 C 
BRANCH   3   4
ATOM      4  C   UNL     1      36.811 -11.651 -21.517  1.00  0.00     0.000 C 
BRANCH   4   5
ATOM      5  C   UNL     1      37.495 -12.863 -20.869  1.00  0.00     0.000 C 
BRANCH   5   6
ATOM      6  C   UNL     1      36.591 -13.581 -19.855  1.00  0.00     0.006 C 
BRANCH   6   7
ATOM      7  C   UNL     1      36.791 -15.103 -19.859  1.00  0.00     0.053 C 
BRANCH   7   8
ATOM      8  C   UNL     1      37.499 -15.533 -21.105  1.00  0.00     0.041 C 
ATOM      9  O   UNL     1      38.753 -15.648 -21.114  1.00  0.00    -0.550 OA
ATOM     10  O   UNL     1      36.779 -15.758 -22.272  1.00  0.00    -0.550 OA
ENDBRANCH   7   8
ENDBRANCH   6   7
ENDBRANCH   5   6
ENDBRANCH   4   5
ENDBRANCH   3   4
ENDBRANCH   2   3
ENDBRANCH   1   2
BRANCH   1  11
ATOM     11  C   UNL     1      37.101  -7.758 -20.540  1.00  0.00     0.000 C 
BRANCH  11  12
ATOM     12  C   UNL     1      37.516  -6.635 -21.508  1.00  0.00    -0.000 C 
BRANCH  12  13
ATOM     13  C   UNL     1      36.528  -5.449 -21.548  1.00  0.00    -0.000 C 
BRANCH  13  14
ATOM     14  C   UNL     1      36.902  -4.402 -22.612  1.00  0.00    -0.000 C 
BRANCH  14  15
ATOM     15  C   UNL     1      36.240  -3.034 -22.342  1.00  0.00    -0.000 C 
BRANCH  15  16
ATOM     16  C   UNL     1      37.245  -1.917 -22.012  1.00  0.00    -0.000 C 
BRANCH  16  17
ATOM     17  C   UNL     1      37.629  -1.880 -20.527  1.00  0.00    -0.003 C 
ATOM     18  C   UNL     1      39.145  -1.875 -20.352  1.00  0.00     0.004 C 
ENDBRANCH  16  17
ENDBRANCH  15  16
ENDBRANCH  14  15
ENDBRANCH  13  14
ENDBRANCH  12  13
ENDBRANCH  11  12
ENDBRANCH   1  11
TORSDOF 14
ENDMDL
MODEL 6
REMARK VINA RESULT:     8.654      2.541      3.304
REMARK INTER + INTRA:          16.178
REMARK INTER:                  16.741
REMARK INTRA:                  -0.563
REMARK UNBOUND:                 0.441
REMARK SMILES CCCCCCCCCCCCCCCC(=O)[O-]
REMARK SMILES IDX 9 1 10 2 11 3 12 4 13 5 14 6 15 7 16 8 17 9 18 10 8 11 7 12
REMARK SMILES IDX 6 13 5 14 4 15 3 16 2 17 1 18
REMARK H PARENT
REMARK Flexibility Score: inf
ROOT
ATOM      1  C   UNL     1      37.630 -13.125 -21.481  1.00  0.00     0.000 C 
ENDROOT
BRANCH   1   2
ATOM      2  C   UNL     1      37.121 -12.163 -20.391  1.00  0.00     0.000 C 
BRANCH   2   3
ATOM      3  C   UNL     1      36.417 -10.925 -20.967  1.00  0.00     0.000 C 
BRANCH   3   4
ATOM      4  C   UNL     1      37.228  -9.654 -20.690  1.00  0.00     0.000 C 
BRANCH   4   5
ATOM      5  C   UNL     1      37.846  -9.692 -19.284  1.00  0.00     0.000 C 
BRANCH   5   6
ATOM      6  C   UNL     1      39.342  -9.339 -19.285  1.00  0.00     0.006 C 
BRANCH   6   7
ATOM      7  C   UNL     1      39.861  -8.963 -17.891  1.00  0.00     0.053 C 
BRANCH   7   8
ATOM      8  C   UNL     1      41.357  -8.930 -17.883  1.00  0.00     0.041 C 
ATOM      9  O   UNL     1      42.014 -10.004 -17.891  1.00  0.00    -0.550 OA
ATOM     10  O   UNL     1      42.025  -7.714 -17.814  1.00  0.00    -0.550 OA
ENDBRANCH   7   8
ENDBRANCH   6   7
ENDBRANCH   5   6
ENDBRANCH   4   5
ENDBRANCH   3   4
ENDBRANCH   2   3
ENDBRANCH   1   2
BRANCH   1  11
ATOM     11  C   UNL     1      37.759 -14.596 -21.041  1.00  0.00     0.000 C 
BRANCH  11  12
ATOM     12  C   UNL     1      36.893 -14.996 -19.833  1.00  0.00    -0.000 C 
BRANCH  12  13
ATOM     13  C   UNL     1      36.170 -16.349 -20.003  1.00  0.00    -0.000 C 
BRANCH  13  14
ATOM     14  C   UNL     1      35.280 -16.702 -18.799  1.00  0.00    -0.000 C 
BRANCH  14  15
ATOM     15  C   UNL     1      35.194 -18.224 -18.563  1.00  0.00    -0.000 C 
BRANCH  15  16
ATOM     16  C   UNL     1      33.872 -18.849 -19.042  1.00  0.00    -0.000 C 
BRANCH  16  17
ATOM     17  C   UNL     1      33.571 -20.195 -18.370  1.00  0.00    -0.003 C 
ATOM     18  C   UNL     1      33.721 -21.348 -19.358  1.00  0.00     0.004 C 
ENDBRANCH  16  17
ENDBRANCH  15  16
ENDBRANCH  14  15
ENDBRANCH  13  14
ENDBRANCH  12  13
ENDBRANCH  11  12
ENDBRANCH   1  11
TORSDOF 14
ENDMDL
MODEL 7
REMARK VINA RESULT:     8.745      4.612      5.529
REMARK INTER + INTRA:          16.344
REMARK INTER:                  17.187
REMARK INTRA:                  -0.843
REMARK UNBOUND:                 0.441
REMARK SMILES CCCCCCCCCCCCCCCC(=O)[O-]
REMARK SMILES IDX 9 1 10 2 11 3 12 4 13 5 14 6 15 7 16 8 17 9 18 10 8 11 7 12
REMARK SMILES IDX 6 13 5 14 4 15 3 16 2 17 1 18
REMARK H PARENT
REMARK Flexibility Score: inf
ROOT
ATOM      1  C   UNL     1      36.934  -8.368 -20.626  1.00  0.00     0.000 C 
ENDROOT
BRANCH   1   2
ATOM      2  C   UNL     1      35.687  -7.502 -20.363  1.00  0.00     0.000 C 
BRANCH   2   3
ATOM      3  C   UNL     1      35.965  -5.997 -20.491  1.00  0.00     0.000 C 
BRANCH   3   4
ATOM      4  C   UNL     1      37.220  -5.741 -21.334  1.00  0.00     0.000 C 
BRANCH   4   5
ATOM      5  C   UNL     1      36.923  -4.760 -22.478  1.00  0.00     0.000 C 
BRANCH   5   6
ATOM      6  C   UNL     1      36.165  -3.510 -22.005  1.00  0.00     0.006 C 
BRANCH   6   7
ATOM      7  C   UNL     1      37.001  -2.229 -22.134  1.00  0.00     0.053 C 
BRANCH   7   8
ATOM      8  C   UNL     1      37.831  -2.021 -20.906  1.00  0.00     0.041 C 
ATOM      9  O   UNL     1      37.278  -1.908 -19.780  1.00  0.00    -0.550 OA
ATOM     10  O   UNL     1      39.210  -1.900 -21.011  1.00  0.00    -0.550 OA
ENDBRANCH   7   8
ENDBRANCH   6   7
ENDBRANCH   5   6
ENDBRANCH   4   5
ENDBRANCH   3   4
ENDBRANCH   2   3
ENDBRANCH   1   2
BRANCH   1  11
ATOM     11  C   UNL     1      36.818  -9.833 -20.164  1.00  0.00     0.000 C 
BRANCH  11  12
ATOM     12  C   UNL     1      37.756 -10.821 -20.882  1.00  0.00    -0.000 C 
BRANCH  12  13
ATOM     13  C   UNL     1      37.167 -12.240 -21.035  1.00  0.00    -0.000 C 
BRANCH  13  14
ATOM     14  C   UNL     1      36.521 -12.757 -19.738  1.00  0.00    -0.000 C 
BRANCH  14  15
ATOM     15  C   UNL     1      36.865 -14.237 -19.465  1.00  0.00    -0.000 C 
BRANCH  15  16
ATOM     16  C   UNL     1      37.835 -14.845 -20.493  1.00  0.00    -0.000 C 
BRANCH  16  17
ATOM     17  C   UNL     1      37.248 -16.062 -21.219  1.00  0.00    -0.003 C 
ATOM     18  C   UNL     1      37.026 -15.765 -22.699  1.00  0.00     0.004 C 
ENDBRANCH  16  17
ENDBRANCH  15  16
ENDBRANCH  14  15
ENDBRANCH  13  14
ENDBRANCH  12  13
ENDBRANCH  11  12
ENDBRANCH   1  11
TORSDOF 14
ENDMDL
