MODEL 1
REMARK VINA RESULT:    -4.889      0.000      0.000
REMARK INTER + INTRA:         -11.469
REMARK INTER:                  -9.462
REMARK INTRA:                  -2.007
REMARK UNBOUND:                -2.007
REMARK SMILES CCCCCCCCCCCCCCCCCC(=O)[O-]
REMARK SMILES IDX 10 1 11 2 12 3 13 4 14 5 15 6 16 7 17 8 18 9 19 10 20 11
REMARK SMILES IDX 9 12 8 13 7 14 6 15 5 16 4 17 3 18 2 19 1 20
REMARK H PARENT
REMARK Flexibility Score: inf
ROOT
ATOM      1  C   UNL     1       9.115  54.371  24.965  1.00  0.00     0.000 C 
ENDROOT
BRANCH   1   2
ATOM      2  C   UNL     1       9.976  54.847  23.776  1.00  0.00     0.000 C 
BRANCH   2   3
ATOM      3  C   UNL     1      10.752  53.693  23.123  1.00  0.00     0.000 C 
BRANCH   3   4
ATOM      4  C   UNL     1      10.293  53.468  21.677  1.00  0.00     0.000 C 
BRANCH   4   5
ATOM      5  C   UNL     1       9.961  51.993  21.428  1.00  0.00     0.000 C 
BRANCH   5   6
ATOM      6  C   UNL     1      10.323  51.134  22.646  1.00  0.00     0.000 C 
BRANCH   6   7
ATOM      7  C   UNL     1      10.353  49.643  22.280  1.00  0.00     0.006 C 
BRANCH   7   8
ATOM      8  C   UNL     1      11.463  48.885  23.018  1.00  0.00     0.053 C 
BRANCH   8   9
ATOM      9  C   UNL     1      10.905  47.830  23.925  1.00  0.00     0.041 C 
ATOM     10  O   UNL     1      11.595  47.386  24.880  1.00  0.00    -0.550 OA
ATOM     11  O   UNL     1       9.636  47.316  23.695  1.00  0.00    -0.550 OA
ENDBRANCH   8   9
ENDBRANCH   7   8
ENDBRANCH   6   7
ENDBRANCH   5   6
ENDBRANCH   4   5
ENDBRANCH   3   4
ENDBRANCH   2   3
ENDBRANCH   1   2
BRANCH   1  12
ATOM     12  C   UNL     1       8.040  53.342  24.576  1.00  0.00     0.000 C 
BRANCH  12  13
ATOM     13  C   UNL     1       6.874  53.963  23.789  1.00  0.00    -0.000 C 
BRANCH  13  14
ATOM     14  C   UNL     1       6.919  53.611  22.294  1.00  0.00    -0.000 C 
BRANCH  14  15
ATOM     15  C   UNL     1       6.395  54.747  21.403  1.00  0.00    -0.000 C 
BRANCH  15  16
ATOM     16  C   UNL     1       7.478  55.808  21.173  1.00  0.00    -0.000 C 
BRANCH  16  17
ATOM     17  C   UNL     1       7.611  56.145  19.683  1.00  0.00    -0.000 C 
BRANCH  17  18
ATOM     18  C   UNL     1       7.676  54.867  18.832  1.00  0.00    -0.000 C 
BRANCH  18  19
ATOM     19  C   UNL     1       7.037  55.047  17.447  1.00  0.00    -0.003 C 
ATOM     20  C   UNL     1       6.070  53.917  17.092  1.00  0.00     0.004 C 
ENDBRANCH  18  19
ENDBRANCH  17  18
ENDBRANCH  16  17
ENDBRANCH  15  16
ENDBRANCH  14  15
ENDBRANCH  13  14
ENDBRANCH  12  13
ENDBRANCH   1  12
TORSDOF 16
ENDMDL
MODEL 2
REMARK VINA RESULT:    -4.824      3.536      8.016
REMARK INTER + INTRA:         -11.344
REMARK INTER:                 -10.015
REMARK INTRA:                  -1.329
REMARK UNBOUND:                -2.007
REMARK SMILES CCCCCCCCCCCCCCCCCC(=O)[O-]
REMARK SMILES IDX 10 1 11 2 12 3 13 4 14 5 15 6 16 7 17 8 18 9 19 10 20 11
REMARK SMILES IDX 9 12 8 13 7 14 6 15 5 16 4 17 3 18 2 19 1 20
REMARK H PARENT
REMARK Flexibility Score: inf
ROOT
ATOM      1  C   UNL     1       9.787  53.549  22.412  1.00  0.00     0.000 C 
ENDROOT
BRANCH   1   2
ATOM      2  C   UNL     1       8.918  53.278  23.658  1.00  0.00     0.000 C 
BRANCH   2   3
ATOM      3  C   UNL     1       7.424  53.509  23.385  1.00  0.00     0.000 C 
BRANCH   3   4
ATOM      4  C   UNL     1       7.173  53.802  21.901  1.00  0.00     0.000 C 
BRANCH   4   5
ATOM      5  C   UNL     1       6.359  55.089  21.724  1.00  0.00     0.000 C 
BRANCH   5   6
ATOM      6  C   UNL     1       7.212  56.200  21.102  1.00  0.00     0.000 C 
BRANCH   6   7
ATOM      7  C   UNL     1       7.946  55.695  19.850  1.00  0.00     0.006 C 
BRANCH   7   8
ATOM      8  C   UNL     1       7.233  56.101  18.554  1.00  0.00     0.053 C 
BRANCH   8   9
ATOM      9  C   UNL     1       6.929  54.913  17.693  1.00  0.00     0.041 C 
ATOM     10  O   UNL     1       6.911  53.756  18.191  1.00  0.00    -0.550 OA
ATOM     11  O   UNL     1       6.696  55.081  16.334  1.00  0.00    -0.550 OA
ENDBRANCH   8   9
ENDBRANCH   7   8
ENDBRANCH   6   7
ENDBRANCH   5   6
ENDBRANCH   4   5
ENDBRANCH   3   4
ENDBRANCH   2   3
ENDBRANCH   1   2
BRANCH   1  12
ATOM     12  C   UNL     1      10.594  52.326  21.944  1.00  0.00     0.000 C 
BRANCH  12  13
ATOM     13  C   UNL     1       9.917  50.992  22.300  1.00  0.00    -0.000 C 
BRANCH  13  14
ATOM     14  C   UNL     1      10.934  49.883  22.618  1.00  0.00    -0.000 C 
BRANCH  14  15
ATOM     15  C   UNL     1      10.311  48.480  22.576  1.00  0.00    -0.000 C 
BRANCH  15  16
ATOM     16  C   UNL     1      11.354  47.406  22.909  1.00  0.00    -0.000 C 
BRANCH  16  17
ATOM     17  C   UNL     1      10.812  46.416  23.948  1.00  0.00    -0.000 C 
BRANCH  17  18
ATOM     18  C   UNL     1      10.365  45.107  23.280  1.00  0.00    -0.000 C 
BRANCH  18  19
ATOM     19  C   UNL     1       8.978  44.647  23.753  1.00  0.00    -0.003 C 
ATOM     20  C   UNL     1       7.905  45.721  23.572  1.00  0.00     0.004 C 
ENDBRANCH  18  19
ENDBRANCH  17  18
ENDBRANCH  16  17
ENDBRANCH  15  16
ENDBRANCH  14  15
ENDBRANCH  13  14
ENDBRANCH  12  13
ENDBRANCH   1  12
TORSDOF 16
ENDMDL
MODEL 3
REMARK VINA RESULT:    -4.768      7.127     10.788
REMARK INTER + INTRA:         -11.236
REMARK INTER:                 -10.331
REMARK INTRA:                  -0.905
REMARK UNBOUND:                -2.007
REMARK SMILES CCCCCCCCCCCCCCCCCC(=O)[O-]
REMARK SMILES IDX 10 1 11 2 12 3 13 4 14 5 15 6 16 7 17 8 18 9 19 10 20 11
REMARK SMILES IDX 9 12 8 13 7 14 6 15 5 16 4 17 3 18 2 19 1 20
REMARK H PARENT
REMARK Flexibility Score: inf
ROOT
ATOM      1  C   UNL     1       4.344  58.029  20.432  1.00  0.00     0.000 C 
ENDROOT
BRANCH   1   2
ATOM      2  C   UNL     1       2.887  58.314  20.855  1.00  0.00     0.000 C 
BRANCH   2   3
ATOM      3  C   UNL     1       2.729  59.703  21.490  1.00  0.00     0.000 C 
BRANCH   3   4
ATOM      4  C   UNL     1       1.258  60.001  21.806  1.00  0.00     0.000 C 
BRANCH   4   5
ATOM      5  C   UNL     1       0.408  59.991  20.530  1.00  0.00     0.000 C 
BRANCH   5   6
ATOM      6  C   UNL     1       0.988  60.942  19.476  1.00  0.00     0.000 C 
BRANCH   6   7
ATOM      7  C   UNL     1       0.628  60.477  18.057  1.00  0.00     0.006 C 
BRANCH   7   8
ATOM      8  C   UNL     1       1.750  59.652  17.413  1.00  0.00     0.053 C 
BRANCH   8   9
ATOM      9  C   UNL     1       1.477  59.380  15.965  1.00  0.00     0.041 C 
ATOM     10  O   UNL     1       0.457  58.726  15.623  1.00  0.00    -0.550 OA
ATOM     11  O   UNL     1       2.367  59.824  14.995  1.00  0.00    -0.550 OA
ENDBRANCH   8   9
ENDBRANCH   7   8
ENDBRANCH   6   7
ENDBRANCH   5   6
ENDBRANCH   4   5
ENDBRANCH   3   4
ENDBRANCH   2   3
ENDBRANCH   1   2
BRANCH   1  12
ATOM     12  C   UNL     1       5.030  56.939  21.275  1.00  0.00     0.000 C 
BRANCH  12  13
ATOM     13  C   UNL     1       5.940  56.023  20.441  1.00  0.00    -0.000 C 
BRANCH  13  14
ATOM     14  C   UNL     1       7.431  56.237  20.748  1.00  0.00    -0.000 C 
BRANCH  14  15
ATOM     15  C   UNL     1       8.017  55.125  21.631  1.00  0.00    -0.000 C 
BRANCH  15  16
ATOM     16  C   UNL     1       8.851  54.145  20.797  1.00  0.00    -0.000 C 
BRANCH  16  17
ATOM     17  C   UNL     1      10.036  53.604  21.604  1.00  0.00    -0.000 C 
BRANCH  17  18
ATOM     18  C   UNL     1       9.596  53.181  23.014  1.00  0.00    -0.000 C 
BRANCH  18  19
ATOM     19  C   UNL     1      10.330  53.955  24.119  1.00  0.00    -0.003 C 
ATOM     20  C   UNL     1       9.460  54.190  25.354  1.00  0.00     0.004 C 
ENDBRANCH  18  19
ENDBRANCH  17  18
ENDBRANCH  16  17
ENDBRANCH  15  16
ENDBRANCH  14  15
ENDBRANCH  13  14
ENDBRANCH  12  13
ENDBRANCH   1  12
TORSDOF 16
ENDMDL
MODEL 4
REMARK VINA RESULT:    -4.767      1.967      4.035
REMARK INTER + INTRA:         -11.232
REMARK INTER:                 -10.232
REMARK INTRA:                  -1.000
REMARK UNBOUND:                -2.007
REMARK SMILES CCCCCCCCCCCCCCCCCC(=O)[O-]
REMARK SMILES IDX 10 1 11 2 12 3 13 4 14 5 15 6 16 7 17 8 18 9 19 10 20 11
REMARK SMILES IDX 9 12 8 13 7 14 6 15 5 16 4 17 3 18 2 19 1 20
REMARK H PARENT
REMARK Flexibility Score: inf
ROOT
ATOM      1  C   UNL     1       9.877  50.796  22.377  1.00  0.00     0.000 C 
ENDROOT
BRANCH   1   2
ATOM      2  C   UNL     1      10.955  49.754  22.745  1.00  0.00     0.000 C 
BRANCH   2   3
ATOM      3  C   UNL     1      10.492  48.317  22.463  1.00  0.00     0.000 C 
BRANCH   3   4
ATOM      4  C   UNL     1      10.041  47.619  23.752  1.00  0.00     0.000 C 
BRANCH   4   5
ATOM      5  C   UNL     1      10.575  46.184  23.817  1.00  0.00     0.000 C 
BRANCH   5   6
ATOM      6  C   UNL     1      11.781  46.087  24.757  1.00  0.00     0.000 C 
BRANCH   6   7
ATOM      7  C   UNL     1      11.823  47.280  25.724  1.00  0.00     0.006 C 
BRANCH   7   8
ATOM      8  C   UNL     1      13.151  48.043  25.650  1.00  0.00     0.053 C 
BRANCH   8   9
ATOM      9  C   UNL     1      13.754  48.240  27.007  1.00  0.00     0.041 C 
ATOM     10  O   UNL     1      14.395  49.292  27.270  1.00  0.00    -0.550 OA
ATOM     11  O   UNL     1      13.635  47.248  27.971  1.00  0.00    -0.550 OA
ENDBRANCH   8   9
ENDBRANCH   7   8
ENDBRANCH   6   7
ENDBRANCH   5   6
ENDBRANCH   4   5
ENDBRANCH   3   4
ENDBRANCH   2   3
ENDBRANCH   1   2
BRANCH   1  12
ATOM     12  C   UNL     1      10.450  52.181  22.030  1.00  0.00     0.000 C 
BRANCH  12  13
ATOM     13  C   UNL     1       9.792  53.317  22.830  1.00  0.00    -0.000 C 
BRANCH  13  14
ATOM     14  C   UNL     1       8.915  54.224  21.951  1.00  0.00    -0.000 C 
BRANCH  14  15
ATOM     15  C   UNL     1       7.416  53.933  22.115  1.00  0.00    -0.000 C 
BRANCH  15  16
ATOM     16  C   UNL     1       6.573  54.921  21.298  1.00  0.00    -0.000 C 
BRANCH  16  17
ATOM     17  C   UNL     1       7.415  56.118  20.843  1.00  0.00    -0.000 C 
BRANCH  17  18
ATOM     18  C   UNL     1       7.529  56.161  19.311  1.00  0.00    -0.000 C 
BRANCH  18  19
ATOM     19  C   UNL     1       7.202  54.811  18.657  1.00  0.00    -0.003 C 
ATOM     20  C   UNL     1       6.886  54.937  17.166  1.00  0.00     0.004 C 
ENDBRANCH  18  19
ENDBRANCH  17  18
ENDBRANCH  16  17
ENDBRANCH  15  16
ENDBRANCH  14  15
ENDBRANCH  13  14
ENDBRANCH  12  13
ENDBRANCH   1  12
TORSDOF 16
ENDMDL
MODEL 5
REMARK VINA RESULT:    -4.656      6.166      9.691
REMARK INTER + INTRA:         -11.018
REMARK INTER:                  -9.812
REMARK INTRA:                  -1.206
REMARK UNBOUND:                -2.007
REMARK SMILES CCCCCCCCCCCCCCCCCC(=O)[O-]
REMARK SMILES IDX 10 1 11 2 12 3 13 4 14 5 15 6 16 7 17 8 18 9 19 10 20 11
REMARK SMILES IDX 9 12 8 13 7 14 6 15 5 16 4 17 3 18 2 19 1 20
REMARK H PARENT
REMARK Flexibility Score: inf
ROOT
ATOM      1  C   UNL     1       5.347  56.377  21.298  1.00  0.00     0.000 C 
ENDROOT
BRANCH   1   2
ATOM      2  C   UNL     1       4.903  57.570  20.425  1.00  0.00     0.000 C 
BRANCH   2   3
ATOM      3  C   UNL     1       3.494  58.062  20.788  1.00  0.00     0.000 C 
BRANCH   3   4
ATOM      4  C   UNL     1       3.193  59.411  20.124  1.00  0.00     0.000 C 
BRANCH   4   5
ATOM      5  C   UNL     1       2.323  60.289  21.031  1.00  0.00     0.000 C 
BRANCH   5   6
ATOM      6  C   UNL     1       1.789  59.488  22.224  1.00  0.00     0.000 C 
BRANCH   6   7
ATOM      7  C   UNL     1       0.460  60.070  22.728  1.00  0.00     0.006 C 
BRANCH   7   8
ATOM      8  C   UNL     1      -0.736  59.173  22.383  1.00  0.00     0.053 C 
BRANCH   8   9
ATOM      9  C   UNL     1      -0.535  57.770  22.869  1.00  0.00     0.041 C 
ATOM     10  O   UNL     1      -0.406  57.537  24.100  1.00  0.00    -0.550 OA
ATOM     11  O   UNL     1      -0.458  56.724  21.959  1.00  0.00    -0.550 OA
ENDBRANCH   8   9
ENDBRANCH   7   8
ENDBRANCH   6   7
ENDBRANCH   5   6
ENDBRANCH   4   5
ENDBRANCH   3   4
ENDBRANCH   2   3
ENDBRANCH   1   2
BRANCH   1  12
ATOM     12  C   UNL     1       6.866  56.132  21.283  1.00  0.00     0.000 C 
BRANCH  12  13
ATOM     13  C   UNL     1       7.462  56.161  19.866  1.00  0.00    -0.000 C 
BRANCH  13  14
ATOM     14  C   UNL     1       8.241  54.880  19.529  1.00  0.00    -0.000 C 
BRANCH  14  15
ATOM     15  C   UNL     1       8.323  53.909  20.716  1.00  0.00    -0.000 C 
BRANCH  15  16
ATOM     16  C   UNL     1       9.740  53.878  21.302  1.00  0.00    -0.000 C 
BRANCH  16  17
ATOM     17  C   UNL     1       9.768  53.122  22.636  1.00  0.00    -0.000 C 
BRANCH  17  18
ATOM     18  C   UNL     1       8.348  52.743  23.084  1.00  0.00    -0.000 C 
BRANCH  18  19
ATOM     19  C   UNL     1       7.888  53.532  24.319  1.00  0.00    -0.003 C 
ATOM     20  C   UNL     1       9.042  54.237  25.032  1.00  0.00     0.004 C 
ENDBRANCH  18  19
ENDBRANCH  17  18
ENDBRANCH  16  17
ENDBRANCH  15  16
ENDBRANCH  14  15
ENDBRANCH  13  14
ENDBRANCH  12  13
ENDBRANCH   1  12
TORSDOF 16
ENDMDL
MODEL 6
REMARK VINA RESULT:    -4.645      5.357      7.131
REMARK INTER + INTRA:         -10.998
REMARK INTER:                  -9.926
REMARK INTRA:                  -1.072
REMARK UNBOUND:                -2.007
REMARK SMILES CCCCCCCCCCCCCCCCCC(=O)[O-]
REMARK SMILES IDX 10 1 11 2 12 3 13 4 14 5 15 6 16 7 17 8 18 9 19 10 20 11
REMARK SMILES IDX 9 12 8 13 7 14 6 15 5 16 4 17 3 18 2 19 1 20
REMARK H PARENT
REMARK Flexibility Score: inf
ROOT
ATOM      1  C   UNL     1       5.212  56.677  21.291  1.00  0.00     0.000 C 
ENDROOT
BRANCH   1   2
ATOM      2  C   UNL     1       6.738  56.614  21.068  1.00  0.00     0.000 C 
BRANCH   2   3
ATOM      3  C   UNL     1       7.106  55.855  19.784  1.00  0.00     0.000 C 
BRANCH   3   4
ATOM      4  C   UNL     1       6.894  54.346  19.955  1.00  0.00     0.000 C 
BRANCH   4   5
ATOM      5  C   UNL     1       7.674  53.814  21.162  1.00  0.00     0.000 C 
BRANCH   5   6
ATOM      6  C   UNL     1       9.181  54.033  20.984  1.00  0.00     0.000 C 
BRANCH   6   7
ATOM      7  C   UNL     1       9.926  53.848  22.314  1.00  0.00     0.006 C 
BRANCH   7   8
ATOM      8  C   UNL     1       9.374  54.756  23.421  1.00  0.00     0.053 C 
BRANCH   8   9
ATOM      9  C   UNL     1       9.025  53.979  24.653  1.00  0.00     0.041 C 
ATOM     10  O   UNL     1       8.070  53.158  24.635  1.00  0.00    -0.550 OA
ATOM     11  O   UNL     1       9.734  54.185  25.829  1.00  0.00    -0.550 OA
ENDBRANCH   8   9
ENDBRANCH   7   8
ENDBRANCH   6   7
ENDBRANCH   5   6
ENDBRANCH   4   5
ENDBRANCH   3   4
ENDBRANCH   2   3
ENDBRANCH   1   2
BRANCH   1  12
ATOM     12  C   UNL     1       4.503  57.723  20.413  1.00  0.00     0.000 C 
BRANCH  12  13
ATOM     13  C   UNL     1       3.385  58.470  21.160  1.00  0.00    -0.000 C 
BRANCH  13  14
ATOM     14  C   UNL     1       2.066  58.494  20.372  1.00  0.00    -0.000 C 
BRANCH  14  15
ATOM     15  C   UNL     1       1.176  59.689  20.747  1.00  0.00    -0.000 C 
BRANCH  15  16
ATOM     16  C   UNL     1       1.314  60.030  22.236  1.00  0.00    -0.000 C 
BRANCH  16  17
ATOM     17  C   UNL     1      -0.028  59.878  22.962  1.00  0.00    -0.000 C 
BRANCH  17  18
ATOM     18  C   UNL     1      -0.259  58.422  23.394  1.00  0.00    -0.000 C 
BRANCH  18  19
ATOM     19  C   UNL     1      -0.210  58.245  24.919  1.00  0.00    -0.003 C 
ATOM     20  C   UNL     1      -1.319  59.013  25.639  1.00  0.00     0.004 C 
ENDBRANCH  18  19
ENDBRANCH  17  18
ENDBRANCH  16  17
ENDBRANCH  15  16
ENDBRANCH  14  15
ENDBRANCH  13  14
ENDBRANCH  12  13
ENDBRANCH   1  12
TORSDOF 16
ENDMDL
MODEL 7
REMARK VINA RESULT:    -4.610      1.354      2.239
REMARK INTER + INTRA:         -10.930
REMARK INTER:                  -9.819
REMARK INTRA:                  -1.112
REMARK UNBOUND:                -2.007
REMARK SMILES CCCCCCCCCCCCCCCCCC(=O)[O-]
REMARK SMILES IDX 10 1 11 2 12 3 13 4 14 5 15 6 16 7 17 8 18 9 19 10 20 11
REMARK SMILES IDX 9 12 8 13 7 14 6 15 5 16 4 17 3 18 2 19 1 20
REMARK H PARENT
REMARK Flexibility Score: inf
ROOT
ATOM      1  C   UNL     1       9.554  54.149  22.388  1.00  0.00     0.000 C 
ENDROOT
BRANCH   1   2
ATOM      2  C   UNL     1      10.026  52.834  21.732  1.00  0.00     0.000 C 
BRANCH   2   3
ATOM      3  C   UNL     1      10.162  51.693  22.752  1.00  0.00     0.000 C 
BRANCH   3   4
ATOM      4  C   UNL     1      10.261  50.334  22.049  1.00  0.00     0.000 C 
BRANCH   4   5
ATOM      5  C   UNL     1      10.974  49.306  22.936  1.00  0.00     0.000 C 
BRANCH   5   6
ATOM      6  C   UNL     1      10.314  47.927  22.820  1.00  0.00     0.000 C 
BRANCH   6   7
ATOM      7  C   UNL     1      10.622  47.064  24.052  1.00  0.00     0.006 C 
BRANCH   7   8
ATOM      8  C   UNL     1      11.734  47.666  24.920  1.00  0.00     0.053 C 
BRANCH   8   9
ATOM      9  C   UNL     1      12.565  46.603  25.573  1.00  0.00     0.041 C 
ATOM     10  O   UNL     1      13.607  46.914  26.208  1.00  0.00    -0.550 OA
ATOM     11  O   UNL     1      12.204  45.267  25.453  1.00  0.00    -0.550 OA
ENDBRANCH   8   9
ENDBRANCH   7   8
ENDBRANCH   6   7
ENDBRANCH   5   6
ENDBRANCH   4   5
ENDBRANCH   3   4
ENDBRANCH   2   3
ENDBRANCH   1   2
BRANCH   1  12
ATOM     12  C   UNL     1       8.577  53.939  23.557  1.00  0.00     0.000 C 
BRANCH  12  13
ATOM     13  C   UNL     1       7.151  53.602  23.092  1.00  0.00    -0.000 C 
BRANCH  13  14
ATOM     14  C   UNL     1       6.899  54.007  21.630  1.00  0.00    -0.000 C 
BRANCH  14  15
ATOM     15  C   UNL     1       6.020  55.261  21.508  1.00  0.00    -0.000 C 
BRANCH  15  16
ATOM     16  C   UNL     1       6.858  56.480  21.101  1.00  0.00    -0.000 C 
BRANCH  16  17
ATOM     17  C   UNL     1       7.835  56.125  19.973  1.00  0.00    -0.000 C 
BRANCH  17  18
ATOM     18  C   UNL     1       7.128  56.135  18.609  1.00  0.00    -0.000 C 
BRANCH  18  19
ATOM     19  C   UNL     1       7.161  54.764  17.918  1.00  0.00    -0.003 C 
ATOM     20  C   UNL     1       6.535  54.790  16.523  1.00  0.00     0.004 C 
ENDBRANCH  18  19
ENDBRANCH  17  18
ENDBRANCH  16  17
ENDBRANCH  15  16
ENDBRANCH  14  15
ENDBRANCH  13  14
ENDBRANCH  12  13
ENDBRANCH   1  12
TORSDOF 16
ENDMDL
MODEL 8
REMARK VINA RESULT:    -4.538      1.804      3.426
REMARK INTER + INTRA:         -10.790
REMARK INTER:                  -9.656
REMARK INTRA:                  -1.134
REMARK UNBOUND:                -2.007
REMARK SMILES CCCCCCCCCCCCCCCCCC(=O)[O-]
REMARK SMILES IDX 10 1 11 2 12 3 13 4 14 5 15 6 16 7 17 8 18 9 19 10 20 11
REMARK SMILES IDX 9 12 8 13 7 14 6 15 5 16 4 17 3 18 2 19 1 20
REMARK H PARENT
REMARK Flexibility Score: inf
ROOT
ATOM      1  C   UNL     1       9.861  51.953  22.730  1.00  0.00     0.000 C 
ENDROOT
BRANCH   1   2
ATOM      2  C   UNL     1      10.430  50.719  22.000  1.00  0.00     0.000 C 
BRANCH   2   3
ATOM      3  C   UNL     1      10.249  49.429  22.814  1.00  0.00     0.000 C 
BRANCH   3   4
ATOM      4  C   UNL     1      11.598  48.751  23.081  1.00  0.00     0.000 C 
BRANCH   4   5
ATOM      5  C   UNL     1      11.530  47.250  22.777  1.00  0.00     0.000 C 
BRANCH   5   6
ATOM      6  C   UNL     1      10.150  46.680  23.126  1.00  0.00     0.000 C 
BRANCH   6   7
ATOM      7  C   UNL     1      10.252  45.202  23.530  1.00  0.00     0.006 C 
BRANCH   7   8
ATOM      8  C   UNL     1       9.828  44.966  24.985  1.00  0.00     0.053 C 
BRANCH   8   9
ATOM      9  C   UNL     1      11.013  44.812  25.890  1.00  0.00     0.041 C 
ATOM     10  O   UNL     1      10.849  44.558  27.112  1.00  0.00    -0.550 OA
ATOM     11  O   UNL     1      12.297  44.981  25.388  1.00  0.00    -0.550 OA
ENDBRANCH   8   9
ENDBRANCH   7   8
ENDBRANCH   6   7
ENDBRANCH   5   6
ENDBRANCH   4   5
ENDBRANCH   3   4
ENDBRANCH   2   3
ENDBRANCH   1   2
BRANCH   1  12
ATOM     12  C   UNL     1      10.173  53.286  22.027  1.00  0.00     0.000 C 
BRANCH  12  13
ATOM     13  C   UNL     1       9.279  54.440  22.509  1.00  0.00    -0.000 C 
BRANCH  13  14
ATOM     14  C   UNL     1       7.866  53.970  22.889  1.00  0.00    -0.000 C 
BRANCH  14  15
ATOM     15  C   UNL     1       6.814  54.348  21.835  1.00  0.00    -0.000 C 
BRANCH  15  16
ATOM     16  C   UNL     1       7.192  55.656  21.129  1.00  0.00    -0.000 C 
BRANCH  16  17
ATOM     17  C   UNL     1       7.138  55.495  19.605  1.00  0.00    -0.000 C 
BRANCH  17  18
ATOM     18  C   UNL     1       7.015  54.014  19.212  1.00  0.00    -0.000 C 
BRANCH  18  19
ATOM     19  C   UNL     1       6.784  53.821  17.706  1.00  0.00    -0.003 C 
ATOM     20  C   UNL     1       6.876  55.129  16.921  1.00  0.00     0.004 C 
ENDBRANCH  18  19
ENDBRANCH  17  18
ENDBRANCH  16  17
ENDBRANCH  15  16
ENDBRANCH  14  15
ENDBRANCH  13  14
ENDBRANCH  12  13
ENDBRANCH   1  12
TORSDOF 16
ENDMDL
MODEL 9
REMARK VINA RESULT:    -4.529      5.724      7.126
REMARK INTER + INTRA:         -10.773
REMARK INTER:                  -9.978
REMARK INTRA:                  -0.795
REMARK UNBOUND:                -2.007
REMARK SMILES CCCCCCCCCCCCCCCCCC(=O)[O-]
REMARK SMILES IDX 10 1 11 2 12 3 13 4 14 5 15 6 16 7 17 8 18 9 19 10 20 11
REMARK SMILES IDX 9 12 8 13 7 14 6 15 5 16 4 17 3 18 2 19 1 20
REMARK H PARENT
REMARK Flexibility Score: inf
ROOT
ATOM      1  C   UNL     1       4.615  57.984  20.605  1.00  0.00     0.000 C 
ENDROOT
BRANCH   1   2
ATOM      2  C   UNL     1       5.141  56.642  21.157  1.00  0.00     0.000 C 
BRANCH   2   3
ATOM      3  C   UNL     1       6.632  56.434  20.853  1.00  0.00     0.000 C 
BRANCH   3   4
ATOM      4  C   UNL     1       6.825  55.499  19.653  1.00  0.00     0.000 C 
BRANCH   4   5
ATOM      5  C   UNL     1       7.797  54.363  19.991  1.00  0.00     0.000 C 
BRANCH   5   6
ATOM      6  C   UNL     1       8.640  54.708  21.224  1.00  0.00     0.000 C 
BRANCH   6   7
ATOM      7  C   UNL     1       9.760  53.678  21.431  1.00  0.00     0.006 C 
BRANCH   7   8
ATOM      8  C   UNL     1      10.170  53.552  22.904  1.00  0.00     0.053 C 
BRANCH   8   9
ATOM      9  C   UNL     1       8.981  53.590  23.816  1.00  0.00     0.041 C 
ATOM     10  O   UNL     1       8.876  54.497  24.683  1.00  0.00    -0.550 OA
ATOM     11  O   UNL     1       8.006  52.606  23.727  1.00  0.00    -0.550 OA
ENDBRANCH   8   9
ENDBRANCH   7   8
ENDBRANCH   6   7
ENDBRANCH   5   6
ENDBRANCH   4   5
ENDBRANCH   3   4
ENDBRANCH   2   3
ENDBRANCH   1   2
BRANCH   1  12
ATOM     12  C   UNL     1       3.099  58.174  20.783  1.00  0.00     0.000 C 
BRANCH  12  13
ATOM     13  C   UNL     1       2.685  59.654  20.834  1.00  0.00    -0.000 C 
BRANCH  13  14
ATOM     14  C   UNL     1       2.745  60.329  19.454  1.00  0.00    -0.000 C 
BRANCH  14  15
ATOM     15  C   UNL     1       1.536  59.981  18.573  1.00  0.00    -0.000 C 
BRANCH  15  16
ATOM     16  C   UNL     1       1.981  59.608  17.153  1.00  0.00    -0.000 C 
BRANCH  16  17
ATOM     17  C   UNL     1       0.772  59.427  16.227  1.00  0.00    -0.000 C 
BRANCH  17  18
ATOM     18  C   UNL     1       0.669  60.585  15.224  1.00  0.00    -0.000 C 
BRANCH  18  19
ATOM     19  C   UNL     1      -0.744  61.184  15.157  1.00  0.00    -0.003 C 
ATOM     20  C   UNL     1      -1.760  60.395  15.983  1.00  0.00     0.004 C 
ENDBRANCH  18  19
ENDBRANCH  17  18
ENDBRANCH  16  17
ENDBRANCH  15  16
ENDBRANCH  14  15
ENDBRANCH  13  14
ENDBRANCH  12  13
ENDBRANCH   1  12
TORSDOF 16
ENDMDL
