MODEL 1
REMARK VINA RESULT:    -6.114      0.000      0.000
REMARK INTER + INTRA:         -10.245
REMARK INTER:                  -8.795
REMARK INTRA:                  -1.450
REMARK UNBOUND:                -1.450
REMARK SMILES O=c1c(O[C@H]2O[C@@H](CO)[C@@H](O)[C@H](O)[C@@H]2O)c(-c2ccc(O)cc2)oc2cc(O)cc(O)c12
REMARK SMILES IDX 4 1 3 2 16 3 24 4 2 5 25 6 1 7 32 8 26 9 30 10 27 11 29 12
REMARK SMILES IDX 17 13 18 14 19 15 20 16 23 17 22 18 21 19 31 21 28 23 5 25
REMARK SMILES IDX 14 26 6 27 12 28 7 29 10 30 15 31 13 33 8 35 9 36 11 38
REMARK H PARENT 21 20 31 22 28 24 15 32 13 34 9 37 11 39
REMARK Flexibility Score: inf
ROOT
ATOM      1  O   UNL     1      14.234   1.042   1.099  1.00  0.00    -0.454 OA
ENDROOT
BRANCH   1   2
ATOM      2  C   UNL     1      13.578   0.717   2.290  1.00  0.00     0.214 A 
ATOM      3  C   UNL     1      12.266   0.197   2.298  1.00  0.00     0.180 A 
ATOM      4  O   UNL     1      11.697  -0.139   3.452  1.00  0.00    -0.452 OA
ATOM      5  C   UNL     1      14.235   0.918   3.508  1.00  0.00     0.239 A 
ATOM      6  C   UNL     1      12.293   0.015   4.629  1.00  0.00     0.146 A 
ATOM      7  O   UNL     1      15.395   1.410   3.506  1.00  0.00    -0.285 OA
ATOM      8  C   UNL     1      13.597   0.560   4.711  1.00  0.00     0.111 A 
ATOM      9  C   UNL     1      11.612  -0.361   5.790  1.00  0.00     0.094 A 
ATOM     10  C   UNL     1      14.205   0.707   5.981  1.00  0.00     0.134 A 
ATOM     11  C   UNL     1      12.215  -0.207   7.043  1.00  0.00     0.123 A 
ATOM     12  C   UNL     1      13.505   0.323   7.134  1.00  0.00     0.093 A 
BRANCH   3  13
ATOM     13  C   UNL     1      11.481   0.021   1.056  1.00  0.00     0.021 A 
ATOM     14  C   UNL     1      11.808  -0.975   0.117  1.00  0.00     0.016 A 
ATOM     15  C   UNL     1      11.049  -1.125  -1.048  1.00  0.00     0.047 A 
ATOM     16  C   UNL     1       9.968  -0.268  -1.299  1.00  0.00     0.115 A 
ATOM     17  C   UNL     1      10.411   0.890   0.785  1.00  0.00     0.016 A 
ATOM     18  C   UNL     1       9.656   0.739  -0.382  1.00  0.00     0.047 A 
BRANCH  16  19
ATOM     19  O   UNL     1       9.200  -0.413  -2.452  1.00  0.00    -0.508 OA
ATOM     20  H   UNL     1       9.475  -1.042  -3.196  1.00  0.00     0.293 HD
ENDBRANCH  16  19
ENDBRANCH   3  13
BRANCH  10  21
ATOM     21  O   UNL     1      15.495   1.226   6.105  1.00  0.00    -0.507 OA
ATOM     22  H   UNL     1      16.307   0.734   5.747  1.00  0.00     0.293 HD
ENDBRANCH  10  21
BRANCH  11  23
ATOM     23  O   UNL     1      11.544  -0.578   8.207  1.00  0.00    -0.508 OA
ATOM     24  H   UNL     1      11.338   0.097   8.937  1.00  0.00     0.293 HD
ENDBRANCH  11  23
ENDBRANCH   1   2
BRANCH   1  25
ATOM     25  C   UNL     1      14.424   2.384   0.647  1.00  0.00     0.339 C 
ATOM     26  C   UNL     1      13.332   2.762  -0.368  1.00  0.00     0.214 C 
ATOM     27  O   UNL     1      15.742   2.533   0.139  1.00  0.00    -0.332 OA
ATOM     28  C   UNL     1      13.414   1.868  -1.631  1.00  0.00     0.180 C 
ATOM     29  C   UNL     1      15.913   2.205  -1.237  1.00  0.00     0.179 C 
ATOM     30  C   UNL     1      14.830   1.271  -1.838  1.00  0.00     0.177 C 
BRANCH  26  31
ATOM     31  O   UNL     1      13.480   4.122  -0.706  1.00  0.00    -0.384 OA
ATOM     32  H   UNL     1      14.442   4.272  -0.893  1.00  0.00     0.211 HD
ENDBRANCH  26  31
BRANCH  28  33
ATOM     33  O   UNL     1      13.033   2.611  -2.764  1.00  0.00    -0.387 OA
ATOM     34  H   UNL     1      13.853   3.031  -3.129  1.00  0.00     0.211 HD
ENDBRANCH  28  33
BRANCH  29  35
ATOM     35  C   UNL     1      17.310   1.589  -1.405  1.00  0.00     0.191 C 
BRANCH  35  36
ATOM     36  O   UNL     1      17.315   0.735  -2.516  1.00  0.00    -0.394 OA
ATOM     37  H   UNL     1      17.616   1.281  -3.289  1.00  0.00     0.210 HD
ENDBRANCH  35  36
ENDBRANCH  29  35
BRANCH  30  38
ATOM     38  O   UNL     1      14.914  -0.000  -1.245  1.00  0.00    -0.387 OA
ATOM     39  H   UNL     1      14.066  -0.475  -1.448  1.00  0.00     0.211 HD
ENDBRANCH  30  38
ENDBRANCH   1  25
TORSDOF 11
ENDMDL
MODEL 2
REMARK VINA RESULT:    -6.017      1.292      2.622
REMARK INTER + INTRA:         -10.106
REMARK INTER:                  -8.697
REMARK INTRA:                  -1.409
REMARK UNBOUND:                -1.450
REMARK SMILES O=c1c(O[C@H]2O[C@@H](CO)[C@@H](O)[C@H](O)[C@@H]2O)c(-c2ccc(O)cc2)oc2cc(O)cc(O)c12
REMARK SMILES IDX 4 1 3 2 16 3 24 4 2 5 25 6 1 7 32 8 26 9 30 10 27 11 29 12
REMARK SMILES IDX 17 13 18 14 19 15 20 16 23 17 22 18 21 19 31 21 28 23 5 25
REMARK SMILES IDX 14 26 6 27 12 28 7 29 10 30 15 31 13 33 8 35 9 36 11 38
REMARK H PARENT 21 20 31 22 28 24 15 32 13 34 9 37 11 39
REMARK Flexibility Score: inf
ROOT
ATOM      1  O   UNL     1      13.276   2.166   0.171  1.00  0.00    -0.454 OA
ENDROOT
BRANCH   1   2
ATOM      2  C   UNL     1      13.079   1.540   1.405  1.00  0.00     0.214 A 
ATOM      3  C   UNL     1      12.027   0.624   1.614  1.00  0.00     0.180 A 
ATOM      4  O   UNL     1      11.904   0.019   2.792  1.00  0.00    -0.452 OA
ATOM      5  C   UNL     1      13.944   1.832   2.464  1.00  0.00     0.239 A 
ATOM      6  C   UNL     1      12.716   0.249   3.817  1.00  0.00     0.146 A 
ATOM      7  O   UNL     1      14.867   2.671   2.289  1.00  0.00    -0.285 OA
ATOM      8  C   UNL     1      13.777   1.179   3.701  1.00  0.00     0.111 A 
ATOM      9  C   UNL     1      12.504  -0.431   5.019  1.00  0.00     0.094 A 
ATOM     10  C   UNL     1      14.628   1.399   4.811  1.00  0.00     0.134 A 
ATOM     11  C   UNL     1      13.342  -0.204   6.116  1.00  0.00     0.123 A 
ATOM     12  C   UNL     1      14.398   0.706   6.009  1.00  0.00     0.093 A 
BRANCH   3  13
ATOM     13  C   UNL     1      11.030   0.316   0.565  1.00  0.00     0.021 A 
ATOM     14  C   UNL     1       9.885   1.115   0.386  1.00  0.00     0.016 A 
ATOM     15  C   UNL     1       8.958   0.807  -0.615  1.00  0.00     0.047 A 
ATOM     16  C   UNL     1       9.153  -0.313  -1.435  1.00  0.00     0.115 A 
ATOM     17  C   UNL     1      11.205  -0.818  -0.245  1.00  0.00     0.016 A 
ATOM     18  C   UNL     1      10.275  -1.124  -1.243  1.00  0.00     0.047 A 
BRANCH  16  19
ATOM     19  O   UNL     1       8.240  -0.625  -2.440  1.00  0.00    -0.508 OA
ATOM     20  H   UNL     1       7.820  -1.543  -2.508  1.00  0.00     0.293 HD
ENDBRANCH  16  19
ENDBRANCH   3  13
BRANCH  10  21
ATOM     21  O   UNL     1      15.695   2.295   4.733  1.00  0.00    -0.507 OA
ATOM     22  H   UNL     1      15.930   2.915   5.501  1.00  0.00     0.293 HD
ENDBRANCH  10  21
BRANCH  11  23
ATOM     23  O   UNL     1      13.138  -0.877   7.319  1.00  0.00    -0.508 OA
ATOM     24  H   UNL     1      13.581  -1.772   7.507  1.00  0.00     0.293 HD
ENDBRANCH  11  23
ENDBRANCH   1   2
BRANCH   1  25
ATOM     25  C   UNL     1      13.740   1.482  -0.994  1.00  0.00     0.339 C 
ATOM     26  C   UNL     1      15.241   1.170  -0.864  1.00  0.00     0.214 C 
ATOM     27  O   UNL     1      13.420   2.240  -2.151  1.00  0.00    -0.332 OA
ATOM     28  C   UNL     1      16.073   2.475  -0.773  1.00  0.00     0.180 C 
ATOM     29  C   UNL     1      14.379   3.223  -2.530  1.00  0.00     0.179 C 
ATOM     30  C   UNL     1      15.337   3.686  -1.402  1.00  0.00     0.177 C 
BRANCH  26  31
ATOM     31  O   UNL     1      15.640   0.398  -1.973  1.00  0.00    -0.384 OA
ATOM     32  H   UNL     1      14.902   0.435  -2.634  1.00  0.00     0.211 HD
ENDBRANCH  26  31
BRANCH  28  33
ATOM     33  O   UNL     1      17.319   2.287  -1.400  1.00  0.00    -0.387 OA
ATOM     34  H   UNL     1      17.942   2.960  -1.023  1.00  0.00     0.211 HD
ENDBRANCH  28  33
BRANCH  29  35
ATOM     35  C   UNL     1      13.621   4.420  -3.120  1.00  0.00     0.191 C 
BRANCH  35  36
ATOM     36  O   UNL     1      12.297   4.408  -2.664  1.00  0.00    -0.394 OA
ATOM     37  H   UNL     1      12.065   3.456  -2.497  1.00  0.00     0.210 HD
ENDBRANCH  35  36
ENDBRANCH  29  35
BRANCH  30  38
ATOM     38  O   UNL     1      14.615   4.381  -0.417  1.00  0.00    -0.387 OA
ATOM     39  H   UNL     1      13.780   4.709  -0.842  1.00  0.00     0.211 HD
ENDBRANCH  30  38
ENDBRANCH   1  25
TORSDOF 11
ENDMDL
MODEL 3
REMARK VINA RESULT:    -6.009      2.019      4.600
REMARK INTER + INTRA:         -10.094
REMARK INTER:                  -8.756
REMARK INTRA:                  -1.338
REMARK UNBOUND:                -1.450
REMARK SMILES O=c1c(O[C@H]2O[C@@H](CO)[C@@H](O)[C@H](O)[C@@H]2O)c(-c2ccc(O)cc2)oc2cc(O)cc(O)c12
REMARK SMILES IDX 4 1 3 2 16 3 24 4 2 5 25 6 1 7 32 8 26 9 30 10 27 11 29 12
REMARK SMILES IDX 17 13 18 14 19 15 20 16 23 17 22 18 21 19 31 21 28 23 5 25
REMARK SMILES IDX 14 26 6 27 12 28 7 29 10 30 15 31 13 33 8 35 9 36 11 38
REMARK H PARENT 21 20 31 22 28 24 15 32 13 34 9 37 11 39
REMARK Flexibility Score: inf
ROOT
ATOM      1  O   UNL     1      12.046   0.947   1.979  1.00  0.00    -0.454 OA
ENDROOT
BRANCH   1   2
ATOM      2  C   UNL     1      13.118   0.879   2.872  1.00  0.00     0.214 A 
ATOM      3  C   UNL     1      14.365   1.473   2.583  1.00  0.00     0.180 A 
ATOM      4  O   UNL     1      15.345   1.421   3.481  1.00  0.00    -0.452 OA
ATOM      5  C   UNL     1      12.956   0.200   4.083  1.00  0.00     0.239 A 
ATOM      6  C   UNL     1      15.226   0.805   4.652  1.00  0.00     0.146 A 
ATOM      7  O   UNL     1      11.853  -0.356   4.332  1.00  0.00    -0.285 OA
ATOM      8  C   UNL     1      14.019   0.157   5.007  1.00  0.00     0.111 A 
ATOM      9  C   UNL     1      16.314   0.798   5.530  1.00  0.00     0.094 A 
ATOM     10  C   UNL     1      13.923  -0.487   6.264  1.00  0.00     0.134 A 
ATOM     11  C   UNL     1      16.217   0.154   6.768  1.00  0.00     0.123 A 
ATOM     12  C   UNL     1      15.026  -0.482   7.131  1.00  0.00     0.093 A 
BRANCH   3  13
ATOM     13  C   UNL     1      14.637   2.148   1.294  1.00  0.00     0.021 A 
ATOM     14  C   UNL     1      14.797   1.416   0.103  1.00  0.00     0.016 A 
ATOM     15  C   UNL     1      15.048   2.076  -1.104  1.00  0.00     0.047 A 
ATOM     16  C   UNL     1      15.164   3.473  -1.131  1.00  0.00     0.115 A 
ATOM     17  C   UNL     1      14.777   3.545   1.262  1.00  0.00     0.016 A 
ATOM     18  C   UNL     1      15.032   4.201   0.054  1.00  0.00     0.047 A 
BRANCH  16  19
ATOM     19  O   UNL     1      15.407   4.142  -2.329  1.00  0.00    -0.508 OA
ATOM     20  H   UNL     1      16.081   4.894  -2.388  1.00  0.00     0.293 HD
ENDBRANCH  16  19
ENDBRANCH   3  13
BRANCH  10  21
ATOM     21  O   UNL     1      12.746  -1.125   6.659  1.00  0.00    -0.507 OA
ATOM     22  H   UNL     1      12.350  -1.892   6.127  1.00  0.00     0.293 HD
ENDBRANCH  10  21
BRANCH  11  23
ATOM     23  O   UNL     1      17.296   0.141   7.650  1.00  0.00    -0.508 OA
ATOM     24  H   UNL     1      17.358  -0.541   8.401  1.00  0.00     0.293 HD
ENDBRANCH  11  23
ENDBRANCH   1   2
BRANCH   1  25
ATOM     25  C   UNL     1      10.990   1.904   2.088  1.00  0.00     0.339 C 
ATOM     26  C   UNL     1       9.625   1.207   1.957  1.00  0.00     0.214 C 
ATOM     27  O   UNL     1      11.187   2.941   1.138  1.00  0.00    -0.332 OA
ATOM     28  C   UNL     1       9.468   0.552   0.561  1.00  0.00     0.180 C 
ATOM     29  C   UNL     1      10.637   2.705  -0.155  1.00  0.00     0.179 C 
ATOM     30  C   UNL     1      10.376   1.217  -0.506  1.00  0.00     0.177 C 
BRANCH  26  31
ATOM     31  O   UNL     1       8.609   2.157   2.182  1.00  0.00    -0.384 OA
ATOM     32  H   UNL     1       7.830   1.886   1.632  1.00  0.00     0.211 HD
ENDBRANCH  26  31
BRANCH  28  33
ATOM     33  O   UNL     1       8.122   0.615   0.157  1.00  0.00    -0.387 OA
ATOM     34  H   UNL     1       7.758  -0.305   0.202  1.00  0.00     0.211 HD
ENDBRANCH  28  33
BRANCH  29  35
ATOM     35  C   UNL     1      11.571   3.348  -1.190  1.00  0.00     0.191 C 
BRANCH  35  36
ATOM     36  O   UNL     1      10.938   4.455  -1.770  1.00  0.00    -0.394 OA
ATOM     37  H   UNL     1      10.190   4.701  -1.163  1.00  0.00     0.210 HD
ENDBRANCH  35  36
ENDBRANCH  29  35
BRANCH  30  38
ATOM     38  O   UNL     1      11.597   0.528  -0.603  1.00  0.00    -0.387 OA
ATOM     39  H   UNL     1      11.555  -0.235   0.030  1.00  0.00     0.211 HD
ENDBRANCH  30  38
ENDBRANCH   1  25
TORSDOF 11
ENDMDL
MODEL 4
REMARK VINA RESULT:    -5.935      1.912      4.999
REMARK INTER + INTRA:          -9.987
REMARK INTER:                  -8.812
REMARK INTRA:                  -1.174
REMARK UNBOUND:                -1.450
REMARK SMILES O=c1c(O[C@H]2O[C@@H](CO)[C@@H](O)[C@H](O)[C@@H]2O)c(-c2ccc(O)cc2)oc2cc(O)cc(O)c12
REMARK SMILES IDX 4 1 3 2 16 3 24 4 2 5 25 6 1 7 32 8 26 9 30 10 27 11 29 12
REMARK SMILES IDX 17 13 18 14 19 15 20 16 23 17 22 18 21 19 31 21 28 23 5 25
REMARK SMILES IDX 14 26 6 27 12 28 7 29 10 30 15 31 13 33 8 35 9 36 11 38
REMARK H PARENT 21 20 31 22 28 24 15 32 13 34 9 37 11 39
REMARK Flexibility Score: inf
ROOT
ATOM      1  O   UNL     1      11.845   1.086   2.011  1.00  0.00    -0.454 OA
ENDROOT
BRANCH   1   2
ATOM      2  C   UNL     1      12.921   0.926   2.888  1.00  0.00     0.214 A 
ATOM      3  C   UNL     1      14.203   1.437   2.593  1.00  0.00     0.180 A 
ATOM      4  O   UNL     1      15.187   1.299   3.476  1.00  0.00    -0.452 OA
ATOM      5  C   UNL     1      12.728   0.235   4.088  1.00  0.00     0.239 A 
ATOM      6  C   UNL     1      15.041   0.669   4.636  1.00  0.00     0.146 A 
ATOM      7  O   UNL     1      11.591  -0.248   4.341  1.00  0.00    -0.285 OA
ATOM      8  C   UNL     1      13.796   0.099   4.995  1.00  0.00     0.111 A 
ATOM      9  C   UNL     1      16.137   0.568   5.498  1.00  0.00     0.094 A 
ATOM     10  C   UNL     1      13.672  -0.562   6.241  1.00  0.00     0.134 A 
ATOM     11  C   UNL     1      16.011  -0.092   6.725  1.00  0.00     0.123 A 
ATOM     12  C   UNL     1      14.783  -0.652   7.092  1.00  0.00     0.093 A 
BRANCH   3  13
ATOM     13  C   UNL     1      14.504   2.119   1.314  1.00  0.00     0.021 A 
ATOM     14  C   UNL     1      14.644   1.396   0.114  1.00  0.00     0.016 A 
ATOM     15  C   UNL     1      14.925   2.062  -1.083  1.00  0.00     0.047 A 
ATOM     16  C   UNL     1      15.090   3.453  -1.093  1.00  0.00     0.115 A 
ATOM     17  C   UNL     1      14.695   3.510   1.300  1.00  0.00     0.016 A 
ATOM     18  C   UNL     1      14.978   4.172   0.101  1.00  0.00     0.047 A 
BRANCH  16  19
ATOM     19  O   UNL     1      15.363   4.128  -2.281  1.00  0.00    -0.508 OA
ATOM     20  H   UNL     1      15.306   5.136  -2.342  1.00  0.00     0.293 HD
ENDBRANCH  16  19
ENDBRANCH   3  13
BRANCH  10  21
ATOM     21  O   UNL     1      12.458  -1.125   6.639  1.00  0.00    -0.507 OA
ATOM     22  H   UNL     1      12.409  -2.045   7.063  1.00  0.00     0.293 HD
ENDBRANCH  10  21
BRANCH  11  23
ATOM     23  O   UNL     1      17.098  -0.199   7.591  1.00  0.00    -0.508 OA
ATOM     24  H   UNL     1      17.624   0.620   7.884  1.00  0.00     0.293 HD
ENDBRANCH  11  23
ENDBRANCH   1   2
BRANCH   1  25
ATOM     25  C   UNL     1      11.241   0.003   1.301  1.00  0.00     0.339 C 
ATOM     26  C   UNL     1      11.597   0.084  -0.193  1.00  0.00     0.214 C 
ATOM     27  O   UNL     1       9.842  -0.006   1.547  1.00  0.00    -0.332 OA
ATOM     28  C   UNL     1      11.036   1.380  -0.829  1.00  0.00     0.180 C 
ATOM     29  C   UNL     1       9.057   0.804   0.677  1.00  0.00     0.179 C 
ATOM     30  C   UNL     1       9.824   1.944  -0.042  1.00  0.00     0.177 C 
BRANCH  26  31
ATOM     31  O   UNL     1      11.083  -1.056  -0.842  1.00  0.00    -0.384 OA
ATOM     32  H   UNL     1      11.754  -1.336  -1.516  1.00  0.00     0.211 HD
ENDBRANCH  26  31
BRANCH  28  33
ATOM     33  O   UNL     1      10.670   1.133  -2.166  1.00  0.00    -0.387 OA
ATOM     34  H   UNL     1       9.954   0.448  -2.153  1.00  0.00     0.211 HD
ENDBRANCH  28  33
BRANCH  29  35
ATOM     35  C   UNL     1       7.885   1.372   1.490  1.00  0.00     0.191 C 
BRANCH  35  36
ATOM     36  O   UNL     1       8.342   1.780   2.750  1.00  0.00    -0.394 OA
ATOM     37  H   UNL     1       9.257   2.144   2.614  1.00  0.00     0.210 HD
ENDBRANCH  35  36
ENDBRANCH  29  35
BRANCH  30  38
ATOM     38  O   UNL     1      10.255   2.897   0.897  1.00  0.00    -0.387 OA
ATOM     39  H   UNL     1      10.904   2.445   1.497  1.00  0.00     0.211 HD
ENDBRANCH  30  38
ENDBRANCH   1  25
TORSDOF 11
ENDMDL
MODEL 5
REMARK VINA RESULT:    -5.410      1.845      2.278
REMARK INTER + INTRA:          -9.231
REMARK INTER:                  -7.739
REMARK INTRA:                  -1.493
REMARK UNBOUND:                -1.450
REMARK SMILES O=c1c(O[C@H]2O[C@@H](CO)[C@@H](O)[C@H](O)[C@@H]2O)c(-c2ccc(O)cc2)oc2cc(O)cc(O)c12
REMARK SMILES IDX 4 1 3 2 16 3 24 4 2 5 25 6 1 7 32 8 26 9 30 10 27 11 29 12
REMARK SMILES IDX 17 13 18 14 19 15 20 16 23 17 22 18 21 19 31 21 28 23 5 25
REMARK SMILES IDX 14 26 6 27 12 28 7 29 10 30 15 31 13 33 8 35 9 36 11 38
REMARK H PARENT 21 20 31 22 28 24 15 32 13 34 9 37 11 39
REMARK Flexibility Score: inf
ROOT
ATOM      1  O   UNL     1      13.773   2.182   1.107  1.00  0.00    -0.454 OA
ENDROOT
BRANCH   1   2
ATOM      2  C   UNL     1      13.835   1.489   2.319  1.00  0.00     0.214 A 
ATOM      3  C   UNL     1      12.941   0.440   2.622  1.00  0.00     0.180 A 
ATOM      4  O   UNL     1      13.064  -0.221   3.769  1.00  0.00    -0.452 OA
ATOM      5  C   UNL     1      14.803   1.847   3.262  1.00  0.00     0.239 A 
ATOM      6  C   UNL     1      13.983   0.072   4.683  1.00  0.00     0.146 A 
ATOM      7  O   UNL     1      15.584   2.803   3.007  1.00  0.00    -0.285 OA
ATOM      8  C   UNL     1      14.898   1.132   4.471  1.00  0.00     0.111 A 
ATOM      9  C   UNL     1      14.032  -0.675   5.863  1.00  0.00     0.094 A 
ATOM     10  C   UNL     1      15.868   1.415   5.463  1.00  0.00     0.134 A 
ATOM     11  C   UNL     1      14.987  -0.386   6.843  1.00  0.00     0.123 A 
ATOM     12  C   UNL     1      15.900   0.654   6.640  1.00  0.00     0.093 A 
BRANCH   3  13
ATOM     13  C   UNL     1      11.846   0.049   1.706  1.00  0.00     0.021 A 
ATOM     14  C   UNL     1      10.513   0.422   1.958  1.00  0.00     0.016 A 
ATOM     15  C   UNL     1       9.495   0.045   1.077  1.00  0.00     0.047 A 
ATOM     16  C   UNL     1       9.794  -0.727  -0.055  1.00  0.00     0.115 A 
ATOM     17  C   UNL     1      12.133  -0.744   0.584  1.00  0.00     0.016 A 
ATOM     18  C   UNL     1      11.113  -1.122  -0.294  1.00  0.00     0.047 A 
BRANCH  16  19
ATOM     19  O   UNL     1       8.789  -1.103  -0.944  1.00  0.00    -0.508 OA
ATOM     20  H   UNL     1       7.813  -0.919  -0.749  1.00  0.00     0.293 HD
ENDBRANCH  16  19
ENDBRANCH   3  13
BRANCH  10  21
ATOM     21  O   UNL     1      16.797   2.442   5.287  1.00  0.00    -0.507 OA
ATOM     22  H   UNL     1      17.233   2.910   6.075  1.00  0.00     0.293 HD
ENDBRANCH  10  21
BRANCH  11  23
ATOM     23  O   UNL     1      15.043  -1.125   8.023  1.00  0.00    -0.508 OA
ATOM     24  H   UNL     1      15.619  -0.829   8.806  1.00  0.00     0.293 HD
ENDBRANCH  11  23
ENDBRANCH   1   2
BRANCH   1  25
ATOM     25  C   UNL     1      13.304   3.528   0.994  1.00  0.00     0.339 C 
ATOM     26  C   UNL     1      11.785   3.541   0.748  1.00  0.00     0.214 C 
ATOM     27  O   UNL     1      14.043   4.206  -0.011  1.00  0.00    -0.332 OA
ATOM     28  C   UNL     1      11.433   2.849  -0.593  1.00  0.00     0.180 C 
ATOM     29  C   UNL     1      13.543   4.079  -1.339  1.00  0.00     0.179 C 
ATOM     30  C   UNL     1      12.624   2.854  -1.588  1.00  0.00     0.177 C 
BRANCH  26  31
ATOM     31  O   UNL     1      11.339   4.877   0.755  1.00  0.00    -0.384 OA
ATOM     32  H   UNL     1      10.510   4.905   1.298  1.00  0.00     0.211 HD
ENDBRANCH  26  31
BRANCH  28  33
ATOM     33  O   UNL     1      10.317   3.479  -1.173  1.00  0.00    -0.387 OA
ATOM     34  H   UNL     1      10.364   4.439  -0.933  1.00  0.00     0.211 HD
ENDBRANCH  28  33
BRANCH  29  35
ATOM     35  C   UNL     1      14.742   4.056  -2.296  1.00  0.00     0.191 C 
BRANCH  35  36
ATOM     36  O   UNL     1      15.771   3.282  -1.742  1.00  0.00    -0.394 OA
ATOM     37  H   UNL     1      16.437   3.921  -1.374  1.00  0.00     0.210 HD
ENDBRANCH  35  36
ENDBRANCH  29  35
BRANCH  30  38
ATOM     38  O   UNL     1      13.366   1.667  -1.464  1.00  0.00    -0.387 OA
ATOM     39  H   UNL     1      13.112   1.081  -2.224  1.00  0.00     0.211 HD
ENDBRANCH  30  38
ENDBRANCH   1  25
TORSDOF 11
ENDMDL
MODEL 6
REMARK VINA RESULT:    -4.814      3.003      7.041
REMARK INTER + INTRA:          -8.375
REMARK INTER:                  -7.064
REMARK INTRA:                  -1.311
REMARK UNBOUND:                -1.450
REMARK SMILES O=c1c(O[C@H]2O[C@@H](CO)[C@@H](O)[C@H](O)[C@@H]2O)c(-c2ccc(O)cc2)oc2cc(O)cc(O)c12
REMARK SMILES IDX 4 1 3 2 16 3 24 4 2 5 25 6 1 7 32 8 26 9 30 10 27 11 29 12
REMARK SMILES IDX 17 13 18 14 19 15 20 16 23 17 22 18 21 19 31 21 28 23 5 25
REMARK SMILES IDX 14 26 6 27 12 28 7 29 10 30 15 31 13 33 8 35 9 36 11 38
REMARK H PARENT 21 20 31 22 28 24 15 32 13 34 9 37 11 39
REMARK Flexibility Score: inf
ROOT
ATOM      1  O   UNL     1      12.055   1.904   1.328  1.00  0.00    -0.454 OA
ENDROOT
BRANCH   1   2
ATOM      2  C   UNL     1      11.501   2.833   0.442  1.00  0.00     0.214 A 
ATOM      3  C   UNL     1      12.094   3.114  -0.807  1.00  0.00     0.180 A 
ATOM      4  O   UNL     1      11.508   3.973  -1.635  1.00  0.00    -0.452 OA
ATOM      5  C   UNL     1      10.331   3.507   0.805  1.00  0.00     0.239 A 
ATOM      6  C   UNL     1      10.386   4.619  -1.341  1.00  0.00     0.146 A 
ATOM      7  O   UNL     1       9.815   3.280   1.932  1.00  0.00    -0.285 OA
ATOM      8  C   UNL     1       9.744   4.418  -0.095  1.00  0.00     0.111 A 
ATOM      9  C   UNL     1       9.847   5.509  -2.275  1.00  0.00     0.094 A 
ATOM     10  C   UNL     1       8.547   5.119   0.187  1.00  0.00     0.134 A 
ATOM     11  C   UNL     1       8.668   6.204  -1.989  1.00  0.00     0.123 A 
ATOM     12  C   UNL     1       8.023   6.007  -0.764  1.00  0.00     0.093 A 
BRANCH   3  13
ATOM     13  C   UNL     1      13.369   2.494  -1.231  1.00  0.00     0.021 A 
ATOM     14  C   UNL     1      13.394   1.249  -1.886  1.00  0.00     0.016 A 
ATOM     15  C   UNL     1      14.611   0.683  -2.282  1.00  0.00     0.047 A 
ATOM     16  C   UNL     1      15.816   1.345  -2.010  1.00  0.00     0.115 A 
ATOM     17  C   UNL     1      14.582   3.139  -0.942  1.00  0.00     0.016 A 
ATOM     18  C   UNL     1      15.796   2.570  -1.336  1.00  0.00     0.047 A 
BRANCH  16  19
ATOM     19  O   UNL     1      17.033   0.796  -2.406  1.00  0.00    -0.508 OA
ATOM     20  H   UNL     1      17.154  -0.204  -2.510  1.00  0.00     0.293 HD
ENDBRANCH  16  19
ENDBRANCH   3  13
BRANCH  10  21
ATOM     21  O   UNL     1       7.875   4.938   1.397  1.00  0.00    -0.507 OA
ATOM     22  H   UNL     1       8.197   5.369   2.257  1.00  0.00     0.293 HD
ENDBRANCH  10  21
BRANCH  11  23
ATOM     23  O   UNL     1       8.124   7.094  -2.913  1.00  0.00    -0.508 OA
ATOM     24  H   UNL     1       8.579   7.977  -3.129  1.00  0.00     0.293 HD
ENDBRANCH  11  23
ENDBRANCH   1   2
BRANCH   1  25
ATOM     25  C   UNL     1      11.715   0.516   1.327  1.00  0.00     0.339 C 
ATOM     26  C   UNL     1      10.655   0.228   2.405  1.00  0.00     0.214 C 
ATOM     27  O   UNL     1      12.893  -0.263   1.473  1.00  0.00    -0.332 OA
ATOM     28  C   UNL     1      11.206   0.534   3.820  1.00  0.00     0.180 C 
ATOM     29  C   UNL     1      13.302  -0.518   2.813  1.00  0.00     0.179 C 
ATOM     30  C   UNL     1      12.755   0.470   3.876  1.00  0.00     0.177 C 
BRANCH  26  31
ATOM     31  O   UNL     1      10.261  -1.120   2.301  1.00  0.00    -0.384 OA
ATOM     32  H   UNL     1      10.762  -1.513   1.541  1.00  0.00     0.211 HD
ENDBRANCH  26  31
BRANCH  28  33
ATOM     33  O   UNL     1      10.652  -0.367   4.749  1.00  0.00    -0.387 OA
ATOM     34  H   UNL     1       9.985  -0.916   4.264  1.00  0.00     0.211 HD
ENDBRANCH  28  33
BRANCH  29  35
ATOM     35  C   UNL     1      14.837  -0.546   2.842  1.00  0.00     0.191 C 
BRANCH  35  36
ATOM     36  O   UNL     1      15.286  -0.299   4.146  1.00  0.00    -0.394 OA
ATOM     37  H   UNL     1      16.279  -0.286   4.103  1.00  0.00     0.210 HD
ENDBRANCH  35  36
ENDBRANCH  29  35
BRANCH  30  38
ATOM     38  O   UNL     1      13.302   1.748   3.666  1.00  0.00    -0.387 OA
ATOM     39  H   UNL     1      14.182   1.769   4.124  1.00  0.00     0.211 HD
ENDBRANCH  30  38
ENDBRANCH   1  25
TORSDOF 11
ENDMDL
MODEL 7
REMARK VINA RESULT:    -4.804      1.173      2.410
REMARK INTER + INTRA:          -8.361
REMARK INTER:                  -8.191
REMARK INTRA:                  -0.169
REMARK UNBOUND:                -1.450
REMARK SMILES O=c1c(O[C@H]2O[C@@H](CO)[C@@H](O)[C@H](O)[C@@H]2O)c(-c2ccc(O)cc2)oc2cc(O)cc(O)c12
REMARK SMILES IDX 4 1 3 2 16 3 24 4 2 5 25 6 1 7 32 8 26 9 30 10 27 11 29 12
REMARK SMILES IDX 17 13 18 14 19 15 20 16 23 17 22 18 21 19 31 21 28 23 5 25
REMARK SMILES IDX 14 26 6 27 12 28 7 29 10 30 15 31 13 33 8 35 9 36 11 38
REMARK H PARENT 21 20 31 22 28 24 15 32 13 34 9 37 11 39
REMARK Flexibility Score: inf
ROOT
ATOM      1  O   UNL     1      13.754   0.946   1.247  1.00  0.00    -0.454 OA
ENDROOT
BRANCH   1   2
ATOM      2  C   UNL     1      13.076   0.558   2.406  1.00  0.00     0.214 A 
ATOM      3  C   UNL     1      11.782  -0.003   2.359  1.00  0.00     0.180 A 
ATOM      4  O   UNL     1      11.193  -0.398   3.483  1.00  0.00    -0.452 OA
ATOM      5  C   UNL     1      13.692   0.735   3.649  1.00  0.00     0.239 A 
ATOM      6  C   UNL     1      11.751  -0.269   4.681  1.00  0.00     0.146 A 
ATOM      7  O   UNL     1      14.836   1.263   3.698  1.00  0.00    -0.285 OA
ATOM      8  C   UNL     1      13.034   0.314   4.820  1.00  0.00     0.111 A 
ATOM      9  C   UNL     1      11.051  -0.708   5.809  1.00  0.00     0.094 A 
ATOM     10  C   UNL     1      13.602   0.433   6.111  1.00  0.00     0.134 A 
ATOM     11  C   UNL     1      11.614  -0.581   7.083  1.00  0.00     0.123 A 
ATOM     12  C   UNL     1      12.884  -0.014   7.230  1.00  0.00     0.093 A 
BRANCH   3  13
ATOM     13  C   UNL     1      11.037  -0.158   1.089  1.00  0.00     0.021 A 
ATOM     14  C   UNL     1      11.512  -0.990   0.058  1.00  0.00     0.016 A 
ATOM     15  C   UNL     1      10.789  -1.123  -1.131  1.00  0.00     0.047 A 
ATOM     16  C   UNL     1       9.594  -0.412  -1.313  1.00  0.00     0.115 A 
ATOM     17  C   UNL     1       9.852   0.569   0.890  1.00  0.00     0.016 A 
ATOM     18  C   UNL     1       9.133   0.435  -0.302  1.00  0.00     0.047 A 
BRANCH  16  19
ATOM     19  O   UNL     1       8.862  -0.544  -2.491  1.00  0.00    -0.508 OA
ATOM     20  H   UNL     1       9.227  -1.048  -3.288  1.00  0.00     0.293 HD
ENDBRANCH  16  19
ENDBRANCH   3  13
BRANCH  10  21
ATOM     21  O   UNL     1      14.871   0.988   6.290  1.00  0.00    -0.507 OA
ATOM     22  H   UNL     1      15.626   0.467   6.723  1.00  0.00     0.293 HD
ENDBRANCH  10  21
BRANCH  11  23
ATOM     23  O   UNL     1      10.924  -1.015   8.213  1.00  0.00    -0.508 OA
ATOM     24  H   UNL     1      10.919  -1.994   8.487  1.00  0.00     0.293 HD
ENDBRANCH  11  23
ENDBRANCH   1   2
BRANCH   1  25
ATOM     25  C   UNL     1      13.116   1.591   0.142  1.00  0.00     0.339 C 
ATOM     26  C   UNL     1      14.087   1.690  -1.047  1.00  0.00     0.214 C 
ATOM     27  O   UNL     1      12.603   2.849   0.557  1.00  0.00    -0.332 OA
ATOM     28  C   UNL     1      15.316   2.564  -0.690  1.00  0.00     0.180 C 
ATOM     29  C   UNL     1      13.512   3.943   0.477  1.00  0.00     0.179 C 
ATOM     30  C   UNL     1      15.015   3.559   0.461  1.00  0.00     0.177 C 
BRANCH  26  31
ATOM     31  O   UNL     1      13.396   2.225  -2.152  1.00  0.00    -0.384 OA
ATOM     32  H   UNL     1      13.284   1.491  -2.809  1.00  0.00     0.211 HD
ENDBRANCH  26  31
BRANCH  28  33
ATOM     33  O   UNL     1      15.748   3.263  -1.832  1.00  0.00    -0.387 OA
ATOM     34  H   UNL     1      16.637   2.901  -2.079  1.00  0.00     0.211 HD
ENDBRANCH  28  33
BRANCH  29  35
ATOM     35  C   UNL     1      13.211   4.894   1.644  1.00  0.00     0.191 C 
BRANCH  35  36
ATOM     36  O   UNL     1      11.856   5.250   1.621  1.00  0.00    -0.394 OA
ATOM     37  H   UNL     1      11.341   4.405   1.714  1.00  0.00     0.210 HD
ENDBRANCH  35  36
ENDBRANCH  29  35
BRANCH  30  38
ATOM     38  O   UNL     1      15.378   2.997   1.697  1.00  0.00    -0.387 OA
ATOM     39  H   UNL     1      15.752   3.728   2.254  1.00  0.00     0.211 HD
ENDBRANCH  30  38
ENDBRANCH   1  25
TORSDOF 11
ENDMDL
MODEL 8
REMARK VINA RESULT:    -4.705      1.984      4.681
REMARK INTER + INTRA:          -8.218
REMARK INTER:                  -6.983
REMARK INTRA:                  -1.235
REMARK UNBOUND:                -1.450
REMARK SMILES O=c1c(O[C@H]2O[C@@H](CO)[C@@H](O)[C@H](O)[C@@H]2O)c(-c2ccc(O)cc2)oc2cc(O)cc(O)c12
REMARK SMILES IDX 4 1 3 2 16 3 24 4 2 5 25 6 1 7 32 8 26 9 30 10 27 11 29 12
REMARK SMILES IDX 17 13 18 14 19 15 20 16 23 17 22 18 21 19 31 21 28 23 5 25
REMARK SMILES IDX 14 26 6 27 12 28 7 29 10 30 15 31 13 33 8 35 9 36 11 38
REMARK H PARENT 21 20 31 22 28 24 15 32 13 34 9 37 11 39
REMARK Flexibility Score: inf
ROOT
ATOM      1  O   UNL     1      11.091   0.218   1.236  1.00  0.00    -0.454 OA
ENDROOT
BRANCH   1   2
ATOM      2  C   UNL     1      12.076   0.073   2.216  1.00  0.00     0.214 A 
ATOM      3  C   UNL     1      13.448   0.015   1.889  1.00  0.00     0.180 A 
ATOM      4  O   UNL     1      14.353  -0.080   2.857  1.00  0.00    -0.452 OA
ATOM      5  C   UNL     1      11.695  -0.025   3.558  1.00  0.00     0.239 A 
ATOM      6  C   UNL     1      14.036  -0.154   4.145  1.00  0.00     0.146 A 
ATOM      7  O   UNL     1      10.470  -0.003   3.851  1.00  0.00    -0.285 OA
ATOM      8  C   UNL     1      12.682  -0.136   4.556  1.00  0.00     0.111 A 
ATOM      9  C   UNL     1      15.059  -0.258   5.092  1.00  0.00     0.094 A 
ATOM     10  C   UNL     1      12.378  -0.211   5.937  1.00  0.00     0.134 A 
ATOM     11  C   UNL     1      14.753  -0.341   6.455  1.00  0.00     0.123 A 
ATOM     12  C   UNL     1      13.418  -0.316   6.872  1.00  0.00     0.093 A 
BRANCH   3  13
ATOM     13  C   UNL     1      13.925   0.042   0.488  1.00  0.00     0.021 A 
ATOM     14  C   UNL     1      13.922  -1.118  -0.309  1.00  0.00     0.016 A 
ATOM     15  C   UNL     1      14.374  -1.068  -1.631  1.00  0.00     0.047 A 
ATOM     16  C   UNL     1      14.854   0.135  -2.166  1.00  0.00     0.115 A 
ATOM     17  C   UNL     1      14.430   1.238  -0.048  1.00  0.00     0.016 A 
ATOM     18  C   UNL     1      14.884   1.283  -1.370  1.00  0.00     0.047 A 
BRANCH  16  19
ATOM     19  O   UNL     1      15.301   0.199  -3.484  1.00  0.00    -0.508 OA
ATOM     20  H   UNL     1      15.316   1.071  -3.997  1.00  0.00     0.293 HD
ENDBRANCH  16  19
ENDBRANCH   3  13
BRANCH  10  21
ATOM     21  O   UNL     1      11.056  -0.181   6.385  1.00  0.00    -0.507 OA
ATOM     22  H   UNL     1      10.633  -0.974   6.856  1.00  0.00     0.293 HD
ENDBRANCH  10  21
BRANCH  11  23
ATOM     23  O   UNL     1      15.765  -0.447   7.407  1.00  0.00    -0.508 OA
ATOM     24  H   UNL     1      16.711  -0.713   7.147  1.00  0.00     0.293 HD
ENDBRANCH  11  23
ENDBRANCH   1   2
BRANCH   1  25
ATOM     25  C   UNL     1      11.004   1.352   0.369  1.00  0.00     0.339 C 
ATOM     26  C   UNL     1      10.447   2.564   1.134  1.00  0.00     0.214 C 
ATOM     27  O   UNL     1      10.245   1.014  -0.782  1.00  0.00    -0.332 OA
ATOM     28  C   UNL     1       9.004   2.292   1.630  1.00  0.00     0.180 C 
ATOM     29  C   UNL     1       8.835   1.185  -0.664  1.00  0.00     0.179 C 
ATOM     30  C   UNL     1       8.287   1.206   0.787  1.00  0.00     0.177 C 
BRANCH  26  31
ATOM     31  O   UNL     1      10.481   3.689   0.286  1.00  0.00    -0.384 OA
ATOM     32  H   UNL     1      11.426   3.986   0.235  1.00  0.00     0.211 HD
ENDBRANCH  26  31
BRANCH  28  33
ATOM     33  O   UNL     1       8.262   3.488   1.609  1.00  0.00    -0.387 OA
ATOM     34  H   UNL     1       8.889   4.227   1.815  1.00  0.00     0.211 HD
ENDBRANCH  28  33
BRANCH  29  35
ATOM     35  C   UNL     1       8.154   0.080  -1.483  1.00  0.00     0.191 C 
BRANCH  35  36
ATOM     36  O   UNL     1       9.075  -0.471  -2.384  1.00  0.00    -0.394 OA
ATOM     37  H   UNL     1       8.555  -1.063  -2.990  1.00  0.00     0.210 HD
ENDBRANCH  35  36
ENDBRANCH  29  35
BRANCH  30  38
ATOM     38  O   UNL     1       8.455  -0.058   1.378  1.00  0.00    -0.387 OA
ATOM     39  H   UNL     1       8.108   0.003   2.306  1.00  0.00     0.211 HD
ENDBRANCH  30  38
ENDBRANCH   1  25
TORSDOF 11
ENDMDL
MODEL 9
REMARK VINA RESULT:    -4.608      2.269      6.731
REMARK INTER + INTRA:          -8.078
REMARK INTER:                  -7.630
REMARK INTRA:                  -0.448
REMARK UNBOUND:                -1.450
REMARK SMILES O=c1c(O[C@H]2O[C@@H](CO)[C@@H](O)[C@H](O)[C@@H]2O)c(-c2ccc(O)cc2)oc2cc(O)cc(O)c12
REMARK SMILES IDX 4 1 3 2 16 3 24 4 2 5 25 6 1 7 32 8 26 9 30 10 27 11 29 12
REMARK SMILES IDX 17 13 18 14 19 15 20 16 23 17 22 18 21 19 31 21 28 23 5 25
REMARK SMILES IDX 14 26 6 27 12 28 7 29 10 30 15 31 13 33 8 35 9 36 11 38
REMARK H PARENT 21 20 31 22 28 24 15 32 13 34 9 37 11 39
REMARK Flexibility Score: inf
ROOT
ATOM      1  O   UNL     1      13.993   1.147   3.181  1.00  0.00    -0.454 OA
ENDROOT
BRANCH   1   2
ATOM      2  C   UNL     1      13.605   1.683   1.950  1.00  0.00     0.214 A 
ATOM      3  C   UNL     1      12.276   1.591   1.485  1.00  0.00     0.180 A 
ATOM      4  O   UNL     1      11.943   2.153   0.327  1.00  0.00    -0.452 OA
ATOM      5  C   UNL     1      14.559   2.321   1.153  1.00  0.00     0.239 A 
ATOM      6  C   UNL     1      12.812   2.788  -0.451  1.00  0.00     0.146 A 
ATOM      7  O   UNL     1      15.754   2.379   1.552  1.00  0.00    -0.285 OA
ATOM      8  C   UNL     1      14.172   2.896  -0.073  1.00  0.00     0.111 A 
ATOM      9  C   UNL     1      12.369   3.342  -1.655  1.00  0.00     0.094 A 
ATOM     10  C   UNL     1      15.073   3.583  -0.923  1.00  0.00     0.134 A 
ATOM     11  C   UNL     1      13.265   4.013  -2.495  1.00  0.00     0.123 A 
ATOM     12  C   UNL     1      14.608   4.132  -2.127  1.00  0.00     0.093 A 
BRANCH   3  13
ATOM     13  C   UNL     1      11.225   0.870   2.238  1.00  0.00     0.021 A 
ATOM     14  C   UNL     1      11.514  -0.306   2.954  1.00  0.00     0.016 A 
ATOM     15  C   UNL     1      10.506  -0.968   3.662  1.00  0.00     0.047 A 
ATOM     16  C   UNL     1       9.194  -0.474   3.646  1.00  0.00     0.115 A 
ATOM     17  C   UNL     1       9.904   1.345   2.208  1.00  0.00     0.016 A 
ATOM     18  C   UNL     1       8.898   0.679   2.915  1.00  0.00     0.047 A 
BRANCH  16  19
ATOM     19  O   UNL     1       8.183  -1.121   4.353  1.00  0.00    -0.508 OA
ATOM     20  H   UNL     1       8.045  -0.962   5.343  1.00  0.00     0.293 HD
ENDBRANCH  16  19
ENDBRANCH   3  13
BRANCH  10  21
ATOM     21  O   UNL     1      16.418   3.726  -0.580  1.00  0.00    -0.507 OA
ATOM     22  H   UNL     1      17.131   3.102  -0.942  1.00  0.00     0.293 HD
ENDBRANCH  10  21
BRANCH  11  23
ATOM     23  O   UNL     1      12.833   4.568  -3.698  1.00  0.00    -0.508 OA
ATOM     24  H   UNL     1      12.512   3.984  -4.466  1.00  0.00     0.293 HD
ENDBRANCH  11  23
ENDBRANCH   1   2
BRANCH   1  25
ATOM     25  C   UNL     1      14.352   1.948   4.309  1.00  0.00     0.339 C 
ATOM     26  C   UNL     1      15.825   1.706   4.684  1.00  0.00     0.214 C 
ATOM     27  O   UNL     1      13.450   1.698   5.377  1.00  0.00    -0.332 OA
ATOM     28  C   UNL     1      16.054   0.235   5.112  1.00  0.00     0.180 C 
ATOM     29  C   UNL     1      13.791   0.610   6.231  1.00  0.00     0.179 C 
ATOM     30  C   UNL     1      14.753  -0.441   5.618  1.00  0.00     0.177 C 
BRANCH  26  31
ATOM     31  O   UNL     1      16.177   2.591   5.723  1.00  0.00    -0.384 OA
ATOM     32  H   UNL     1      16.081   2.093   6.575  1.00  0.00     0.211 HD
ENDBRANCH  26  31
BRANCH  28  33
ATOM     33  O   UNL     1      17.046   0.180   6.109  1.00  0.00    -0.387 OA
ATOM     34  H   UNL     1      17.728  -0.474   5.810  1.00  0.00     0.211 HD
ENDBRANCH  28  33
BRANCH  29  35
ATOM     35  C   UNL     1      12.487  -0.057   6.691  1.00  0.00     0.191 C 
BRANCH  35  36
ATOM     36  O   UNL     1      12.205   0.322   8.010  1.00  0.00    -0.394 OA
ATOM     37  H   UNL     1      13.048   0.202   8.523  1.00  0.00     0.210 HD
ENDBRANCH  35  36
ENDBRANCH  29  35
BRANCH  30  38
ATOM     38  O   UNL     1      14.114  -1.116   4.564  1.00  0.00    -0.387 OA
ATOM     39  H   UNL     1      14.549  -2.003   4.476  1.00  0.00     0.211 HD
ENDBRANCH  30  38
ENDBRANCH   1  25
TORSDOF 11
ENDMDL
