MODEL 1
REMARK VINA RESULT:    -1.774      0.000      0.000
REMARK INTER + INTRA:          -5.241
REMARK INTER:                  -3.434
REMARK INTRA:                  -1.807
REMARK UNBOUND:                -1.807
REMARK SMILES CCCCCCCCCCCCCCCCCC(=O)[O-]
REMARK SMILES IDX 10 1 11 2 12 3 13 4 14 5 15 6 16 7 17 8 18 9 19 10 20 11
REMARK SMILES IDX 9 12 8 13 7 14 6 15 5 16 4 17 3 18 2 19 1 20
REMARK H PARENT
REMARK Flexibility Score: inf
ROOT
ATOM      1  C   UNL     1     -54.289 120.596  -9.073  1.00  0.00     0.000 C 
ENDROOT
BRANCH   1   2
ATOM      2  C   UNL     1     -53.563 121.481  -8.047  1.00  0.00     0.000 C 
BRANCH   2   3
ATOM      3  C   UNL     1     -53.616 122.974  -8.412  1.00  0.00     0.000 C 
BRANCH   3   4
ATOM      4  C   UNL     1     -53.329 123.227  -9.901  1.00  0.00     0.000 C 
BRANCH   4   5
ATOM      5  C   UNL     1     -54.596 123.574 -10.701  1.00  0.00     0.000 C 
BRANCH   5   6
ATOM      6  C   UNL     1     -54.771 122.790 -12.016  1.00  0.00     0.000 C 
BRANCH   6   7
ATOM      7  C   UNL     1     -56.122 122.051 -12.125  1.00  0.00     0.006 C 
BRANCH   7   8
ATOM      8  C   UNL     1     -55.955 120.526 -12.081  1.00  0.00     0.053 C 
BRANCH   8   9
ATOM      9  C   UNL     1     -56.911 119.923 -11.101  1.00  0.00     0.041 C 
ATOM     10  O   UNL     1     -56.714 118.762 -10.656  1.00  0.00    -0.550 OA
ATOM     11  O   UNL     1     -58.046 120.624 -10.716  1.00  0.00    -0.550 OA
ENDBRANCH   8   9
ENDBRANCH   7   8
ENDBRANCH   6   7
ENDBRANCH   5   6
ENDBRANCH   4   5
ENDBRANCH   3   4
ENDBRANCH   2   3
ENDBRANCH   1   2
BRANCH   1  12
ATOM     12  C   UNL     1     -53.379 119.514  -9.679  1.00  0.00     0.000 C 
BRANCH  12  13
ATOM     13  C   UNL     1     -52.022 120.055 -10.177  1.00  0.00    -0.000 C 
BRANCH  13  14
ATOM     14  C   UNL     1     -52.112 120.610 -11.610  1.00  0.00    -0.000 C 
BRANCH  14  15
ATOM     15  C   UNL     1     -50.763 121.135 -12.125  1.00  0.00    -0.000 C 
BRANCH  15  16
ATOM     16  C   UNL     1     -50.643 122.665 -12.006  1.00  0.00    -0.000 C 
BRANCH  16  17
ATOM     17  C   UNL     1     -49.216 123.121 -11.661  1.00  0.00    -0.000 C 
BRANCH  17  18
ATOM     18  C   UNL     1     -48.905 123.000 -10.161  1.00  0.00    -0.000 C 
BRANCH  18  19
ATOM     19  C   UNL     1     -48.885 124.379  -9.493  1.00  0.00    -0.003 C 
ATOM     20  C   UNL     1     -49.920 124.464  -8.374  1.00  0.00     0.004 C 
ENDBRANCH  18  19
ENDBRANCH  17  18
ENDBRANCH  16  17
ENDBRANCH  15  16
ENDBRANCH  14  15
ENDBRANCH  13  14
ENDBRANCH  12  13
ENDBRANCH   1  12
TORSDOF 16
ENDMDL
MODEL 2
REMARK VINA RESULT:    -1.401      1.225      2.572
REMARK INTER + INTRA:          -4.519
REMARK INTER:                  -3.480
REMARK INTRA:                  -1.039
REMARK UNBOUND:                -1.807
REMARK SMILES CCCCCCCCCCCCCCCCCC(=O)[O-]
REMARK SMILES IDX 10 1 11 2 12 3 13 4 14 5 15 6 16 7 17 8 18 9 19 10 20 11
REMARK SMILES IDX 9 12 8 13 7 14 6 15 5 16 4 17 3 18 2 19 1 20
REMARK H PARENT
REMARK Flexibility Score: inf
ROOT
ATOM      1  C   UNL     1     -52.544 120.537  -9.846  1.00  0.00     0.000 C 
ENDROOT
BRANCH   1   2
ATOM      2  C   UNL     1     -53.084 119.658 -10.985  1.00  0.00     0.000 C 
BRANCH   2   3
ATOM      3  C   UNL     1     -53.708 120.483 -12.123  1.00  0.00     0.000 C 
BRANCH   3   4
ATOM      4  C   UNL     1     -53.289 121.962 -12.078  1.00  0.00     0.000 C 
BRANCH   4   5
ATOM      5  C   UNL     1     -54.466 122.905 -11.776  1.00  0.00     0.000 C 
BRANCH   5   6
ATOM      6  C   UNL     1     -55.795 122.202 -11.442  1.00  0.00     0.000 C 
BRANCH   6   7
ATOM      7  C   UNL     1     -56.074 122.084  -9.927  1.00  0.00     0.006 C 
BRANCH   7   8
ATOM      8  C   UNL     1     -56.424 120.648  -9.511  1.00  0.00     0.053 C 
BRANCH   8   9
ATOM      9  C   UNL     1     -57.094 119.926 -10.637  1.00  0.00     0.041 C 
ATOM     10  O   UNL     1     -56.594 118.866 -11.096  1.00  0.00    -0.550 OA
ATOM     11  O   UNL     1     -58.244 120.450 -11.212  1.00  0.00    -0.550 OA
ENDBRANCH   8   9
ENDBRANCH   7   8
ENDBRANCH   6   7
ENDBRANCH   5   6
ENDBRANCH   4   5
ENDBRANCH   3   4
ENDBRANCH   2   3
ENDBRANCH   1   2
BRANCH   1  12
ATOM     12  C   UNL     1     -51.012 120.673  -9.871  1.00  0.00     0.000 C 
BRANCH  12  13
ATOM     13  C   UNL     1     -50.457 121.172 -11.222  1.00  0.00    -0.000 C 
BRANCH  13  14
ATOM     14  C   UNL     1     -49.120 121.916 -11.059  1.00  0.00    -0.000 C 
BRANCH  14  15
ATOM     15  C   UNL     1     -49.198 123.377 -11.527  1.00  0.00    -0.000 C 
BRANCH  15  16
ATOM     16  C   UNL     1     -48.875 124.374 -10.399  1.00  0.00    -0.000 C 
BRANCH  16  17
ATOM     17  C   UNL     1     -49.238 123.829  -9.008  1.00  0.00    -0.000 C 
BRANCH  17  18
ATOM     18  C   UNL     1     -50.574 124.383  -8.488  1.00  0.00    -0.000 C 
BRANCH  18  19
ATOM     19  C   UNL     1     -51.604 123.261  -8.322  1.00  0.00    -0.003 C 
ATOM     20  C   UNL     1     -53.023 123.781  -8.530  1.00  0.00     0.004 C 
ENDBRANCH  18  19
ENDBRANCH  17  18
ENDBRANCH  16  17
ENDBRANCH  15  16
ENDBRANCH  14  15
ENDBRANCH  13  14
ENDBRANCH  12  13
ENDBRANCH   1  12
TORSDOF 16
ENDMDL
MODEL 3
REMARK VINA RESULT:    -0.958      3.071      6.466
REMARK INTER + INTRA:          -3.662
REMARK INTER:                  -3.690
REMARK INTRA:                   0.028
REMARK UNBOUND:                -1.807
REMARK SMILES CCCCCCCCCCCCCCCCCC(=O)[O-]
REMARK SMILES IDX 10 1 11 2 12 3 13 4 14 5 15 6 16 7 17 8 18 9 19 10 20 11
REMARK SMILES IDX 9 12 8 13 7 14 6 15 5 16 4 17 3 18 2 19 1 20
REMARK H PARENT
REMARK Flexibility Score: inf
ROOT
ATOM      1  C   UNL     1     -54.059 120.763  -9.003  1.00  0.00     0.000 C 
ENDROOT
BRANCH   1   2
ATOM      2  C   UNL     1     -52.969 119.766  -9.427  1.00  0.00     0.000 C 
BRANCH   2   3
ATOM      3  C   UNL     1     -51.726 120.461 -10.007  1.00  0.00     0.000 C 
BRANCH   3   4
ATOM      4  C   UNL     1     -51.746 120.521 -11.544  1.00  0.00     0.000 C 
BRANCH   4   5
ATOM      5  C   UNL     1     -51.051 121.775 -12.100  1.00  0.00     0.000 C 
BRANCH   5   6
ATOM      6  C   UNL     1     -49.513 121.756 -12.020  1.00  0.00     0.000 C 
BRANCH   6   7
ATOM      7  C   UNL     1     -48.877 123.160 -11.914  1.00  0.00     0.006 C 
BRANCH   7   8
ATOM      8  C   UNL     1     -49.585 124.042 -10.876  1.00  0.00     0.053 C 
BRANCH   8   9
ATOM      9  C   UNL     1     -49.127 123.693  -9.495  1.00  0.00     0.041 C 
ATOM     10  O   UNL     1     -48.876 124.603  -8.663  1.00  0.00    -0.550 OA
ATOM     11  O   UNL     1     -48.930 122.364  -9.143  1.00  0.00    -0.550 OA
ENDBRANCH   8   9
ENDBRANCH   7   8
ENDBRANCH   6   7
ENDBRANCH   5   6
ENDBRANCH   4   5
ENDBRANCH   3   4
ENDBRANCH   2   3
ENDBRANCH   1   2
BRANCH   1  12
ATOM     12  C   UNL     1     -53.483 122.074  -8.440  1.00  0.00     0.000 C 
BRANCH  12  13
ATOM     13  C   UNL     1     -53.462 123.229  -9.463  1.00  0.00    -0.000 C 
BRANCH  13  14
ATOM     14  C   UNL     1     -53.934 122.777 -10.857  1.00  0.00    -0.000 C 
BRANCH  14  15
ATOM     15  C   UNL     1     -55.430 123.039 -11.087  1.00  0.00    -0.000 C 
BRANCH  15  16
ATOM     16  C   UNL     1     -56.070 122.006 -12.033  1.00  0.00    -0.000 C 
BRANCH  16  17
ATOM     17  C   UNL     1     -55.265 120.699 -12.111  1.00  0.00    -0.000 C 
BRANCH  17  18
ATOM     18  C   UNL     1     -55.988 119.520 -11.442  1.00  0.00    -0.000 C 
BRANCH  18  19
ATOM     19  C   UNL     1     -57.323 119.969 -10.838  1.00  0.00    -0.003 C 
ATOM     20  C   UNL     1     -58.341 120.293 -11.928  1.00  0.00     0.004 C 
ENDBRANCH  18  19
ENDBRANCH  17  18
ENDBRANCH  16  17
ENDBRANCH  15  16
ENDBRANCH  14  15
ENDBRANCH  13  14
ENDBRANCH  12  13
ENDBRANCH   1  12
TORSDOF 16
ENDMDL
MODEL 4
REMARK VINA RESULT:    -0.598      3.451      6.481
REMARK INTER + INTRA:          -2.965
REMARK INTER:                  -2.093
REMARK INTRA:                  -0.872
REMARK UNBOUND:                -1.807
REMARK SMILES CCCCCCCCCCCCCCCCCC(=O)[O-]
REMARK SMILES IDX 10 1 11 2 12 3 13 4 14 5 15 6 16 7 17 8 18 9 19 10 20 11
REMARK SMILES IDX 9 12 8 13 7 14 6 15 5 16 4 17 3 18 2 19 1 20
REMARK H PARENT
REMARK Flexibility Score: inf
ROOT
ATOM      1  C   UNL     1     -54.562 120.048 -11.653  1.00  0.00     0.000 C 
ENDROOT
BRANCH   1   2
ATOM      2  C   UNL     1     -53.103 120.149 -12.124  1.00  0.00     0.000 C 
BRANCH   2   3
ATOM      3  C   UNL     1     -52.275 121.131 -11.278  1.00  0.00     0.000 C 
BRANCH   3   4
ATOM      4  C   UNL     1     -51.223 121.884 -12.110  1.00  0.00     0.000 C 
BRANCH   4   5
ATOM      5  C   UNL     1     -49.786 121.431 -11.803  1.00  0.00     0.000 C 
BRANCH   5   6
ATOM      6  C   UNL     1     -49.564 120.888 -10.379  1.00  0.00     0.000 C 
BRANCH   6   7
ATOM      7  C   UNL     1     -48.989 121.932  -9.396  1.00  0.00     0.006 C 
BRANCH   7   8
ATOM      8  C   UNL     1     -49.957 123.099  -9.156  1.00  0.00     0.053 C 
BRANCH   8   9
ATOM      9  C   UNL     1     -49.274 124.405  -9.412  1.00  0.00     0.041 C 
ATOM     10  O   UNL     1     -48.902 125.125  -8.449  1.00  0.00    -0.550 OA
ATOM     11  O   UNL     1     -49.092 124.851 -10.715  1.00  0.00    -0.550 OA
ENDBRANCH   8   9
ENDBRANCH   7   8
ENDBRANCH   6   7
ENDBRANCH   5   6
ENDBRANCH   4   5
ENDBRANCH   3   4
ENDBRANCH   2   3
ENDBRANCH   1   2
BRANCH   1  12
ATOM     12  C   UNL     1     -55.410 121.262 -12.072  1.00  0.00     0.000 C 
BRANCH  12  13
ATOM     13  C   UNL     1     -56.925 120.972 -12.118  1.00  0.00    -0.000 C 
BRANCH  13  14
ATOM     14  C   UNL     1     -57.309 119.760 -11.250  1.00  0.00    -0.000 C 
BRANCH  14  15
ATOM     15  C   UNL     1     -57.368 120.102  -9.753  1.00  0.00    -0.000 C 
BRANCH  15  16
ATOM     16  C   UNL     1     -57.473 121.617  -9.499  1.00  0.00    -0.000 C 
BRANCH  16  17
ATOM     17  C   UNL     1     -56.596 122.082  -8.326  1.00  0.00    -0.000 C 
BRANCH  17  18
ATOM     18  C   UNL     1     -55.220 121.396  -8.310  1.00  0.00    -0.000 C 
BRANCH  18  19
ATOM     19  C   UNL     1     -54.191 122.216  -9.096  1.00  0.00    -0.003 C 
ATOM     20  C   UNL     1     -53.056 122.688  -8.192  1.00  0.00     0.004 C 
ENDBRANCH  18  19
ENDBRANCH  17  18
ENDBRANCH  16  17
ENDBRANCH  15  16
ENDBRANCH  14  15
ENDBRANCH  13  14
ENDBRANCH  12  13
ENDBRANCH   1  12
TORSDOF 16
ENDMDL
MODEL 5
REMARK VINA RESULT:    -0.415      2.417      3.722
REMARK INTER + INTRA:          -2.611
REMARK INTER:                  -2.262
REMARK INTRA:                  -0.349
REMARK UNBOUND:                -1.807
REMARK SMILES CCCCCCCCCCCCCCCCCC(=O)[O-]
REMARK SMILES IDX 10 1 11 2 12 3 13 4 14 5 15 6 16 7 17 8 18 9 19 10 20 11
REMARK SMILES IDX 9 12 8 13 7 14 6 15 5 16 4 17 3 18 2 19 1 20
REMARK H PARENT
REMARK Flexibility Score: inf
ROOT
ATOM      1  C   UNL     1     -54.576 119.328 -10.449  1.00  0.00     0.000 C 
ENDROOT
BRANCH   1   2
ATOM      2  C   UNL     1     -55.635 119.507 -11.548  1.00  0.00     0.000 C 
BRANCH   2   3
ATOM      3  C   UNL     1     -57.071 119.434 -11.004  1.00  0.00     0.000 C 
BRANCH   3   4
ATOM      4  C   UNL     1     -57.752 120.813 -10.950  1.00  0.00     0.000 C 
BRANCH   4   5
ATOM      5  C   UNL     1     -57.004 121.810 -10.049  1.00  0.00     0.000 C 
BRANCH   5   6
ATOM      6  C   UNL     1     -56.700 121.302  -8.627  1.00  0.00     0.000 C 
BRANCH   6   7
ATOM      7  C   UNL     1     -55.347 121.791  -8.066  1.00  0.00     0.006 C 
BRANCH   7   8
ATOM      8  C   UNL     1     -54.398 122.270  -9.174  1.00  0.00     0.053 C 
BRANCH   8   9
ATOM      9  C   UNL     1     -53.471 123.321  -8.650  1.00  0.00     0.041 C 
ATOM     10  O   UNL     1     -53.641 124.528  -8.962  1.00  0.00    -0.550 OA
ATOM     11  O   UNL     1     -52.389 122.960  -7.857  1.00  0.00    -0.550 OA
ENDBRANCH   8   9
ENDBRANCH   7   8
ENDBRANCH   6   7
ENDBRANCH   5   6
ENDBRANCH   4   5
ENDBRANCH   3   4
ENDBRANCH   2   3
ENDBRANCH   1   2
BRANCH   1  12
ATOM     12  C   UNL     1     -53.241 120.014 -10.788  1.00  0.00     0.000 C 
BRANCH  12  13
ATOM     13  C   UNL     1     -53.305 120.901 -12.049  1.00  0.00    -0.000 C 
BRANCH  13  14
ATOM     14  C   UNL     1     -52.129 121.892 -12.120  1.00  0.00    -0.000 C 
BRANCH  14  15
ATOM     15  C   UNL     1     -51.102 121.669 -10.999  1.00  0.00    -0.000 C 
BRANCH  15  16
ATOM     16  C   UNL     1     -49.663 121.554 -11.535  1.00  0.00    -0.000 C 
BRANCH  16  17
ATOM     17  C   UNL     1     -49.146 122.876 -12.125  1.00  0.00    -0.000 C 
BRANCH  17  18
ATOM     18  C   UNL     1     -48.875 123.937 -11.048  1.00  0.00    -0.000 C 
BRANCH  18  19
ATOM     19  C   UNL     1     -49.144 123.376  -9.647  1.00  0.00    -0.003 C 
ATOM     20  C   UNL     1     -49.240 124.495  -8.614  1.00  0.00     0.004 C 
ENDBRANCH  18  19
ENDBRANCH  17  18
ENDBRANCH  16  17
ENDBRANCH  15  16
ENDBRANCH  14  15
ENDBRANCH  13  14
ENDBRANCH  12  13
ENDBRANCH   1  12
TORSDOF 16
ENDMDL
MODEL 6
REMARK VINA RESULT:    -0.272      2.178      5.892
REMARK INTER + INTRA:          -2.333
REMARK INTER:                  -1.693
REMARK INTRA:                  -0.640
REMARK UNBOUND:                -1.807
REMARK SMILES CCCCCCCCCCCCCCCCCC(=O)[O-]
REMARK SMILES IDX 10 1 11 2 12 3 13 4 14 5 15 6 16 7 17 8 18 9 19 10 20 11
REMARK SMILES IDX 9 12 8 13 7 14 6 15 5 16 4 17 3 18 2 19 1 20
REMARK H PARENT
REMARK Flexibility Score: inf
ROOT
ATOM      1  C   UNL     1     -52.808 122.353  -8.457  1.00  0.00     0.000 C 
ENDROOT
BRANCH   1   2
ATOM      2  C   UNL     1     -52.159 123.703  -8.800  1.00  0.00     0.000 C 
BRANCH   2   3
ATOM      3  C   UNL     1     -51.023 124.075  -7.832  1.00  0.00     0.000 C 
BRANCH   3   4
ATOM      4  C   UNL     1     -49.791 124.640  -8.560  1.00  0.00     0.000 C 
BRANCH   4   5
ATOM      5  C   UNL     1     -48.926 123.543  -9.204  1.00  0.00     0.000 C 
BRANCH   5   6
ATOM      6  C   UNL     1     -48.920 123.538 -10.744  1.00  0.00     0.000 C 
BRANCH   6   7
ATOM      7  C   UNL     1     -48.876 122.124 -11.362  1.00  0.00     0.006 C 
BRANCH   7   8
ATOM      8  C   UNL     1     -50.042 121.245 -10.889  1.00  0.00     0.053 C 
BRANCH   8   9
ATOM      9  C   UNL     1     -51.260 121.501 -11.718  1.00  0.00     0.041 C 
ATOM     10  O   UNL     1     -51.586 122.679 -12.019  1.00  0.00    -0.550 OA
ATOM     11  O   UNL     1     -52.064 120.441 -12.117  1.00  0.00    -0.550 OA
ENDBRANCH   8   9
ENDBRANCH   7   8
ENDBRANCH   6   7
ENDBRANCH   5   6
ENDBRANCH   4   5
ENDBRANCH   3   4
ENDBRANCH   2   3
ENDBRANCH   1   2
BRANCH   1  12
ATOM     12  C   UNL     1     -53.607 121.759  -9.630  1.00  0.00     0.000 C 
BRANCH  12  13
ATOM     13  C   UNL     1     -54.558 122.770 -10.305  1.00  0.00    -0.000 C 
BRANCH  13  14
ATOM     14  C   UNL     1     -54.855 122.398 -11.768  1.00  0.00    -0.000 C 
BRANCH  14  15
ATOM     15  C   UNL     1     -56.342 122.545 -12.125  1.00  0.00    -0.000 C 
BRANCH  15  16
ATOM     16  C   UNL     1     -57.089 121.199 -12.102  1.00  0.00    -0.000 C 
BRANCH  16  17
ATOM     17  C   UNL     1     -56.139 120.000 -11.947  1.00  0.00    -0.000 C 
BRANCH  17  18
ATOM     18  C   UNL     1     -56.319 119.275 -10.604  1.00  0.00    -0.000 C 
BRANCH  18  19
ATOM     19  C   UNL     1     -57.301 120.030  -9.701  1.00  0.00    -0.003 C 
ATOM     20  C   UNL     1     -56.562 120.931  -8.717  1.00  0.00     0.004 C 
ENDBRANCH  18  19
ENDBRANCH  17  18
ENDBRANCH  16  17
ENDBRANCH  15  16
ENDBRANCH  14  15
ENDBRANCH  13  14
ENDBRANCH  12  13
ENDBRANCH   1  12
TORSDOF 16
ENDMDL
MODEL 7
REMARK VINA RESULT:     0.079      1.946      3.444
REMARK INTER + INTRA:          -1.655
REMARK INTER:                  -1.197
REMARK INTRA:                  -0.458
REMARK UNBOUND:                -1.807
REMARK SMILES CCCCCCCCCCCCCCCCCC(=O)[O-]
REMARK SMILES IDX 10 1 11 2 12 3 13 4 14 5 15 6 16 7 17 8 18 9 19 10 20 11
REMARK SMILES IDX 9 12 8 13 7 14 6 15 5 16 4 17 3 18 2 19 1 20
REMARK H PARENT
REMARK Flexibility Score: inf
ROOT
ATOM      1  C   UNL     1     -56.676 120.260 -11.914  1.00  0.00     0.000 C 
ENDROOT
BRANCH   1   2
ATOM      2  C   UNL     1     -57.176 121.028 -10.681  1.00  0.00     0.000 C 
BRANCH   2   3
ATOM      3  C   UNL     1     -56.295 120.794  -9.442  1.00  0.00     0.000 C 
BRANCH   3   4
ATOM      4  C   UNL     1     -55.807 122.109  -8.809  1.00  0.00     0.000 C 
BRANCH   4   5
ATOM      5  C   UNL     1     -54.659 122.760  -9.599  1.00  0.00     0.000 C 
BRANCH   5   6
ATOM      6  C   UNL     1     -53.472 123.241  -8.744  1.00  0.00     0.000 C 
BRANCH   6   7
ATOM      7  C   UNL     1     -52.520 122.108  -8.304  1.00  0.00     0.006 C 
BRANCH   7   8
ATOM      8  C   UNL     1     -53.235 120.753  -8.205  1.00  0.00     0.053 C 
BRANCH   8   9
ATOM      9  C   UNL     1     -52.477 119.706  -8.957  1.00  0.00     0.041 C 
ATOM     10  O   UNL     1     -53.071 118.686  -9.395  1.00  0.00    -0.550 OA
ATOM     11  O   UNL     1     -51.105 119.831  -9.130  1.00  0.00    -0.550 OA
ENDBRANCH   8   9
ENDBRANCH   7   8
ENDBRANCH   6   7
ENDBRANCH   5   6
ENDBRANCH   4   5
ENDBRANCH   3   4
ENDBRANCH   2   3
ENDBRANCH   1   2
BRANCH   1  12
ATOM     12  C   UNL     1     -55.183 119.900 -11.829  1.00  0.00     0.000 C 
BRANCH  12  13
ATOM     13  C   UNL     1     -54.243 121.102 -12.058  1.00  0.00    -0.000 C 
BRANCH  13  14
ATOM     14  C   UNL     1     -52.765 120.677 -12.124  1.00  0.00    -0.000 C 
BRANCH  14  15
ATOM     15  C   UNL     1     -51.803 121.849 -11.873  1.00  0.00    -0.000 C 
BRANCH  15  16
ATOM     16  C   UNL     1     -50.392 121.377 -11.474  1.00  0.00    -0.000 C 
BRANCH  16  17
ATOM     17  C   UNL     1     -49.299 122.382 -11.871  1.00  0.00    -0.000 C 
BRANCH  17  18
ATOM     18  C   UNL     1     -49.427 123.718 -11.122  1.00  0.00    -0.000 C 
BRANCH  18  19
ATOM     19  C   UNL     1     -48.981 123.573  -9.663  1.00  0.00    -0.003 C 
ATOM     20  C   UNL     1     -48.895 124.932  -8.975  1.00  0.00     0.004 C 
ENDBRANCH  18  19
ENDBRANCH  17  18
ENDBRANCH  16  17
ENDBRANCH  15  16
ENDBRANCH  14  15
ENDBRANCH  13  14
ENDBRANCH  12  13
ENDBRANCH   1  12
TORSDOF 16
ENDMDL
MODEL 8
REMARK VINA RESULT:     0.304      1.899      2.958
REMARK INTER + INTRA:          -1.219
REMARK INTER:                  -1.436
REMARK INTRA:                   0.217
REMARK UNBOUND:                -1.807
REMARK SMILES CCCCCCCCCCCCCCCCCC(=O)[O-]
REMARK SMILES IDX 10 1 11 2 12 3 13 4 14 5 15 6 16 7 17 8 18 9 19 10 20 11
REMARK SMILES IDX 9 12 8 13 7 14 6 15 5 16 4 17 3 18 2 19 1 20
REMARK H PARENT
REMARK Flexibility Score: inf
ROOT
ATOM      1  C   UNL     1     -53.236 120.367  -9.382  1.00  0.00     0.000 C 
ENDROOT
BRANCH   1   2
ATOM      2  C   UNL     1     -52.913 119.220 -10.354  1.00  0.00     0.000 C 
BRANCH   2   3
ATOM      3  C   UNL     1     -53.367 119.519 -11.792  1.00  0.00     0.000 C 
BRANCH   3   4
ATOM      4  C   UNL     1     -54.493 120.566 -11.849  1.00  0.00     0.000 C 
BRANCH   4   5
ATOM      5  C   UNL     1     -55.872 119.943 -12.125  1.00  0.00     0.000 C 
BRANCH   5   6
ATOM      6  C   UNL     1     -56.498 119.193 -10.934  1.00  0.00     0.000 C 
BRANCH   6   7
ATOM      7  C   UNL     1     -57.453 120.059 -10.084  1.00  0.00     0.006 C 
BRANCH   7   8
ATOM      8  C   UNL     1     -57.129 121.556 -10.190  1.00  0.00     0.053 C 
BRANCH   8   9
ATOM      9  C   UNL     1     -56.295 121.994  -9.028  1.00  0.00     0.041 C 
ATOM     10  O   UNL     1     -56.683 121.773  -7.851  1.00  0.00    -0.550 OA
ATOM     11  O   UNL     1     -55.114 122.693  -9.244  1.00  0.00    -0.550 OA
ENDBRANCH   8   9
ENDBRANCH   7   8
ENDBRANCH   6   7
ENDBRANCH   5   6
ENDBRANCH   4   5
ENDBRANCH   3   4
ENDBRANCH   2   3
ENDBRANCH   1   2
BRANCH   1  12
ATOM     12  C   UNL     1     -52.185 121.489  -9.412  1.00  0.00     0.000 C 
BRANCH  12  13
ATOM     13  C   UNL     1     -51.564 121.718 -10.807  1.00  0.00    -0.000 C 
BRANCH  13  14
ATOM     14  C   UNL     1     -50.087 121.288 -10.860  1.00  0.00    -0.000 C 
BRANCH  14  15
ATOM     15  C   UNL     1     -49.250 122.170 -11.799  1.00  0.00    -0.000 C 
BRANCH  15  16
ATOM     16  C   UNL     1     -48.923 123.542 -11.181  1.00  0.00    -0.000 C 
BRANCH  16  17
ATOM     17  C   UNL     1     -48.882 123.503  -9.645  1.00  0.00    -0.000 C 
BRANCH  17  18
ATOM     18  C   UNL     1     -48.875 124.906  -9.019  1.00  0.00    -0.000 C 
BRANCH  18  19
ATOM     19  C   UNL     1     -50.120 125.124  -8.152  1.00  0.00    -0.003 C 
ATOM     20  C   UNL     1     -50.883 123.820  -7.945  1.00  0.00     0.004 C 
ENDBRANCH  18  19
ENDBRANCH  17  18
ENDBRANCH  16  17
ENDBRANCH  15  16
ENDBRANCH  14  15
ENDBRANCH  13  14
ENDBRANCH  12  13
ENDBRANCH   1  12
TORSDOF 16
ENDMDL
MODEL 9
REMARK VINA RESULT:     0.396      2.427      5.728
REMARK INTER + INTRA:          -1.040
REMARK INTER:                  -0.942
REMARK INTRA:                  -0.098
REMARK UNBOUND:                -1.807
REMARK SMILES CCCCCCCCCCCCCCCCCC(=O)[O-]
REMARK SMILES IDX 10 1 11 2 12 3 13 4 14 5 15 6 16 7 17 8 18 9 19 10 20 11
REMARK SMILES IDX 9 12 8 13 7 14 6 15 5 16 4 17 3 18 2 19 1 20
REMARK H PARENT
REMARK Flexibility Score: inf
ROOT
ATOM      1  C   UNL     1     -53.907 122.523  -8.681  1.00  0.00     0.000 C 
ENDROOT
BRANCH   1   2
ATOM      2  C   UNL     1     -52.615 122.855  -7.919  1.00  0.00     0.000 C 
BRANCH   2   3
ATOM      3  C   UNL     1     -51.543 123.490  -8.821  1.00  0.00     0.000 C 
BRANCH   3   4
ATOM      4  C   UNL     1     -50.726 124.572  -8.093  1.00  0.00     0.000 C 
BRANCH   4   5
ATOM      5  C   UNL     1     -49.335 124.785  -8.714  1.00  0.00     0.000 C 
BRANCH   5   6
ATOM      6  C   UNL     1     -48.875 123.675  -9.678  1.00  0.00     0.000 C 
BRANCH   6   7
ATOM      7  C   UNL     1     -48.901 124.090 -11.165  1.00  0.00     0.006 C 
BRANCH   7   8
ATOM      8  C   UNL     1     -48.983 122.879 -12.105  1.00  0.00     0.053 C 
BRANCH   8   9
ATOM      9  C   UNL     1     -50.033 121.923 -11.635  1.00  0.00     0.041 C 
ATOM     10  O   UNL     1     -49.736 121.001 -10.832  1.00  0.00    -0.550 OA
ATOM     11  O   UNL     1     -51.329 122.018 -12.125  1.00  0.00    -0.550 OA
ENDBRANCH   8   9
ENDBRANCH   7   8
ENDBRANCH   6   7
ENDBRANCH   5   6
ENDBRANCH   4   5
ENDBRANCH   3   4
ENDBRANCH   2   3
ENDBRANCH   1   2
BRANCH   1  12
ATOM     12  C   UNL     1     -53.916 123.083 -10.115  1.00  0.00     0.000 C 
BRANCH  12  13
ATOM     13  C   UNL     1     -55.196 122.740 -10.905  1.00  0.00    -0.000 C 
BRANCH  13  14
ATOM     14  C   UNL     1     -56.244 122.029 -10.029  1.00  0.00    -0.000 C 
BRANCH  14  15
ATOM     15  C   UNL     1     -56.909 120.846 -10.749  1.00  0.00    -0.000 C 
BRANCH  15  16
ATOM     16  C   UNL     1     -56.265 120.551 -12.116  1.00  0.00    -0.000 C 
BRANCH  16  17
ATOM     17  C   UNL     1     -54.889 119.879 -11.986  1.00  0.00    -0.000 C 
BRANCH  17  18
ATOM     18  C   UNL     1     -54.583 119.432 -10.548  1.00  0.00    -0.000 C 
BRANCH  18  19
ATOM     19  C   UNL     1     -53.207 119.935 -10.099  1.00  0.00    -0.003 C 
ATOM     20  C   UNL     1     -52.560 118.966  -9.114  1.00  0.00     0.004 C 
ENDBRANCH  18  19
ENDBRANCH  17  18
ENDBRANCH  16  17
ENDBRANCH  15  16
ENDBRANCH  14  15
ENDBRANCH  13  14
ENDBRANCH  12  13
ENDBRANCH   1  12
TORSDOF 16
ENDMDL
