MODEL 1
REMARK VINA RESULT:    -5.301      0.000      0.000
REMARK INTER + INTRA:          -5.658
REMARK INTER:                  -5.766
REMARK INTRA:                   0.107
REMARK UNBOUND:                 0.107
REMARK SMILES C[C@@H]1[C@H](C)CC[C@]2(C(=O)[O-])CC[C@@]3(C)C(=CC[C@@H]4[C@@]5(C)CC[C@@H](O)C(C)(C)[C@H]5CC[C@]43C)[C@@H]12
REMARK SMILES IDX 7 1 6 2 11 3 33 4 5 5 12 6 15 7 2 8 3 9 13 10 16 11 1 12
REMARK SMILES IDX 4 13 14 14 31 15 17 16 18 17 30 18 32 19 19 20 29 21 28 22
REMARK SMILES IDX 21 23 20 24 25 25 22 26 23 27 26 28 27 29 8 30 9 31 10 32
REMARK SMILES IDX 24 33
REMARK H PARENT 24 34
REMARK Flexibility Score: inf
ROOT
ATOM      1  C   UNL     1       8.604  -0.853  -2.046  1.00  0.00     0.017 C 
ATOM      2  C   UNL     1       7.310  -1.348  -2.780  1.00  0.00     0.014 C 
ATOM      3  C   UNL     1       8.948  -1.868  -0.891  1.00  0.00     0.014 C 
ATOM      4  C   UNL     1       8.319   0.594  -1.497  1.00  0.00     0.030 C 
ATOM      5  C   UNL     1       6.536  -0.262  -3.562  1.00  0.00     0.004 C 
ATOM      6  C   UNL     1       8.873  -1.265   0.523  1.00  0.00     0.013 C 
ATOM      7  C   UNL     1       9.368   1.022  -0.452  1.00  0.00    -0.063 C 
ATOM      8  C   UNL     1       7.986   1.634  -2.634  1.00  0.00    -0.003 C 
ATOM      9  C   UNL     1       7.409   0.949  -3.919  1.00  0.00    -0.011 C 
ATOM     10  C   UNL     1       9.729   0.041   0.676  1.00  0.00    -0.006 C 
ATOM     11  C   UNL     1       9.927   2.260  -0.417  1.00  0.00    -0.027 C 
ATOM     12  C   UNL     1       7.045   2.728  -2.075  1.00  0.00     0.008 C 
ATOM     13  C   UNL     1       6.658   1.906  -4.859  1.00  0.00     0.008 C 
ATOM     14  C   UNL     1      11.216  -0.387   0.392  1.00  0.00     0.017 C 
ATOM     15  C   UNL     1       9.547   0.744   2.144  1.00  0.00    -0.020 C 
ATOM     16  C   UNL     1      10.531   2.780   0.867  1.00  0.00     0.032 C 
ATOM     17  C   UNL     1       9.619   2.318   2.027  1.00  0.00     0.006 C 
ATOM     18  C   UNL     1       8.140   0.483   2.787  1.00  0.00     0.008 C 
ATOM     19  C   UNL     1      10.624   0.144   3.104  1.00  0.00     0.012 C 
ATOM     20  C   UNL     1       9.674   3.141   3.389  1.00  0.00    -0.025 C 
ATOM     21  C   UNL     1       7.639   1.544   3.817  1.00  0.00     0.005 C 
ATOM     22  C   UNL     1       8.732   2.440   4.486  1.00  0.00     0.003 C 
ATOM     23  C   UNL     1       9.186   4.598   3.059  1.00  0.00     0.010 C 
ATOM     24  C   UNL     1      11.145   3.226   3.900  1.00  0.00     0.012 C 
ATOM     25  C   UNL     1       8.167   3.392   5.637  1.00  0.00    -0.006 C 
ATOM     26  C   UNL     1       8.798   5.446   4.266  1.00  0.00     0.033 C 
ATOM     27  C   UNL     1       7.700   4.766   5.084  1.00  0.00     0.120 C 
ATOM     28  C   UNL     1       6.970   2.753   6.400  1.00  0.00     0.014 C 
ATOM     29  C   UNL     1       9.252   3.612   6.731  1.00  0.00     0.014 C 
ENDROOT
BRANCH   1  30
ATOM     30  C   UNL     1       9.781  -0.861  -3.020  1.00  0.00     0.048 C 
ATOM     31  O   UNL     1      10.810  -0.165  -2.808  1.00  0.00    -0.550 OA
ATOM     32  O   UNL     1       9.763  -1.704  -4.126  1.00  0.00    -0.550 OA
ENDBRANCH   1  30
BRANCH  27  33
ATOM     33  O   UNL     1       6.547   4.611   4.291  1.00  0.00    -0.393 OA
ATOM     34  H   UNL     1       6.854   4.441   3.362  1.00  0.00     0.210 HD
ENDBRANCH  27  33
TORSDOF 2
ENDMDL
MODEL 2
REMARK VINA RESULT:    -5.159      5.646     11.207
REMARK INTER + INTRA:          -5.504
REMARK INTER:                  -5.611
REMARK INTRA:                   0.106
REMARK UNBOUND:                 0.107
REMARK SMILES C[C@@H]1[C@H](C)CC[C@]2(C(=O)[O-])CC[C@@]3(C)C(=CC[C@@H]4[C@@]5(C)CC[C@@H](O)C(C)(C)[C@H]5CC[C@]43C)[C@@H]12
REMARK SMILES IDX 7 1 6 2 11 3 33 4 5 5 12 6 15 7 2 8 3 9 13 10 16 11 1 12
REMARK SMILES IDX 4 13 14 14 31 15 17 16 18 17 30 18 32 19 19 20 29 21 28 22
REMARK SMILES IDX 21 23 20 24 25 25 22 26 23 27 26 28 27 29 8 30 9 31 10 32
REMARK SMILES IDX 24 33
REMARK H PARENT 24 34
REMARK Flexibility Score: inf
ROOT
ATOM      1  C   UNL     1       6.321  -0.137  -4.575  1.00  0.00     0.017 C 
ATOM      2  C   UNL     1       6.579   0.580  -3.205  1.00  0.00     0.014 C 
ATOM      3  C   UNL     1       4.913   0.311  -5.122  1.00  0.00     0.014 C 
ATOM      4  C   UNL     1       6.391  -1.689  -4.323  1.00  0.00     0.030 C 
ATOM      5  C   UNL     1       7.619  -0.102  -2.286  1.00  0.00     0.004 C 
ATOM      6  C   UNL     1       3.887  -0.830  -5.235  1.00  0.00     0.013 C 
ATOM      7  C   UNL     1       5.790  -2.483  -5.500  1.00  0.00    -0.063 C 
ATOM      8  C   UNL     1       7.796  -2.168  -3.788  1.00  0.00    -0.003 C 
ATOM      9  C   UNL     1       8.575  -1.026  -3.053  1.00  0.00    -0.011 C 
ATOM     10  C   UNL     1       4.424  -2.054  -6.058  1.00  0.00    -0.006 C 
ATOM     11  C   UNL     1       6.360  -3.605  -6.014  1.00  0.00    -0.027 C 
ATOM     12  C   UNL     1       7.612  -3.423  -2.903  1.00  0.00     0.008 C 
ATOM     13  C   UNL     1       9.705  -1.524  -2.137  1.00  0.00     0.008 C 
ATOM     14  C   UNL     1       4.721  -1.502  -7.501  1.00  0.00     0.017 C 
ATOM     15  C   UNL     1       3.375  -3.312  -6.071  1.00  0.00    -0.020 C 
ATOM     16  C   UNL     1       5.518  -4.596  -6.782  1.00  0.00     0.032 C 
ATOM     17  C   UNL     1       4.149  -4.690  -6.069  1.00  0.00     0.006 C 
ATOM     18  C   UNL     1       2.480  -3.386  -4.785  1.00  0.00     0.008 C 
ATOM     19  C   UNL     1       2.425  -3.137  -7.299  1.00  0.00     0.012 C 
ATOM     20  C   UNL     1       3.280  -6.004  -6.295  1.00  0.00    -0.025 C 
ATOM     21  C   UNL     1       1.925  -4.795  -4.404  1.00  0.00     0.005 C 
ATOM     22  C   UNL     1       1.864  -5.856  -5.552  1.00  0.00     0.003 C 
ATOM     23  C   UNL     1       4.112  -7.204  -5.713  1.00  0.00     0.010 C 
ATOM     24  C   UNL     1       3.078  -6.251  -7.822  1.00  0.00     0.012 C 
ATOM     25  C   UNL     1       1.146  -7.218  -5.130  1.00  0.00    -0.006 C 
ATOM     26  C   UNL     1       3.327  -8.491  -5.478  1.00  0.00     0.033 C 
ATOM     27  C   UNL     1       2.146  -8.248  -4.538  1.00  0.00     0.120 C 
ATOM     28  C   UNL     1       0.016  -6.994  -4.083  1.00  0.00     0.014 C 
ATOM     29  C   UNL     1       0.419  -7.843  -6.357  1.00  0.00     0.014 C 
ENDROOT
BRANCH   1  30
ATOM     30  C   UNL     1       7.366   0.313  -5.595  1.00  0.00     0.048 C 
ATOM     31  O   UNL     1       7.626  -0.379  -6.615  1.00  0.00    -0.550 OA
ATOM     32  O   UNL     1       7.998   1.543  -5.446  1.00  0.00    -0.550 OA
ENDBRANCH   1  30
BRANCH  27  33
ATOM     33  O   UNL     1       2.620  -7.810  -3.287  1.00  0.00    -0.393 OA
ATOM     34  H   UNL     1       3.540  -8.169  -3.182  1.00  0.00     0.210 HD
ENDBRANCH  27  33
TORSDOF 2
ENDMDL
MODEL 3
REMARK VINA RESULT:    -5.010      5.158      8.502
REMARK INTER + INTRA:          -5.342
REMARK INTER:                  -5.449
REMARK INTRA:                   0.107
REMARK UNBOUND:                 0.107
REMARK SMILES C[C@@H]1[C@H](C)CC[C@]2(C(=O)[O-])CC[C@@]3(C)C(=CC[C@@H]4[C@@]5(C)CC[C@@H](O)C(C)(C)[C@H]5CC[C@]43C)[C@@H]12
REMARK SMILES IDX 7 1 6 2 11 3 33 4 5 5 12 6 15 7 2 8 3 9 13 10 16 11 1 12
REMARK SMILES IDX 4 13 14 14 31 15 17 16 18 17 30 18 32 19 19 20 29 21 28 22
REMARK SMILES IDX 21 23 20 24 25 25 22 26 23 27 26 28 27 29 8 30 9 31 10 32
REMARK SMILES IDX 24 33
REMARK H PARENT 24 34
REMARK Flexibility Score: inf
ROOT
ATOM      1  C   UNL     1       4.875  -6.007  -4.498  1.00  0.00     0.017 C 
ATOM      2  C   UNL     1       3.864  -6.637  -3.478  1.00  0.00     0.014 C 
ATOM      3  C   UNL     1       6.317  -6.041  -3.864  1.00  0.00     0.014 C 
ATOM      4  C   UNL     1       4.396  -4.539  -4.802  1.00  0.00     0.030 C 
ATOM      5  C   UNL     1       2.385  -6.232  -3.676  1.00  0.00     0.004 C 
ATOM      6  C   UNL     1       6.930  -4.652  -3.615  1.00  0.00     0.013 C 
ATOM      7  C   UNL     1       5.502  -3.712  -5.485  1.00  0.00    -0.063 C 
ATOM      8  C   UNL     1       2.960  -4.477  -5.450  1.00  0.00    -0.003 C 
ATOM      9  C   UNL     1       2.091  -5.731  -5.096  1.00  0.00    -0.011 C 
ATOM     10  C   UNL     1       6.920  -3.741  -4.892  1.00  0.00    -0.006 C 
ATOM     11  C   UNL     1       5.272  -2.878  -6.535  1.00  0.00    -0.027 C 
ATOM     12  C   UNL     1       2.270  -3.150  -5.053  1.00  0.00     0.008 C 
ATOM     13  C   UNL     1       0.580  -5.529  -5.303  1.00  0.00     0.008 C 
ATOM     14  C   UNL     1       7.799  -4.492  -5.959  1.00  0.00     0.017 C 
ATOM     15  C   UNL     1       7.459  -2.225  -4.589  1.00  0.00    -0.020 C 
ATOM     16  C   UNL     1       6.233  -1.751  -6.828  1.00  0.00     0.032 C 
ATOM     17  C   UNL     1       6.687  -1.165  -5.471  1.00  0.00     0.006 C 
ATOM     18  C   UNL     1       7.188  -1.753  -3.118  1.00  0.00     0.008 C 
ATOM     19  C   UNL     1       9.006  -2.208  -4.812  1.00  0.00     0.012 C 
ATOM     20  C   UNL     1       7.239   0.327  -5.451  1.00  0.00    -0.025 C 
ATOM     21  C   UNL     1       7.083  -0.212  -2.890  1.00  0.00     0.005 C 
ATOM     22  C   UNL     1       7.745   0.701  -3.973  1.00  0.00     0.003 C 
ATOM     23  C   UNL     1       6.054   1.255  -5.904  1.00  0.00     0.010 C 
ATOM     24  C   UNL     1       8.396   0.481  -6.485  1.00  0.00     0.012 C 
ATOM     25  C   UNL     1       7.735   2.253  -3.598  1.00  0.00    -0.006 C 
ATOM     26  C   UNL     1       6.232   2.739  -5.599  1.00  0.00     0.033 C 
ATOM     27  C   UNL     1       6.452   2.969  -4.104  1.00  0.00     0.120 C 
ATOM     28  C   UNL     1       7.842   2.494  -2.064  1.00  0.00     0.014 C 
ATOM     29  C   UNL     1       8.991   2.956  -4.190  1.00  0.00     0.014 C 
ENDROOT
BRANCH   1  30
ATOM     30  C   UNL     1       4.919  -6.857  -5.767  1.00  0.00     0.048 C 
ATOM     31  O   UNL     1       5.333  -6.382  -6.858  1.00  0.00    -0.550 OA
ATOM     32  O   UNL     1       4.568  -8.202  -5.716  1.00  0.00    -0.550 OA
ENDBRANCH   1  30
BRANCH  27  33
ATOM     33  O   UNL     1       5.326   2.525  -3.386  1.00  0.00    -0.393 OA
ATOM     34  H   UNL     1       5.368   2.947  -2.488  1.00  0.00     0.210 HD
ENDBRANCH  27  33
TORSDOF 2
ENDMDL
MODEL 4
REMARK VINA RESULT:    -4.984      5.717     10.718
REMARK INTER + INTRA:          -5.314
REMARK INTER:                  -5.419
REMARK INTRA:                   0.105
REMARK UNBOUND:                 0.107
REMARK SMILES C[C@@H]1[C@H](C)CC[C@]2(C(=O)[O-])CC[C@@]3(C)C(=CC[C@@H]4[C@@]5(C)CC[C@@H](O)C(C)(C)[C@H]5CC[C@]43C)[C@@H]12
REMARK SMILES IDX 7 1 6 2 11 3 33 4 5 5 12 6 15 7 2 8 3 9 13 10 16 11 1 12
REMARK SMILES IDX 4 13 14 14 31 15 17 16 18 17 30 18 32 19 19 20 29 21 28 22
REMARK SMILES IDX 21 23 20 24 25 25 22 26 23 27 26 28 27 29 8 30 9 31 10 32
REMARK SMILES IDX 24 33
REMARK H PARENT 24 34
REMARK Flexibility Score: inf
ROOT
ATOM      1  C   UNL     1       7.288  -1.625  -4.207  1.00  0.00     0.017 C 
ATOM      2  C   UNL     1       6.867  -0.472  -3.233  1.00  0.00     0.014 C 
ATOM      3  C   UNL     1       6.100  -1.901  -5.205  1.00  0.00     0.014 C 
ATOM      4  C   UNL     1       7.632  -2.888  -3.334  1.00  0.00     0.030 C 
ATOM      5  C   UNL     1       7.645  -0.415  -1.898  1.00  0.00     0.004 C 
ATOM      6  C   UNL     1       5.484  -3.306  -5.081  1.00  0.00     0.013 C 
ATOM      7  C   UNL     1       7.693  -4.170  -4.187  1.00  0.00    -0.063 C 
ATOM      8  C   UNL     1       8.828  -2.644  -2.335  1.00  0.00    -0.003 C 
ATOM      9  C   UNL     1       9.001  -1.131  -1.970  1.00  0.00    -0.011 C 
ATOM     10  C   UNL     1       6.551  -4.452  -5.178  1.00  0.00    -0.006 C 
ATOM     11  C   UNL     1       8.657  -5.118  -4.046  1.00  0.00    -0.027 C 
ATOM     12  C   UNL     1       8.647  -3.537  -1.084  1.00  0.00     0.008 C 
ATOM     13  C   UNL     1       9.819  -0.882  -0.692  1.00  0.00     0.008 C 
ATOM     14  C   UNL     1       7.198  -4.313  -6.605  1.00  0.00     0.017 C 
ATOM     15  C   UNL     1       5.906  -5.935  -4.922  1.00  0.00    -0.020 C 
ATOM     16  C   UNL     1       8.401  -6.530  -4.517  1.00  0.00     0.032 C 
ATOM     17  C   UNL     1       6.933  -6.874  -4.174  1.00  0.00     0.006 C 
ATOM     18  C   UNL     1       4.660  -5.914  -3.970  1.00  0.00     0.008 C 
ATOM     19  C   UNL     1       5.438  -6.503  -6.300  1.00  0.00     0.012 C 
ATOM     20  C   UNL     1       6.540  -8.411  -4.040  1.00  0.00    -0.025 C 
ATOM     21  C   UNL     1       4.359  -7.232  -3.189  1.00  0.00     0.005 C 
ATOM     22  C   UNL     1       4.961  -8.548  -3.781  1.00  0.00     0.003 C 
ATOM     23  C   UNL     1       7.373  -8.990  -2.840  1.00  0.00     0.010 C 
ATOM     24  C   UNL     1       6.955  -9.179  -5.332  1.00  0.00     0.012 C 
ATOM     25  C   UNL     1       4.486  -9.870  -3.021  1.00  0.00    -0.006 C 
ATOM     26  C   UNL     1       6.885 -10.327  -2.291  1.00  0.00     0.033 C 
ATOM     27  C   UNL     1       5.428 -10.237  -1.841  1.00  0.00     0.120 C 
ATOM     28  C   UNL     1       3.041  -9.743  -2.456  1.00  0.00     0.014 C 
ATOM     29  C   UNL     1       4.410 -11.063  -4.018  1.00  0.00     0.014 C 
ENDROOT
BRANCH   1  30
ATOM     30  C   UNL     1       8.486  -1.179  -5.043  1.00  0.00     0.048 C 
ATOM     31  O   UNL     1       9.242  -2.017  -5.604  1.00  0.00    -0.550 OA
ATOM     32  O   UNL     1       8.717   0.176  -5.260  1.00  0.00    -0.550 OA
ENDBRANCH   1  30
BRANCH  27  33
ATOM     33  O   UNL     1       5.310  -9.290  -0.805  1.00  0.00    -0.393 OA
ATOM     34  H   UNL     1       6.209  -9.197  -0.393  1.00  0.00     0.210 HD
ENDBRANCH  27  33
TORSDOF 2
ENDMDL
MODEL 5
REMARK VINA RESULT:    -4.954      7.572     10.061
REMARK INTER + INTRA:          -5.281
REMARK INTER:                  -5.389
REMARK INTRA:                   0.107
REMARK UNBOUND:                 0.107
REMARK SMILES C[C@@H]1[C@H](C)CC[C@]2(C(=O)[O-])CC[C@@]3(C)C(=CC[C@@H]4[C@@]5(C)CC[C@@H](O)C(C)(C)[C@H]5CC[C@]43C)[C@@H]12
REMARK SMILES IDX 7 1 6 2 11 3 33 4 5 5 12 6 15 7 2 8 3 9 13 10 16 11 1 12
REMARK SMILES IDX 4 13 14 14 31 15 17 16 18 17 30 18 32 19 19 20 29 21 28 22
REMARK SMILES IDX 21 23 20 24 25 25 22 26 23 27 26 28 27 29 8 30 9 31 10 32
REMARK SMILES IDX 24 33
REMARK H PARENT 24 34
REMARK Flexibility Score: inf
ROOT
ATOM      1  C   UNL     1       4.256   1.445  -5.185  1.00  0.00     0.017 C 
ATOM      2  C   UNL     1       5.373   0.430  -4.763  1.00  0.00     0.014 C 
ATOM      3  C   UNL     1       4.519   2.816  -4.455  1.00  0.00     0.014 C 
ATOM      4  C   UNL     1       2.866   0.821  -4.790  1.00  0.00     0.030 C 
ATOM      5  C   UNL     1       5.012  -1.063  -4.941  1.00  0.00     0.004 C 
ATOM      6  C   UNL     1       3.411   3.229  -3.469  1.00  0.00     0.013 C 
ATOM      7  C   UNL     1       1.743   1.875  -4.813  1.00  0.00    -0.063 C 
ATOM      8  C   UNL     1       2.571  -0.547  -5.518  1.00  0.00    -0.003 C 
ATOM      9  C   UNL     1       3.881  -1.285  -5.955  1.00  0.00    -0.011 C 
ATOM     10  C   UNL     1       1.983   3.226  -4.118  1.00  0.00    -0.006 C 
ATOM     11  C   UNL     1       0.509   1.643  -5.335  1.00  0.00    -0.027 C 
ATOM     12  C   UNL     1       1.669  -1.427  -4.620  1.00  0.00     0.008 C 
ATOM     13  C   UNL     1       3.693  -2.783  -6.246  1.00  0.00     0.008 C 
ATOM     14  C   UNL     1       2.039   4.284  -5.280  1.00  0.00     0.017 C 
ATOM     15  C   UNL     1       0.798   3.545  -3.034  1.00  0.00    -0.020 C 
ATOM     16  C   UNL     1      -0.667   2.482  -4.895  1.00  0.00     0.032 C 
ATOM     17  C   UNL     1      -0.514   2.734  -3.377  1.00  0.00     0.006 C 
ATOM     18  C   UNL     1       1.150   3.084  -1.577  1.00  0.00     0.008 C 
ATOM     19  C   UNL     1       0.579   5.092  -2.999  1.00  0.00     0.012 C 
ATOM     20  C   UNL     1      -1.823   3.095  -2.547  1.00  0.00    -0.025 C 
ATOM     21  C   UNL     1      -0.057   2.771  -0.636  1.00  0.00     0.005 C 
ATOM     22  C   UNL     1      -1.429   3.414  -1.022  1.00  0.00     0.003 C 
ATOM     23  C   UNL     1      -2.780   1.852  -2.645  1.00  0.00     0.010 C 
ATOM     24  C   UNL     1      -2.545   4.315  -3.196  1.00  0.00     0.012 C 
ATOM     25  C   UNL     1      -2.576   3.179   0.063  1.00  0.00    -0.006 C 
ATOM     26  C   UNL     1      -3.915   1.819  -1.626  1.00  0.00     0.033 C 
ATOM     27  C   UNL     1      -3.371   1.871  -0.199  1.00  0.00     0.120 C 
ATOM     28  C   UNL     1      -2.016   3.114   1.514  1.00  0.00     0.014 C 
ATOM     29  C   UNL     1      -3.555   4.389   0.079  1.00  0.00     0.014 C 
ENDROOT
BRANCH   1  30
ATOM     30  C   UNL     1       4.344   1.709  -6.688  1.00  0.00     0.048 C 
ATOM     31  O   UNL     1       3.360   2.161  -7.332  1.00  0.00    -0.550 OA
ATOM     32  O   UNL     1       5.549   1.523  -7.357  1.00  0.00    -0.550 OA
ENDBRANCH   1  30
BRANCH  27  33
ATOM     33  O   UNL     1      -2.560   0.746   0.040  1.00  0.00    -0.393 OA
ATOM     34  H   UNL     1      -2.878   0.331   0.884  1.00  0.00     0.210 HD
ENDBRANCH  27  33
TORSDOF 2
ENDMDL
MODEL 6
REMARK VINA RESULT:    -4.720      2.334      8.228
REMARK INTER + INTRA:          -5.027
REMARK INTER:                  -5.132
REMARK INTRA:                   0.105
REMARK UNBOUND:                 0.107
REMARK SMILES C[C@@H]1[C@H](C)CC[C@]2(C(=O)[O-])CC[C@@]3(C)C(=CC[C@@H]4[C@@]5(C)CC[C@@H](O)C(C)(C)[C@H]5CC[C@]43C)[C@@H]12
REMARK SMILES IDX 7 1 6 2 11 3 33 4 5 5 12 6 15 7 2 8 3 9 13 10 16 11 1 12
REMARK SMILES IDX 4 13 14 14 31 15 17 16 18 17 30 18 32 19 19 20 29 21 28 22
REMARK SMILES IDX 21 23 20 24 25 25 22 26 23 27 26 28 27 29 8 30 9 31 10 32
REMARK SMILES IDX 24 33
REMARK H PARENT 24 34
REMARK Flexibility Score: inf
ROOT
ATOM      1  C   UNL     1       8.485   2.653   1.223  1.00  0.00     0.017 C 
ATOM      2  C   UNL     1       7.437   2.786   2.381  1.00  0.00     0.014 C 
ATOM      3  C   UNL     1       7.910   3.363  -0.061  1.00  0.00     0.014 C 
ATOM      4  C   UNL     1       8.744   1.119   0.985  1.00  0.00     0.030 C 
ATOM      5  C   UNL     1       7.569   1.744   3.516  1.00  0.00     0.004 C 
ATOM      6  C   UNL     1       7.660   2.415  -1.248  1.00  0.00     0.013 C 
ATOM      7  C   UNL     1       9.456   0.865  -0.357  1.00  0.00    -0.063 C 
ATOM      8  C   UNL     1       9.333   0.386   2.251  1.00  0.00    -0.003 C 
ATOM      9  C   UNL     1       8.968   1.116   3.587  1.00  0.00    -0.011 C 
ATOM     10  C   UNL     1       8.920   1.558  -1.621  1.00  0.00    -0.006 C 
ATOM     11  C   UNL     1      10.481  -0.017  -0.505  1.00  0.00    -0.027 C 
ATOM     12  C   UNL     1       8.887  -1.095   2.246  1.00  0.00     0.008 C 
ATOM     13  C   UNL     1       9.110   0.240   4.843  1.00  0.00     0.008 C 
ATOM     14  C   UNL     1      10.034   2.591  -2.030  1.00  0.00     0.017 C 
ATOM     15  C   UNL     1       8.612   0.467  -2.802  1.00  0.00    -0.020 C 
ATOM     16  C   UNL     1      10.792  -0.590  -1.868  1.00  0.00     0.032 C 
ATOM     17  C   UNL     1       9.444  -0.857  -2.576  1.00  0.00     0.006 C 
ATOM     18  C   UNL     1       7.123  -0.027  -2.817  1.00  0.00     0.008 C 
ATOM     19  C   UNL     1       8.896   1.150  -4.178  1.00  0.00     0.012 C 
ATOM     20  C   UNL     1       9.420  -1.932  -3.750  1.00  0.00    -0.025 C 
ATOM     21  C   UNL     1       6.865  -1.438  -3.435  1.00  0.00     0.005 C 
ATOM     22  C   UNL     1       7.957  -1.984  -4.411  1.00  0.00     0.003 C 
ATOM     23  C   UNL     1       9.809  -3.314  -3.109  1.00  0.00     0.010 C 
ATOM     24  C   UNL     1      10.496  -1.575  -4.820  1.00  0.00     0.012 C 
ATOM     25  C   UNL     1       7.555  -3.356  -5.122  1.00  0.00    -0.006 C 
ATOM     26  C   UNL     1       9.486  -4.541  -3.954  1.00  0.00     0.033 C 
ATOM     27  C   UNL     1       7.997  -4.594  -4.296  1.00  0.00     0.120 C 
ATOM     28  C   UNL     1       6.023  -3.469  -5.369  1.00  0.00     0.014 C 
ATOM     29  C   UNL     1       8.184  -3.427  -6.544  1.00  0.00     0.014 C 
ENDROOT
BRANCH   1  30
ATOM     30  C   UNL     1       9.770   3.385   1.607  1.00  0.00     0.048 C 
ATOM     31  O   UNL     1      10.868   3.117   1.050  1.00  0.00    -0.550 OA
ATOM     32  O   UNL     1       9.729   4.422   2.534  1.00  0.00    -0.550 OA
ENDBRANCH   1  30
BRANCH  27  33
ATOM     33  O   UNL     1       7.243  -4.690  -3.111  1.00  0.00    -0.393 OA
ATOM     34  H   UNL     1       6.764  -3.827  -3.000  1.00  0.00     0.210 HD
ENDBRANCH  27  33
TORSDOF 2
ENDMDL
MODEL 7
REMARK VINA RESULT:    -4.713      3.978      7.291
REMARK INTER + INTRA:          -5.019
REMARK INTER:                  -5.126
REMARK INTRA:                   0.107
REMARK UNBOUND:                 0.107
REMARK SMILES C[C@@H]1[C@H](C)CC[C@]2(C(=O)[O-])CC[C@@]3(C)C(=CC[C@@H]4[C@@]5(C)CC[C@@H](O)C(C)(C)[C@H]5CC[C@]43C)[C@@H]12
REMARK SMILES IDX 7 1 6 2 11 3 33 4 5 5 12 6 15 7 2 8 3 9 13 10 16 11 1 12
REMARK SMILES IDX 4 13 14 14 31 15 17 16 18 17 30 18 32 19 19 20 29 21 28 22
REMARK SMILES IDX 21 23 20 24 25 25 22 26 23 27 26 28 27 29 8 30 9 31 10 32
REMARK SMILES IDX 24 33
REMARK H PARENT 24 34
REMARK Flexibility Score: inf
ROOT
ATOM      1  C   UNL     1       4.108  -3.641  -5.608  1.00  0.00     0.017 C 
ATOM      2  C   UNL     1       2.958  -4.373  -4.834  1.00  0.00     0.014 C 
ATOM      3  C   UNL     1       5.489  -4.243  -5.147  1.00  0.00     0.014 C 
ATOM      4  C   UNL     1       3.996  -2.104  -5.288  1.00  0.00     0.030 C 
ATOM      5  C   UNL     1       1.621  -3.602  -4.748  1.00  0.00     0.004 C 
ATOM      6  C   UNL     1       6.408  -3.238  -4.430  1.00  0.00     0.013 C 
ATOM      7  C   UNL     1       5.278  -1.347  -5.684  1.00  0.00    -0.063 C 
ATOM      8  C   UNL     1       2.628  -1.472  -5.752  1.00  0.00    -0.003 C 
ATOM      9  C   UNL     1       1.480  -2.534  -5.841  1.00  0.00    -0.011 C 
ATOM     10  C   UNL     1       6.638  -1.924  -5.256  1.00  0.00    -0.006 C 
ATOM     11  C   UNL     1       5.272  -0.141  -6.313  1.00  0.00    -0.027 C 
ATOM     12  C   UNL     1       2.264  -0.287  -4.826  1.00  0.00     0.008 C 
ATOM     13  C   UNL     1       0.064  -1.933  -5.839  1.00  0.00     0.008 C 
ATOM     14  C   UNL     1       7.334  -2.375  -6.593  1.00  0.00     0.017 C 
ATOM     15  C   UNL     1       7.515  -0.810  -4.436  1.00  0.00    -0.020 C 
ATOM     16  C   UNL     1       6.478   0.764  -6.223  1.00  0.00     0.032 C 
ATOM     17  C   UNL     1       7.033   0.654  -4.784  1.00  0.00     0.006 C 
ATOM     18  C   UNL     1       7.336  -0.902  -2.881  1.00  0.00     0.008 C 
ATOM     19  C   UNL     1       9.026  -1.056  -4.753  1.00  0.00     0.012 C 
ATOM     20  C   UNL     1       7.921   1.855  -4.235  1.00  0.00    -0.025 C 
ATOM     21  C   UNL     1       7.595   0.408  -2.072  1.00  0.00     0.005 C 
ATOM     22  C   UNL     1       8.474   1.497  -2.770  1.00  0.00     0.003 C 
ATOM     23  C   UNL     1       6.999   3.127  -4.206  1.00  0.00     0.010 C 
ATOM     24  C   UNL     1       9.101   2.135  -5.215  1.00  0.00     0.012 C 
ATOM     25  C   UNL     1       8.825   2.739  -1.829  1.00  0.00    -0.006 C 
ATOM     26  C   UNL     1       7.517   4.292  -3.370  1.00  0.00     0.033 C 
ATOM     27  C   UNL     1       7.758   3.864  -1.922  1.00  0.00     0.120 C 
ATOM     28  C   UNL     1       8.957   2.331  -0.333  1.00  0.00     0.014 C 
ATOM     29  C   UNL     1      10.223   3.315  -2.199  1.00  0.00     0.014 C 
ENDROOT
BRANCH   1  30
ATOM     30  C   UNL     1       3.973  -3.913  -7.105  1.00  0.00     0.048 C 
ATOM     31  O   UNL     1       4.508  -3.156  -7.958  1.00  0.00    -0.550 OA
ATOM     32  O   UNL     1       3.313  -5.055  -7.547  1.00  0.00    -0.550 OA
ENDBRANCH   1  30
BRANCH  27  33
ATOM     33  O   UNL     1       6.545   3.441  -1.346  1.00  0.00    -0.393 OA
ATOM     34  H   UNL     1       6.651   3.508  -0.362  1.00  0.00     0.210 HD
ENDBRANCH  27  33
TORSDOF 2
ENDMDL
MODEL 8
REMARK VINA RESULT:    -4.604      7.251      9.852
REMARK INTER + INTRA:          -4.901
REMARK INTER:                  -5.006
REMARK INTRA:                   0.106
REMARK UNBOUND:                 0.107
REMARK SMILES C[C@@H]1[C@H](C)CC[C@]2(C(=O)[O-])CC[C@@]3(C)C(=CC[C@@H]4[C@@]5(C)CC[C@@H](O)C(C)(C)[C@H]5CC[C@]43C)[C@@H]12
REMARK SMILES IDX 7 1 6 2 11 3 33 4 5 5 12 6 15 7 2 8 3 9 13 10 16 11 1 12
REMARK SMILES IDX 4 13 14 14 31 15 17 16 18 17 30 18 32 19 19 20 29 21 28 22
REMARK SMILES IDX 21 23 20 24 25 25 22 26 23 27 26 28 27 29 8 30 9 31 10 32
REMARK SMILES IDX 24 33
REMARK H PARENT 24 34
REMARK Flexibility Score: inf
ROOT
ATOM      1  C   UNL     1       4.474   3.331  -4.048  1.00  0.00     0.017 C 
ATOM      2  C   UNL     1       5.638   2.298  -3.860  1.00  0.00     0.014 C 
ATOM      3  C   UNL     1       4.585   4.426  -2.922  1.00  0.00     0.014 C 
ATOM      4  C   UNL     1       3.115   2.539  -3.973  1.00  0.00     0.030 C 
ATOM      5  C   UNL     1       5.406   0.912  -4.507  1.00  0.00     0.004 C 
ATOM      6  C   UNL     1       3.391   4.457  -1.951  1.00  0.00     0.013 C 
ATOM      7  C   UNL     1       1.917   3.487  -3.771  1.00  0.00    -0.063 C 
ATOM      8  C   UNL     1       2.972   1.444  -5.099  1.00  0.00    -0.003 C 
ATOM      9  C   UNL     1       4.360   0.948  -5.629  1.00  0.00    -0.011 C 
ATOM     10  C   UNL     1       2.009   4.572  -2.686  1.00  0.00    -0.006 C 
ATOM     11  C   UNL     1       0.740   3.356  -4.437  1.00  0.00    -0.027 C 
ATOM     12  C   UNL     1       2.088   0.284  -4.583  1.00  0.00     0.008 C 
ATOM     13  C   UNL     1       4.306  -0.398  -6.369  1.00  0.00     0.008 C 
ATOM     14  C   UNL     1       2.054   5.936  -3.469  1.00  0.00     0.017 C 
ATOM     15  C   UNL     1       0.739   4.481  -1.656  1.00  0.00    -0.020 C 
ATOM     16  C   UNL     1      -0.523   3.955  -3.864  1.00  0.00     0.032 C 
ATOM     17  C   UNL     1      -0.482   3.742  -2.333  1.00  0.00     0.006 C 
ATOM     18  C   UNL     1       1.036   3.618  -0.381  1.00  0.00     0.008 C 
ATOM     19  C   UNL     1       0.399   5.929  -1.178  1.00  0.00     0.012 C 
ATOM     20  C   UNL     1      -1.863   3.759  -1.542  1.00  0.00    -0.025 C 
ATOM     21  C   UNL     1      -0.198   2.967   0.322  1.00  0.00     0.005 C 
ATOM     22  C   UNL     1      -1.590   3.620   0.034  1.00  0.00     0.003 C 
ATOM     23  C   UNL     1      -2.714   2.555  -2.086  1.00  0.00     0.010 C 
ATOM     24  C   UNL     1      -2.637   5.077  -1.852  1.00  0.00     0.012 C 
ATOM     25  C   UNL     1      -2.779   3.003   0.902  1.00  0.00    -0.006 C 
ATOM     26  C   UNL     1      -3.903   2.150  -1.221  1.00  0.00     0.033 C 
ATOM     27  C   UNL     1      -3.453   1.795   0.196  1.00  0.00     0.120 C 
ATOM     28  C   UNL     1      -2.306   2.530   2.308  1.00  0.00     0.014 C 
ATOM     29  C   UNL     1      -3.848   4.095   1.200  1.00  0.00     0.014 C 
ENDROOT
BRANCH   1  30
ATOM     30  C   UNL     1       4.633   4.044  -5.390  1.00  0.00     0.048 C 
ATOM     31  O   UNL     1       3.666   4.644  -5.931  1.00  0.00    -0.550 OA
ATOM     32  O   UNL     1       5.881   4.104  -6.002  1.00  0.00    -0.550 OA
ENDBRANCH   1  30
BRANCH  27  33
ATOM     33  O   UNL     1      -2.573   0.697   0.152  1.00  0.00    -0.393 OA
ATOM     34  H   UNL     1      -2.538   0.315   1.068  1.00  0.00     0.210 HD
ENDBRANCH  27  33
TORSDOF 2
ENDMDL
MODEL 9
REMARK VINA RESULT:    -4.561      4.488      7.629
REMARK INTER + INTRA:          -4.854
REMARK INTER:                  -5.035
REMARK INTRA:                   0.182
REMARK UNBOUND:                 0.107
REMARK SMILES C[C@@H]1[C@H](C)CC[C@]2(C(=O)[O-])CC[C@@]3(C)C(=CC[C@@H]4[C@@]5(C)CC[C@@H](O)C(C)(C)[C@H]5CC[C@]43C)[C@@H]12
REMARK SMILES IDX 7 1 6 2 11 3 33 4 5 5 12 6 15 7 2 8 3 9 13 10 16 11 1 12
REMARK SMILES IDX 4 13 14 14 31 15 17 16 18 17 30 18 32 19 19 20 29 21 28 22
REMARK SMILES IDX 21 23 20 24 25 25 22 26 23 27 26 28 27 29 8 30 9 31 10 32
REMARK SMILES IDX 24 33
REMARK H PARENT 24 34
REMARK Flexibility Score: inf
ROOT
ATOM      1  C   UNL     1       5.243  -5.238  -4.879  1.00  0.00     0.017 C 
ATOM      2  C   UNL     1       4.075  -5.930  -4.096  1.00  0.00     0.014 C 
ATOM      3  C   UNL     1       6.575  -5.412  -4.054  1.00  0.00     0.014 C 
ATOM      4  C   UNL     1       4.860  -3.724  -5.070  1.00  0.00     0.030 C 
ATOM      5  C   UNL     1       2.654  -5.436  -4.453  1.00  0.00     0.004 C 
ATOM      6  C   UNL     1       7.186  -4.091  -3.556  1.00  0.00     0.013 C 
ATOM      7  C   UNL     1       6.079  -2.877  -5.486  1.00  0.00    -0.063 C 
ATOM      8  C   UNL     1       3.537  -3.520  -5.904  1.00  0.00    -0.003 C 
ATOM      9  C   UNL     1       2.587  -4.763  -5.831  1.00  0.00    -0.011 C 
ATOM     10  C   UNL     1       7.392  -3.042  -4.704  1.00  0.00    -0.006 C 
ATOM     11  C   UNL     1       6.031  -1.920  -6.450  1.00  0.00    -0.027 C 
ATOM     12  C   UNL     1       2.837  -2.215  -5.455  1.00  0.00     0.008 C 
ATOM     13  C   UNL     1       1.131  -4.467  -6.225  1.00  0.00     0.008 C 
ATOM     14  C   UNL     1       8.396  -3.707  -5.716  1.00  0.00     0.017 C 
ATOM     15  C   UNL     1       7.927  -1.597  -4.148  1.00  0.00    -0.020 C 
ATOM     16  C   UNL     1       7.059  -0.814  -6.466  1.00  0.00     0.032 C 
ATOM     17  C   UNL     1       7.327  -0.409  -4.998  1.00  0.00     0.006 C 
ATOM     18  C   UNL     1       7.457  -1.283  -2.685  1.00  0.00     0.008 C 
ATOM     19  C   UNL     1       9.490  -1.629  -4.145  1.00  0.00     0.012 C 
ATOM     20  C   UNL     1       7.915   1.044  -4.722  1.00  0.00    -0.025 C 
ATOM     21  C   UNL     1       7.367   0.226  -2.292  1.00  0.00     0.005 C 
ATOM     22  C   UNL     1       8.209   1.223  -3.153  1.00  0.00     0.003 C 
ATOM     23  C   UNL     1       6.838   2.073  -5.225  1.00  0.00     0.010 C 
ATOM     24  C   UNL     1       9.216   1.258  -5.554  1.00  0.00     0.012 C 
ATOM     25  C   UNL     1       8.191   2.722  -2.601  1.00  0.00    -0.006 C 
ATOM     26  C   UNL     1       7.015   3.503  -4.723  1.00  0.00     0.033 C 
ATOM     27  C   UNL     1       7.020   3.550  -3.196  1.00  0.00     0.120 C 
ATOM     28  C   UNL     1       8.079   2.781  -1.050  1.00  0.00     0.014 C 
ATOM     29  C   UNL     1       9.542   3.426  -2.919  1.00  0.00     0.014 C 
ENDROOT
BRANCH   1  30
ATOM     30  C   UNL     1       5.448  -5.939  -6.221  1.00  0.00     0.048 C 
ATOM     31  O   UNL     1       5.187  -7.163  -6.366  1.00  0.00    -0.550 OA
ATOM     32  O   UNL     1       5.858  -5.209  -7.331  1.00  0.00    -0.550 OA
ENDBRANCH   1  30
BRANCH  27  33
ATOM     33  O   UNL     1       5.787   3.082  -2.704  1.00  0.00    -0.393 OA
ATOM     34  H   UNL     1       5.368   3.832  -2.206  1.00  0.00     0.210 HD
ENDBRANCH  27  33
TORSDOF 2
ENDMDL
