MODEL 1
REMARK VINA RESULT:    -5.417      0.000      0.000
REMARK INTER + INTRA:         -11.883
REMARK INTER:                  -9.850
REMARK INTRA:                  -2.033
REMARK UNBOUND:                -2.033
REMARK SMILES CCCCCCCCCCCCCCCC(=O)[O-]
REMARK SMILES IDX 9 1 10 2 11 3 12 4 13 5 14 6 15 7 16 8 17 9 18 10 8 11 7 12
REMARK SMILES IDX 6 13 5 14 4 15 3 16 2 17 1 18
REMARK H PARENT
REMARK Flexibility Score: inf
ROOT
ATOM      1  C   UNL     1      60.999   2.491  21.564  1.00  0.00     0.000 C 
ENDROOT
BRANCH   1   2
ATOM      2  C   UNL     1      61.846   2.871  22.788  1.00  0.00     0.000 C 
BRANCH   2   3
ATOM      3  C   UNL     1      62.443   4.286  22.688  1.00  0.00     0.000 C 
BRANCH   3   4
ATOM      4  C   UNL     1      63.933   4.392  23.069  1.00  0.00     0.000 C 
BRANCH   4   5
ATOM      5  C   UNL     1      64.627   3.050  23.366  1.00  0.00     0.000 C 
BRANCH   5   6
ATOM      6  C   UNL     1      66.077   3.197  23.872  1.00  0.00     0.006 C 
BRANCH   6   7
ATOM      7  C   UNL     1      66.401   4.629  24.317  1.00  0.00     0.053 C 
BRANCH   7   8
ATOM      8  C   UNL     1      67.395   4.617  25.435  1.00  0.00     0.041 C 
ATOM      9  O   UNL     1      67.022   4.368  26.612  1.00  0.00    -0.550 OA
ATOM     10  O   UNL     1      68.726   4.930  25.186  1.00  0.00    -0.550 OA
ENDBRANCH   7   8
ENDBRANCH   6   7
ENDBRANCH   5   6
ENDBRANCH   4   5
ENDBRANCH   3   4
ENDBRANCH   2   3
ENDBRANCH   1   2
BRANCH   1  11
ATOM     11  C   UNL     1      61.800   2.662  20.268  1.00  0.00     0.000 C 
BRANCH  11  12
ATOM     12  C   UNL     1      62.052   1.308  19.593  1.00  0.00    -0.000 C 
BRANCH  12  13
ATOM     13  C   UNL     1      63.551   1.094  19.333  1.00  0.00    -0.000 C 
BRANCH  13  14
ATOM     14  C   UNL     1      64.421   2.226  19.899  1.00  0.00    -0.000 C 
BRANCH  14  15
ATOM     15  C   UNL     1      65.079   3.075  18.797  1.00  0.00    -0.000 C 
BRANCH  15  16
ATOM     16  C   UNL     1      65.356   4.517  19.249  1.00  0.00    -0.000 C 
BRANCH  16  17
ATOM     17  C   UNL     1      66.369   4.593  20.402  1.00  0.00    -0.003 C 
ATOM     18  C   UNL     1      66.567   6.034  20.865  1.00  0.00     0.004 C 
ENDBRANCH  16  17
ENDBRANCH  15  16
ENDBRANCH  14  15
ENDBRANCH  13  14
ENDBRANCH  12  13
ENDBRANCH  11  12
ENDBRANCH   1  11
TORSDOF 14
ENDMDL
MODEL 2
REMARK VINA RESULT:    -5.375      1.860      3.264
REMARK INTER + INTRA:         -11.807
REMARK INTER:                  -9.638
REMARK INTRA:                  -2.169
REMARK UNBOUND:                -2.033
REMARK SMILES CCCCCCCCCCCCCCCC(=O)[O-]
REMARK SMILES IDX 9 1 10 2 11 3 12 4 13 5 14 6 15 7 16 8 17 9 18 10 8 11 7 12
REMARK SMILES IDX 6 13 5 14 4 15 3 16 2 17 1 18
REMARK H PARENT
REMARK Flexibility Score: inf
ROOT
ATOM      1  C   UNL     1      62.570   4.275  22.869  1.00  0.00     0.000 C 
ENDROOT
BRANCH   1   2
ATOM      2  C   UNL     1      64.097   4.193  22.728  1.00  0.00     0.000 C 
BRANCH   2   3
ATOM      3  C   UNL     1      64.640   2.765  22.916  1.00  0.00     0.000 C 
BRANCH   3   4
ATOM      4  C   UNL     1      65.950   2.668  23.721  1.00  0.00     0.000 C 
BRANCH   4   5
ATOM      5  C   UNL     1      66.366   3.961  24.448  1.00  0.00     0.000 C 
BRANCH   5   6
ATOM      6  C   UNL     1      67.751   4.495  24.024  1.00  0.00     0.006 C 
BRANCH   6   7
ATOM      7  C   UNL     1      67.676   5.901  23.413  1.00  0.00     0.053 C 
BRANCH   7   8
ATOM      8  C   UNL     1      67.272   5.825  21.975  1.00  0.00     0.041 C 
ATOM      9  O   UNL     1      66.453   6.656  21.502  1.00  0.00    -0.550 OA
ATOM     10  O   UNL     1      67.760   4.804  21.168  1.00  0.00    -0.550 OA
ENDBRANCH   7   8
ENDBRANCH   6   7
ENDBRANCH   5   6
ENDBRANCH   4   5
ENDBRANCH   3   4
ENDBRANCH   2   3
ENDBRANCH   1   2
BRANCH   1  11
ATOM     11  C   UNL     1      61.967   2.890  23.134  1.00  0.00     0.000 C 
BRANCH  11  12
ATOM     12  C   UNL     1      60.907   2.539  22.084  1.00  0.00    -0.000 C 
BRANCH  12  13
ATOM     13  C   UNL     1      60.875   3.589  20.962  1.00  0.00    -0.000 C 
BRANCH  13  14
ATOM     14  C   UNL     1      61.342   3.029  19.610  1.00  0.00    -0.000 C 
BRANCH  14  15
ATOM     15  C   UNL     1      62.113   1.704  19.753  1.00  0.00    -0.000 C 
BRANCH  15  16
ATOM     16  C   UNL     1      63.608   1.854  19.434  1.00  0.00    -0.000 C 
BRANCH  16  17
ATOM     17  C   UNL     1      64.004   3.303  19.113  1.00  0.00    -0.003 C 
ATOM     18  C   UNL     1      65.472   3.394  18.705  1.00  0.00     0.004 C 
ENDBRANCH  16  17
ENDBRANCH  15  16
ENDBRANCH  14  15
ENDBRANCH  13  14
ENDBRANCH  12  13
ENDBRANCH  11  12
ENDBRANCH   1  11
TORSDOF 14
ENDMDL
MODEL 3
REMARK VINA RESULT:    -5.311      1.283      2.700
REMARK INTER + INTRA:         -11.691
REMARK INTER:                  -9.811
REMARK INTRA:                  -1.879
REMARK UNBOUND:                -2.033
REMARK SMILES CCCCCCCCCCCCCCCC(=O)[O-]
REMARK SMILES IDX 9 1 10 2 11 3 12 4 13 5 14 6 15 7 16 8 17 9 18 10 8 11 7 12
REMARK SMILES IDX 6 13 5 14 4 15 3 16 2 17 1 18
REMARK H PARENT
REMARK Flexibility Score: inf
ROOT
ATOM      1  C   UNL     1      62.806   4.264  22.910  1.00  0.00     0.000 C 
ENDROOT
BRANCH   1   2
ATOM      2  C   UNL     1      64.332   4.089  22.936  1.00  0.00     0.000 C 
BRANCH   2   3
ATOM      3  C   UNL     1      64.777   2.812  23.670  1.00  0.00     0.000 C 
BRANCH   3   4
ATOM      4  C   UNL     1      66.193   2.317  23.317  1.00  0.00     0.000 C 
BRANCH   4   5
ATOM      5  C   UNL     1      67.108   3.373  22.667  1.00  0.00     0.000 C 
BRANCH   5   6
ATOM      6  C   UNL     1      68.220   3.893  23.602  1.00  0.00     0.006 C 
BRANCH   6   7
ATOM      7  C   UNL     1      67.856   5.230  24.260  1.00  0.00     0.053 C 
BRANCH   7   8
ATOM      8  C   UNL     1      67.480   5.022  25.693  1.00  0.00     0.041 C 
ATOM      9  O   UNL     1      66.279   5.126  26.054  1.00  0.00    -0.550 OA
ATOM     10  O   UNL     1      68.464   4.762  26.639  1.00  0.00    -0.550 OA
ENDBRANCH   7   8
ENDBRANCH   6   7
ENDBRANCH   5   6
ENDBRANCH   4   5
ENDBRANCH   3   4
ENDBRANCH   2   3
ENDBRANCH   1   2
BRANCH   1  11
ATOM     11  C   UNL     1      62.096   2.920  23.113  1.00  0.00     0.000 C 
BRANCH  11  12
ATOM     12  C   UNL     1      61.035   2.687  22.031  1.00  0.00    -0.000 C 
BRANCH  12  13
ATOM     13  C   UNL     1      61.285   3.590  20.813  1.00  0.00    -0.000 C 
BRANCH  13  14
ATOM     14  C   UNL     1      61.659   2.797  19.552  1.00  0.00    -0.000 C 
BRANCH  14  15
ATOM     15  C   UNL     1      62.520   1.560  19.865  1.00  0.00    -0.000 C 
BRANCH  15  16
ATOM     16  C   UNL     1      63.990   1.747  19.458  1.00  0.00    -0.000 C 
BRANCH  16  17
ATOM     17  C   UNL     1      64.386   3.225  19.323  1.00  0.00    -0.003 C 
ATOM     18  C   UNL     1      65.628   3.384  18.451  1.00  0.00     0.004 C 
ENDBRANCH  16  17
ENDBRANCH  15  16
ENDBRANCH  14  15
ENDBRANCH  13  14
ENDBRANCH  12  13
ENDBRANCH  11  12
ENDBRANCH   1  11
TORSDOF 14
ENDMDL
MODEL 4
REMARK VINA RESULT:    -5.103      3.040      4.602
REMARK INTER + INTRA:         -11.313
REMARK INTER:                  -9.435
REMARK INTRA:                  -1.878
REMARK UNBOUND:                -2.033
REMARK SMILES CCCCCCCCCCCCCCCC(=O)[O-]
REMARK SMILES IDX 9 1 10 2 11 3 12 4 13 5 14 6 15 7 16 8 17 9 18 10 8 11 7 12
REMARK SMILES IDX 6 13 5 14 4 15 3 16 2 17 1 18
REMARK H PARENT
REMARK Flexibility Score: inf
ROOT
ATOM      1  C   UNL     1      63.281   3.878  22.802  1.00  0.00     0.000 C 
ENDROOT
BRANCH   1   2
ATOM      2  C   UNL     1      64.540   3.108  23.227  1.00  0.00     0.000 C 
BRANCH   2   3
ATOM      3  C   UNL     1      65.844   3.824  22.829  1.00  0.00     0.000 C 
BRANCH   3   4
ATOM      4  C   UNL     1      65.657   5.077  21.951  1.00  0.00     0.000 C 
BRANCH   4   5
ATOM      5  C   UNL     1      66.962   5.766  21.513  1.00  0.00     0.000 C 
BRANCH   5   6
ATOM      6  C   UNL     1      66.742   7.084  20.742  1.00  0.00     0.006 C 
BRANCH   6   7
ATOM      7  C   UNL     1      65.330   7.189  20.149  1.00  0.00     0.053 C 
BRANCH   7   8
ATOM      8  C   UNL     1      65.060   8.586  19.687  1.00  0.00     0.041 C 
ATOM      9  O   UNL     1      65.881   9.175  18.937  1.00  0.00    -0.550 OA
ATOM     10  O   UNL     1      63.924   9.256  20.124  1.00  0.00    -0.550 OA
ENDBRANCH   7   8
ENDBRANCH   6   7
ENDBRANCH   5   6
ENDBRANCH   4   5
ENDBRANCH   3   4
ENDBRANCH   2   3
ENDBRANCH   1   2
BRANCH   1  11
ATOM     11  C   UNL     1      62.011   3.118  23.204  1.00  0.00     0.000 C 
BRANCH  11  12
ATOM     12  C   UNL     1      61.052   2.979  22.015  1.00  0.00    -0.000 C 
BRANCH  12  13
ATOM     13  C   UNL     1      61.627   3.659  20.763  1.00  0.00    -0.000 C 
BRANCH  13  14
ATOM     14  C   UNL     1      61.707   2.711  19.556  1.00  0.00    -0.000 C 
BRANCH  14  15
ATOM     15  C   UNL     1      62.687   1.546  19.783  1.00  0.00    -0.000 C 
BRANCH  15  16
ATOM     16  C   UNL     1      64.156   1.990  19.721  1.00  0.00    -0.000 C 
BRANCH  16  17
ATOM     17  C   UNL     1      64.340   3.333  18.998  1.00  0.00    -0.003 C 
ATOM     18  C   UNL     1      65.733   3.439  18.383  1.00  0.00     0.004 C 
ENDBRANCH  16  17
ENDBRANCH  15  16
ENDBRANCH  14  15
ENDBRANCH  13  14
ENDBRANCH  12  13
ENDBRANCH  11  12
ENDBRANCH   1  11
TORSDOF 14
ENDMDL
MODEL 5
REMARK VINA RESULT:    -5.087     10.195     12.850
REMARK INTER + INTRA:         -11.283
REMARK INTER:                  -8.861
REMARK INTRA:                  -2.422
REMARK UNBOUND:                -2.033
REMARK SMILES CCCCCCCCCCCCCCCC(=O)[O-]
REMARK SMILES IDX 9 1 10 2 11 3 12 4 13 5 14 6 15 7 16 8 17 9 18 10 8 11 7 12
REMARK SMILES IDX 6 13 5 14 4 15 3 16 2 17 1 18
REMARK H PARENT
REMARK Flexibility Score: inf
ROOT
ATOM      1  C   UNL     1      79.248   4.748  21.472  1.00  0.00     0.000 C 
ENDROOT
BRANCH   1   2
ATOM      2  C   UNL     1      78.405   5.908  20.921  1.00  0.00     0.000 C 
BRANCH   2   3
ATOM      3  C   UNL     1      78.126   6.998  21.972  1.00  0.00     0.000 C 
BRANCH   3   4
ATOM      4  C   UNL     1      78.765   6.751  23.352  1.00  0.00     0.000 C 
BRANCH   4   5
ATOM      5  C   UNL     1      77.766   6.581  24.512  1.00  0.00     0.000 C 
BRANCH   5   6
ATOM      6  C   UNL     1      76.310   6.930  24.136  1.00  0.00     0.006 C 
BRANCH   6   7
ATOM      7  C   UNL     1      75.820   8.215  24.816  1.00  0.00     0.053 C 
BRANCH   7   8
ATOM      8  C   UNL     1      75.935   9.377  23.882  1.00  0.00     0.041 C 
ATOM      9  O   UNL     1      77.037   9.968  23.738  1.00  0.00    -0.550 OA
ATOM     10  O   UNL     1      74.812   9.840  23.207  1.00  0.00    -0.550 OA
ENDBRANCH   7   8
ENDBRANCH   6   7
ENDBRANCH   5   6
ENDBRANCH   4   5
ENDBRANCH   3   4
ENDBRANCH   2   3
ENDBRANCH   1   2
BRANCH   1  11
ATOM     11  C   UNL     1      78.447   3.441  21.475  1.00  0.00     0.000 C 
BRANCH  11  12
ATOM     12  C   UNL     1      77.812   3.187  22.848  1.00  0.00    -0.000 C 
BRANCH  12  13
ATOM     13  C   UNL     1      76.279   3.240  22.763  1.00  0.00    -0.000 C 
BRANCH  13  14
ATOM     14  C   UNL     1      75.746   2.848  21.376  1.00  0.00    -0.000 C 
BRANCH  14  15
ATOM     15  C   UNL     1      74.532   3.691  20.949  1.00  0.00    -0.000 C 
BRANCH  15  16
ATOM     16  C   UNL     1      74.539   5.095  21.574  1.00  0.00    -0.000 C 
BRANCH  16  17
ATOM     17  C   UNL     1      74.786   6.204  20.540  1.00  0.00    -0.003 C 
ATOM     18  C   UNL     1      73.469   6.741  19.986  1.00  0.00     0.004 C 
ENDBRANCH  16  17
ENDBRANCH  15  16
ENDBRANCH  14  15
ENDBRANCH  13  14
ENDBRANCH  12  13
ENDBRANCH  11  12
ENDBRANCH   1  11
TORSDOF 14
ENDMDL
MODEL 6
REMARK VINA RESULT:    -5.080      2.300      4.531
REMARK INTER + INTRA:         -11.270
REMARK INTER:                  -9.110
REMARK INTRA:                  -2.161
REMARK UNBOUND:                -2.033
REMARK SMILES CCCCCCCCCCCCCCCC(=O)[O-]
REMARK SMILES IDX 9 1 10 2 11 3 12 4 13 5 14 6 15 7 16 8 17 9 18 10 8 11 7 12
REMARK SMILES IDX 6 13 5 14 4 15 3 16 2 17 1 18
REMARK H PARENT
REMARK Flexibility Score: inf
ROOT
ATOM      1  C   UNL     1      62.969   1.506  19.739  1.00  0.00     0.000 C 
ENDROOT
BRANCH   1   2
ATOM      2  C   UNL     1      64.477   1.689  19.515  1.00  0.00     0.000 C 
BRANCH   2   3
ATOM      3  C   UNL     1      64.829   3.052  18.891  1.00  0.00     0.000 C 
BRANCH   3   4
ATOM      4  C   UNL     1      65.722   3.956  19.763  1.00  0.00     0.000 C 
BRANCH   4   5
ATOM      5  C   UNL     1      65.186   5.383  19.984  1.00  0.00     0.000 C 
BRANCH   5   6
ATOM      6  C   UNL     1      66.227   6.353  20.584  1.00  0.00     0.006 C 
BRANCH   6   7
ATOM      7  C   UNL     1      65.982   7.809  20.168  1.00  0.00     0.053 C 
BRANCH   7   8
ATOM      8  C   UNL     1      67.006   8.708  20.785  1.00  0.00     0.041 C 
ATOM      9  O   UNL     1      68.111   8.241  21.167  1.00  0.00    -0.550 OA
ATOM     10  O   UNL     1      66.722  10.054  20.982  1.00  0.00    -0.550 OA
ENDBRANCH   7   8
ENDBRANCH   6   7
ENDBRANCH   5   6
ENDBRANCH   4   5
ENDBRANCH   3   4
ENDBRANCH   2   3
ENDBRANCH   1   2
BRANCH   1  11
ATOM     11  C   UNL     1      62.218   2.827  19.531  1.00  0.00     0.000 C 
BRANCH  11  12
ATOM     12  C   UNL     1      61.108   3.001  20.575  1.00  0.00    -0.000 C 
BRANCH  12  13
ATOM     13  C   UNL     1      61.690   3.025  21.997  1.00  0.00    -0.000 C 
BRANCH  13  14
ATOM     14  C   UNL     1      62.445   4.326  22.309  1.00  0.00    -0.000 C 
BRANCH  14  15
ATOM     15  C   UNL     1      63.808   4.072  22.977  1.00  0.00    -0.000 C 
BRANCH  15  16
ATOM     16  C   UNL     1      64.131   2.576  23.109  1.00  0.00    -0.000 C 
BRANCH  16  17
ATOM     17  C   UNL     1      65.390   2.312  23.949  1.00  0.00    -0.003 C 
ATOM     18  C   UNL     1      66.632   2.885  23.272  1.00  0.00     0.004 C 
ENDBRANCH  16  17
ENDBRANCH  15  16
ENDBRANCH  14  15
ENDBRANCH  13  14
ENDBRANCH  12  13
ENDBRANCH  11  12
ENDBRANCH   1  11
TORSDOF 14
ENDMDL
MODEL 7
REMARK VINA RESULT:    -5.079     11.718     13.969
REMARK INTER + INTRA:         -11.269
REMARK INTER:                  -9.316
REMARK INTRA:                  -1.953
REMARK UNBOUND:                -2.033
REMARK SMILES CCCCCCCCCCCCCCCC(=O)[O-]
REMARK SMILES IDX 9 1 10 2 11 3 12 4 13 5 14 6 15 7 16 8 17 9 18 10 8 11 7 12
REMARK SMILES IDX 6 13 5 14 4 15 3 16 2 17 1 18
REMARK H PARENT
REMARK Flexibility Score: inf
ROOT
ATOM      1  C   UNL     1      74.723   9.230  23.170  1.00  0.00     0.000 C 
ENDROOT
BRANCH   1   2
ATOM      2  C   UNL     1      75.755   8.511  22.288  1.00  0.00     0.000 C 
BRANCH   2   3
ATOM      3  C   UNL     1      75.132   7.402  21.420  1.00  0.00     0.000 C 
BRANCH   3   4
ATOM      4  C   UNL     1      76.123   6.334  20.920  1.00  0.00     0.000 C 
BRANCH   4   5
ATOM      5  C   UNL     1      77.402   6.184  21.766  1.00  0.00     0.000 C 
BRANCH   5   6
ATOM      6  C   UNL     1      78.535   5.416  21.052  1.00  0.00     0.006 C 
BRANCH   6   7
ATOM      7  C   UNL     1      78.968   4.160  21.819  1.00  0.00     0.053 C 
BRANCH   7   8
ATOM      8  C   UNL     1      77.788   3.283  22.094  1.00  0.00     0.041 C 
ATOM      9  O   UNL     1      77.390   3.109  23.275  1.00  0.00    -0.550 OA
ATOM     10  O   UNL     1      77.157   2.618  21.050  1.00  0.00    -0.550 OA
ENDBRANCH   7   8
ENDBRANCH   6   7
ENDBRANCH   5   6
ENDBRANCH   4   5
ENDBRANCH   3   4
ENDBRANCH   2   3
ENDBRANCH   1   2
BRANCH   1  11
ATOM     11  C   UNL     1      75.325   9.593  24.533  1.00  0.00     0.000 C 
BRANCH  11  12
ATOM     12  C   UNL     1      75.144   8.449  25.538  1.00  0.00    -0.000 C 
BRANCH  12  13
ATOM     13  C   UNL     1      76.490   8.044  26.158  1.00  0.00    -0.000 C 
BRANCH  13  14
ATOM     14  C   UNL     1      77.410   7.319  25.163  1.00  0.00    -0.000 C 
BRANCH  14  15
ATOM     15  C   UNL     1      78.845   7.874  25.173  1.00  0.00    -0.000 C 
BRANCH  15  16
ATOM     16  C   UNL     1      79.151   8.741  23.942  1.00  0.00    -0.000 C 
BRANCH  16  17
ATOM     17  C   UNL     1      78.830  10.226  24.167  1.00  0.00    -0.003 C 
ATOM     18  C   UNL     1      79.159  10.649  25.596  1.00  0.00     0.004 C 
ENDBRANCH  16  17
ENDBRANCH  15  16
ENDBRANCH  14  15
ENDBRANCH  13  14
ENDBRANCH  12  13
ENDBRANCH  11  12
ENDBRANCH   1  11
TORSDOF 14
ENDMDL
MODEL 8
REMARK VINA RESULT:    -5.049      9.785     12.946
REMARK INTER + INTRA:         -11.214
REMARK INTER:                  -8.667
REMARK INTRA:                  -2.547
REMARK UNBOUND:                -2.033
REMARK SMILES CCCCCCCCCCCCCCCC(=O)[O-]
REMARK SMILES IDX 9 1 10 2 11 3 12 4 13 5 14 6 15 7 16 8 17 9 18 10 8 11 7 12
REMARK SMILES IDX 6 13 5 14 4 15 3 16 2 17 1 18
REMARK H PARENT
REMARK Flexibility Score: inf
ROOT
ATOM      1  C   UNL     1      78.869   4.943  21.040  1.00  0.00     0.000 C 
ENDROOT
BRANCH   1   2
ATOM      2  C   UNL     1      78.881   4.366  22.464  1.00  0.00     0.000 C 
BRANCH   2   3
ATOM      3  C   UNL     1      78.222   2.978  22.554  1.00  0.00     0.000 C 
BRANCH   3   4
ATOM      4  C   UNL     1      76.681   2.984  22.510  1.00  0.00     0.000 C 
BRANCH   4   5
ATOM      5  C   UNL     1      76.065   2.537  21.171  1.00  0.00     0.000 C 
BRANCH   5   6
ATOM      6  C   UNL     1      74.525   2.624  21.134  1.00  0.00     0.006 C 
BRANCH   6   7
ATOM      7  C   UNL     1      73.961   3.524  22.241  1.00  0.00     0.053 C 
BRANCH   7   8
ATOM      8  C   UNL     1      72.886   4.411  21.697  1.00  0.00     0.041 C 
ATOM      9  O   UNL     1      73.137   5.203  20.752  1.00  0.00    -0.550 OA
ATOM     10  O   UNL     1      71.619   4.398  22.268  1.00  0.00    -0.550 OA
ENDBRANCH   7   8
ENDBRANCH   6   7
ENDBRANCH   5   6
ENDBRANCH   4   5
ENDBRANCH   3   4
ENDBRANCH   2   3
ENDBRANCH   1   2
BRANCH   1  11
ATOM     11  C   UNL     1      78.190   6.317  21.010  1.00  0.00     0.000 C 
BRANCH  11  12
ATOM     12  C   UNL     1      76.674   6.179  20.830  1.00  0.00    -0.000 C 
BRANCH  12  13
ATOM     13  C   UNL     1      75.922   7.190  21.710  1.00  0.00    -0.000 C 
BRANCH  13  14
ATOM     14  C   UNL     1      75.585   6.633  23.102  1.00  0.00    -0.000 C 
BRANCH  14  15
ATOM     15  C   UNL     1      76.312   7.385  24.231  1.00  0.00    -0.000 C 
BRANCH  15  16
ATOM     16  C   UNL     1      77.505   6.597  24.793  1.00  0.00    -0.000 C 
BRANCH  16  17
ATOM     17  C   UNL     1      78.838   7.344  24.633  1.00  0.00    -0.003 C 
ATOM     18  C   UNL     1      78.645   8.655  23.876  1.00  0.00     0.004 C 
ENDBRANCH  16  17
ENDBRANCH  15  16
ENDBRANCH  14  15
ENDBRANCH  13  14
ENDBRANCH  12  13
ENDBRANCH  11  12
ENDBRANCH   1  11
TORSDOF 14
ENDMDL
MODEL 9
REMARK VINA RESULT:    -5.022     10.772     13.526
REMARK INTER + INTRA:         -11.165
REMARK INTER:                  -8.916
REMARK INTRA:                  -2.249
REMARK UNBOUND:                -2.033
REMARK SMILES CCCCCCCCCCCCCCCC(=O)[O-]
REMARK SMILES IDX 9 1 10 2 11 3 12 4 13 5 14 6 15 7 16 8 17 9 18 10 8 11 7 12
REMARK SMILES IDX 6 13 5 14 4 15 3 16 2 17 1 18
REMARK H PARENT
REMARK Flexibility Score: inf
ROOT
ATOM      1  C   UNL     1      78.119   7.038  22.025  1.00  0.00     0.000 C 
ENDROOT
BRANCH   1   2
ATOM      2  C   UNL     1      77.573   6.549  23.375  1.00  0.00     0.000 C 
BRANCH   2   3
ATOM      3  C   UNL     1      76.328   7.328  23.836  1.00  0.00     0.000 C 
BRANCH   3   4
ATOM      4  C   UNL     1      76.021   8.602  23.026  1.00  0.00     0.000 C 
BRANCH   4   5
ATOM      5  C   UNL     1      75.547   9.807  23.861  1.00  0.00     0.000 C 
BRANCH   5   6
ATOM      6  C   UNL     1      76.564  10.262  24.930  1.00  0.00     0.006 C 
BRANCH   6   7
ATOM      7  C   UNL     1      77.875  10.768  24.316  1.00  0.00     0.053 C 
BRANCH   7   8
ATOM      8  C   UNL     1      79.047  10.103  24.964  1.00  0.00     0.041 C 
ATOM      9  O   UNL     1      80.213  10.533  24.761  1.00  0.00    -0.550 OA
ATOM     10  O   UNL     1      78.858   8.975  25.754  1.00  0.00    -0.550 OA
ENDBRANCH   7   8
ENDBRANCH   6   7
ENDBRANCH   5   6
ENDBRANCH   4   5
ENDBRANCH   3   4
ENDBRANCH   2   3
ENDBRANCH   1   2
BRANCH   1  11
ATOM     11  C   UNL     1      78.473   5.856  21.115  1.00  0.00     0.000 C 
BRANCH  11  12
ATOM     12  C   UNL     1      79.028   4.680  21.928  1.00  0.00    -0.000 C 
BRANCH  12  13
ATOM     13  C   UNL     1      78.343   3.364  21.531  1.00  0.00    -0.000 C 
BRANCH  13  14
ATOM     14  C   UNL     1      77.243   2.945  22.517  1.00  0.00    -0.000 C 
BRANCH  14  15
ATOM     15  C   UNL     1      75.847   2.916  21.869  1.00  0.00    -0.000 C 
BRANCH  15  16
ATOM     16  C   UNL     1      75.055   4.209  22.117  1.00  0.00    -0.000 C 
BRANCH  16  17
ATOM     17  C   UNL     1      74.367   4.736  20.848  1.00  0.00    -0.003 C 
ATOM     18  C   UNL     1      74.802   6.165  20.540  1.00  0.00     0.004 C 
ENDBRANCH  16  17
ENDBRANCH  15  16
ENDBRANCH  14  15
ENDBRANCH  13  14
ENDBRANCH  12  13
ENDBRANCH  11  12
ENDBRANCH   1  11
TORSDOF 14
ENDMDL
