MODEL 1
REMARK VINA RESULT:    -7.319      0.000      0.000
REMARK INTER + INTRA:          -9.415
REMARK INTER:                  -9.030
REMARK INTRA:                  -0.385
REMARK UNBOUND:                -0.385
REMARK SMILES Oc1cc(O)c2cc(O)c(-c3cc(O)c(O)c(O)c3)[o+]c2c1
REMARK SMILES IDX 10 1 20 2 21 3 22 4 2 5 3 6 4 7 6 8 7 9 8 10 11 11 12 12
REMARK SMILES IDX 13 13 19 14 15 15 17 16 14 17 16 19 18 21 9 23 1 25 5 27
REMARK H PARENT 14 18 16 20 18 22 9 24 1 26 5 28
REMARK Flexibility Score: inf
ROOT
ATOM      1  C   UNL     1      25.090 -26.527  27.289  1.00  0.00     0.402 A 
ATOM      2  O   UNL     1      26.160 -27.221  27.668  1.00  0.00    -0.202 OA
ATOM      3  C   UNL     1      26.287 -27.765  28.874  1.00  0.00     0.368 A 
ATOM      4  C   UNL     1      27.449 -28.479  29.179  1.00  0.00     0.162 A 
ATOM      5  C   UNL     1      27.607 -29.065  30.438  1.00  0.00     0.128 A 
ATOM      6  C   UNL     1      26.599 -28.936  31.396  1.00  0.00     0.093 A 
ATOM      7  C   UNL     1      25.425 -28.226  31.116  1.00  0.00     0.136 A 
ATOM      8  C   UNL     1      25.261 -27.627  29.839  1.00  0.00     0.125 A 
ATOM      9  C   UNL     1      24.125 -26.887  29.474  1.00  0.00     0.078 A 
ATOM     10  C   UNL     1      24.036 -26.322  28.198  1.00  0.00     0.223 A 
ENDROOT
BRANCH   1  11
ATOM     11  C   UNL     1      25.062 -25.978  25.913  1.00  0.00     0.091 A 
ATOM     12  C   UNL     1      24.496 -26.697  24.850  1.00  0.00     0.068 A 
ATOM     13  C   UNL     1      24.499 -26.169  23.553  1.00  0.00     0.162 A 
ATOM     14  C   UNL     1      25.664 -24.739  25.654  1.00  0.00     0.068 A 
ATOM     15  C   UNL     1      25.080 -24.919  23.299  1.00  0.00     0.200 A 
ATOM     16  C   UNL     1      25.675 -24.198  24.362  1.00  0.00     0.162 A 
BRANCH  13  17
ATOM     17  O   UNL     1      23.928 -26.887  22.503  1.00  0.00    -0.504 OA
ATOM     18  H   UNL     1      23.192 -27.565  22.662  1.00  0.00     0.293 HD
ENDBRANCH  13  17
BRANCH  15  19
ATOM     19  O   UNL     1      25.050 -24.435  21.989  1.00  0.00    -0.502 OA
ATOM     20  H   UNL     1      25.873 -24.187  21.457  1.00  0.00     0.293 HD
ENDBRANCH  15  19
BRANCH  16  21
ATOM     21  O   UNL     1      26.281 -22.953  24.183  1.00  0.00    -0.504 OA
ATOM     22  H   UNL     1      27.275 -22.819  24.067  1.00  0.00     0.293 HD
ENDBRANCH  16  21
ENDBRANCH   1  11
BRANCH  10  23
ATOM     23  O   UNL     1      22.931 -25.545  27.852  1.00  0.00    -0.500 OA
ATOM     24  H   UNL     1      22.883 -24.557  28.074  1.00  0.00     0.294 HD
ENDBRANCH  10  23
BRANCH   5  25
ATOM     25  O   UNL     1      28.763 -29.777  30.749  1.00  0.00    -0.507 OA
ATOM     26  H   UNL     1      29.663 -29.318  30.828  1.00  0.00     0.293 HD
ENDBRANCH   5  25
BRANCH   7  27
ATOM     27  O   UNL     1      24.463 -28.147  32.126  1.00  0.00    -0.507 OA
ATOM     28  H   UNL     1      24.152 -28.931  32.680  1.00  0.00     0.293 HD
ENDBRANCH   7  27
TORSDOF 7
ENDMDL
MODEL 2
REMARK VINA RESULT:    -7.234      0.103      1.801
REMARK INTER + INTRA:          -9.311
REMARK INTER:                  -8.930
REMARK INTRA:                  -0.380
REMARK UNBOUND:                -0.385
REMARK SMILES Oc1cc(O)c2cc(O)c(-c3cc(O)c(O)c(O)c3)[o+]c2c1
REMARK SMILES IDX 10 1 20 2 21 3 22 4 2 5 3 6 4 7 6 8 7 9 8 10 11 11 12 12
REMARK SMILES IDX 13 13 19 14 15 15 17 16 14 17 16 19 18 21 9 23 1 25 5 27
REMARK H PARENT 14 18 16 20 18 22 9 24 1 26 5 28
REMARK Flexibility Score: inf
ROOT
ATOM      1  C   UNL     1      25.124 -26.491  27.253  1.00  0.00     0.402 A 
ATOM      2  O   UNL     1      26.193 -27.187  27.634  1.00  0.00    -0.202 OA
ATOM      3  C   UNL     1      26.304 -27.757  28.829  1.00  0.00     0.368 A 
ATOM      4  C   UNL     1      27.465 -28.470  29.137  1.00  0.00     0.162 A 
ATOM      5  C   UNL     1      27.607 -29.082  30.385  1.00  0.00     0.128 A 
ATOM      6  C   UNL     1      26.583 -28.981  31.330  1.00  0.00     0.093 A 
ATOM      7  C   UNL     1      25.409 -28.272  31.046  1.00  0.00     0.136 A 
ATOM      8  C   UNL     1      25.261 -27.646  29.781  1.00  0.00     0.125 A 
ATOM      9  C   UNL     1      24.127 -26.905  29.414  1.00  0.00     0.078 A 
ATOM     10  C   UNL     1      24.055 -26.313  28.150  1.00  0.00     0.223 A 
ENDROOT
BRANCH   1  11
ATOM     11  C   UNL     1      25.114 -25.912  25.890  1.00  0.00     0.091 A 
ATOM     12  C   UNL     1      25.610 -24.624  25.639  1.00  0.00     0.068 A 
ATOM     13  C   UNL     1      25.571 -24.087  24.346  1.00  0.00     0.162 A 
ATOM     14  C   UNL     1      24.545 -26.641  24.836  1.00  0.00     0.068 A 
ATOM     15  C   UNL     1      25.024 -24.826  23.288  1.00  0.00     0.200 A 
ATOM     16  C   UNL     1      24.500 -26.117  23.538  1.00  0.00     0.162 A 
BRANCH  13  17
ATOM     17  O   UNL     1      26.074 -22.809  24.103  1.00  0.00    -0.504 OA
ATOM     18  H   UNL     1      25.570 -22.139  23.533  1.00  0.00     0.293 HD
ENDBRANCH  13  17
BRANCH  15  19
ATOM     19  O   UNL     1      25.016 -24.246  22.017  1.00  0.00    -0.502 OA
ATOM     20  H   UNL     1      24.240 -24.303  21.373  1.00  0.00     0.293 HD
ENDBRANCH  15  19
BRANCH  16  21
ATOM     21  O   UNL     1      23.930 -26.906  22.537  1.00  0.00    -0.504 OA
ATOM     22  H   UNL     1      24.461 -27.460  21.882  1.00  0.00     0.293 HD
ENDBRANCH  16  21
ENDBRANCH   1  11
BRANCH  10  23
ATOM     23  O   UNL     1      22.949 -25.536  27.803  1.00  0.00    -0.500 OA
ATOM     24  H   UNL     1      22.296 -25.827  27.086  1.00  0.00     0.294 HD
ENDBRANCH  10  23
BRANCH   5  25
ATOM     25  O   UNL     1      28.763 -29.794  30.699  1.00  0.00    -0.507 OA
ATOM     26  H   UNL     1      29.660 -29.332  30.797  1.00  0.00     0.293 HD
ENDBRANCH   5  25
BRANCH   7  27
ATOM     27  O   UNL     1      24.432 -28.221  32.043  1.00  0.00    -0.507 OA
ATOM     28  H   UNL     1      24.340 -27.474  32.716  1.00  0.00     0.293 HD
ENDBRANCH   7  27
TORSDOF 7
ENDMDL
MODEL 3
REMARK VINA RESULT:    -7.204      5.071      7.613
REMARK INTER + INTRA:          -9.273
REMARK INTER:                  -8.966
REMARK INTRA:                  -0.307
REMARK UNBOUND:                -0.385
REMARK SMILES Oc1cc(O)c2cc(O)c(-c3cc(O)c(O)c(O)c3)[o+]c2c1
REMARK SMILES IDX 10 1 20 2 21 3 22 4 2 5 3 6 4 7 6 8 7 9 8 10 11 11 12 12
REMARK SMILES IDX 13 13 19 14 15 15 17 16 14 17 16 19 18 21 9 23 1 25 5 27
REMARK H PARENT 14 18 16 20 18 22 9 24 1 26 5 28
REMARK Flexibility Score: inf
ROOT
ATOM      1  C   UNL     1      23.429 -21.392  26.941  1.00  0.00     0.402 A 
ATOM      2  O   UNL     1      23.837 -21.809  25.746  1.00  0.00    -0.202 OA
ATOM      3  C   UNL     1      23.721 -23.067  25.334  1.00  0.00     0.368 A 
ATOM      4  C   UNL     1      24.176 -23.410  24.059  1.00  0.00     0.162 A 
ATOM      5  C   UNL     1      24.064 -24.725  23.599  1.00  0.00     0.128 A 
ATOM      6  C   UNL     1      23.493 -25.701  24.418  1.00  0.00     0.093 A 
ATOM      7  C   UNL     1      23.029 -25.384  25.700  1.00  0.00     0.136 A 
ATOM      8  C   UNL     1      23.143 -24.051  26.173  1.00  0.00     0.125 A 
ATOM      9  C   UNL     1      22.717 -23.644  27.448  1.00  0.00     0.078 A 
ATOM     10  C   UNL     1      22.866 -22.312  27.845  1.00  0.00     0.223 A 
ENDROOT
BRANCH   1  11
ATOM     11  C   UNL     1      23.603 -19.960  27.281  1.00  0.00     0.091 A 
ATOM     12  C   UNL     1      24.589 -19.538  28.185  1.00  0.00     0.068 A 
ATOM     13  C   UNL     1      24.723 -18.182  28.508  1.00  0.00     0.162 A 
ATOM     14  C   UNL     1      22.728 -19.011  26.734  1.00  0.00     0.068 A 
ATOM     15  C   UNL     1      23.863 -17.231  27.943  1.00  0.00     0.200 A 
ATOM     16  C   UNL     1      22.850 -17.652  27.048  1.00  0.00     0.162 A 
BRANCH  13  17
ATOM     17  O   UNL     1      25.711 -17.769  29.401  1.00  0.00    -0.504 OA
ATOM     18  H   UNL     1      25.507 -17.603  30.380  1.00  0.00     0.293 HD
ENDBRANCH  13  17
BRANCH  15  19
ATOM     19  O   UNL     1      24.044 -15.890  28.294  1.00  0.00    -0.502 OA
ATOM     20  H   UNL     1      24.657 -15.576  29.032  1.00  0.00     0.293 HD
ENDBRANCH  15  19
BRANCH  16  21
ATOM     21  O   UNL     1      21.951 -16.764  26.455  1.00  0.00    -0.504 OA
ATOM     22  H   UNL     1      20.983 -16.672  26.726  1.00  0.00     0.293 HD
ENDBRANCH  16  21
ENDBRANCH   1  11
BRANCH  10  23
ATOM     23  O   UNL     1      22.489 -21.918  29.129  1.00  0.00    -0.500 OA
ATOM     24  H   UNL     1      23.173 -21.745  29.856  1.00  0.00     0.294 HD
ENDBRANCH  10  23
BRANCH   5  25
ATOM     25  O   UNL     1      24.517 -25.074  22.328  1.00  0.00    -0.507 OA
ATOM     26  H   UNL     1      24.119 -25.856  21.820  1.00  0.00     0.293 HD
ENDBRANCH   5  25
BRANCH   7  27
ATOM     27  O   UNL     1      22.467 -26.417  26.455  1.00  0.00    -0.507 OA
ATOM     28  H   UNL     1      22.279 -27.345  26.103  1.00  0.00     0.293 HD
ENDBRANCH   7  27
TORSDOF 7
ENDMDL
MODEL 4
REMARK VINA RESULT:    -7.143      4.986      7.858
REMARK INTER + INTRA:          -9.198
REMARK INTER:                  -8.910
REMARK INTRA:                  -0.287
REMARK UNBOUND:                -0.385
REMARK SMILES Oc1cc(O)c2cc(O)c(-c3cc(O)c(O)c(O)c3)[o+]c2c1
REMARK SMILES IDX 10 1 20 2 21 3 22 4 2 5 3 6 4 7 6 8 7 9 8 10 11 11 12 12
REMARK SMILES IDX 13 13 19 14 15 15 17 16 14 17 16 19 18 21 9 23 1 25 5 27
REMARK H PARENT 14 18 16 20 18 22 9 24 1 26 5 28
REMARK Flexibility Score: inf
ROOT
ATOM      1  C   UNL     1      23.976 -21.881  26.716  1.00  0.00     0.402 A 
ATOM      2  O   UNL     1      23.177 -20.877  26.365  1.00  0.00    -0.202 OA
ATOM      3  C   UNL     1      23.265 -19.657  26.887  1.00  0.00     0.368 A 
ATOM      4  C   UNL     1      22.382 -18.666  26.453  1.00  0.00     0.162 A 
ATOM      5  C   UNL     1      22.455 -17.375  26.983  1.00  0.00     0.128 A 
ATOM      6  C   UNL     1      23.416 -17.074  27.951  1.00  0.00     0.093 A 
ATOM      7  C   UNL     1      24.312 -18.049  28.404  1.00  0.00     0.136 A 
ATOM      8  C   UNL     1      24.241 -19.363  27.871  1.00  0.00     0.125 A 
ATOM      9  C   UNL     1      25.090 -20.407  28.273  1.00  0.00     0.078 A 
ATOM     10  C   UNL     1      24.956 -21.677  27.705  1.00  0.00     0.223 A 
ENDROOT
BRANCH   1  11
ATOM     11  C   UNL     1      23.786 -23.192  26.054  1.00  0.00     0.091 A 
ATOM     12  C   UNL     1      24.130 -23.389  24.709  1.00  0.00     0.068 A 
ATOM     13  C   UNL     1      23.921 -24.631  24.096  1.00  0.00     0.162 A 
ATOM     14  C   UNL     1      23.195 -24.245  26.768  1.00  0.00     0.068 A 
ATOM     15  C   UNL     1      23.353 -25.690  24.817  1.00  0.00     0.200 A 
ATOM     16  C   UNL     1      22.981 -25.492  26.168  1.00  0.00     0.162 A 
BRANCH  13  17
ATOM     17  O   UNL     1      24.274 -24.821  22.760  1.00  0.00    -0.504 OA
ATOM     18  H   UNL     1      24.800 -25.633  22.459  1.00  0.00     0.293 HD
ENDBRANCH  13  17
BRANCH  15  19
ATOM     19  O   UNL     1      23.174 -26.910  24.160  1.00  0.00    -0.502 OA
ATOM     20  H   UNL     1      23.362 -27.058  23.179  1.00  0.00     0.293 HD
ENDBRANCH  15  19
BRANCH  16  21
ATOM     21  O   UNL     1      22.401 -26.496  26.946  1.00  0.00    -0.504 OA
ATOM     22  H   UNL     1      22.768 -27.433  27.028  1.00  0.00     0.293 HD
ENDBRANCH  16  21
ENDBRANCH   1  11
BRANCH  10  23
ATOM     23  O   UNL     1      25.765 -22.727  28.141  1.00  0.00    -0.500 OA
ATOM     24  H   UNL     1      25.567 -23.233  28.996  1.00  0.00     0.294 HD
ENDBRANCH  10  23
BRANCH   5  25
ATOM     25  O   UNL     1      21.577 -16.382  26.555  1.00  0.00    -0.507 OA
ATOM     26  H   UNL     1      20.659 -16.607  26.188  1.00  0.00     0.293 HD
ENDBRANCH   5  25
BRANCH   7  27
ATOM     27  O   UNL     1      25.246 -17.667  29.371  1.00  0.00    -0.507 OA
ATOM     28  H   UNL     1      25.009 -17.372  30.307  1.00  0.00     0.293 HD
ENDBRANCH   7  27
TORSDOF 7
ENDMDL
MODEL 5
REMARK VINA RESULT:    -7.121      5.084      7.929
REMARK INTER + INTRA:          -9.171
REMARK INTER:                  -8.862
REMARK INTRA:                  -0.309
REMARK UNBOUND:                -0.385
REMARK SMILES Oc1cc(O)c2cc(O)c(-c3cc(O)c(O)c(O)c3)[o+]c2c1
REMARK SMILES IDX 10 1 20 2 21 3 22 4 2 5 3 6 4 7 6 8 7 9 8 10 11 11 12 12
REMARK SMILES IDX 13 13 19 14 15 15 17 16 14 17 16 19 18 21 9 23 1 25 5 27
REMARK H PARENT 14 18 16 20 18 22 9 24 1 26 5 28
REMARK Flexibility Score: inf
ROOT
ATOM      1  C   UNL     1      23.825 -21.777  26.684  1.00  0.00     0.402 A 
ATOM      2  O   UNL     1      22.988 -20.788  26.384  1.00  0.00    -0.202 OA
ATOM      3  C   UNL     1      23.093 -19.563  26.890  1.00  0.00     0.368 A 
ATOM      4  C   UNL     1      22.167 -18.589  26.512  1.00  0.00     0.162 A 
ATOM      5  C   UNL     1      22.256 -17.292  27.027  1.00  0.00     0.128 A 
ATOM      6  C   UNL     1      23.278 -16.970  27.923  1.00  0.00     0.093 A 
ATOM      7  C   UNL     1      24.219 -17.928  28.318  1.00  0.00     0.136 A 
ATOM      8  C   UNL     1      24.131 -19.246  27.800  1.00  0.00     0.125 A 
ATOM      9  C   UNL     1      25.022 -20.274  28.149  1.00  0.00     0.078 A 
ATOM     10  C   UNL     1      24.868 -21.551  27.600  1.00  0.00     0.223 A 
ENDROOT
BRANCH   1  11
ATOM     11  C   UNL     1      23.609 -23.096  26.046  1.00  0.00     0.091 A 
ATOM     12  C   UNL     1      23.079 -24.178  26.764  1.00  0.00     0.068 A 
ATOM     13  C   UNL     1      22.902 -25.423  26.147  1.00  0.00     0.162 A 
ATOM     14  C   UNL     1      23.994 -23.287  24.711  1.00  0.00     0.068 A 
ATOM     15  C   UNL     1      23.266 -25.607  24.807  1.00  0.00     0.200 A 
ATOM     16  C   UNL     1      23.824 -24.526  24.081  1.00  0.00     0.162 A 
BRANCH  13  17
ATOM     17  O   UNL     1      22.368 -26.491  26.866  1.00  0.00    -0.504 OA
ATOM     18  H   UNL     1      21.434 -26.454  27.258  1.00  0.00     0.293 HD
ENDBRANCH  13  17
BRANCH  15  19
ATOM     19  O   UNL     1      23.063 -26.866  24.237  1.00  0.00    -0.502 OA
ATOM     20  H   UNL     1      22.260 -27.450  24.425  1.00  0.00     0.293 HD
ENDBRANCH  15  19
BRANCH  16  21
ATOM     21  O   UNL     1      24.219 -24.637  22.747  1.00  0.00    -0.504 OA
ATOM     22  H   UNL     1      24.173 -25.491  22.212  1.00  0.00     0.293 HD
ENDBRANCH  16  21
ENDBRANCH   1  11
BRANCH  10  23
ATOM     23  O   UNL     1      25.722 -22.585  27.985  1.00  0.00    -0.500 OA
ATOM     24  H   UNL     1      25.822 -23.428  27.431  1.00  0.00     0.294 HD
ENDBRANCH  10  23
BRANCH   5  25
ATOM     25  O   UNL     1      21.335 -16.316  26.655  1.00  0.00    -0.507 OA
ATOM     26  H   UNL     1      20.340 -16.441  26.805  1.00  0.00     0.293 HD
ENDBRANCH   5  25
BRANCH   7  27
ATOM     27  O   UNL     1      25.212 -17.524  29.215  1.00  0.00    -0.507 OA
ATOM     28  H   UNL     1      25.251 -17.800  30.185  1.00  0.00     0.293 HD
ENDBRANCH   7  27
TORSDOF 7
ENDMDL
MODEL 6
REMARK VINA RESULT:    -6.864      2.878      4.509
REMARK INTER + INTRA:          -8.854
REMARK INTER:                  -8.522
REMARK INTRA:                  -0.333
REMARK UNBOUND:                -0.385
REMARK SMILES Oc1cc(O)c2cc(O)c(-c3cc(O)c(O)c(O)c3)[o+]c2c1
REMARK SMILES IDX 10 1 20 2 21 3 22 4 2 5 3 6 4 7 6 8 7 9 8 10 11 11 12 12
REMARK SMILES IDX 13 13 19 14 15 15 17 16 14 17 16 19 18 21 9 23 1 25 5 27
REMARK H PARENT 14 18 16 20 18 22 9 24 1 26 5 28
REMARK Flexibility Score: inf
ROOT
ATOM      1  C   UNL     1      26.641 -27.192  30.506  1.00  0.00     0.402 A 
ATOM      2  O   UNL     1      26.951 -26.311  31.454  1.00  0.00    -0.202 OA
ATOM      3  C   UNL     1      27.590 -26.638  32.572  1.00  0.00     0.368 A 
ATOM      4  C   UNL     1      27.875 -25.642  33.509  1.00  0.00     0.162 A 
ATOM      5  C   UNL     1      28.549 -25.957  34.692  1.00  0.00     0.128 A 
ATOM      6  C   UNL     1      28.940 -27.275  34.939  1.00  0.00     0.093 A 
ATOM      7  C   UNL     1      28.667 -28.292  34.017  1.00  0.00     0.136 A 
ATOM      8  C   UNL     1      27.980 -27.978  32.815  1.00  0.00     0.125 A 
ATOM      9  C   UNL     1      27.653 -28.933  31.840  1.00  0.00     0.078 A 
ATOM     10  C   UNL     1      26.971 -28.548  30.682  1.00  0.00     0.223 A 
ENDROOT
BRANCH   1  11
ATOM     11  C   UNL     1      25.936 -26.703  29.299  1.00  0.00     0.091 A 
ATOM     12  C   UNL     1      24.559 -26.904  29.124  1.00  0.00     0.068 A 
ATOM     13  C   UNL     1      23.915 -26.453  27.964  1.00  0.00     0.162 A 
ATOM     14  C   UNL     1      26.668 -26.076  28.280  1.00  0.00     0.068 A 
ATOM     15  C   UNL     1      24.644 -25.805  26.958  1.00  0.00     0.200 A 
ATOM     16  C   UNL     1      26.038 -25.619  27.116  1.00  0.00     0.162 A 
BRANCH  13  17
ATOM     17  O   UNL     1      22.545 -26.650  27.802  1.00  0.00    -0.504 OA
ATOM     18  H   UNL     1      21.954 -25.947  27.373  1.00  0.00     0.293 HD
ENDBRANCH  13  17
BRANCH  15  19
ATOM     19  O   UNL     1      23.953 -25.367  25.825  1.00  0.00    -0.502 OA
ATOM     20  H   UNL     1      24.399 -25.046  24.978  1.00  0.00     0.293 HD
ENDBRANCH  15  19
BRANCH  16  21
ATOM     21  O   UNL     1      26.830 -24.992  26.152  1.00  0.00    -0.504 OA
ATOM     22  H   UNL     1      27.275 -24.095  26.280  1.00  0.00     0.293 HD
ENDBRANCH  16  21
ENDBRANCH   1  11
BRANCH  10  23
ATOM     23  O   UNL     1      26.602 -29.505  29.737  1.00  0.00    -0.500 OA
ATOM     24  H   UNL     1      26.382 -29.253  28.780  1.00  0.00     0.294 HD
ENDBRANCH  10  23
BRANCH   5  25
ATOM     25  O   UNL     1      28.835 -24.969  35.631  1.00  0.00    -0.507 OA
ATOM     26  H   UNL     1      28.102 -24.519  36.169  1.00  0.00     0.293 HD
ENDBRANCH   5  25
BRANCH   7  27
ATOM     27  O   UNL     1      29.095 -29.584  34.337  1.00  0.00    -0.507 OA
ATOM     28  H   UNL     1      29.939 -29.794  34.849  1.00  0.00     0.293 HD
ENDBRANCH   7  27
TORSDOF 7
ENDMDL
MODEL 7
REMARK VINA RESULT:    -6.802      1.507      7.138
REMARK INTER + INTRA:          -8.777
REMARK INTER:                  -8.540
REMARK INTRA:                  -0.237
REMARK UNBOUND:                -0.385
REMARK SMILES Oc1cc(O)c2cc(O)c(-c3cc(O)c(O)c(O)c3)[o+]c2c1
REMARK SMILES IDX 10 1 20 2 21 3 22 4 2 5 3 6 4 7 6 8 7 9 8 10 11 11 12 12
REMARK SMILES IDX 13 13 19 14 15 15 17 16 14 17 16 19 18 21 9 23 1 25 5 27
REMARK H PARENT 14 18 16 20 18 22 9 24 1 26 5 28
REMARK Flexibility Score: inf
ROOT
ATOM      1  C   UNL     1      25.622 -25.603  27.718  1.00  0.00     0.402 A 
ATOM      2  O   UNL     1      25.353 -26.078  26.504  1.00  0.00    -0.202 OA
ATOM      3  C   UNL     1      25.162 -25.302  25.443  1.00  0.00     0.368 A 
ATOM      4  C   UNL     1      24.886 -25.895  24.208  1.00  0.00     0.162 A 
ATOM      5  C   UNL     1      24.684 -25.102  23.074  1.00  0.00     0.128 A 
ATOM      6  C   UNL     1      24.759 -23.711  23.176  1.00  0.00     0.093 A 
ATOM      7  C   UNL     1      25.034 -23.093  24.402  1.00  0.00     0.136 A 
ATOM      8  C   UNL     1      25.237 -23.893  25.556  1.00  0.00     0.125 A 
ATOM      9  C   UNL     1      25.505 -23.360  26.828  1.00  0.00     0.078 A 
ATOM     10  C   UNL     1      25.690 -24.212  27.920  1.00  0.00     0.223 A 
ENDROOT
BRANCH   1  11
ATOM     11  C   UNL     1      25.826 -26.571  28.820  1.00  0.00     0.091 A 
ATOM     12  C   UNL     1      26.916 -27.453  28.827  1.00  0.00     0.068 A 
ATOM     13  C   UNL     1      27.078 -28.375  29.869  1.00  0.00     0.162 A 
ATOM     14  C   UNL     1      24.879 -26.650  29.851  1.00  0.00     0.068 A 
ATOM     15  C   UNL     1      26.144 -28.437  30.911  1.00  0.00     0.200 A 
ATOM     16  C   UNL     1      25.027 -27.566  30.899  1.00  0.00     0.162 A 
BRANCH  13  17
ATOM     17  O   UNL     1      28.169 -29.243  29.873  1.00  0.00    -0.504 OA
ATOM     18  H   UNL     1      28.710 -29.421  29.034  1.00  0.00     0.293 HD
ENDBRANCH  13  17
BRANCH  15  19
ATOM     19  O   UNL     1      26.356 -29.370  31.930  1.00  0.00    -0.502 OA
ATOM     20  H   UNL     1      26.150 -30.355  31.847  1.00  0.00     0.293 HD
ENDBRANCH  15  19
BRANCH  16  21
ATOM     21  O   UNL     1      24.051 -27.577  31.897  1.00  0.00    -0.504 OA
ATOM     22  H   UNL     1      24.249 -27.676  32.882  1.00  0.00     0.293 HD
ENDBRANCH  16  21
ENDBRANCH   1  11
BRANCH  10  23
ATOM     23  O   UNL     1      25.906 -23.682  29.192  1.00  0.00    -0.500 OA
ATOM     24  H   UNL     1      26.079 -24.276  29.995  1.00  0.00     0.294 HD
ENDBRANCH  10  23
BRANCH   5  25
ATOM     25  O   UNL     1      24.408 -25.687  21.840  1.00  0.00    -0.507 OA
ATOM     26  H   UNL     1      23.741 -26.445  21.750  1.00  0.00     0.293 HD
ENDBRANCH   5  25
BRANCH   7  27
ATOM     27  O   UNL     1      25.095 -21.697  24.419  1.00  0.00    -0.507 OA
ATOM     28  H   UNL     1      25.760 -21.161  24.958  1.00  0.00     0.293 HD
ENDBRANCH   7  27
TORSDOF 7
ENDMDL
MODEL 8
REMARK VINA RESULT:    -6.784      5.146      7.586
REMARK INTER + INTRA:          -8.755
REMARK INTER:                  -8.412
REMARK INTRA:                  -0.343
REMARK UNBOUND:                -0.385
REMARK SMILES Oc1cc(O)c2cc(O)c(-c3cc(O)c(O)c(O)c3)[o+]c2c1
REMARK SMILES IDX 10 1 20 2 21 3 22 4 2 5 3 6 4 7 6 8 7 9 8 10 11 11 12 12
REMARK SMILES IDX 13 13 19 14 15 15 17 16 14 17 16 19 18 21 9 23 1 25 5 27
REMARK H PARENT 14 18 16 20 18 22 9 24 1 26 5 28
REMARK Flexibility Score: inf
ROOT
ATOM      1  C   UNL     1      23.876 -21.113  26.540  1.00  0.00     0.402 A 
ATOM      2  O   UNL     1      23.361 -22.167  27.168  1.00  0.00    -0.202 OA
ATOM      3  C   UNL     1      23.422 -23.405  26.687  1.00  0.00     0.368 A 
ATOM      4  C   UNL     1      22.854 -24.448  27.421  1.00  0.00     0.162 A 
ATOM      5  C   UNL     1      22.906 -25.760  26.940  1.00  0.00     0.128 A 
ATOM      6  C   UNL     1      23.530 -26.028  25.719  1.00  0.00     0.093 A 
ATOM      7  C   UNL     1      24.107 -25.000  24.963  1.00  0.00     0.136 A 
ATOM      8  C   UNL     1      24.054 -23.666  25.447  1.00  0.00     0.125 A 
ATOM      9  C   UNL     1      24.594 -22.571  24.752  1.00  0.00     0.078 A 
ATOM     10  C   UNL     1      24.499 -21.284  25.290  1.00  0.00     0.223 A 
ENDROOT
BRANCH   1  11
ATOM     11  C   UNL     1      23.754 -19.785  27.184  1.00  0.00     0.091 A 
ATOM     12  C   UNL     1      22.773 -18.866  26.784  1.00  0.00     0.068 A 
ATOM     13  C   UNL     1      22.688 -17.606  27.391  1.00  0.00     0.162 A 
ATOM     14  C   UNL     1      24.672 -19.413  28.176  1.00  0.00     0.068 A 
ATOM     15  C   UNL     1      23.592 -17.245  28.399  1.00  0.00     0.200 A 
ATOM     16  C   UNL     1      24.600 -18.158  28.793  1.00  0.00     0.162 A 
BRANCH  13  17
ATOM     17  O   UNL     1      21.706 -16.701  26.993  1.00  0.00    -0.504 OA
ATOM     18  H   UNL     1      21.466 -16.572  26.016  1.00  0.00     0.293 HD
ENDBRANCH  13  17
BRANCH  15  19
ATOM     19  O   UNL     1      23.459 -15.980  28.978  1.00  0.00    -0.502 OA
ATOM     20  H   UNL     1      22.640 -15.670  29.480  1.00  0.00     0.293 HD
ENDBRANCH  15  19
BRANCH  16  21
ATOM     21  O   UNL     1      25.541 -17.864  29.781  1.00  0.00    -0.504 OA
ATOM     22  H   UNL     1      26.494 -17.591  29.592  1.00  0.00     0.293 HD
ENDBRANCH  16  21
ENDBRANCH   1  11
BRANCH  10  23
ATOM     23  O   UNL     1      24.990 -20.191  24.577  1.00  0.00    -0.500 OA
ATOM     24  H   UNL     1      24.647 -19.251  24.739  1.00  0.00     0.294 HD
ENDBRANCH  10  23
BRANCH   5  25
ATOM     25  O   UNL     1      22.341 -26.806  27.666  1.00  0.00    -0.507 OA
ATOM     26  H   UNL     1      21.880 -26.646  28.555  1.00  0.00     0.293 HD
ENDBRANCH   5  25
BRANCH   7  27
ATOM     27  O   UNL     1      24.715 -25.351  23.755  1.00  0.00    -0.507 OA
ATOM     28  H   UNL     1      24.863 -24.716  22.985  1.00  0.00     0.293 HD
ENDBRANCH   7  27
TORSDOF 7
ENDMDL
MODEL 9
REMARK VINA RESULT:    -6.730      1.712      7.136
REMARK INTER + INTRA:          -8.688
REMARK INTER:                  -8.309
REMARK INTRA:                  -0.379
REMARK UNBOUND:                -0.385
REMARK SMILES Oc1cc(O)c2cc(O)c(-c3cc(O)c(O)c(O)c3)[o+]c2c1
REMARK SMILES IDX 10 1 20 2 21 3 22 4 2 5 3 6 4 7 6 8 7 9 8 10 11 11 12 12
REMARK SMILES IDX 13 13 19 14 15 15 17 16 14 17 16 19 18 21 9 23 1 25 5 27
REMARK H PARENT 14 18 16 20 18 22 9 24 1 26 5 28
REMARK Flexibility Score: inf
ROOT
ATOM      1  C   UNL     1      26.550 -26.516  28.099  1.00  0.00     0.402 A 
ATOM      2  O   UNL     1      27.395 -25.608  27.617  1.00  0.00    -0.202 OA
ATOM      3  C   UNL     1      27.136 -24.865  26.546  1.00  0.00     0.368 A 
ATOM      4  C   UNL     1      28.085 -23.935  26.117  1.00  0.00     0.162 A 
ATOM      5  C   UNL     1      27.836 -23.139  24.996  1.00  0.00     0.128 A 
ATOM      6  C   UNL     1      26.632 -23.273  24.301  1.00  0.00     0.093 A 
ATOM      7  C   UNL     1      25.664 -24.198  24.710  1.00  0.00     0.136 A 
ATOM      8  C   UNL     1      25.913 -25.011  25.847  1.00  0.00     0.125 A 
ATOM      9  C   UNL     1      25.006 -25.972  26.322  1.00  0.00     0.078 A 
ATOM     10  C   UNL     1      25.324 -26.739  27.447  1.00  0.00     0.223 A 
ENDROOT
BRANCH   1  11
ATOM     11  C   UNL     1      26.950 -27.275  29.306  1.00  0.00     0.091 A 
ATOM     12  C   UNL     1      27.680 -28.469  29.211  1.00  0.00     0.068 A 
ATOM     13  C   UNL     1      28.030 -29.183  30.365  1.00  0.00     0.162 A 
ATOM     14  C   UNL     1      26.543 -26.824  30.570  1.00  0.00     0.068 A 
ATOM     15  C   UNL     1      27.643 -28.718  31.629  1.00  0.00     0.200 A 
ATOM     16  C   UNL     1      26.886 -27.526  31.732  1.00  0.00     0.162 A 
BRANCH  13  17
ATOM     17  O   UNL     1      28.762 -30.365  30.262  1.00  0.00    -0.504 OA
ATOM     18  H   UNL     1      29.640 -30.404  29.757  1.00  0.00     0.293 HD
ENDBRANCH  13  17
BRANCH  15  19
ATOM     19  O   UNL     1      28.023 -29.463  32.748  1.00  0.00    -0.502 OA
ATOM     20  H   UNL     1      27.448 -29.586  33.569  1.00  0.00     0.293 HD
ENDBRANCH  15  19
BRANCH  16  21
ATOM     21  O   UNL     1      26.456 -27.008  32.955  1.00  0.00    -0.504 OA
ATOM     22  H   UNL     1      27.013 -26.405  33.542  1.00  0.00     0.293 HD
ENDBRANCH  16  21
ENDBRANCH   1  11
BRANCH  10  23
ATOM     23  O   UNL     1      24.446 -27.729  27.889  1.00  0.00    -0.500 OA
ATOM     24  H   UNL     1      23.919 -28.303  27.241  1.00  0.00     0.294 HD
ENDBRANCH  10  23
BRANCH   5  25
ATOM     25  O   UNL     1      28.780 -22.210  24.562  1.00  0.00    -0.507 OA
ATOM     26  H   UNL     1      28.560 -21.526  23.846  1.00  0.00     0.293 HD
ENDBRANCH   5  25
BRANCH   7  27
ATOM     27  O   UNL     1      24.484 -24.268  23.964  1.00  0.00    -0.507 OA
ATOM     28  H   UNL     1      24.169 -25.090  23.471  1.00  0.00     0.293 HD
ENDBRANCH   7  27
TORSDOF 7
ENDMDL
