MODEL 1
REMARK VINA RESULT:    -3.592      0.000      0.000
REMARK INTER + INTRA:          -7.218
REMARK INTER:                  -5.902
REMARK INTRA:                  -1.317
REMARK UNBOUND:                -1.317
REMARK SMILES C[C@@H]1O[C@H](OC[C@H]2O[C@@H](Oc3c(-c4ccc(O)c(O)c4)oc4cc(O)cc(O)c4c3=O)[C@H](O)[C@H](O)[C@H]2O)[C@H](O)[C@H](O)[C@H]1O
REMARK SMILES IDX 7 1 36 2 34 3 32 4 9 5 8 6 6 7 5 8 4 9 1 10 2 11 42 12 3 13
REMARK SMILES IDX 40 14 38 15 43 16 41 18 39 20 37 22 35 24 10 26 11 27 12 28
REMARK SMILES IDX 30 29 21 30 29 31 31 32 22 33 27 34 23 35 26 36 24 37 13 38
REMARK SMILES IDX 20 39 14 40 18 41 15 42 16 43 19 44 17 46 28 48 25 50 33 52
REMARK H PARENT 43 17 41 19 39 21 37 23 35 25 19 45 17 47 28 49 25 51 33 53
REMARK Flexibility Score: inf
ROOT
ATOM      1  C   UNL     1     -27.278  81.552   6.448  1.00  0.00     0.180 C 
ATOM      2  C   UNL     1     -28.345  82.387   5.724  1.00  0.00     0.177 C 
ATOM      3  C   UNL     1     -27.943  82.618   4.182  1.00  0.00     0.180 C 
ATOM      4  C   UNL     1     -26.728  81.520   3.869  1.00  0.00     0.214 C 
ATOM      5  C   UNL     1     -25.532  81.893   4.765  1.00  0.00     0.339 C 
ATOM      6  O   UNL     1     -25.902  81.913   6.169  1.00  0.00    -0.332 OA
ENDROOT
BRANCH   1   7
ATOM      7  C   UNL     1     -27.428  79.951   6.587  1.00  0.00     0.198 C 
BRANCH   7   8
ATOM      8  O   UNL     1     -28.003  79.191   5.518  1.00  0.00    -0.347 OA
BRANCH   8   9
ATOM      9  C   UNL     1     -29.288  78.557   5.776  1.00  0.00     0.281 C 
ATOM     10  C   UNL     1     -32.669  80.051   7.044  1.00  0.00     0.041 C 
ATOM     11  C   UNL     1     -31.641  79.237   6.179  1.00  0.00     0.150 C 
ATOM     12  C   UNL     1     -31.939  79.535   4.660  1.00  0.00     0.174 C 
ATOM     13  O   UNL     1     -30.208  79.444   6.514  1.00  0.00    -0.344 OA
ATOM     14  C   UNL     1     -30.695  79.189   3.801  1.00  0.00     0.179 C 
ATOM     15  C   UNL     1     -29.914  78.039   4.455  1.00  0.00     0.202 C 
BRANCH  12  16
ATOM     16  O   UNL     1     -33.094  78.758   4.272  1.00  0.00    -0.388 OA
ATOM     17  H   UNL     1     -33.847  79.084   4.823  1.00  0.00     0.211 HD
ENDBRANCH  12  16
BRANCH  14  18
ATOM     18  O   UNL     1     -29.860  80.320   3.537  1.00  0.00    -0.387 OA
ATOM     19  H   UNL     1     -29.628  80.628   4.404  1.00  0.00     0.211 HD
ENDBRANCH  14  18
BRANCH  15  20
ATOM     20  O   UNL     1     -28.993  77.456   3.567  1.00  0.00    -0.385 OA
ATOM     21  H   UNL     1     -28.085  77.883   3.657  1.00  0.00     0.211 HD
ENDBRANCH  15  20
ENDBRANCH   8   9
ENDBRANCH   7   8
ENDBRANCH   1   7
BRANCH   2  22
ATOM     22  O   UNL     1     -29.618  81.769   5.863  1.00  0.00    -0.387 OA
ATOM     23  H   UNL     1     -30.053  82.059   6.732  1.00  0.00     0.211 HD
ENDBRANCH   2  22
BRANCH   3  24
ATOM     24  O   UNL     1     -27.627  84.017   3.924  1.00  0.00    -0.387 OA
ATOM     25  H   UNL     1     -27.734  84.558   4.784  1.00  0.00     0.211 HD
ENDBRANCH   3  24
BRANCH   5  26
ATOM     26  O   UNL     1     -24.420  80.980   4.621  1.00  0.00    -0.454 OA
BRANCH  26  27
ATOM     27  C   UNL     1     -23.626  80.528   3.450  1.00  0.00     0.214 A 
ATOM     28  C   UNL     1     -23.401  81.453   2.357  1.00  0.00     0.180 A 
ATOM     29  C   UNL     1     -22.722  79.403   3.283  1.00  0.00     0.239 A 
ATOM     30  O   UNL     1     -23.366  80.913   1.110  1.00  0.00    -0.452 OA
ATOM     31  C   UNL     1     -22.013  79.199   1.983  1.00  0.00     0.111 A 
ATOM     32  O   UNL     1     -22.511  78.622   4.259  1.00  0.00    -0.285 OA
ATOM     33  C   UNL     1     -22.731  79.733   0.938  1.00  0.00     0.146 A 
ATOM     34  C   UNL     1     -20.664  78.893   1.744  1.00  0.00     0.134 A 
ATOM     35  C   UNL     1     -22.540  79.202  -0.316  1.00  0.00     0.094 A 
ATOM     36  C   UNL     1     -20.249  78.836   0.380  1.00  0.00     0.093 A 
ATOM     37  C   UNL     1     -21.153  79.060  -0.651  1.00  0.00     0.123 A 
BRANCH  28  38
ATOM     38  C   UNL     1     -22.645  82.809   2.597  1.00  0.00     0.025 A 
ATOM     39  C   UNL     1     -21.232  82.727   2.556  1.00  0.00     0.062 A 
ATOM     40  C   UNL     1     -23.155  83.935   1.835  1.00  0.00     0.016 A 
ATOM     41  C   UNL     1     -20.551  83.132   1.403  1.00  0.00     0.158 A 
ATOM     42  C   UNL     1     -22.656  84.015   0.526  1.00  0.00     0.051 A 
ATOM     43  C   UNL     1     -21.287  83.702   0.349  1.00  0.00     0.157 A 
BRANCH  41  44
ATOM     44  O   UNL     1     -19.150  82.967   1.240  1.00  0.00    -0.504 OA
ATOM     45  H   UNL     1     -18.691  83.275   0.397  1.00  0.00     0.293 HD
ENDBRANCH  41  44
BRANCH  43  46
ATOM     46  O   UNL     1     -20.641  84.226  -0.765  1.00  0.00    -0.504 OA
ATOM     47  H   UNL     1     -20.231  85.107  -0.901  1.00  0.00     0.293 HD
ENDBRANCH  43  46
ENDBRANCH  28  38
BRANCH  34  48
ATOM     48  O   UNL     1     -19.805  78.590   2.866  1.00  0.00    -0.507 OA
ATOM     49  H   UNL     1     -19.195  79.234   3.388  1.00  0.00     0.293 HD
ENDBRANCH  34  48
BRANCH  37  50
ATOM     50  O   UNL     1     -20.718  79.262  -1.967  1.00  0.00    -0.508 OA
ATOM     51  H   UNL     1     -21.253  79.709  -2.705  1.00  0.00     0.293 HD
ENDBRANCH  37  50
ENDBRANCH  26  27
ENDBRANCH   5  26
BRANCH   4  52
ATOM     52  O   UNL     1     -26.359  81.581   2.506  1.00  0.00    -0.384 OA
ATOM     53  H   UNL     1     -26.545  82.518   2.145  1.00  0.00     0.211 HD
ENDBRANCH   4  52
TORSDOF 16
ENDMDL
MODEL 2
REMARK VINA RESULT:    -3.300      1.359      3.455
REMARK INTER + INTRA:          -6.740
REMARK INTER:                  -5.561
REMARK INTRA:                  -1.179
REMARK UNBOUND:                -1.317
REMARK SMILES C[C@@H]1O[C@H](OC[C@H]2O[C@@H](Oc3c(-c4ccc(O)c(O)c4)oc4cc(O)cc(O)c4c3=O)[C@H](O)[C@H](O)[C@H]2O)[C@H](O)[C@H](O)[C@H]1O
REMARK SMILES IDX 7 1 36 2 34 3 32 4 9 5 8 6 6 7 5 8 4 9 1 10 2 11 42 12 3 13
REMARK SMILES IDX 40 14 38 15 43 16 41 18 39 20 37 22 35 24 10 26 11 27 12 28
REMARK SMILES IDX 30 29 21 30 29 31 31 32 22 33 27 34 23 35 26 36 24 37 13 38
REMARK SMILES IDX 20 39 14 40 18 41 15 42 16 43 19 44 17 46 28 48 25 50 33 52
REMARK H PARENT 43 17 41 19 39 21 37 23 35 25 19 45 17 47 28 49 25 51 33 53
REMARK Flexibility Score: inf
ROOT
ATOM      1  C   UNL     1     -26.942  80.146   6.509  1.00  0.00     0.180 C 
ATOM      2  C   UNL     1     -27.903  81.240   7.000  1.00  0.00     0.177 C 
ATOM      3  C   UNL     1     -27.836  82.532   6.040  1.00  0.00     0.180 C 
ATOM      4  C   UNL     1     -27.052  82.022   4.660  1.00  0.00     0.214 C 
ATOM      5  C   UNL     1     -25.622  81.622   5.068  1.00  0.00     0.339 C 
ATOM      6  O   UNL     1     -25.628  80.602   6.101  1.00  0.00    -0.332 OA
ENDROOT
BRANCH   1   7
ATOM      7  C   UNL     1     -27.456  78.958   5.545  1.00  0.00     0.198 C 
BRANCH   7   8
ATOM      8  O   UNL     1     -28.593  79.165   4.699  1.00  0.00    -0.347 OA
BRANCH   8   9
ATOM      9  C   UNL     1     -29.847  78.556   5.117  1.00  0.00     0.281 C 
ATOM     10  C   UNL     1     -32.110  79.239   8.229  1.00  0.00     0.041 C 
ATOM     11  C   UNL     1     -31.672  79.002   6.739  1.00  0.00     0.150 C 
ATOM     12  C   UNL     1     -32.351  80.112   5.850  1.00  0.00     0.174 C 
ATOM     13  O   UNL     1     -30.208  78.919   6.501  1.00  0.00    -0.344 OA
ATOM     14  C   UNL     1     -31.590  80.249   4.506  1.00  0.00     0.179 C 
ATOM     15  C   UNL     1     -30.979  78.896   4.113  1.00  0.00     0.202 C 
BRANCH  12  16
ATOM     16  O   UNL     1     -33.733  79.740   5.651  1.00  0.00    -0.388 OA
ATOM     17  H   UNL     1     -33.725  78.812   5.312  1.00  0.00     0.211 HD
ENDBRANCH  12  16
BRANCH  14  18
ATOM     18  O   UNL     1     -30.613  81.294   4.515  1.00  0.00    -0.387 OA
ATOM     19  H   UNL     1     -30.292  81.303   3.622  1.00  0.00     0.211 HD
ENDBRANCH  14  18
BRANCH  15  20
ATOM     20  O   UNL     1     -30.584  78.868   2.765  1.00  0.00    -0.385 OA
ATOM     21  H   UNL     1     -30.093  78.015   2.549  1.00  0.00     0.211 HD
ENDBRANCH  15  20
ENDBRANCH   8   9
ENDBRANCH   7   8
ENDBRANCH   1   7
BRANCH   2  22
ATOM     22  O   UNL     1     -29.219  80.714   7.106  1.00  0.00    -0.387 OA
ATOM     23  H   UNL     1     -29.186  79.704   7.188  1.00  0.00     0.211 HD
ENDBRANCH   2  22
BRANCH   3  24
ATOM     24  O   UNL     1     -27.247  83.671   6.732  1.00  0.00    -0.387 OA
ATOM     25  H   UNL     1     -27.043  83.418   7.700  1.00  0.00     0.211 HD
ENDBRANCH   3  24
BRANCH   5  26
ATOM     26  O   UNL     1     -24.847  81.113   3.958  1.00  0.00    -0.454 OA
BRANCH  26  27
ATOM     27  C   UNL     1     -23.723  81.675   3.166  1.00  0.00     0.214 A 
ATOM     28  C   UNL     1     -22.648  80.795   2.753  1.00  0.00     0.180 A 
ATOM     29  C   UNL     1     -23.605  82.915   2.417  1.00  0.00     0.239 A 
ATOM     30  O   UNL     1     -21.404  81.341   2.720  1.00  0.00    -0.452 OA
ATOM     31  C   UNL     1     -22.348  83.220   1.669  1.00  0.00     0.111 A 
ATOM     32  O   UNL     1     -24.589  83.712   2.373  1.00  0.00    -0.285 OA
ATOM     33  C   UNL     1     -21.265  82.597   2.244  1.00  0.00     0.146 A 
ATOM     34  C   UNL     1     -22.188  83.709   0.363  1.00  0.00     0.134 A 
ATOM     35  C   UNL     1     -20.023  83.156   2.056  1.00  0.00     0.094 A 
ATOM     36  C   UNL     1     -20.850  83.830  -0.119  1.00  0.00     0.093 A 
ATOM     37  C   UNL     1     -19.769  83.489   0.684  1.00  0.00     0.123 A 
BRANCH  28  38
ATOM     38  C   UNL     1     -22.936  79.554   1.834  1.00  0.00     0.025 A 
ATOM     39  C   UNL     1     -23.077  79.846   0.455  1.00  0.00     0.062 A 
ATOM     40  C   UNL     1     -22.078  78.407   2.070  1.00  0.00     0.016 A 
ATOM     41  C   UNL     1     -22.006  79.606  -0.413  1.00  0.00     0.158 A 
ATOM     42  C   UNL     1     -20.842  78.470   1.412  1.00  0.00     0.051 A 
ATOM     43  C   UNL     1     -20.850  78.989   0.096  1.00  0.00     0.157 A 
BRANCH  41  44
ATOM     44  O   UNL     1     -22.027  79.984  -1.782  1.00  0.00    -0.504 OA
ATOM     45  H   UNL     1     -22.720  80.632  -2.126  1.00  0.00     0.293 HD
ENDBRANCH  41  44
BRANCH  43  46
ATOM     46  O   UNL     1     -19.809  78.625  -0.752  1.00  0.00    -0.504 OA
ATOM     47  H   UNL     1     -19.308  77.784  -0.811  1.00  0.00     0.293 HD
ENDBRANCH  43  46
ENDBRANCH  28  38
BRANCH  34  48
ATOM     48  O   UNL     1     -23.357  84.122  -0.379  1.00  0.00    -0.507 OA
ATOM     49  H   UNL     1     -23.651  85.079  -0.615  1.00  0.00     0.293 HD
ENDBRANCH  34  48
BRANCH  37  50
ATOM     50  O   UNL     1     -18.481  83.354   0.150  1.00  0.00    -0.508 OA
ATOM     51  H   UNL     1     -18.048  83.985  -0.518  1.00  0.00     0.293 HD
ENDBRANCH  37  50
ENDBRANCH  26  27
ENDBRANCH   5  26
BRANCH   4  52
ATOM     52  O   UNL     1     -27.017  83.068   3.709  1.00  0.00    -0.384 OA
ATOM     53  H   UNL     1     -27.763  82.932   3.026  1.00  0.00     0.211 HD
ENDBRANCH   4  52
TORSDOF 16
ENDMDL
MODEL 3
REMARK VINA RESULT:    -2.496      1.242      1.900
REMARK INTER + INTRA:          -5.417
REMARK INTER:                  -4.332
REMARK INTRA:                  -1.085
REMARK UNBOUND:                -1.317
REMARK SMILES C[C@@H]1O[C@H](OC[C@H]2O[C@@H](Oc3c(-c4ccc(O)c(O)c4)oc4cc(O)cc(O)c4c3=O)[C@H](O)[C@H](O)[C@H]2O)[C@H](O)[C@H](O)[C@H]1O
REMARK SMILES IDX 7 1 36 2 34 3 32 4 9 5 8 6 6 7 5 8 4 9 1 10 2 11 42 12 3 13
REMARK SMILES IDX 40 14 38 15 43 16 41 18 39 20 37 22 35 24 10 26 11 27 12 28
REMARK SMILES IDX 30 29 21 30 29 31 31 32 22 33 27 34 23 35 26 36 24 37 13 38
REMARK SMILES IDX 20 39 14 40 18 41 15 42 16 43 19 44 17 46 28 48 25 50 33 52
REMARK H PARENT 43 17 41 19 39 21 37 23 35 25 19 45 17 47 28 49 25 51 33 53
REMARK Flexibility Score: inf
ROOT
ATOM      1  C   UNL     1     -27.894  79.842   5.397  1.00  0.00     0.180 C 
ATOM      2  C   UNL     1     -28.310  80.168   6.839  1.00  0.00     0.177 C 
ATOM      3  C   UNL     1     -27.441  81.392   7.422  1.00  0.00     0.180 C 
ATOM      4  C   UNL     1     -26.712  82.092   6.096  1.00  0.00     0.214 C 
ATOM      5  C   UNL     1     -25.762  81.042   5.489  1.00  0.00     0.339 C 
ATOM      6  O   UNL     1     -26.467  79.821   5.144  1.00  0.00    -0.332 OA
ENDROOT
BRANCH   1   7
ATOM      7  C   UNL     1     -28.685  80.474   4.140  1.00  0.00     0.198 C 
BRANCH   7   8
ATOM      8  O   UNL     1     -29.905  79.875   3.687  1.00  0.00    -0.347 OA
BRANCH   8   9
ATOM      9  C   UNL     1     -30.840  79.428   4.710  1.00  0.00     0.281 C 
ATOM     10  C   UNL     1     -34.134  81.047   6.048  1.00  0.00     0.041 C 
ATOM     11  C   UNL     1     -33.131  79.975   5.491  1.00  0.00     0.150 C 
ATOM     12  C   UNL     1     -33.843  79.209   4.311  1.00  0.00     0.174 C 
ATOM     13  O   UNL     1     -31.794  80.486   5.092  1.00  0.00    -0.344 OA
ATOM     14  C   UNL     1     -32.783  78.520   3.414  1.00  0.00     0.179 C 
ATOM     15  C   UNL     1     -31.560  78.131   4.258  1.00  0.00     0.202 C 
BRANCH  12  16
ATOM     16  O   UNL     1     -34.761  78.254   4.890  1.00  0.00    -0.388 OA
ATOM     17  H   UNL     1     -34.948  77.586   4.186  1.00  0.00     0.211 HD
ENDBRANCH  12  16
BRANCH  14  18
ATOM     18  O   UNL     1     -32.417  79.300   2.272  1.00  0.00    -0.387 OA
ATOM     19  H   UNL     1     -31.470  79.248   2.265  1.00  0.00     0.211 HD
ENDBRANCH  14  18
BRANCH  15  20
ATOM     20  O   UNL     1     -30.732  77.210   3.593  1.00  0.00    -0.385 OA
ATOM     21  H   UNL     1     -29.792  77.240   3.957  1.00  0.00     0.211 HD
ENDBRANCH  15  20
ENDBRANCH   8   9
ENDBRANCH   7   8
ENDBRANCH   1   7
BRANCH   2  22
ATOM     22  O   UNL     1     -29.707  80.423   6.893  1.00  0.00    -0.387 OA
ATOM     23  H   UNL     1     -29.961  80.778   7.808  1.00  0.00     0.211 HD
ENDBRANCH   2  22
BRANCH   3  24
ATOM     24  O   UNL     1     -26.550  80.947   8.485  1.00  0.00    -0.387 OA
ATOM     25  H   UNL     1     -26.809  80.003   8.778  1.00  0.00     0.211 HD
ENDBRANCH   3  24
BRANCH   5  26
ATOM     26  O   UNL     1     -25.098  81.514   4.294  1.00  0.00    -0.454 OA
BRANCH  26  27
ATOM     27  C   UNL     1     -24.154  80.877   3.341  1.00  0.00     0.214 A 
ATOM     28  C   UNL     1     -23.643  81.658   2.233  1.00  0.00     0.180 A 
ATOM     29  C   UNL     1     -23.351  79.670   3.452  1.00  0.00     0.239 A 
ATOM     30  O   UNL     1     -23.436  80.986   1.069  1.00  0.00    -0.452 OA
ATOM     31  C   UNL     1     -22.442  79.271   2.335  1.00  0.00     0.111 A 
ATOM     32  O   UNL     1     -23.400  78.985   4.516  1.00  0.00    -0.285 OA
ATOM     33  C   UNL     1     -22.901  79.747   1.129  1.00  0.00     0.146 A 
ATOM     34  C   UNL     1     -21.110  78.833   2.387  1.00  0.00     0.134 A 
ATOM     35  C   UNL     1     -22.540  79.071  -0.013  1.00  0.00     0.094 A 
ATOM     36  C   UNL     1     -20.461  78.597   1.138  1.00  0.00     0.093 A 
ATOM     37  C   UNL     1     -21.136  78.781  -0.063  1.00  0.00     0.123 A 
BRANCH  28  38
ATOM     38  C   UNL     1     -22.811  82.966   2.489  1.00  0.00     0.025 A 
ATOM     39  C   UNL     1     -21.407  82.790   2.525  1.00  0.00     0.062 A 
ATOM     40  C   UNL     1     -23.204  84.107   1.681  1.00  0.00     0.016 A 
ATOM     41  C   UNL     1     -20.641  83.125   1.404  1.00  0.00     0.158 A 
ATOM     42  C   UNL     1     -22.633  84.126   0.400  1.00  0.00     0.051 A 
ATOM     43  C   UNL     1     -21.281  83.721   0.303  1.00  0.00     0.157 A 
BRANCH  41  44
ATOM     44  O   UNL     1     -19.247  82.865   1.319  1.00  0.00    -0.504 OA
ATOM     45  H   UNL     1     -18.578  83.616   1.394  1.00  0.00     0.293 HD
ENDBRANCH  41  44
BRANCH  43  46
ATOM     46  O   UNL     1     -20.544  84.178  -0.785  1.00  0.00    -0.504 OA
ATOM     47  H   UNL     1     -19.575  84.177  -0.935  1.00  0.00     0.293 HD
ENDBRANCH  43  46
ENDBRANCH  28  38
BRANCH  34  48
ATOM     48  O   UNL     1     -20.503  78.583   3.674  1.00  0.00    -0.507 OA
ATOM     49  H   UNL     1     -19.722  79.088   4.114  1.00  0.00     0.293 HD
ENDBRANCH  34  48
BRANCH  37  50
ATOM     50  O   UNL     1     -20.451  78.806  -1.285  1.00  0.00    -0.508 OA
ATOM     51  H   UNL     1     -19.541  78.392  -1.462  1.00  0.00     0.293 HD
ENDBRANCH  37  50
ENDBRANCH  26  27
ENDBRANCH   5  26
BRANCH   4  52
ATOM     52  O   UNL     1     -25.987  83.240   6.491  1.00  0.00    -0.384 OA
ATOM     53  H   UNL     1     -26.020  83.937   5.745  1.00  0.00     0.211 HD
ENDBRANCH   4  52
TORSDOF 16
ENDMDL
MODEL 4
REMARK VINA RESULT:    -2.395      9.177     12.883
REMARK INTER + INTRA:          -5.252
REMARK INTER:                  -4.728
REMARK INTRA:                  -0.524
REMARK UNBOUND:                -1.317
REMARK SMILES C[C@@H]1O[C@H](OC[C@H]2O[C@@H](Oc3c(-c4ccc(O)c(O)c4)oc4cc(O)cc(O)c4c3=O)[C@H](O)[C@H](O)[C@H]2O)[C@H](O)[C@H](O)[C@H]1O
REMARK SMILES IDX 7 1 36 2 34 3 32 4 9 5 8 6 6 7 5 8 4 9 1 10 2 11 42 12 3 13
REMARK SMILES IDX 40 14 38 15 43 16 41 18 39 20 37 22 35 24 10 26 11 27 12 28
REMARK SMILES IDX 30 29 21 30 29 31 31 32 22 33 27 34 23 35 26 36 24 37 13 38
REMARK SMILES IDX 20 39 14 40 18 41 15 42 16 43 19 44 17 46 28 48 25 50 33 52
REMARK H PARENT 43 17 41 19 39 21 37 23 35 25 19 45 17 47 28 49 25 51 33 53
REMARK Flexibility Score: inf
ROOT
ATOM      1  C   UNL     1     -25.353  72.991  -0.759  1.00  0.00     0.180 C 
ATOM      2  C   UNL     1     -25.013  74.414  -0.291  1.00  0.00     0.177 C 
ATOM      3  C   UNL     1     -23.889  74.383   0.863  1.00  0.00     0.180 C 
ATOM      4  C   UNL     1     -23.242  72.848   0.813  1.00  0.00     0.214 C 
ATOM      5  C   UNL     1     -24.368  71.864   1.179  1.00  0.00     0.339 C 
ATOM      6  O   UNL     1     -25.509  72.005   0.292  1.00  0.00    -0.332 OA
ENDROOT
BRANCH   1   7
ATOM      7  C   UNL     1     -24.626  72.341  -2.044  1.00  0.00     0.198 C 
BRANCH   7   8
ATOM      8  O   UNL     1     -25.188  72.518  -3.350  1.00  0.00    -0.347 OA
BRANCH   8   9
ATOM      9  C   UNL     1     -24.399  73.272  -4.312  1.00  0.00     0.281 C 
ATOM     10  C   UNL     1     -20.884  72.554  -5.861  1.00  0.00     0.041 C 
ATOM     11  C   UNL     1     -22.406  72.925  -5.751  1.00  0.00     0.150 C 
ATOM     12  C   UNL     1     -23.189  72.095  -6.838  1.00  0.00     0.174 C 
ATOM     13  O   UNL     1     -23.010  72.780  -4.401  1.00  0.00    -0.344 OA
ATOM     14  C   UNL     1     -24.692  72.023  -6.465  1.00  0.00     0.179 C 
ATOM     15  C   UNL     1     -25.099  73.289  -5.696  1.00  0.00     0.202 C 
BRANCH  12  16
ATOM     16  O   UNL     1     -22.982  72.732  -8.118  1.00  0.00    -0.388 OA
ATOM     17  H   UNL     1     -23.880  72.892  -8.499  1.00  0.00     0.211 HD
ENDBRANCH  12  16
BRANCH  14  18
ATOM     18  O   UNL     1     -25.041  70.832  -5.754  1.00  0.00    -0.387 OA
ATOM     19  H   UNL     1     -25.372  70.259  -6.434  1.00  0.00     0.211 HD
ENDBRANCH  14  18
BRANCH  15  20
ATOM     20  O   UNL     1     -26.495  73.444  -5.636  1.00  0.00    -0.385 OA
ATOM     21  H   UNL     1     -26.786  73.742  -4.719  1.00  0.00     0.211 HD
ENDBRANCH  15  20
ENDBRANCH   8   9
ENDBRANCH   7   8
ENDBRANCH   1   7
BRANCH   2  22
ATOM     22  O   UNL     1     -24.623  75.208  -1.404  1.00  0.00    -0.387 OA
ATOM     23  H   UNL     1     -24.952  74.787  -2.265  1.00  0.00     0.211 HD
ENDBRANCH   2  22
BRANCH   3  24
ATOM     24  O   UNL     1     -24.437  74.809   2.144  1.00  0.00    -0.387 OA
ATOM     25  H   UNL     1     -25.417  75.074   2.028  1.00  0.00     0.211 HD
ENDBRANCH   3  24
BRANCH   5  26
ATOM     26  O   UNL     1     -23.943  70.483   1.126  1.00  0.00    -0.454 OA
BRANCH  26  27
ATOM     27  C   UNL     1     -22.891  69.719   1.845  1.00  0.00     0.214 A 
ATOM     28  C   UNL     1     -22.140  70.379   2.894  1.00  0.00     0.180 A 
ATOM     29  C   UNL     1     -22.642  68.290   1.940  1.00  0.00     0.239 A 
ATOM     30  O   UNL     1     -20.834  70.020   3.013  1.00  0.00    -0.452 OA
ATOM     31  C   UNL     1     -21.513  67.782   2.777  1.00  0.00     0.111 A 
ATOM     32  O   UNL     1     -23.413  67.482   1.341  1.00  0.00    -0.285 OA
ATOM     33  C   UNL     1     -20.510  68.717   2.876  1.00  0.00     0.146 A 
ATOM     34  C   UNL     1     -21.498  66.724   3.699  1.00  0.00     0.134 A 
ATOM     35  C   UNL     1     -19.232  68.270   3.120  1.00  0.00     0.094 A 
ATOM     36  C   UNL     1     -20.283  66.516   4.419  1.00  0.00     0.093 A 
ATOM     37  C   UNL     1     -19.174  67.322   4.195  1.00  0.00     0.123 A 
BRANCH  28  38
ATOM     38  C   UNL     1     -22.867  70.954   4.162  1.00  0.00     0.025 A 
ATOM     39  C   UNL     1     -23.572  70.001   4.937  1.00  0.00     0.062 A 
ATOM     40  C   UNL     1     -22.059  71.841   4.979  1.00  0.00     0.016 A 
ATOM     41  C   UNL     1     -22.997  69.507   6.112  1.00  0.00     0.158 A 
ATOM     42  C   UNL     1     -21.226  71.179   5.893  1.00  0.00     0.051 A 
ATOM     43  C   UNL     1     -21.772  70.046   6.542  1.00  0.00     0.157 A 
BRANCH  41  44
ATOM     44  O   UNL     1     -23.585  68.464   6.876  1.00  0.00    -0.504 OA
ATOM     45  H   UNL     1     -24.581  68.443   7.036  1.00  0.00     0.293 HD
ENDBRANCH  41  44
BRANCH  43  46
ATOM     46  O   UNL     1     -21.221  69.671   7.763  1.00  0.00    -0.504 OA
ATOM     47  H   UNL     1     -21.207  68.796   8.206  1.00  0.00     0.293 HD
ENDBRANCH  43  46
ENDBRANCH  28  38
BRANCH  34  48
ATOM     48  O   UNL     1     -22.663  65.877   3.815  1.00  0.00    -0.507 OA
ATOM     49  H   UNL     1     -23.475  65.828   3.185  1.00  0.00     0.293 HD
ENDBRANCH  34  48
BRANCH  37  50
ATOM     50  O   UNL     1     -18.074  67.302   5.062  1.00  0.00    -0.508 OA
ATOM     51  H   UNL     1     -17.102  67.208   4.784  1.00  0.00     0.293 HD
ENDBRANCH  37  50
ENDBRANCH  26  27
ENDBRANCH   5  26
BRANCH   4  52
ATOM     52  O   UNL     1     -22.176  72.741   1.737  1.00  0.00    -0.384 OA
ATOM     53  H   UNL     1     -21.442  73.406   1.488  1.00  0.00     0.211 HD
ENDBRANCH   4  52
TORSDOF 16
ENDMDL
MODEL 5
REMARK VINA RESULT:    -2.353      1.967      9.758
REMARK INTER + INTRA:          -5.182
REMARK INTER:                  -5.813
REMARK INTRA:                   0.631
REMARK UNBOUND:                -1.317
REMARK SMILES C[C@@H]1O[C@H](OC[C@H]2O[C@@H](Oc3c(-c4ccc(O)c(O)c4)oc4cc(O)cc(O)c4c3=O)[C@H](O)[C@H](O)[C@H]2O)[C@H](O)[C@H](O)[C@H]1O
REMARK SMILES IDX 7 1 36 2 34 3 32 4 9 5 8 6 6 7 5 8 4 9 1 10 2 11 42 12 3 13
REMARK SMILES IDX 40 14 38 15 43 16 41 18 39 20 37 22 35 24 10 26 11 27 12 28
REMARK SMILES IDX 30 29 21 30 29 31 31 32 22 33 27 34 23 35 26 36 24 37 13 38
REMARK SMILES IDX 20 39 14 40 18 41 15 42 16 43 19 44 17 46 28 48 25 50 33 52
REMARK H PARENT 43 17 41 19 39 21 37 23 35 25 19 45 17 47 28 49 25 51 33 53
REMARK Flexibility Score: inf
ROOT
ATOM      1  C   UNL     1     -22.654  81.711   1.741  1.00  0.00     0.180 C 
ATOM      2  C   UNL     1     -21.417  82.382   2.356  1.00  0.00     0.177 C 
ATOM      3  C   UNL     1     -21.670  82.733   3.909  1.00  0.00     0.180 C 
ATOM      4  C   UNL     1     -23.024  81.865   4.347  1.00  0.00     0.214 C 
ATOM      5  C   UNL     1     -24.201  82.399   3.510  1.00  0.00     0.339 C 
ATOM      6  O   UNL     1     -23.930  82.307   2.087  1.00  0.00    -0.332 OA
ENDROOT
BRANCH   1   7
ATOM      7  C   UNL     1     -22.779  80.104   1.668  1.00  0.00     0.198 C 
BRANCH   7   8
ATOM      8  O   UNL     1     -22.007  79.369   0.711  1.00  0.00    -0.347 OA
BRANCH   8   9
ATOM      9  C   UNL     1     -21.471  80.116  -0.418  1.00  0.00     0.281 C 
ATOM     10  C   UNL     1     -19.472  83.471  -0.550  1.00  0.00     0.041 C 
ATOM     11  C   UNL     1     -19.881  81.979  -0.820  1.00  0.00     0.150 C 
ATOM     12  C   UNL     1     -18.598  81.081  -0.630  1.00  0.00     0.174 C 
ATOM     13  O   UNL     1     -21.034  81.471  -0.032  1.00  0.00    -0.344 OA
ATOM     14  C   UNL     1     -19.017  79.608  -0.385  1.00  0.00     0.179 C 
ATOM     15  C   UNL     1     -20.339  79.315  -1.111  1.00  0.00     0.202 C 
BRANCH  12  16
ATOM     16  O   UNL     1     -17.780  81.218  -1.812  1.00  0.00    -0.388 OA
ATOM     17  H   UNL     1     -18.398  81.412  -2.559  1.00  0.00     0.211 HD
ENDBRANCH  12  16
BRANCH  14  18
ATOM     18  O   UNL     1     -19.083  79.264   1.002  1.00  0.00    -0.387 OA
ATOM     19  H   UNL     1     -19.698  78.542   1.020  1.00  0.00     0.211 HD
ENDBRANCH  14  18
BRANCH  15  20
ATOM     20  O   UNL     1     -20.586  77.936  -1.218  1.00  0.00    -0.385 OA
ATOM     21  H   UNL     1     -20.346  77.595  -2.135  1.00  0.00     0.211 HD
ENDBRANCH  15  20
ENDBRANCH   8   9
ENDBRANCH   7   8
ENDBRANCH   1   7
BRANCH   2  22
ATOM     22  O   UNL     1     -20.276  81.557   2.168  1.00  0.00    -0.387 OA
ATOM     23  H   UNL     1     -20.550  80.669   1.763  1.00  0.00     0.211 HD
ENDBRANCH   2  22
BRANCH   3  24
ATOM     24  O   UNL     1     -21.733  84.173   4.120  1.00  0.00    -0.387 OA
ATOM     25  H   UNL     1     -21.795  84.372   5.120  1.00  0.00     0.211 HD
ENDBRANCH   3  24
BRANCH   5  26
ATOM     26  O   UNL     1     -25.435  81.690   3.765  1.00  0.00    -0.454 OA
BRANCH  26  27
ATOM     27  C   UNL     1     -26.572  81.936   4.690  1.00  0.00     0.214 A 
ATOM     28  C   UNL     1     -27.911  81.585   4.261  1.00  0.00     0.180 A 
ATOM     29  C   UNL     1     -26.605  82.183   6.121  1.00  0.00     0.239 A 
ATOM     30  O   UNL     1     -28.911  82.401   4.689  1.00  0.00    -0.452 OA
ATOM     31  C   UNL     1     -27.915  82.365   6.818  1.00  0.00     0.111 A 
ATOM     32  O   UNL     1     -25.520  82.204   6.776  1.00  0.00    -0.285 OA
ATOM     33  C   UNL     1     -28.869  82.858   5.959  1.00  0.00     0.146 A 
ATOM     34  C   UNL     1     -28.364  81.806   8.025  1.00  0.00     0.134 A 
ATOM     35  C   UNL     1     -29.915  83.571   6.496  1.00  0.00     0.094 A 
ATOM     36  C   UNL     1     -29.707  82.100   8.409  1.00  0.00     0.093 A 
ATOM     37  C   UNL     1     -30.512  82.915   7.622  1.00  0.00     0.123 A 
BRANCH  28  38
ATOM     38  C   UNL     1     -28.274  80.102   3.893  1.00  0.00     0.025 A 
ATOM     39  C   UNL     1     -27.698  79.115   4.729  1.00  0.00     0.062 A 
ATOM     40  C   UNL     1     -29.684  79.862   3.646  1.00  0.00     0.016 A 
ATOM     41  C   UNL     1     -28.473  78.525   5.733  1.00  0.00     0.158 A 
ATOM     42  C   UNL     1     -30.440  79.643   4.806  1.00  0.00     0.051 A 
ATOM     43  C   UNL     1     -29.836  78.860   5.819  1.00  0.00     0.157 A 
BRANCH  41  44
ATOM     44  O   UNL     1     -27.936  77.620   6.687  1.00  0.00    -0.504 OA
ATOM     45  H   UNL     1     -28.045  77.790   7.675  1.00  0.00     0.293 HD
ENDBRANCH  41  44
BRANCH  43  46
ATOM     46  O   UNL     1     -30.670  78.212   6.723  1.00  0.00    -0.504 OA
ATOM     47  H   UNL     1     -30.603  78.132   7.698  1.00  0.00     0.293 HD
ENDBRANCH  43  46
ENDBRANCH  28  38
BRANCH  34  48
ATOM     48  O   UNL     1     -27.441  81.039   8.829  1.00  0.00    -0.507 OA
ATOM     49  H   UNL     1     -26.425  80.936   8.702  1.00  0.00     0.293 HD
ENDBRANCH  34  48
BRANCH  37  50
ATOM     50  O   UNL     1     -31.893  83.003   7.844  1.00  0.00    -0.508 OA
ATOM     51  H   UNL     1     -32.551  82.232   7.790  1.00  0.00     0.293 HD
ENDBRANCH  37  50
ENDBRANCH  26  27
ENDBRANCH   5  26
BRANCH   4  52
ATOM     52  O   UNL     1     -23.283  82.036   5.726  1.00  0.00    -0.384 OA
ATOM     53  H   UNL     1     -22.766  81.335   6.259  1.00  0.00     0.211 HD
ENDBRANCH   4  52
TORSDOF 16
ENDMDL
MODEL 6
REMARK VINA RESULT:    -2.212      5.417      8.191
REMARK INTER + INTRA:          -4.952
REMARK INTER:                  -2.945
REMARK INTRA:                  -2.007
REMARK UNBOUND:                -1.317
REMARK SMILES C[C@@H]1O[C@H](OC[C@H]2O[C@@H](Oc3c(-c4ccc(O)c(O)c4)oc4cc(O)cc(O)c4c3=O)[C@H](O)[C@H](O)[C@H]2O)[C@H](O)[C@H](O)[C@H]1O
REMARK SMILES IDX 7 1 36 2 34 3 32 4 9 5 8 6 6 7 5 8 4 9 1 10 2 11 42 12 3 13
REMARK SMILES IDX 40 14 38 15 43 16 41 18 39 20 37 22 35 24 10 26 11 27 12 28
REMARK SMILES IDX 30 29 21 30 29 31 31 32 22 33 27 34 23 35 26 36 24 37 13 38
REMARK SMILES IDX 20 39 14 40 18 41 15 42 16 43 19 44 17 46 28 48 25 50 33 52
REMARK H PARENT 43 17 41 19 39 21 37 23 35 25 19 45 17 47 28 49 25 51 33 53
REMARK Flexibility Score: inf
ROOT
ATOM      1  C   UNL     1     -22.552  79.481   3.763  1.00  0.00     0.180 C 
ATOM      2  C   UNL     1     -22.164  80.330   2.543  1.00  0.00     0.177 C 
ATOM      3  C   UNL     1     -22.133  79.429   1.207  1.00  0.00     0.180 C 
ATOM      4  C   UNL     1     -22.927  78.018   1.603  1.00  0.00     0.214 C 
ATOM      5  C   UNL     1     -22.103  77.321   2.701  1.00  0.00     0.339 C 
ATOM      6  O   UNL     1     -21.913  78.183   3.854  1.00  0.00    -0.332 OA
ENDROOT
BRANCH   1   7
ATOM      7  C   UNL     1     -24.083  79.398   4.266  1.00  0.00     0.198 C 
BRANCH   7   8
ATOM      8  O   UNL     1     -24.859  80.594   4.395  1.00  0.00    -0.347 OA
BRANCH   8   9
ATOM      9  C   UNL     1     -26.303  80.462   4.256  1.00  0.00     0.281 C 
ATOM     10  C   UNL     1     -29.035  79.404   6.841  1.00  0.00     0.041 C 
ATOM     11  C   UNL     1     -28.289  80.217   5.723  1.00  0.00     0.150 C 
ATOM     12  C   UNL     1     -28.330  81.742   6.122  1.00  0.00     0.174 C 
ATOM     13  O   UNL     1     -26.910  79.764   5.405  1.00  0.00    -0.344 OA
ATOM     14  C   UNL     1     -27.219  82.515   5.365  1.00  0.00     0.179 C 
ATOM     15  C   UNL     1     -26.954  81.848   4.006  1.00  0.00     0.202 C 
BRANCH  12  16
ATOM     16  O   UNL     1     -29.646  82.249   5.809  1.00  0.00    -0.388 OA
ATOM     17  H   UNL     1     -30.239  81.461   5.737  1.00  0.00     0.211 HD
ENDBRANCH  12  16
BRANCH  14  18
ATOM     18  O   UNL     1     -26.018  82.668   6.127  1.00  0.00    -0.387 OA
ATOM     19  H   UNL     1     -26.321  82.620   7.025  1.00  0.00     0.211 HD
ENDBRANCH  14  18
BRANCH  15  20
ATOM     20  O   UNL     1     -26.225  82.683   3.143  1.00  0.00    -0.385 OA
ATOM     21  H   UNL     1     -26.226  83.635   3.474  1.00  0.00     0.211 HD
ENDBRANCH  15  20
ENDBRANCH   8   9
ENDBRANCH   7   8
ENDBRANCH   1   7
BRANCH   2  22
ATOM     22  O   UNL     1     -23.046  81.438   2.426  1.00  0.00    -0.387 OA
ATOM     23  H   UNL     1     -24.009  81.124   2.465  1.00  0.00     0.211 HD
ENDBRANCH   2  22
BRANCH   3  24
ATOM     24  O   UNL     1     -20.774  79.283   0.702  1.00  0.00    -0.387 OA
ATOM     25  H   UNL     1     -20.106  79.522   1.437  1.00  0.00     0.211 HD
ENDBRANCH   3  24
BRANCH   5  26
ATOM     26  O   UNL     1     -22.716  76.097   3.168  1.00  0.00    -0.454 OA
BRANCH  26  27
ATOM     27  C   UNL     1     -22.740  74.710   2.636  1.00  0.00     0.214 A 
ATOM     28  C   UNL     1     -22.077  73.662   3.386  1.00  0.00     0.180 A 
ATOM     29  C   UNL     1     -23.584  74.085   1.632  1.00  0.00     0.239 A 
ATOM     30  O   UNL     1     -21.483  72.683   2.652  1.00  0.00    -0.452 OA
ATOM     31  C   UNL     1     -23.413  72.635   1.309  1.00  0.00     0.111 A 
ATOM     32  O   UNL     1     -24.487  74.767   1.064  1.00  0.00    -0.285 OA
ATOM     33  C   UNL     1     -22.126  72.221   1.558  1.00  0.00     0.146 A 
ATOM     34  C   UNL     1     -24.389  71.639   1.154  1.00  0.00     0.134 A 
ATOM     35  C   UNL     1     -21.647  71.141   0.853  1.00  0.00     0.094 A 
ATOM     36  C   UNL     1     -23.922  70.310   0.924  1.00  0.00     0.093 A 
ATOM     37  C   UNL     1     -22.561  70.036   0.845  1.00  0.00     0.123 A 
BRANCH  28  38
ATOM     38  C   UNL     1     -22.523  73.319   4.852  1.00  0.00     0.025 A 
ATOM     39  C   UNL     1     -23.394  72.209   4.974  1.00  0.00     0.062 A 
ATOM     40  C   UNL     1     -21.446  73.283   5.825  1.00  0.00     0.016 A 
ATOM     41  C   UNL     1     -22.882  70.972   5.377  1.00  0.00     0.158 A 
ATOM     42  C   UNL     1     -20.752  72.066   5.868  1.00  0.00     0.051 A 
ATOM     43  C   UNL     1     -21.528  70.889   5.745  1.00  0.00     0.157 A 
BRANCH  41  44
ATOM     44  O   UNL     1     -23.666  69.788   5.405  1.00  0.00    -0.504 OA
ATOM     45  H   UNL     1     -24.318  69.585   4.662  1.00  0.00     0.293 HD
ENDBRANCH  41  44
BRANCH  43  46
ATOM     46  O   UNL     1     -21.005  69.709   6.264  1.00  0.00    -0.504 OA
ATOM     47  H   UNL     1     -20.494  69.554   7.086  1.00  0.00     0.293 HD
ENDBRANCH  43  46
ENDBRANCH  28  38
BRANCH  34  48
ATOM     48  O   UNL     1     -25.784  72.016   1.164  1.00  0.00    -0.507 OA
ATOM     49  H   UNL     1     -26.395  72.158   1.979  1.00  0.00     0.293 HD
ENDBRANCH  34  48
BRANCH  37  50
ATOM     50  O   UNL     1     -22.082  68.720   0.880  1.00  0.00    -0.508 OA
ATOM     51  H   UNL     1     -21.117  68.445   1.036  1.00  0.00     0.293 HD
ENDBRANCH  37  50
ENDBRANCH  26  27
ENDBRANCH   5  26
BRANCH   4  52
ATOM     52  O   UNL     1     -23.032  77.186   0.464  1.00  0.00    -0.384 OA
ATOM     53  H   UNL     1     -22.773  77.716  -0.370  1.00  0.00     0.211 HD
ENDBRANCH   4  52
TORSDOF 16
ENDMDL
MODEL 7
REMARK VINA RESULT:    -1.998      8.221     11.637
REMARK INTER + INTRA:          -4.599
REMARK INTER:                  -2.329
REMARK INTRA:                  -2.270
REMARK UNBOUND:                -1.317
REMARK SMILES C[C@@H]1O[C@H](OC[C@H]2O[C@@H](Oc3c(-c4ccc(O)c(O)c4)oc4cc(O)cc(O)c4c3=O)[C@H](O)[C@H](O)[C@H]2O)[C@H](O)[C@H](O)[C@H]1O
REMARK SMILES IDX 7 1 36 2 34 3 32 4 9 5 8 6 6 7 5 8 4 9 1 10 2 11 42 12 3 13
REMARK SMILES IDX 40 14 38 15 43 16 41 18 39 20 37 22 35 24 10 26 11 27 12 28
REMARK SMILES IDX 30 29 21 30 29 31 31 32 22 33 27 34 23 35 26 36 24 37 13 38
REMARK SMILES IDX 20 39 14 40 18 41 15 42 16 43 19 44 17 46 28 48 25 50 33 52
REMARK H PARENT 43 17 41 19 39 21 37 23 35 25 19 45 17 47 28 49 25 51 33 53
REMARK Flexibility Score: inf
ROOT
ATOM      1  C   UNL     1     -23.461  73.636   0.379  1.00  0.00     0.180 C 
ATOM      2  C   UNL     1     -24.504  74.260  -0.560  1.00  0.00     0.177 C 
ATOM      3  C   UNL     1     -25.896  73.452  -0.486  1.00  0.00     0.180 C 
ATOM      4  C   UNL     1     -25.788  72.504   0.881  1.00  0.00     0.214 C 
ATOM      5  C   UNL     1     -24.636  71.507   0.656  1.00  0.00     0.339 C 
ATOM      6  O   UNL     1     -23.388  72.189   0.364  1.00  0.00    -0.332 OA
ENDROOT
BRANCH   1   7
ATOM      7  C   UNL     1     -23.245  74.201   1.875  1.00  0.00     0.198 C 
BRANCH   7   8
ATOM      8  O   UNL     1     -23.395  75.601   2.139  1.00  0.00    -0.347 OA
BRANCH   8   9
ATOM      9  C   UNL     1     -22.298  76.470   1.738  1.00  0.00     0.281 C 
ATOM     10  C   UNL     1     -22.310  80.071   0.221  1.00  0.00     0.041 C 
ATOM     11  C   UNL     1     -21.946  78.854   1.144  1.00  0.00     0.150 C 
ATOM     12  C   UNL     1     -21.973  79.353   2.640  1.00  0.00     0.174 C 
ATOM     13  O   UNL     1     -22.765  77.629   0.953  1.00  0.00    -0.344 OA
ATOM     14  C   UNL     1     -22.123  78.142   3.596  1.00  0.00     0.179 C 
ATOM     15  C   UNL     1     -21.465  76.901   2.973  1.00  0.00     0.202 C 
BRANCH  12  16
ATOM     16  O   UNL     1     -20.754  80.086   2.887  1.00  0.00    -0.388 OA
ATOM     17  H   UNL     1     -20.012  79.501   2.596  1.00  0.00     0.211 HD
ENDBRANCH  12  16
BRANCH  14  18
ATOM     18  O   UNL     1     -23.478  77.891   3.982  1.00  0.00    -0.387 OA
ATOM     19  H   UNL     1     -23.843  78.761   4.077  1.00  0.00     0.211 HD
ENDBRANCH  14  18
BRANCH  15  20
ATOM     20  O   UNL     1     -21.262  75.881   3.919  1.00  0.00    -0.385 OA
ATOM     21  H   UNL     1     -22.140  75.489   4.221  1.00  0.00     0.211 HD
ENDBRANCH  15  20
ENDBRANCH   8   9
ENDBRANCH   7   8
ENDBRANCH   1   7
BRANCH   2  22
ATOM     22  O   UNL     1     -24.664  75.639  -0.258  1.00  0.00    -0.387 OA
ATOM     23  H   UNL     1     -24.245  75.850   0.641  1.00  0.00     0.211 HD
ENDBRANCH   2  22
BRANCH   3  24
ATOM     24  O   UNL     1     -26.166  72.752  -1.734  1.00  0.00    -0.387 OA
ATOM     25  H   UNL     1     -25.285  72.534  -2.205  1.00  0.00     0.211 HD
ENDBRANCH   3  24
BRANCH   5  26
ATOM     26  O   UNL     1     -24.408  70.650   1.799  1.00  0.00    -0.454 OA
BRANCH  26  27
ATOM     27  C   UNL     1     -23.245  69.836   2.238  1.00  0.00     0.214 A 
ATOM     28  C   UNL     1     -22.269  70.431   3.128  1.00  0.00     0.180 A 
ATOM     29  C   UNL     1     -23.018  68.401   2.211  1.00  0.00     0.239 A 
ATOM     30  O   UNL     1     -20.977  70.048   2.945  1.00  0.00    -0.452 OA
ATOM     31  C   UNL     1     -21.748  67.835   2.760  1.00  0.00     0.111 A 
ATOM     32  O   UNL     1     -23.919  67.635   1.756  1.00  0.00    -0.285 OA
ATOM     33  C   UNL     1     -20.723  68.749   2.681  1.00  0.00     0.146 A 
ATOM     34  C   UNL     1     -21.560  66.731   3.606  1.00  0.00     0.134 A 
ATOM     35  C   UNL     1     -19.435  68.271   2.622  1.00  0.00     0.094 A 
ATOM     36  C   UNL     1     -20.224  66.470   4.036  1.00  0.00     0.093 A 
ATOM     37  C   UNL     1     -19.170  67.270   3.614  1.00  0.00     0.123 A 
BRANCH  28  38
ATOM     38  C   UNL     1     -22.691  70.952   4.548  1.00  0.00     0.025 A 
ATOM     39  C   UNL     1     -23.452  70.043   5.323  1.00  0.00     0.062 A 
ATOM     40  C   UNL     1     -21.623  71.570   5.314  1.00  0.00     0.016 A 
ATOM     41  C   UNL     1     -22.826  69.307   6.334  1.00  0.00     0.158 A 
ATOM     42  C   UNL     1     -20.815  70.660   6.009  1.00  0.00     0.051 A 
ATOM     43  C   UNL     1     -21.473  69.564   6.617  1.00  0.00     0.157 A 
BRANCH  41  44
ATOM     44  O   UNL     1     -23.492  68.291   7.070  1.00  0.00    -0.504 OA
ATOM     45  H   UNL     1     -23.022  67.427   7.294  1.00  0.00     0.293 HD
ENDBRANCH  41  44
BRANCH  43  46
ATOM     46  O   UNL     1     -20.842  68.942   7.689  1.00  0.00    -0.504 OA
ATOM     47  H   UNL     1     -20.887  68.011   7.994  1.00  0.00     0.293 HD
ENDBRANCH  43  46
ENDBRANCH  28  38
BRANCH  34  48
ATOM     48  O   UNL     1     -22.693  65.897   3.933  1.00  0.00    -0.507 OA
ATOM     49  H   UNL     1     -23.143  65.182   3.346  1.00  0.00     0.293 HD
ENDBRANCH  34  48
BRANCH  37  50
ATOM     50  O   UNL     1     -17.909  67.191   4.220  1.00  0.00    -0.508 OA
ATOM     51  H   UNL     1     -17.724  67.284   5.214  1.00  0.00     0.293 HD
ENDBRANCH  37  50
ENDBRANCH  26  27
ENDBRANCH   5  26
BRANCH   4  52
ATOM     52  O   UNL     1     -27.004  71.812   1.088  1.00  0.00    -0.384 OA
ATOM     53  H   UNL     1     -27.041  71.471   2.050  1.00  0.00     0.211 HD
ENDBRANCH   4  52
TORSDOF 16
ENDMDL
MODEL 8
REMARK VINA RESULT:    -1.018      1.852      9.236
REMARK INTER + INTRA:          -2.990
REMARK INTER:                  -1.443
REMARK INTRA:                  -1.547
REMARK UNBOUND:                -1.317
REMARK SMILES C[C@@H]1O[C@H](OC[C@H]2O[C@@H](Oc3c(-c4ccc(O)c(O)c4)oc4cc(O)cc(O)c4c3=O)[C@H](O)[C@H](O)[C@H]2O)[C@H](O)[C@H](O)[C@H]1O
REMARK SMILES IDX 7 1 36 2 34 3 32 4 9 5 8 6 6 7 5 8 4 9 1 10 2 11 42 12 3 13
REMARK SMILES IDX 40 14 38 15 43 16 41 18 39 20 37 22 35 24 10 26 11 27 12 28
REMARK SMILES IDX 30 29 21 30 29 31 31 32 22 33 27 34 23 35 26 36 24 37 13 38
REMARK SMILES IDX 20 39 14 40 18 41 15 42 16 43 19 44 17 46 28 48 25 50 33 52
REMARK H PARENT 43 17 41 19 39 21 37 23 35 25 19 45 17 47 28 49 25 51 33 53
REMARK Flexibility Score: inf
ROOT
ATOM      1  C   UNL     1     -23.807  82.011   2.000  1.00  0.00     0.180 C 
ATOM      2  C   UNL     1     -22.499  82.816   2.014  1.00  0.00     0.177 C 
ATOM      3  C   UNL     1     -21.984  83.044   3.524  1.00  0.00     0.180 C 
ATOM      4  C   UNL     1     -22.855  81.972   4.458  1.00  0.00     0.214 C 
ATOM      5  C   UNL     1     -24.336  82.380   4.362  1.00  0.00     0.339 C 
ATOM      6  O   UNL     1     -24.796  82.402   2.985  1.00  0.00    -0.332 OA
ENDROOT
BRANCH   1   7
ATOM      7  C   UNL     1     -23.796  80.409   1.811  1.00  0.00     0.198 C 
BRANCH   7   8
ATOM      8  O   UNL     1     -22.610  79.662   2.107  1.00  0.00    -0.347 OA
BRANCH   8   9
ATOM      9  C   UNL     1     -22.005  78.921   1.009  1.00  0.00     0.281 C 
ATOM     10  C   UNL     1     -20.784  80.105  -2.509  1.00  0.00     0.041 C 
ATOM     11  C   UNL     1     -20.796  79.401  -1.105  1.00  0.00     0.150 C 
ATOM     12  C   UNL     1     -19.429  79.722  -0.388  1.00  0.00     0.174 C 
ATOM     13  O   UNL     1     -21.963  79.710  -0.237  1.00  0.00    -0.344 OA
ATOM     14  C   UNL     1     -19.571  79.502   1.140  1.00  0.00     0.179 C 
ATOM     15  C   UNL     1     -20.603  78.397   1.414  1.00  0.00     0.202 C 
BRANCH  12  16
ATOM     16  O   UNL     1     -18.415  78.869  -0.963  1.00  0.00    -0.388 OA
ATOM     17  H   UNL     1     -18.416  79.050  -1.934  1.00  0.00     0.211 HD
ENDBRANCH  12  16
BRANCH  14  18
ATOM     18  O   UNL     1     -19.872  80.702   1.858  1.00  0.00    -0.387 OA
ATOM     19  H   UNL     1     -20.476  81.155   1.284  1.00  0.00     0.211 HD
ENDBRANCH  14  18
BRANCH  15  20
ATOM     20  O   UNL     1     -20.523  77.916   2.732  1.00  0.00    -0.385 OA
ATOM     21  H   UNL     1     -21.260  78.300   3.302  1.00  0.00     0.211 HD
ENDBRANCH  15  20
ENDBRANCH   8   9
ENDBRANCH   7   8
ENDBRANCH   1   7
BRANCH   2  22
ATOM     22  O   UNL     1     -21.525  82.170   1.204  1.00  0.00    -0.387 OA
ATOM     23  H   UNL     1     -20.639  82.658   1.269  1.00  0.00     0.211 HD
ENDBRANCH   2  22
BRANCH   3  24
ATOM     24  O   UNL     1     -22.074  84.448   3.904  1.00  0.00    -0.387 OA
ATOM     25  H   UNL     1     -21.153  84.785   4.193  1.00  0.00     0.211 HD
ENDBRANCH   3  24
BRANCH   5  26
ATOM     26  O   UNL     1     -25.209  81.491   5.098  1.00  0.00    -0.454 OA
BRANCH  26  27
ATOM     27  C   UNL     1     -26.628  81.089   4.920  1.00  0.00     0.214 A 
ATOM     28  C   UNL     1     -27.228  80.192   5.888  1.00  0.00     0.180 A 
ATOM     29  C   UNL     1     -27.692  81.664   4.116  1.00  0.00     0.239 A 
ATOM     30  O   UNL     1     -28.137  79.305   5.402  1.00  0.00    -0.452 OA
ATOM     31  C   UNL     1     -29.062  81.068   4.151  1.00  0.00     0.111 A 
ATOM     32  O   UNL     1     -27.458  82.695   3.417  1.00  0.00    -0.285 OA
ATOM     33  C   UNL     1     -29.013  79.731   4.466  1.00  0.00     0.146 A 
ATOM     34  C   UNL     1     -30.307  81.708   4.263  1.00  0.00     0.134 A 
ATOM     35  C   UNL     1     -30.042  78.927   4.035  1.00  0.00     0.094 A 
ATOM     36  C   UNL     1     -31.456  80.868   4.353  1.00  0.00     0.093 A 
ATOM     37  C   UNL     1     -31.333  79.484   4.315  1.00  0.00     0.123 A 
BRANCH  28  38
ATOM     38  C   UNL     1     -27.325  80.595   7.402  1.00  0.00     0.025 A 
ATOM     39  C   UNL     1     -27.087  81.964   7.679  1.00  0.00     0.062 A 
ATOM     40  C   UNL     1     -28.497  80.089   8.094  1.00  0.00     0.016 A 
ATOM     41  C   UNL     1     -28.169  82.821   7.900  1.00  0.00     0.158 A 
ATOM     42  C   UNL     1     -29.647  80.873   7.925  1.00  0.00     0.051 A 
ATOM     43  C   UNL     1     -29.465  82.276   7.938  1.00  0.00     0.157 A 
BRANCH  41  44
ATOM     44  O   UNL     1     -28.018  84.224   8.062  1.00  0.00    -0.504 OA
ATOM     45  H   UNL     1     -27.974  84.633   8.983  1.00  0.00     0.293 HD
ENDBRANCH  41  44
BRANCH  43  46
ATOM     46  O   UNL     1     -30.558  83.069   8.272  1.00  0.00    -0.504 OA
ATOM     47  H   UNL     1     -30.759  83.549   9.103  1.00  0.00     0.293 HD
ENDBRANCH  43  46
ENDBRANCH  28  38
BRANCH  34  48
ATOM     48  O   UNL     1     -30.361  83.151   4.210  1.00  0.00    -0.507 OA
ATOM     49  H   UNL     1     -30.636  83.802   4.958  1.00  0.00     0.293 HD
ENDBRANCH  34  48
BRANCH  37  50
ATOM     50  O   UNL     1     -32.405  78.649   4.658  1.00  0.00    -0.508 OA
ATOM     51  H   UNL     1     -33.389  78.866   4.529  1.00  0.00     0.293 HD
ENDBRANCH  37  50
ENDBRANCH  26  27
ENDBRANCH   5  26
BRANCH   4  52
ATOM     52  O   UNL     1     -22.414  82.031   5.800  1.00  0.00    -0.384 OA
ATOM     53  H   UNL     1     -23.196  81.825   6.424  1.00  0.00     0.211 HD
ENDBRANCH   4  52
TORSDOF 16
ENDMDL
