MODEL 1
REMARK VINA RESULT:    -3.928      0.000      0.000
REMARK INTER + INTRA:         -11.168
REMARK INTER:                  -8.520
REMARK INTRA:                  -2.648
REMARK UNBOUND:                -2.648
REMARK SMILES CCCCCCCCCCCCCCCCCCCCCC(=O)[O-]
REMARK SMILES IDX 12 1 11 2 10 3 9 4 8 5 7 6 6 7 5 8 4 9 3 10 2 11 1 12 13 13
REMARK SMILES IDX 14 14 15 15 16 16 17 17 18 18 19 19 20 20 21 21 22 22 23 23
REMARK SMILES IDX 24 24
REMARK H PARENT
REMARK Flexibility Score: inf
ROOT
ATOM      1  C   UNL     1      43.157  22.367 224.921  1.00  0.00     0.000 C 
ENDROOT
BRANCH   1   2
ATOM      2  C   UNL     1      42.189  22.979 223.896  1.00  0.00     0.000 C 
BRANCH   2   3
ATOM      3  C   UNL     1      41.248  24.023 224.523  1.00  0.00     0.000 C 
BRANCH   3   4
ATOM      4  C   UNL     1      40.143  24.476 223.554  1.00  0.00    -0.000 C 
BRANCH   4   5
ATOM      5  C   UNL     1      40.281  23.825 222.166  1.00  0.00    -0.000 C 
BRANCH   5   6
ATOM      6  C   UNL     1      39.056  22.979 221.781  1.00  0.00    -0.000 C 
BRANCH   6   7
ATOM      7  C   UNL     1      38.069  22.799 222.948  1.00  0.00    -0.000 C 
BRANCH   7   8
ATOM      8  C   UNL     1      36.612  23.060 222.534  1.00  0.00    -0.000 C 
BRANCH   8   9
ATOM      9  C   UNL     1      36.482  24.187 221.493  1.00  0.00    -0.000 C 
BRANCH   9  10
ATOM     10  C   UNL     1      35.341  23.922 220.487  1.00  0.00    -0.000 C 
BRANCH  10  11
ATOM     11  C   UNL     1      35.710  24.267 219.035  1.00  0.00    -0.003 C 
ATOM     12  C   UNL     1      36.812  23.373 218.468  1.00  0.00     0.004 C 
ENDBRANCH  10  11
ENDBRANCH   9  10
ENDBRANCH   8   9
ENDBRANCH   7   8
ENDBRANCH   6   7
ENDBRANCH   5   6
ENDBRANCH   4   5
ENDBRANCH   3   4
ENDBRANCH   2   3
ENDBRANCH   1   2
BRANCH   1  13
ATOM     13  C   UNL     1      43.689  20.989 224.489  1.00  0.00     0.000 C 
BRANCH  13  14
ATOM     14  C   UNL     1      43.858  20.871 222.967  1.00  0.00     0.000 C 
BRANCH  14  15
ATOM     15  C   UNL     1      42.776  19.995 222.318  1.00  0.00     0.000 C 
BRANCH  15  16
ATOM     16  C   UNL     1      41.936  19.278 223.382  1.00  0.00     0.000 C 
BRANCH  16  17
ATOM     17  C   UNL     1      40.449  19.637 223.243  1.00  0.00     0.000 C 
BRANCH  17  18
ATOM     18  C   UNL     1      39.798  20.029 224.582  1.00  0.00     0.000 C 
BRANCH  18  19
ATOM     19  C   UNL     1      38.351  19.534 224.772  1.00  0.00     0.000 C 
BRANCH  19  20
ATOM     20  C   UNL     1      38.260  18.272 225.647  1.00  0.00     0.006 C 
BRANCH  20  21
ATOM     21  C   UNL     1      37.684  18.570 227.037  1.00  0.00     0.053 C 
BRANCH  21  22
ATOM     22  C   UNL     1      38.733  18.483 228.105  1.00  0.00     0.041 C 
ATOM     23  O   UNL     1      38.407  18.226 229.294  1.00  0.00    -0.550 OA
ATOM     24  O   UNL     1      40.066  18.718 227.790  1.00  0.00    -0.550 OA
ENDBRANCH  21  22
ENDBRANCH  20  21
ENDBRANCH  19  20
ENDBRANCH  18  19
ENDBRANCH  17  18
ENDBRANCH  16  17
ENDBRANCH  15  16
ENDBRANCH  14  15
ENDBRANCH  13  14
ENDBRANCH   1  13
TORSDOF 20
ENDMDL
MODEL 2
REMARK VINA RESULT:    -3.912      3.218      6.332
REMARK INTER + INTRA:         -11.134
REMARK INTER:                  -7.484
REMARK INTRA:                  -3.650
REMARK UNBOUND:                -2.648
REMARK SMILES CCCCCCCCCCCCCCCCCCCCCC(=O)[O-]
REMARK SMILES IDX 12 1 11 2 10 3 9 4 8 5 7 6 6 7 5 8 4 9 3 10 2 11 1 12 13 13
REMARK SMILES IDX 14 14 15 15 16 16 17 17 18 18 19 19 20 20 21 21 22 22 23 23
REMARK SMILES IDX 24 24
REMARK H PARENT
REMARK Flexibility Score: inf
ROOT
ATOM      1  C   UNL     1      43.213  25.474 226.115  1.00  0.00     0.000 C 
ENDROOT
BRANCH   1   2
ATOM      2  C   UNL     1      43.653  24.061 225.702  1.00  0.00     0.000 C 
BRANCH   2   3
ATOM      3  C   UNL     1      42.467  23.165 225.303  1.00  0.00     0.000 C 
BRANCH   3   4
ATOM      4  C   UNL     1      42.419  22.891 223.791  1.00  0.00    -0.000 C 
BRANCH   4   5
ATOM      5  C   UNL     1      43.051  21.537 223.422  1.00  0.00    -0.000 C 
BRANCH   5   6
ATOM      6  C   UNL     1      42.569  21.007 222.061  1.00  0.00    -0.000 C 
BRANCH   6   7
ATOM      7  C   UNL     1      41.095  20.568 222.084  1.00  0.00    -0.000 C 
BRANCH   7   8
ATOM      8  C   UNL     1      40.901  19.186 222.730  1.00  0.00    -0.000 C 
BRANCH   8   9
ATOM      9  C   UNL     1      39.908  19.213 223.905  1.00  0.00    -0.000 C 
BRANCH   9  10
ATOM     10  C   UNL     1      39.188  20.573 224.028  1.00  0.00    -0.000 C 
BRANCH  10  11
ATOM     11  C   UNL     1      39.374  21.246 225.397  1.00  0.00    -0.003 C 
ATOM     12  C   UNL     1      40.202  20.406 226.369  1.00  0.00     0.004 C 
ENDBRANCH  10  11
ENDBRANCH   9  10
ENDBRANCH   8   9
ENDBRANCH   7   8
ENDBRANCH   6   7
ENDBRANCH   5   6
ENDBRANCH   4   5
ENDBRANCH   3   4
ENDBRANCH   2   3
ENDBRANCH   1   2
BRANCH   1  13
ATOM     13  C   UNL     1      42.839  26.357 224.912  1.00  0.00     0.000 C 
BRANCH  13  14
ATOM     14  C   UNL     1      41.524  27.122 225.125  1.00  0.00     0.000 C 
BRANCH  14  15
ATOM     15  C   UNL     1      40.434  26.254 225.773  1.00  0.00     0.000 C 
BRANCH  15  16
ATOM     16  C   UNL     1      39.225  26.102 224.842  1.00  0.00     0.000 C 
BRANCH  16  17
ATOM     17  C   UNL     1      39.227  24.726 224.159  1.00  0.00     0.000 C 
BRANCH  17  18
ATOM     18  C   UNL     1      39.435  24.812 222.636  1.00  0.00     0.000 C 
BRANCH  18  19
ATOM     19  C   UNL     1      39.197  23.496 221.870  1.00  0.00     0.000 C 
BRANCH  19  20
ATOM     20  C   UNL     1      37.836  23.457 221.155  1.00  0.00     0.006 C 
BRANCH  20  21
ATOM     21  C   UNL     1      36.700  23.033 222.095  1.00  0.00     0.053 C 
BRANCH  21  22
ATOM     22  C   UNL     1      35.665  24.108 222.237  1.00  0.00     0.041 C 
ATOM     23  O   UNL     1      34.517  23.953 221.741  1.00  0.00    -0.550 OA
ATOM     24  O   UNL     1      35.979  25.294 222.889  1.00  0.00    -0.550 OA
ENDBRANCH  21  22
ENDBRANCH  20  21
ENDBRANCH  19  20
ENDBRANCH  18  19
ENDBRANCH  17  18
ENDBRANCH  16  17
ENDBRANCH  15  16
ENDBRANCH  14  15
ENDBRANCH  13  14
ENDBRANCH   1  13
TORSDOF 20
ENDMDL
MODEL 3
REMARK VINA RESULT:    -3.895      1.847      3.775
REMARK INTER + INTRA:         -11.097
REMARK INTER:                  -7.321
REMARK INTRA:                  -3.776
REMARK UNBOUND:                -2.648
REMARK SMILES CCCCCCCCCCCCCCCCCCCCCC(=O)[O-]
REMARK SMILES IDX 12 1 11 2 10 3 9 4 8 5 7 6 6 7 5 8 4 9 3 10 2 11 1 12 13 13
REMARK SMILES IDX 14 14 15 15 16 16 17 17 18 18 19 19 20 20 21 21 22 22 23 23
REMARK SMILES IDX 24 24
REMARK H PARENT
REMARK Flexibility Score: inf
ROOT
ATOM      1  C   UNL     1      40.967  21.379 221.637  1.00  0.00     0.000 C 
ENDROOT
BRANCH   1   2
ATOM      2  C   UNL     1      41.278  22.724 222.313  1.00  0.00     0.000 C 
BRANCH   2   3
ATOM      3  C   UNL     1      40.275  23.825 221.925  1.00  0.00     0.000 C 
BRANCH   3   4
ATOM      4  C   UNL     1      38.943  23.253 221.412  1.00  0.00    -0.000 C 
BRANCH   4   5
ATOM      5  C   UNL     1      37.730  24.051 221.922  1.00  0.00    -0.000 C 
BRANCH   5   6
ATOM      6  C   UNL     1      36.967  23.323 223.041  1.00  0.00    -0.000 C 
BRANCH   6   7
ATOM      7  C   UNL     1      37.778  22.172 223.660  1.00  0.00    -0.000 C 
BRANCH   7   8
ATOM      8  C   UNL     1      38.163  22.442 225.124  1.00  0.00    -0.000 C 
BRANCH   8   9
ATOM      9  C   UNL     1      38.583  23.902 225.369  1.00  0.00    -0.000 C 
BRANCH   9  10
ATOM     10  C   UNL     1      40.049  24.016 225.841  1.00  0.00    -0.000 C 
BRANCH  10  11
ATOM     11  C   UNL     1      40.823  25.163 225.171  1.00  0.00    -0.003 C 
ATOM     12  C   UNL     1      39.946  26.374 224.856  1.00  0.00     0.004 C 
ENDBRANCH  10  11
ENDBRANCH   9  10
ENDBRANCH   8   9
ENDBRANCH   7   8
ENDBRANCH   6   7
ENDBRANCH   5   6
ENDBRANCH   4   5
ENDBRANCH   3   4
ENDBRANCH   2   3
ENDBRANCH   1   2
BRANCH   1  13
ATOM     13  C   UNL     1      42.007  20.294 221.965  1.00  0.00     0.000 C 
BRANCH  13  14
ATOM     14  C   UNL     1      43.419  20.868 222.164  1.00  0.00     0.000 C 
BRANCH  14  15
ATOM     15  C   UNL     1      44.069  20.395 223.473  1.00  0.00     0.000 C 
BRANCH  15  16
ATOM     16  C   UNL     1      43.794  21.383 224.614  1.00  0.00     0.000 C 
BRANCH  16  17
ATOM     17  C   UNL     1      43.061  20.694 225.774  1.00  0.00     0.000 C 
BRANCH  17  18
ATOM     18  C   UNL     1      41.538  20.615 225.560  1.00  0.00     0.000 C 
BRANCH  18  19
ATOM     19  C   UNL     1      40.979  19.191 225.372  1.00  0.00     0.000 C 
BRANCH  19  20
ATOM     20  C   UNL     1      39.623  19.172 224.647  1.00  0.00     0.006 C 
BRANCH  20  21
ATOM     21  C   UNL     1      38.767  17.965 225.051  1.00  0.00     0.053 C 
BRANCH  21  22
ATOM     22  C   UNL     1      37.565  18.377 225.847  1.00  0.00     0.041 C 
ATOM     23  O   UNL     1      36.481  17.746 225.731  1.00  0.00    -0.550 OA
ATOM     24  O   UNL     1      37.635  19.478 226.692  1.00  0.00    -0.550 OA
ENDBRANCH  21  22
ENDBRANCH  20  21
ENDBRANCH  19  20
ENDBRANCH  18  19
ENDBRANCH  17  18
ENDBRANCH  16  17
ENDBRANCH  15  16
ENDBRANCH  14  15
ENDBRANCH  13  14
ENDBRANCH   1  13
TORSDOF 20
ENDMDL
MODEL 4
REMARK VINA RESULT:    -3.870      1.772      2.611
REMARK INTER + INTRA:         -11.043
REMARK INTER:                  -7.722
REMARK INTRA:                  -3.320
REMARK UNBOUND:                -2.648
REMARK SMILES CCCCCCCCCCCCCCCCCCCCCC(=O)[O-]
REMARK SMILES IDX 12 1 11 2 10 3 9 4 8 5 7 6 6 7 5 8 4 9 3 10 2 11 1 12 13 13
REMARK SMILES IDX 14 14 15 15 16 16 17 17 18 18 19 19 20 20 21 21 22 22 23 23
REMARK SMILES IDX 24 24
REMARK H PARENT
REMARK Flexibility Score: inf
ROOT
ATOM      1  C   UNL     1      42.139  23.589 224.375  1.00  0.00     0.000 C 
ENDROOT
BRANCH   1   2
ATOM      2  C   UNL     1      41.508  23.426 225.767  1.00  0.00     0.000 C 
BRANCH   2   3
ATOM      3  C   UNL     1      40.446  24.499 226.063  1.00  0.00     0.000 C 
BRANCH   3   4
ATOM      4  C   UNL     1      40.273  25.492 224.902  1.00  0.00    -0.000 C 
BRANCH   4   5
ATOM      5  C   UNL     1      38.820  25.979 224.761  1.00  0.00    -0.000 C 
BRANCH   5   6
ATOM      6  C   UNL     1      37.793  24.928 225.215  1.00  0.00    -0.000 C 
BRANCH   6   7
ATOM      7  C   UNL     1      36.395  25.168 224.621  1.00  0.00    -0.000 C 
BRANCH   7   8
ATOM      8  C   UNL     1      36.393  25.131 223.084  1.00  0.00    -0.000 C 
BRANCH   8   9
ATOM      9  C   UNL     1      35.306  24.204 222.512  1.00  0.00    -0.000 C 
BRANCH   9  10
ATOM     10  C   UNL     1      35.836  23.329 221.356  1.00  0.00    -0.000 C 
BRANCH  10  11
ATOM     11  C   UNL     1      36.133  24.120 220.072  1.00  0.00    -0.003 C 
ATOM     12  C   UNL     1      36.891  23.303 219.026  1.00  0.00     0.004 C 
ENDBRANCH  10  11
ENDBRANCH   9  10
ENDBRANCH   8   9
ENDBRANCH   7   8
ENDBRANCH   6   7
ENDBRANCH   5   6
ENDBRANCH   4   5
ENDBRANCH   3   4
ENDBRANCH   2   3
ENDBRANCH   1   2
BRANCH   1  13
ATOM     13  C   UNL     1      42.438  22.242 223.695  1.00  0.00     0.000 C 
BRANCH  13  14
ATOM     14  C   UNL     1      41.736  22.098 222.335  1.00  0.00     0.000 C 
BRANCH  14  15
ATOM     15  C   UNL     1      40.643  23.155 222.119  1.00  0.00     0.000 C 
BRANCH  15  16
ATOM     16  C   UNL     1      39.252  22.510 222.087  1.00  0.00     0.000 C 
BRANCH  16  17
ATOM     17  C   UNL     1      38.728  22.262 223.510  1.00  0.00     0.000 C 
BRANCH  17  18
ATOM     18  C   UNL     1      38.957  20.817 223.991  1.00  0.00     0.000 C 
BRANCH  18  19
ATOM     19  C   UNL     1      39.319  20.675 225.481  1.00  0.00     0.000 C 
BRANCH  19  20
ATOM     20  C   UNL     1      38.083  20.609 226.394  1.00  0.00     0.006 C 
BRANCH  20  21
ATOM     21  C   UNL     1      38.077  19.350 227.271  1.00  0.00     0.053 C 
BRANCH  21  22
ATOM     22  C   UNL     1      37.552  18.158 226.530  1.00  0.00     0.041 C 
ATOM     23  O   UNL     1      38.348  17.353 225.977  1.00  0.00    -0.550 OA
ATOM     24  O   UNL     1      36.182  17.954 226.422  1.00  0.00    -0.550 OA
ENDBRANCH  21  22
ENDBRANCH  20  21
ENDBRANCH  19  20
ENDBRANCH  18  19
ENDBRANCH  17  18
ENDBRANCH  16  17
ENDBRANCH  15  16
ENDBRANCH  14  15
ENDBRANCH  13  14
ENDBRANCH   1  13
TORSDOF 20
ENDMDL
MODEL 5
REMARK VINA RESULT:    -3.852      3.684      6.873
REMARK INTER + INTRA:         -11.004
REMARK INTER:                  -7.824
REMARK INTRA:                  -3.180
REMARK UNBOUND:                -2.648
REMARK SMILES CCCCCCCCCCCCCCCCCCCCCC(=O)[O-]
REMARK SMILES IDX 12 1 11 2 10 3 9 4 8 5 7 6 6 7 5 8 4 9 3 10 2 11 1 12 13 13
REMARK SMILES IDX 14 14 15 15 16 16 17 17 18 18 19 19 20 20 21 21 22 22 23 23
REMARK SMILES IDX 24 24
REMARK H PARENT
REMARK Flexibility Score: inf
ROOT
ATOM      1  C   UNL     1      43.534  22.196 225.412  1.00  0.00     0.000 C 
ENDROOT
BRANCH   1   2
ATOM      2  C   UNL     1      44.236  21.034 224.692  1.00  0.00     0.000 C 
BRANCH   2   3
ATOM      3  C   UNL     1      43.583  19.673 224.992  1.00  0.00     0.000 C 
BRANCH   3   4
ATOM      4  C   UNL     1      43.195  18.913 223.713  1.00  0.00    -0.000 C 
BRANCH   4   5
ATOM      5  C   UNL     1      42.435  19.802 222.713  1.00  0.00    -0.000 C 
BRANCH   5   6
ATOM      6  C   UNL     1      41.001  19.311 222.451  1.00  0.00    -0.000 C 
BRANCH   6   7
ATOM      7  C   UNL     1      40.035  19.660 223.596  1.00  0.00    -0.000 C 
BRANCH   7   8
ATOM      8  C   UNL     1      39.680  18.439 224.460  1.00  0.00    -0.000 C 
BRANCH   8   9
ATOM      9  C   UNL     1      40.092  18.612 225.932  1.00  0.00    -0.000 C 
BRANCH   9  10
ATOM     10  C   UNL     1      40.308  20.095 226.307  1.00  0.00    -0.000 C 
BRANCH  10  11
ATOM     11  C   UNL     1      39.143  20.703 227.104  1.00  0.00    -0.003 C 
ATOM     12  C   UNL     1      38.870  22.163 226.745  1.00  0.00     0.004 C 
ENDBRANCH  10  11
ENDBRANCH   9  10
ENDBRANCH   8   9
ENDBRANCH   7   8
ENDBRANCH   6   7
ENDBRANCH   5   6
ENDBRANCH   4   5
ENDBRANCH   3   4
ENDBRANCH   2   3
ENDBRANCH   1   2
BRANCH   1  13
ATOM     13  C   UNL     1      42.905  23.207 224.436  1.00  0.00     0.000 C 
BRANCH  13  14
ATOM     14  C   UNL     1      41.414  22.936 224.184  1.00  0.00     0.000 C 
BRANCH  14  15
ATOM     15  C   UNL     1      41.019  23.129 222.713  1.00  0.00     0.000 C 
BRANCH  15  16
ATOM     16  C   UNL     1      39.673  23.856 222.594  1.00  0.00     0.000 C 
BRANCH  16  17
ATOM     17  C   UNL     1      38.507  22.856 222.584  1.00  0.00     0.000 C 
BRANCH  17  18
ATOM     18  C   UNL     1      37.360  23.260 223.529  1.00  0.00     0.000 C 
BRANCH  18  19
ATOM     19  C   UNL     1      36.051  23.669 222.828  1.00  0.00     0.000 C 
BRANCH  19  20
ATOM     20  C   UNL     1      35.993  23.219 221.359  1.00  0.00     0.006 C 
BRANCH  20  21
ATOM     21  C   UNL     1      36.023  24.405 220.387  1.00  0.00     0.053 C 
BRANCH  21  22
ATOM     22  C   UNL     1      35.546  24.017 219.020  1.00  0.00     0.041 C 
ATOM     23  O   UNL     1      36.371  23.658 218.138  1.00  0.00    -0.550 OA
ATOM     24  O   UNL     1      34.193  24.085 218.711  1.00  0.00    -0.550 OA
ENDBRANCH  21  22
ENDBRANCH  20  21
ENDBRANCH  19  20
ENDBRANCH  18  19
ENDBRANCH  17  18
ENDBRANCH  16  17
ENDBRANCH  15  16
ENDBRANCH  14  15
ENDBRANCH  13  14
ENDBRANCH   1  13
TORSDOF 20
ENDMDL
MODEL 6
REMARK VINA RESULT:    -3.843      2.821      6.744
REMARK INTER + INTRA:         -10.985
REMARK INTER:                  -7.528
REMARK INTRA:                  -3.457
REMARK UNBOUND:                -2.648
REMARK SMILES CCCCCCCCCCCCCCCCCCCCCC(=O)[O-]
REMARK SMILES IDX 12 1 11 2 10 3 9 4 8 5 7 6 6 7 5 8 4 9 3 10 2 11 1 12 13 13
REMARK SMILES IDX 14 14 15 15 16 16 17 17 18 18 19 19 20 20 21 21 22 22 23 23
REMARK SMILES IDX 24 24
REMARK H PARENT
REMARK Flexibility Score: inf
ROOT
ATOM      1  C   UNL     1      42.343  20.341 225.554  1.00  0.00     0.000 C 
ENDROOT
BRANCH   1   2
ATOM      2  C   UNL     1      41.049  21.167 225.627  1.00  0.00     0.000 C 
BRANCH   2   3
ATOM      3  C   UNL     1      39.853  20.450 224.976  1.00  0.00     0.000 C 
BRANCH   3   4
ATOM      4  C   UNL     1      40.222  19.054 224.447  1.00  0.00    -0.000 C 
BRANCH   4   5
ATOM      5  C   UNL     1      39.163  17.995 224.803  1.00  0.00    -0.000 C 
BRANCH   5   6
ATOM      6  C   UNL     1      37.781  18.609 225.086  1.00  0.00    -0.000 C 
BRANCH   6   7
ATOM      7  C   UNL     1      37.250  18.257 226.486  1.00  0.00    -0.000 C 
BRANCH   7   8
ATOM      8  C   UNL     1      38.101  17.186 227.187  1.00  0.00    -0.000 C 
BRANCH   8   9
ATOM      9  C   UNL     1      38.729  17.689 228.499  1.00  0.00    -0.000 C 
BRANCH   9  10
ATOM     10  C   UNL     1      40.258  17.869 228.382  1.00  0.00    -0.000 C 
BRANCH  10  11
ATOM     11  C   UNL     1      40.732  19.302 228.673  1.00  0.00    -0.003 C 
ATOM     12  C   UNL     1      39.630  20.193 229.244  1.00  0.00     0.004 C 
ENDBRANCH  10  11
ENDBRANCH   9  10
ENDBRANCH   8   9
ENDBRANCH   7   8
ENDBRANCH   6   7
ENDBRANCH   5   6
ENDBRANCH   4   5
ENDBRANCH   3   4
ENDBRANCH   2   3
ENDBRANCH   1   2
BRANCH   1  13
ATOM     13  C   UNL     1      43.521  21.131 224.958  1.00  0.00     0.000 C 
BRANCH  13  14
ATOM     14  C   UNL     1      44.376  20.286 224.001  1.00  0.00     0.000 C 
BRANCH  14  15
ATOM     15  C   UNL     1      43.546  19.633 222.886  1.00  0.00     0.000 C 
BRANCH  15  16
ATOM     16  C   UNL     1      43.270  20.626 221.750  1.00  0.00     0.000 C 
BRANCH  16  17
ATOM     17  C   UNL     1      41.762  20.866 221.583  1.00  0.00     0.000 C 
BRANCH  17  18
ATOM     18  C   UNL     1      41.309  22.236 222.121  1.00  0.00     0.000 C 
BRANCH  18  19
ATOM     19  C   UNL     1      39.865  22.633 221.759  1.00  0.00     0.000 C 
BRANCH  19  20
ATOM     20  C   UNL     1      39.535  24.090 222.125  1.00  0.00     0.006 C 
BRANCH  20  21
ATOM     21  C   UNL     1      38.283  24.196 223.006  1.00  0.00     0.053 C 
BRANCH  21  22
ATOM     22  C   UNL     1      37.046  23.780 222.269  1.00  0.00     0.041 C 
ATOM     23  O   UNL     1      36.485  24.576 221.470  1.00  0.00    -0.550 OA
ATOM     24  O   UNL     1      36.495  22.524 222.490  1.00  0.00    -0.550 OA
ENDBRANCH  21  22
ENDBRANCH  20  21
ENDBRANCH  19  20
ENDBRANCH  18  19
ENDBRANCH  17  18
ENDBRANCH  16  17
ENDBRANCH  15  16
ENDBRANCH  14  15
ENDBRANCH  13  14
ENDBRANCH   1  13
TORSDOF 20
ENDMDL
MODEL 7
REMARK VINA RESULT:    -3.821      1.640      2.532
REMARK INTER + INTRA:         -10.937
REMARK INTER:                  -8.241
REMARK INTRA:                  -2.696
REMARK UNBOUND:                -2.648
REMARK SMILES CCCCCCCCCCCCCCCCCCCCCC(=O)[O-]
REMARK SMILES IDX 12 1 11 2 10 3 9 4 8 5 7 6 6 7 5 8 4 9 3 10 2 11 1 12 13 13
REMARK SMILES IDX 14 14 15 15 16 16 17 17 18 18 19 19 20 20 21 21 22 22 23 23
REMARK SMILES IDX 24 24
REMARK H PARENT
REMARK Flexibility Score: inf
ROOT
ATOM      1  C   UNL     1      44.140  20.376 223.950  1.00  0.00     0.000 C 
ENDROOT
BRANCH   1   2
ATOM      2  C   UNL     1      43.273  19.844 222.797  1.00  0.00     0.000 C 
BRANCH   2   3
ATOM      3  C   UNL     1      42.860  20.951 221.811  1.00  0.00     0.000 C 
BRANCH   3   4
ATOM      4  C   UNL     1      41.338  21.165 221.772  1.00  0.00    -0.000 C 
BRANCH   4   5
ATOM      5  C   UNL     1      40.949  22.637 222.004  1.00  0.00    -0.000 C 
BRANCH   5   6
ATOM      6  C   UNL     1      39.492  22.935 221.611  1.00  0.00    -0.000 C 
BRANCH   6   7
ATOM      7  C   UNL     1      38.537  22.919 222.816  1.00  0.00    -0.000 C 
BRANCH   7   8
ATOM      8  C   UNL     1      37.059  22.876 222.397  1.00  0.00    -0.000 C 
BRANCH   8   9
ATOM      9  C   UNL     1      36.603  24.164 221.689  1.00  0.00    -0.000 C 
BRANCH   9  10
ATOM     10  C   UNL     1      35.551  23.886 220.594  1.00  0.00    -0.000 C 
BRANCH  10  11
ATOM     11  C   UNL     1      36.003  24.306 219.186  1.00  0.00    -0.003 C 
ATOM     12  C   UNL     1      36.901  23.270 218.512  1.00  0.00     0.004 C 
ENDBRANCH  10  11
ENDBRANCH   9  10
ENDBRANCH   8   9
ENDBRANCH   7   8
ENDBRANCH   6   7
ENDBRANCH   5   6
ENDBRANCH   4   5
ENDBRANCH   3   4
ENDBRANCH   2   3
ENDBRANCH   1   2
BRANCH   1  13
ATOM     13  C   UNL     1      43.651  21.732 224.486  1.00  0.00     0.000 C 
BRANCH  13  14
ATOM     14  C   UNL     1      42.742  21.589 225.717  1.00  0.00     0.000 C 
BRANCH  14  15
ATOM     15  C   UNL     1      41.312  22.086 225.457  1.00  0.00     0.000 C 
BRANCH  15  16
ATOM     16  C   UNL     1      40.296  20.947 225.612  1.00  0.00     0.000 C 
BRANCH  16  17
ATOM     17  C   UNL     1      40.999  19.624 225.951  1.00  0.00     0.000 C 
BRANCH  17  18
ATOM     18  C   UNL     1      40.701  18.507 224.935  1.00  0.00     0.000 C 
BRANCH  18  19
ATOM     19  C   UNL     1      40.608  17.090 225.533  1.00  0.00     0.000 C 
BRANCH  19  20
ATOM     20  C   UNL     1      39.802  17.045 226.842  1.00  0.00     0.006 C 
BRANCH  20  21
ATOM     21  C   UNL     1      38.485  16.274 226.686  1.00  0.00     0.053 C 
BRANCH  21  22
ATOM     22  C   UNL     1      37.300  17.191 226.675  1.00  0.00     0.041 C 
ATOM     23  O   UNL     1      36.157  16.756 226.978  1.00  0.00    -0.550 OA
ATOM     24  O   UNL     1      37.453  18.520 226.297  1.00  0.00    -0.550 OA
ENDBRANCH  21  22
ENDBRANCH  20  21
ENDBRANCH  19  20
ENDBRANCH  18  19
ENDBRANCH  17  18
ENDBRANCH  16  17
ENDBRANCH  15  16
ENDBRANCH  14  15
ENDBRANCH  13  14
ENDBRANCH   1  13
TORSDOF 20
ENDMDL
MODEL 8
REMARK VINA RESULT:    -3.781      2.203      4.043
REMARK INTER + INTRA:         -10.849
REMARK INTER:                  -6.548
REMARK INTRA:                  -4.301
REMARK UNBOUND:                -2.648
REMARK SMILES CCCCCCCCCCCCCCCCCCCCCC(=O)[O-]
REMARK SMILES IDX 12 1 11 2 10 3 9 4 8 5 7 6 6 7 5 8 4 9 3 10 2 11 1 12 13 13
REMARK SMILES IDX 14 14 15 15 16 16 17 17 18 18 19 19 20 20 21 21 22 22 23 23
REMARK SMILES IDX 24 24
REMARK H PARENT
REMARK Flexibility Score: inf
ROOT
ATOM      1  C   UNL     1      41.349  21.483 226.108  1.00  0.00     0.000 C 
ENDROOT
BRANCH   1   2
ATOM      2  C   UNL     1      42.338  22.587 225.702  1.00  0.00     0.000 C 
BRANCH   2   3
ATOM      3  C   UNL     1      43.750  22.041 225.426  1.00  0.00     0.000 C 
BRANCH   3   4
ATOM      4  C   UNL     1      43.725  20.668 224.735  1.00  0.00    -0.000 C 
BRANCH   4   5
ATOM      5  C   UNL     1      43.727  20.785 223.200  1.00  0.00    -0.000 C 
BRANCH   5   6
ATOM      6  C   UNL     1      42.701  19.854 222.531  1.00  0.00    -0.000 C 
BRANCH   6   7
ATOM      7  C   UNL     1      41.683  20.616 221.666  1.00  0.00    -0.000 C 
BRANCH   7   8
ATOM      8  C   UNL     1      41.507  22.077 222.111  1.00  0.00    -0.000 C 
BRANCH   8   9
ATOM      9  C   UNL     1      40.030  22.485 222.243  1.00  0.00    -0.000 C 
BRANCH   9  10
ATOM     10  C   UNL     1      39.782  23.936 221.779  1.00  0.00    -0.000 C 
BRANCH  10  11
ATOM     11  C   UNL     1      39.111  24.817 222.845  1.00  0.00    -0.003 C 
ATOM     12  C   UNL     1      39.981  25.025 224.084  1.00  0.00     0.004 C 
ENDBRANCH  10  11
ENDBRANCH   9  10
ENDBRANCH   8   9
ENDBRANCH   7   8
ENDBRANCH   6   7
ENDBRANCH   5   6
ENDBRANCH   4   5
ENDBRANCH   3   4
ENDBRANCH   2   3
ENDBRANCH   1   2
BRANCH   1  13
ATOM     13  C   UNL     1      39.880  21.913 225.950  1.00  0.00     0.000 C 
BRANCH  13  14
ATOM     14  C   UNL     1      38.970  20.757 225.505  1.00  0.00     0.000 C 
BRANCH  14  15
ATOM     15  C   UNL     1      39.695  19.747 224.604  1.00  0.00     0.000 C 
BRANCH  15  16
ATOM     16  C   UNL     1      39.005  18.378 224.643  1.00  0.00     0.000 C 
BRANCH  16  17
ATOM     17  C   UNL     1      39.878  17.341 225.365  1.00  0.00     0.000 C 
BRANCH  17  18
ATOM     18  C   UNL     1      41.369  17.727 225.395  1.00  0.00     0.000 C 
BRANCH  18  19
ATOM     19  C   UNL     1      41.965  17.916 226.803  1.00  0.00     0.000 C 
BRANCH  19  20
ATOM     20  C   UNL     1      40.932  17.705 227.923  1.00  0.00     0.006 C 
BRANCH  20  21
ATOM     21  C   UNL     1      40.588  19.012 228.647  1.00  0.00     0.053 C 
BRANCH  21  22
ATOM     22  C   UNL     1      39.107  19.215 228.756  1.00  0.00     0.041 C 
ATOM     23  O   UNL     1      38.646  20.281 229.246  1.00  0.00    -0.550 OA
ATOM     24  O   UNL     1      38.236  18.213 228.346  1.00  0.00    -0.550 OA
ENDBRANCH  21  22
ENDBRANCH  20  21
ENDBRANCH  19  20
ENDBRANCH  18  19
ENDBRANCH  17  18
ENDBRANCH  16  17
ENDBRANCH  15  16
ENDBRANCH  14  15
ENDBRANCH  13  14
ENDBRANCH   1  13
TORSDOF 20
ENDMDL
MODEL 9
REMARK VINA RESULT:    -3.767      2.082      5.273
REMARK INTER + INTRA:         -10.820
REMARK INTER:                  -6.995
REMARK INTRA:                  -3.825
REMARK UNBOUND:                -2.648
REMARK SMILES CCCCCCCCCCCCCCCCCCCCCC(=O)[O-]
REMARK SMILES IDX 12 1 11 2 10 3 9 4 8 5 7 6 6 7 5 8 4 9 3 10 2 11 1 12 13 13
REMARK SMILES IDX 14 14 15 15 16 16 17 17 18 18 19 19 20 20 21 21 22 22 23 23
REMARK SMILES IDX 24 24
REMARK H PARENT
REMARK Flexibility Score: inf
ROOT
ATOM      1  C   UNL     1      40.065  26.477 224.748  1.00  0.00     0.000 C 
ENDROOT
BRANCH   1   2
ATOM      2  C   UNL     1      40.106  25.714 226.082  1.00  0.00     0.000 C 
BRANCH   2   3
ATOM      3  C   UNL     1      41.129  24.565 226.073  1.00  0.00     0.000 C 
BRANCH   3   4
ATOM      4  C   UNL     1      41.816  24.400 224.707  1.00  0.00    -0.000 C 
BRANCH   4   5
ATOM      5  C   UNL     1      41.379  23.113 223.985  1.00  0.00    -0.000 C 
BRANCH   5   6
ATOM      6  C   UNL     1      40.973  23.361 222.522  1.00  0.00    -0.000 C 
BRANCH   6   7
ATOM      7  C   UNL     1      40.533  22.075 221.802  1.00  0.00    -0.000 C 
BRANCH   7   8
ATOM      8  C   UNL     1      41.709  21.128 221.514  1.00  0.00    -0.000 C 
BRANCH   8   9
ATOM      9  C   UNL     1      41.680  19.860 222.385  1.00  0.00    -0.000 C 
BRANCH   9  10
ATOM     10  C   UNL     1      43.090  19.446 222.860  1.00  0.00    -0.000 C 
BRANCH  10  11
ATOM     11  C   UNL     1      44.031  20.638 223.103  1.00  0.00    -0.003 C 
ATOM     12  C   UNL     1      44.181  20.990 224.582  1.00  0.00     0.004 C 
ENDBRANCH  10  11
ENDBRANCH   9  10
ENDBRANCH   8   9
ENDBRANCH   7   8
ENDBRANCH   6   7
ENDBRANCH   5   6
ENDBRANCH   4   5
ENDBRANCH   3   4
ENDBRANCH   2   3
ENDBRANCH   1   2
BRANCH   1  13
ATOM     13  C   UNL     1      38.750  26.261 223.979  1.00  0.00     0.000 C 
BRANCH  13  14
ATOM     14  C   UNL     1      37.816  25.258 224.674  1.00  0.00     0.000 C 
BRANCH  14  15
ATOM     15  C   UNL     1      37.216  24.235 223.698  1.00  0.00     0.000 C 
BRANCH  15  16
ATOM     16  C   UNL     1      37.663  22.810 224.048  1.00  0.00     0.000 C 
BRANCH  16  17
ATOM     17  C   UNL     1      37.985  22.687 225.545  1.00  0.00     0.000 C 
BRANCH  17  18
ATOM     18  C   UNL     1      38.672  21.357 225.905  1.00  0.00     0.000 C 
BRANCH  18  19
ATOM     19  C   UNL     1      38.994  20.445 224.706  1.00  0.00     0.000 C 
BRANCH  19  20
ATOM     20  C   UNL     1      38.213  19.120 224.734  1.00  0.00     0.006 C 
BRANCH  20  21
ATOM     21  C   UNL     1      39.103  17.931 225.117  1.00  0.00     0.053 C 
BRANCH  21  22
ATOM     22  C   UNL     1      38.852  17.476 226.523  1.00  0.00     0.041 C 
ATOM     23  O   UNL     1      37.932  16.652 226.768  1.00  0.00    -0.550 OA
ATOM     24  O   UNL     1      39.613  17.990 227.565  1.00  0.00    -0.550 OA
ENDBRANCH  21  22
ENDBRANCH  20  21
ENDBRANCH  19  20
ENDBRANCH  18  19
ENDBRANCH  17  18
ENDBRANCH  16  17
ENDBRANCH  15  16
ENDBRANCH  14  15
ENDBRANCH  13  14
ENDBRANCH   1  13
TORSDOF 20
ENDMDL
