MODEL 1
REMARK VINA RESULT:    -1.342      0.000      0.000
REMARK INTER + INTRA:          -7.657
REMARK INTER:                  -3.539
REMARK INTRA:                  -4.118
REMARK UNBOUND:                -4.118
REMARK SMILES CCCCCCCCCCCCCCCCCCCCCCCCCCCCCC(=O)[O-]
REMARK SMILES IDX 16 1 17 2 18 3 19 4 20 5 21 6 22 7 23 8 24 9 25 10 26 11
REMARK SMILES IDX 27 12 28 13 29 14 30 15 31 16 32 17 15 18 14 19 13 20 12 21
REMARK SMILES IDX 11 22 10 23 9 24 8 25 7 26 6 27 5 28 4 29 3 30 2 31 1 32
REMARK H PARENT
REMARK Flexibility Score: inf
ROOT
ATOM      1  C   UNL     1       7.440  -3.458  -9.614  1.00  0.00     0.000 C 
ENDROOT
BRANCH   1   2
ATOM      2  C   UNL     1       6.311  -2.463  -9.935  1.00  0.00     0.000 C 
BRANCH   2   3
ATOM      3  C   UNL     1       4.906  -3.023  -9.625  1.00  0.00     0.000 C 
BRANCH   3   4
ATOM      4  C   UNL     1       4.511  -2.936  -8.141  1.00  0.00     0.000 C 
BRANCH   4   5
ATOM      5  C   UNL     1       3.755  -4.175  -7.643  1.00  0.00     0.000 C 
BRANCH   5   6
ATOM      6  C   UNL     1       2.745  -3.795  -6.552  1.00  0.00     0.000 C 
BRANCH   6   7
ATOM      7  C   UNL     1       3.420  -3.410  -5.227  1.00  0.00     0.000 C 
BRANCH   7   8
ATOM      8  C   UNL     1       2.455  -2.707  -4.253  1.00  0.00     0.000 C 
BRANCH   8   9
ATOM      9  C   UNL     1       2.636  -3.197  -2.800  1.00  0.00     0.000 C 
BRANCH   9  10
ATOM     10  C   UNL     1       2.117  -2.202  -1.747  1.00  0.00     0.000 C 
BRANCH  10  11
ATOM     11  C   UNL     1       2.750  -0.809  -1.879  1.00  0.00     0.000 C 
BRANCH  11  12
ATOM     12  C   UNL     1       2.548   0.058  -0.624  1.00  0.00     0.000 C 
BRANCH  12  13
ATOM     13  C   UNL     1       3.218   1.446  -0.678  1.00  0.00     0.006 C 
BRANCH  13  14
ATOM     14  C   UNL     1       2.725   2.436   0.390  1.00  0.00     0.053 C 
BRANCH  14  15
ATOM     15  C   UNL     1       2.653   3.839  -0.131  1.00  0.00     0.041 C 
ATOM     16  O   UNL     1       2.620   4.811   0.669  1.00  0.00    -0.550 OA
ATOM     17  O   UNL     1       2.601   4.068  -1.498  1.00  0.00    -0.550 OA
ENDBRANCH  14  15
ENDBRANCH  13  14
ENDBRANCH  12  13
ENDBRANCH  11  12
ENDBRANCH  10  11
ENDBRANCH   9  10
ENDBRANCH   8   9
ENDBRANCH   7   8
ENDBRANCH   6   7
ENDBRANCH   5   6
ENDBRANCH   4   5
ENDBRANCH   3   4
ENDBRANCH   2   3
ENDBRANCH   1   2
BRANCH   1  18
ATOM     18  C   UNL     1       8.413  -2.945  -8.536  1.00  0.00     0.000 C 
BRANCH  18  19
ATOM     19  C   UNL     1       7.858  -3.003  -7.095  1.00  0.00     0.000 C 
BRANCH  19  20
ATOM     20  C   UNL     1       7.985  -4.372  -6.390  1.00  0.00     0.000 C 
BRANCH  20  21
ATOM     21  C   UNL     1       6.657  -5.077  -6.042  1.00  0.00     0.000 C 
BRANCH  21  22
ATOM     22  C   UNL     1       6.783  -6.559  -5.631  1.00  0.00     0.000 C 
BRANCH  22  23
ATOM     23  C   UNL     1       8.194  -6.988  -5.188  1.00  0.00     0.000 C 
BRANCH  23  24
ATOM     24  C   UNL     1       8.572  -8.438  -5.548  1.00  0.00    -0.000 C 
BRANCH  24  25
ATOM     25  C   UNL     1       7.373  -9.293  -6.018  1.00  0.00    -0.000 C 
BRANCH  25  26
ATOM     26  C   UNL     1       7.566  -9.833  -7.445  1.00  0.00    -0.000 C 
BRANCH  26  27
ATOM     27  C   UNL     1       8.900  -9.371  -8.073  1.00  0.00    -0.000 C 
BRANCH  27  28
ATOM     28  C   UNL     1       8.724  -8.505  -9.336  1.00  0.00    -0.000 C 
BRANCH  28  29
ATOM     29  C   UNL     1       8.000  -7.166  -9.109  1.00  0.00    -0.000 C 
BRANCH  29  30
ATOM     30  C   UNL     1       6.750  -7.007  -9.991  1.00  0.00    -0.000 C 
BRANCH  30  31
ATOM     31  C   UNL     1       5.493  -6.683  -9.167  1.00  0.00    -0.003 C 
ATOM     32  C   UNL     1       4.656  -7.923  -8.854  1.00  0.00     0.004 C 
ENDBRANCH  30  31
ENDBRANCH  29  30
ENDBRANCH  28  29
ENDBRANCH  27  28
ENDBRANCH  26  27
ENDBRANCH  25  26
ENDBRANCH  24  25
ENDBRANCH  23  24
ENDBRANCH  22  23
ENDBRANCH  21  22
ENDBRANCH  20  21
ENDBRANCH  19  20
ENDBRANCH  18  19
ENDBRANCH   1  18
TORSDOF 28
ENDMDL
MODEL 2
REMARK VINA RESULT:    -1.311      3.025      9.472
REMARK INTER + INTRA:          -7.575
REMARK INTER:                  -4.355
REMARK INTRA:                  -3.220
REMARK UNBOUND:                -4.118
REMARK SMILES CCCCCCCCCCCCCCCCCCCCCCCCCCCCCC(=O)[O-]
REMARK SMILES IDX 16 1 17 2 18 3 19 4 20 5 21 6 22 7 23 8 24 9 25 10 26 11
REMARK SMILES IDX 27 12 28 13 29 14 30 15 31 16 32 17 15 18 14 19 13 20 12 21
REMARK SMILES IDX 11 22 10 23 9 24 8 25 7 26 6 27 5 28 4 29 3 30 2 31 1 32
REMARK H PARENT
REMARK Flexibility Score: inf
ROOT
ATOM      1  C   UNL     1       6.833  -7.024  -9.766  1.00  0.00     0.000 C 
ENDROOT
BRANCH   1   2
ATOM      2  C   UNL     1       7.953  -7.980  -9.320  1.00  0.00     0.000 C 
BRANCH   2   3
ATOM      3  C   UNL     1       7.450  -9.413  -9.045  1.00  0.00     0.000 C 
BRANCH   3   4
ATOM      4  C   UNL     1       7.736  -9.914  -7.619  1.00  0.00     0.000 C 
BRANCH   4   5
ATOM      5  C   UNL     1       7.174  -8.990  -6.530  1.00  0.00     0.000 C 
BRANCH   5   6
ATOM      6  C   UNL     1       8.271  -8.593  -5.533  1.00  0.00     0.000 C 
BRANCH   6   7
ATOM      7  C   UNL     1       8.271  -7.089  -5.219  1.00  0.00     0.000 C 
BRANCH   7   8
ATOM      8  C   UNL     1       6.985  -6.386  -5.689  1.00  0.00     0.000 C 
BRANCH   8   9
ATOM      9  C   UNL     1       7.285  -5.144  -6.557  1.00  0.00     0.000 C 
BRANCH   9  10
ATOM     10  C   UNL     1       8.789  -4.864  -6.728  1.00  0.00     0.000 C 
BRANCH  10  11
ATOM     11  C   UNL     1       9.185  -4.608  -8.191  1.00  0.00     0.000 C 
BRANCH  11  12
ATOM     12  C   UNL     1       9.556  -3.138  -8.457  1.00  0.00     0.000 C 
BRANCH  12  13
ATOM     13  C   UNL     1       8.980  -2.550  -9.761  1.00  0.00     0.006 C 
BRANCH  13  14
ATOM     14  C   UNL     1       7.808  -1.576  -9.559  1.00  0.00     0.053 C 
BRANCH  14  15
ATOM     15  C   UNL     1       6.480  -2.257  -9.695  1.00  0.00     0.041 C 
ATOM     16  O   UNL     1       5.416  -1.586  -9.644  1.00  0.00    -0.550 OA
ATOM     17  O   UNL     1       6.420  -3.633  -9.856  1.00  0.00    -0.550 OA
ENDBRANCH  14  15
ENDBRANCH  13  14
ENDBRANCH  12  13
ENDBRANCH  11  12
ENDBRANCH  10  11
ENDBRANCH   9  10
ENDBRANCH   8   9
ENDBRANCH   7   8
ENDBRANCH   6   7
ENDBRANCH   5   6
ENDBRANCH   4   5
ENDBRANCH   3   4
ENDBRANCH   2   3
ENDBRANCH   1   2
BRANCH   1  18
ATOM     18  C   UNL     1       5.434  -7.468  -9.302  1.00  0.00     0.000 C 
BRANCH  18  19
ATOM     19  C   UNL     1       4.377  -6.340  -9.291  1.00  0.00     0.000 C 
BRANCH  19  20
ATOM     20  C   UNL     1       3.934  -5.860  -7.891  1.00  0.00     0.000 C 
BRANCH  20  21
ATOM     21  C   UNL     1       3.039  -4.603  -7.860  1.00  0.00     0.000 C 
BRANCH  21  22
ATOM     22  C   UNL     1       2.465  -4.234  -6.478  1.00  0.00     0.000 C 
BRANCH  22  23
ATOM     23  C   UNL     1       3.388  -3.360  -5.607  1.00  0.00     0.000 C 
BRANCH  23  24
ATOM     24  C   UNL     1       2.660  -2.324  -4.729  1.00  0.00    -0.000 C 
BRANCH  24  25
ATOM     25  C   UNL     1       1.967  -2.938  -3.491  1.00  0.00    -0.000 C 
BRANCH  25  26
ATOM     26  C   UNL     1       2.722  -2.627  -2.188  1.00  0.00    -0.000 C 
BRANCH  26  27
ATOM     27  C   UNL     1       2.132  -1.411  -1.440  1.00  0.00    -0.000 C 
BRANCH  27  28
ATOM     28  C   UNL     1       3.086  -0.203  -1.369  1.00  0.00    -0.000 C 
BRANCH  28  29
ATOM     29  C   UNL     1       2.592   0.964  -0.496  1.00  0.00    -0.000 C 
BRANCH  29  30
ATOM     30  C   UNL     1       3.266   2.300  -0.851  1.00  0.00    -0.000 C 
BRANCH  30  31
ATOM     31  C   UNL     1       2.313   3.496  -0.687  1.00  0.00    -0.003 C 
ATOM     32  C   UNL     1       2.566   4.279   0.601  1.00  0.00     0.004 C 
ENDBRANCH  30  31
ENDBRANCH  29  30
ENDBRANCH  28  29
ENDBRANCH  27  28
ENDBRANCH  26  27
ENDBRANCH  25  26
ENDBRANCH  24  25
ENDBRANCH  23  24
ENDBRANCH  22  23
ENDBRANCH  21  22
ENDBRANCH  20  21
ENDBRANCH  19  20
ENDBRANCH  18  19
ENDBRANCH   1  18
TORSDOF 28
ENDMDL
MODEL 3
REMARK VINA RESULT:    -1.175      3.545      9.920
REMARK INTER + INTRA:          -7.217
REMARK INTER:                  -3.786
REMARK INTRA:                  -3.431
REMARK UNBOUND:                -4.118
REMARK SMILES CCCCCCCCCCCCCCCCCCCCCCCCCCCCCC(=O)[O-]
REMARK SMILES IDX 16 1 17 2 18 3 19 4 20 5 21 6 22 7 23 8 24 9 25 10 26 11
REMARK SMILES IDX 27 12 28 13 29 14 30 15 31 16 32 17 15 18 14 19 13 20 12 21
REMARK SMILES IDX 11 22 10 23 9 24 8 25 7 26 6 27 5 28 4 29 3 30 2 31 1 32
REMARK H PARENT
REMARK Flexibility Score: inf
ROOT
ATOM      1  C   UNL     1       7.709  -4.848 -10.124  1.00  0.00     0.000 C 
ENDROOT
BRANCH   1   2
ATOM      2  C   UNL     1       9.135  -4.728  -9.558  1.00  0.00     0.000 C 
BRANCH   2   3
ATOM      3  C   UNL     1       9.710  -3.299  -9.666  1.00  0.00     0.000 C 
BRANCH   3   4
ATOM      4  C   UNL     1       9.801  -2.558  -8.321  1.00  0.00     0.000 C 
BRANCH   4   5
ATOM      5  C   UNL     1       9.369  -3.419  -7.127  1.00  0.00     0.000 C 
BRANCH   5   6
ATOM      6  C   UNL     1       7.963  -3.027  -6.652  1.00  0.00     0.000 C 
BRANCH   6   7
ATOM      7  C   UNL     1       7.220  -4.188  -5.974  1.00  0.00     0.000 C 
BRANCH   7   8
ATOM      8  C   UNL     1       7.811  -5.563  -6.338  1.00  0.00     0.000 C 
BRANCH   8   9
ATOM      9  C   UNL     1       7.036  -6.723  -5.677  1.00  0.00     0.000 C 
BRANCH   9  10
ATOM     10  C   UNL     1       7.323  -8.095  -6.312  1.00  0.00     0.000 C 
BRANCH  10  11
ATOM     11  C   UNL     1       8.414  -8.035  -7.392  1.00  0.00     0.000 C 
BRANCH  11  12
ATOM     12  C   UNL     1       7.858  -8.253  -8.811  1.00  0.00     0.000 C 
BRANCH  12  13
ATOM     13  C   UNL     1       6.395  -8.740  -8.867  1.00  0.00     0.006 C 
BRANCH  13  14
ATOM     14  C   UNL     1       5.401  -7.711  -9.430  1.00  0.00     0.053 C 
BRANCH  14  15
ATOM     15  C   UNL     1       4.143  -7.640  -8.619  1.00  0.00     0.041 C 
ATOM     16  O   UNL     1       3.055  -8.050  -9.101  1.00  0.00    -0.550 OA
ATOM     17  O   UNL     1       4.172  -7.104  -7.340  1.00  0.00    -0.550 OA
ENDBRANCH  14  15
ENDBRANCH  13  14
ENDBRANCH  12  13
ENDBRANCH  11  12
ENDBRANCH  10  11
ENDBRANCH   9  10
ENDBRANCH   8   9
ENDBRANCH   7   8
ENDBRANCH   6   7
ENDBRANCH   5   6
ENDBRANCH   4   5
ENDBRANCH   3   4
ENDBRANCH   2   3
ENDBRANCH   1   2
BRANCH   1  18
ATOM     18  C   UNL     1       6.877  -3.565  -9.952  1.00  0.00     0.000 C 
BRANCH  18  19
ATOM     19  C   UNL     1       5.399  -3.809  -9.570  1.00  0.00     0.000 C 
BRANCH  19  20
ATOM     20  C   UNL     1       4.905  -3.056  -8.315  1.00  0.00     0.000 C 
BRANCH  20  21
ATOM     21  C   UNL     1       3.601  -3.584  -7.680  1.00  0.00     0.000 C 
BRANCH  21  22
ATOM     22  C   UNL     1       3.683  -3.907  -6.174  1.00  0.00     0.000 C 
BRANCH  22  23
ATOM     23  C   UNL     1       2.426  -3.532  -5.365  1.00  0.00     0.000 C 
BRANCH  23  24
ATOM     24  C   UNL     1       2.639  -2.420  -4.319  1.00  0.00    -0.000 C 
BRANCH  24  25
ATOM     25  C   UNL     1       1.988  -2.723  -2.950  1.00  0.00    -0.000 C 
BRANCH  25  26
ATOM     26  C   UNL     1       2.689  -1.987  -1.796  1.00  0.00    -0.000 C 
BRANCH  26  27
ATOM     27  C   UNL     1       1.913  -0.732  -1.339  1.00  0.00    -0.000 C 
BRANCH  27  28
ATOM     28  C   UNL     1       2.706   0.172  -0.376  1.00  0.00    -0.000 C 
BRANCH  28  29
ATOM     29  C   UNL     1       2.829   1.641  -0.818  1.00  0.00    -0.000 C 
BRANCH  29  30
ATOM     30  C   UNL     1       2.989   2.608   0.369  1.00  0.00    -0.000 C 
BRANCH  30  31
ATOM     31  C   UNL     1       2.332   3.973   0.101  1.00  0.00    -0.003 C 
ATOM     32  C   UNL     1       2.081   4.225  -1.386  1.00  0.00     0.004 C 
ENDBRANCH  30  31
ENDBRANCH  29  30
ENDBRANCH  28  29
ENDBRANCH  27  28
ENDBRANCH  26  27
ENDBRANCH  25  26
ENDBRANCH  24  25
ENDBRANCH  23  24
ENDBRANCH  22  23
ENDBRANCH  21  22
ENDBRANCH  20  21
ENDBRANCH  19  20
ENDBRANCH  18  19
ENDBRANCH   1  18
TORSDOF 28
ENDMDL
MODEL 4
REMARK VINA RESULT:    -0.958      1.165      2.538
REMARK INTER + INTRA:          -6.644
REMARK INTER:                  -3.266
REMARK INTRA:                  -3.378
REMARK UNBOUND:                -4.118
REMARK SMILES CCCCCCCCCCCCCCCCCCCCCCCCCCCCCC(=O)[O-]
REMARK SMILES IDX 16 1 17 2 18 3 19 4 20 5 21 6 22 7 23 8 24 9 25 10 26 11
REMARK SMILES IDX 27 12 28 13 29 14 30 15 31 16 32 17 15 18 14 19 13 20 12 21
REMARK SMILES IDX 11 22 10 23 9 24 8 25 7 26 6 27 5 28 4 29 3 30 2 31 1 32
REMARK H PARENT
REMARK Flexibility Score: inf
ROOT
ATOM      1  C   UNL     1       6.809  -3.791  -9.076  1.00  0.00     0.000 C 
ENDROOT
BRANCH   1   2
ATOM      2  C   UNL     1       5.821  -4.335 -10.123  1.00  0.00     0.000 C 
BRANCH   2   3
ATOM      3  C   UNL     1       4.586  -5.015  -9.493  1.00  0.00     0.000 C 
BRANCH   3   4
ATOM      4  C   UNL     1       3.837  -4.134  -8.479  1.00  0.00     0.000 C 
BRANCH   4   5
ATOM      5  C   UNL     1       3.181  -4.939  -7.349  1.00  0.00     0.000 C 
BRANCH   5   6
ATOM      6  C   UNL     1       2.351  -4.023  -6.438  1.00  0.00     0.000 C 
BRANCH   6   7
ATOM      7  C   UNL     1       3.132  -3.549  -5.204  1.00  0.00     0.000 C 
BRANCH   7   8
ATOM      8  C   UNL     1       2.491  -2.318  -4.534  1.00  0.00     0.000 C 
BRANCH   8   9
ATOM      9  C   UNL     1       1.729  -2.689  -3.244  1.00  0.00     0.000 C 
BRANCH   9  10
ATOM     10  C   UNL     1       2.518  -2.389  -1.957  1.00  0.00     0.000 C 
BRANCH  10  11
ATOM     11  C   UNL     1       3.104  -0.969  -1.934  1.00  0.00     0.000 C 
BRANCH  11  12
ATOM     12  C   UNL     1       2.457  -0.076  -0.860  1.00  0.00     0.000 C 
BRANCH  12  13
ATOM     13  C   UNL     1       3.187   1.257  -0.598  1.00  0.00     0.006 C 
BRANCH  13  14
ATOM     14  C   UNL     1       2.366   2.290   0.191  1.00  0.00     0.053 C 
BRANCH  14  15
ATOM     15  C   UNL     1       2.527   3.676  -0.357  1.00  0.00     0.041 C 
ATOM     16  O   UNL     1       2.584   3.862  -1.601  1.00  0.00    -0.550 OA
ATOM     17  O   UNL     1       2.633   4.755   0.508  1.00  0.00    -0.550 OA
ENDBRANCH  14  15
ENDBRANCH  13  14
ENDBRANCH  12  13
ENDBRANCH  11  12
ENDBRANCH  10  11
ENDBRANCH   9  10
ENDBRANCH   8   9
ENDBRANCH   7   8
ENDBRANCH   6   7
ENDBRANCH   5   6
ENDBRANCH   4   5
ENDBRANCH   3   4
ENDBRANCH   2   3
ENDBRANCH   1   2
BRANCH   1  18
ATOM     18  C   UNL     1       6.855  -2.253  -9.026  1.00  0.00     0.000 C 
BRANCH  18  19
ATOM     19  C   UNL     1       8.229  -1.669  -8.628  1.00  0.00     0.000 C 
BRANCH  19  20
ATOM     20  C   UNL     1       9.411  -2.663  -8.669  1.00  0.00     0.000 C 
BRANCH  20  21
ATOM     21  C   UNL     1       9.738  -3.378  -7.341  1.00  0.00     0.000 C 
BRANCH  21  22
ATOM     22  C   UNL     1      10.079  -4.877  -7.463  1.00  0.00     0.000 C 
BRANCH  22  23
ATOM     23  C   UNL     1      10.125  -5.413  -8.907  1.00  0.00     0.000 C 
BRANCH  23  24
ATOM     24  C   UNL     1       9.081  -6.502  -9.226  1.00  0.00    -0.000 C 
BRANCH  24  25
ATOM     25  C   UNL     1       9.598  -7.941  -9.002  1.00  0.00    -0.000 C 
BRANCH  25  26
ATOM     26  C   UNL     1       8.472  -8.985  -9.094  1.00  0.00    -0.000 C 
BRANCH  26  27
ATOM     27  C   UNL     1       7.071  -8.356  -8.923  1.00  0.00    -0.000 C 
BRANCH  27  28
ATOM     28  C   UNL     1       6.441  -8.612  -7.540  1.00  0.00    -0.000 C 
BRANCH  28  29
ATOM     29  C   UNL     1       7.374  -8.357  -6.343  1.00  0.00    -0.000 C 
BRANCH  29  30
ATOM     30  C   UNL     1       7.607  -6.859  -6.078  1.00  0.00    -0.000 C 
BRANCH  30  31
ATOM     31  C   UNL     1       6.298  -6.111  -5.775  1.00  0.00    -0.003 C 
ATOM     32  C   UNL     1       6.458  -4.592  -5.837  1.00  0.00     0.004 C 
ENDBRANCH  30  31
ENDBRANCH  29  30
ENDBRANCH  28  29
ENDBRANCH  27  28
ENDBRANCH  26  27
ENDBRANCH  25  26
ENDBRANCH  24  25
ENDBRANCH  23  24
ENDBRANCH  22  23
ENDBRANCH  21  22
ENDBRANCH  20  21
ENDBRANCH  19  20
ENDBRANCH  18  19
ENDBRANCH   1  18
TORSDOF 28
ENDMDL
MODEL 5
REMARK VINA RESULT:    -0.741      1.320      3.165
REMARK INTER + INTRA:          -6.072
REMARK INTER:                  -2.488
REMARK INTRA:                  -3.584
REMARK UNBOUND:                -4.118
REMARK SMILES CCCCCCCCCCCCCCCCCCCCCCCCCCCCCC(=O)[O-]
REMARK SMILES IDX 16 1 17 2 18 3 19 4 20 5 21 6 22 7 23 8 24 9 25 10 26 11
REMARK SMILES IDX 27 12 28 13 29 14 30 15 31 16 32 17 15 18 14 19 13 20 12 21
REMARK SMILES IDX 11 22 10 23 9 24 8 25 7 26 6 27 5 28 4 29 3 30 2 31 1 32
REMARK H PARENT
REMARK Flexibility Score: inf
ROOT
ATOM      1  C   UNL     1       4.637  -5.426 -10.068  1.00  0.00     0.000 C 
ENDROOT
BRANCH   1   2
ATOM      2  C   UNL     1       3.887  -4.190  -9.542  1.00  0.00     0.000 C 
BRANCH   2   3
ATOM      3  C   UNL     1       4.823  -3.001  -9.236  1.00  0.00     0.000 C 
BRANCH   3   4
ATOM      4  C   UNL     1       5.413  -3.018  -7.816  1.00  0.00     0.000 C 
BRANCH   4   5
ATOM      5  C   UNL     1       4.543  -3.783  -6.810  1.00  0.00     0.000 C 
BRANCH   5   6
ATOM      6  C   UNL     1       3.580  -2.830  -6.087  1.00  0.00     0.000 C 
BRANCH   6   7
ATOM      7  C   UNL     1       2.814  -3.513  -4.945  1.00  0.00     0.000 C 
BRANCH   7   8
ATOM      8  C   UNL     1       2.143  -2.504  -3.994  1.00  0.00     0.000 C 
BRANCH   8   9
ATOM      9  C   UNL     1       2.716  -2.583  -2.563  1.00  0.00     0.000 C 
BRANCH   9  10
ATOM     10  C   UNL     1       1.703  -2.188  -1.473  1.00  0.00     0.000 C 
BRANCH  10  11
ATOM     11  C   UNL     1       1.853  -0.727  -1.022  1.00  0.00     0.000 C 
BRANCH  11  12
ATOM     12  C   UNL     1       3.302  -0.219  -1.122  1.00  0.00     0.000 C 
BRANCH  12  13
ATOM     13  C   UNL     1       3.452   1.315  -1.161  1.00  0.00     0.006 C 
BRANCH  13  14
ATOM     14  C   UNL     1       2.702   2.059  -0.043  1.00  0.00     0.053 C 
BRANCH  14  15
ATOM     15  C   UNL     1       2.594   3.528  -0.317  1.00  0.00     0.041 C 
ATOM     16  O   UNL     1       2.411   3.942  -1.492  1.00  0.00    -0.550 OA
ATOM     17  O   UNL     1       2.715   4.438   0.723  1.00  0.00    -0.550 OA
ENDBRANCH  14  15
ENDBRANCH  13  14
ENDBRANCH  12  13
ENDBRANCH  11  12
ENDBRANCH  10  11
ENDBRANCH   9  10
ENDBRANCH   8   9
ENDBRANCH   7   8
ENDBRANCH   6   7
ENDBRANCH   5   6
ENDBRANCH   4   5
ENDBRANCH   3   4
ENDBRANCH   2   3
ENDBRANCH   1   2
BRANCH   1  18
ATOM     18  C   UNL     1       3.826  -6.728  -9.941  1.00  0.00     0.000 C 
BRANCH  18  19
ATOM     19  C   UNL     1       4.686  -8.007  -9.824  1.00  0.00     0.000 C 
BRANCH  19  20
ATOM     20  C   UNL     1       6.110  -7.800  -9.261  1.00  0.00     0.000 C 
BRANCH  20  21
ATOM     21  C   UNL     1       6.339  -8.279  -7.812  1.00  0.00     0.000 C 
BRANCH  21  22
ATOM     22  C   UNL     1       6.088  -7.221  -6.718  1.00  0.00     0.000 C 
BRANCH  22  23
ATOM     23  C   UNL     1       7.209  -6.175  -6.564  1.00  0.00     0.000 C 
BRANCH  23  24
ATOM     24  C   UNL     1       8.361  -6.594  -5.631  1.00  0.00    -0.000 C 
BRANCH  24  25
ATOM     25  C   UNL     1       9.604  -7.126  -6.380  1.00  0.00    -0.000 C 
BRANCH  25  26
ATOM     26  C   UNL     1       9.978  -6.245  -7.585  1.00  0.00    -0.000 C 
BRANCH  26  27
ATOM     27  C   UNL     1       9.743  -6.961  -8.934  1.00  0.00    -0.000 C 
BRANCH  27  28
ATOM     28  C   UNL     1       9.444  -6.001 -10.102  1.00  0.00    -0.000 C 
BRANCH  28  29
ATOM     29  C   UNL     1       8.399  -4.914  -9.798  1.00  0.00    -0.000 C 
BRANCH  29  30
ATOM     30  C   UNL     1       8.980  -3.491  -9.875  1.00  0.00    -0.000 C 
BRANCH  30  31
ATOM     31  C   UNL     1       8.563  -2.627  -8.673  1.00  0.00    -0.003 C 
ATOM     32  C   UNL     1       8.611  -1.129  -8.979  1.00  0.00     0.004 C 
ENDBRANCH  30  31
ENDBRANCH  29  30
ENDBRANCH  28  29
ENDBRANCH  27  28
ENDBRANCH  26  27
ENDBRANCH  25  26
ENDBRANCH  24  25
ENDBRANCH  23  24
ENDBRANCH  22  23
ENDBRANCH  21  22
ENDBRANCH  20  21
ENDBRANCH  19  20
ENDBRANCH  18  19
ENDBRANCH   1  18
TORSDOF 28
ENDMDL
MODEL 6
REMARK VINA RESULT:    -0.532      1.236      2.403
REMARK INTER + INTRA:          -5.520
REMARK INTER:                  -3.923
REMARK INTRA:                  -1.597
REMARK UNBOUND:                -4.118
REMARK SMILES CCCCCCCCCCCCCCCCCCCCCCCCCCCCCC(=O)[O-]
REMARK SMILES IDX 16 1 17 2 18 3 19 4 20 5 21 6 22 7 23 8 24 9 25 10 26 11
REMARK SMILES IDX 27 12 28 13 29 14 30 15 31 16 32 17 15 18 14 19 13 20 12 21
REMARK SMILES IDX 11 22 10 23 9 24 8 25 7 26 6 27 5 28 4 29 3 30 2 31 1 32
REMARK H PARENT
REMARK Flexibility Score: inf
ROOT
ATOM      1  C   UNL     1       6.505  -3.631  -8.997  1.00  0.00     0.000 C 
ENDROOT
BRANCH   1   2
ATOM      2  C   UNL     1       6.084  -4.789  -9.919  1.00  0.00     0.000 C 
BRANCH   2   3
ATOM      3  C   UNL     1       4.803  -5.506  -9.442  1.00  0.00     0.000 C 
BRANCH   3   4
ATOM      4  C   UNL     1       3.818  -4.594  -8.691  1.00  0.00     0.000 C 
BRANCH   4   5
ATOM      5  C   UNL     1       4.129  -4.472  -7.194  1.00  0.00     0.000 C 
BRANCH   5   6
ATOM      6  C   UNL     1       2.915  -3.931  -6.427  1.00  0.00     0.000 C 
BRANCH   6   7
ATOM      7  C   UNL     1       3.279  -3.408  -5.030  1.00  0.00     0.000 C 
BRANCH   7   8
ATOM      8  C   UNL     1       2.219  -2.446  -4.461  1.00  0.00     0.000 C 
BRANCH   8   9
ATOM      9  C   UNL     1       1.750  -2.865  -3.051  1.00  0.00     0.000 C 
BRANCH   9  10
ATOM     10  C   UNL     1       2.667  -2.359  -1.923  1.00  0.00     0.000 C 
BRANCH  10  11
ATOM     11  C   UNL     1       2.287  -0.954  -1.431  1.00  0.00     0.000 C 
BRANCH  11  12
ATOM     12  C   UNL     1       3.516  -0.082  -1.117  1.00  0.00     0.000 C 
BRANCH  12  13
ATOM     13  C   UNL     1       3.300   1.434  -1.297  1.00  0.00     0.006 C 
BRANCH  13  14
ATOM     14  C   UNL     1       2.944   2.187  -0.005  1.00  0.00     0.053 C 
BRANCH  14  15
ATOM     15  C   UNL     1       2.613   3.625  -0.262  1.00  0.00     0.041 C 
ATOM     16  O   UNL     1       2.653   4.085  -1.434  1.00  0.00    -0.550 OA
ATOM     17  O   UNL     1       2.281   4.460   0.795  1.00  0.00    -0.550 OA
ENDBRANCH  14  15
ENDBRANCH  13  14
ENDBRANCH  12  13
ENDBRANCH  11  12
ENDBRANCH  10  11
ENDBRANCH   9  10
ENDBRANCH   8   9
ENDBRANCH   7   8
ENDBRANCH   6   7
ENDBRANCH   5   6
ENDBRANCH   4   5
ENDBRANCH   3   4
ENDBRANCH   2   3
ENDBRANCH   1   2
BRANCH   1  18
ATOM     18  C   UNL     1       6.562  -2.272  -9.717  1.00  0.00     0.000 C 
BRANCH  18  19
ATOM     19  C   UNL     1       7.992  -1.770 -10.022  1.00  0.00     0.000 C 
BRANCH  19  20
ATOM     20  C   UNL     1       9.123  -2.475  -9.241  1.00  0.00     0.000 C 
BRANCH  20  21
ATOM     21  C   UNL     1       8.952  -2.529  -7.708  1.00  0.00     0.000 C 
BRANCH  21  22
ATOM     22  C   UNL     1       9.543  -3.776  -7.020  1.00  0.00     0.000 C 
BRANCH  22  23
ATOM     23  C   UNL     1       9.870  -4.944  -7.970  1.00  0.00     0.000 C 
BRANCH  23  24
ATOM     24  C   UNL     1       9.174  -6.275  -7.623  1.00  0.00    -0.000 C 
BRANCH  24  25
ATOM     25  C   UNL     1       9.232  -6.631  -6.120  1.00  0.00    -0.000 C 
BRANCH  25  26
ATOM     26  C   UNL     1       7.971  -7.375  -5.650  1.00  0.00    -0.000 C 
BRANCH  26  27
ATOM     27  C   UNL     1       8.262  -8.845  -5.271  1.00  0.00    -0.000 C 
BRANCH  27  28
ATOM     28  C   UNL     1       8.345  -9.793  -6.483  1.00  0.00    -0.000 C 
BRANCH  28  29
ATOM     29  C   UNL     1       7.206  -9.643  -7.505  1.00  0.00    -0.000 C 
BRANCH  29  30
ATOM     30  C   UNL     1       7.704  -9.664  -8.961  1.00  0.00    -0.000 C 
BRANCH  30  31
ATOM     31  C   UNL     1       6.548  -9.633  -9.974  1.00  0.00    -0.003 C 
ATOM     32  C   UNL     1       5.283  -8.989  -9.406  1.00  0.00     0.004 C 
ENDBRANCH  30  31
ENDBRANCH  29  30
ENDBRANCH  28  29
ENDBRANCH  27  28
ENDBRANCH  26  27
ENDBRANCH  25  26
ENDBRANCH  24  25
ENDBRANCH  23  24
ENDBRANCH  22  23
ENDBRANCH  21  22
ENDBRANCH  20  21
ENDBRANCH  19  20
ENDBRANCH  18  19
ENDBRANCH   1  18
TORSDOF 28
ENDMDL
MODEL 7
REMARK VINA RESULT:    -0.325      3.619      8.821
REMARK INTER + INTRA:          -4.976
REMARK INTER:                  -1.939
REMARK INTRA:                  -3.036
REMARK UNBOUND:                -4.118
REMARK SMILES CCCCCCCCCCCCCCCCCCCCCCCCCCCCCC(=O)[O-]
REMARK SMILES IDX 16 1 17 2 18 3 19 4 20 5 21 6 22 7 23 8 24 9 25 10 26 11
REMARK SMILES IDX 27 12 28 13 29 14 30 15 31 16 32 17 15 18 14 19 13 20 12 21
REMARK SMILES IDX 11 22 10 23 9 24 8 25 7 26 6 27 5 28 4 29 3 30 2 31 1 32
REMARK H PARENT
REMARK Flexibility Score: inf
ROOT
ATOM      1  C   UNL     1       6.143  -5.718  -9.995  1.00  0.00     0.000 C 
ENDROOT
BRANCH   1   2
ATOM      2  C   UNL     1       7.221  -6.814 -10.060  1.00  0.00     0.000 C 
BRANCH   2   3
ATOM      3  C   UNL     1       6.651  -8.235  -9.862  1.00  0.00     0.000 C 
BRANCH   3   4
ATOM      4  C   UNL     1       7.591  -9.185  -9.099  1.00  0.00     0.000 C 
BRANCH   4   5
ATOM      5  C   UNL     1       6.947  -9.792  -7.845  1.00  0.00     0.000 C 
BRANCH   5   6
ATOM      6  C   UNL     1       7.874  -9.641  -6.631  1.00  0.00     0.000 C 
BRANCH   6   7
ATOM      7  C   UNL     1       7.271  -8.755  -5.531  1.00  0.00     0.000 C 
BRANCH   7   8
ATOM      8  C   UNL     1       6.606  -7.484  -6.092  1.00  0.00     0.000 C 
BRANCH   8   9
ATOM      9  C   UNL     1       7.459  -6.221  -5.841  1.00  0.00     0.000 C 
BRANCH   9  10
ATOM     10  C   UNL     1       8.971  -6.463  -5.988  1.00  0.00     0.000 C 
BRANCH  10  11
ATOM     11  C   UNL     1       9.523  -5.984  -7.340  1.00  0.00     0.000 C 
BRANCH  11  12
ATOM     12  C   UNL     1      10.123  -4.569  -7.269  1.00  0.00     0.000 C 
BRANCH  12  13
ATOM     13  C   UNL     1       9.902  -3.706  -8.528  1.00  0.00     0.006 C 
BRANCH  13  14
ATOM     14  C   UNL     1       8.426  -3.464  -8.885  1.00  0.00     0.053 C 
BRANCH  14  15
ATOM     15  C   UNL     1       8.036  -2.026  -8.725  1.00  0.00     0.041 C 
ATOM     16  O   UNL     1       8.598  -1.310  -7.855  1.00  0.00    -0.550 OA
ATOM     17  O   UNL     1       7.038  -1.486  -9.522  1.00  0.00    -0.550 OA
ENDBRANCH  14  15
ENDBRANCH  13  14
ENDBRANCH  12  13
ENDBRANCH  11  12
ENDBRANCH  10  11
ENDBRANCH   9  10
ENDBRANCH   8   9
ENDBRANCH   7   8
ENDBRANCH   6   7
ENDBRANCH   5   6
ENDBRANCH   4   5
ENDBRANCH   3   4
ENDBRANCH   2   3
ENDBRANCH   1   2
BRANCH   1  18
ATOM     18  C   UNL     1       5.283  -5.786  -8.720  1.00  0.00     0.000 C 
BRANCH  18  19
ATOM     19  C   UNL     1       4.023  -4.892  -8.751  1.00  0.00     0.000 C 
BRANCH  19  20
ATOM     20  C   UNL     1       4.261  -3.399  -8.436  1.00  0.00     0.000 C 
BRANCH  20  21
ATOM     21  C   UNL     1       4.303  -3.024  -6.940  1.00  0.00     0.000 C 
BRANCH  21  22
ATOM     22  C   UNL     1       3.178  -3.627  -6.074  1.00  0.00     0.000 C 
BRANCH  22  23
ATOM     23  C   UNL     1       3.398  -3.507  -4.554  1.00  0.00     0.000 C 
BRANCH  23  24
ATOM     24  C   UNL     1       2.348  -2.656  -3.813  1.00  0.00    -0.000 C 
BRANCH  24  25
ATOM     25  C   UNL     1       2.519  -2.660  -2.277  1.00  0.00    -0.000 C 
BRANCH  25  26
ATOM     26  C   UNL     1       1.359  -3.377  -1.564  1.00  0.00    -0.000 C 
BRANCH  26  27
ATOM     27  C   UNL     1       1.800  -4.707  -0.913  1.00  0.00    -0.000 C 
BRANCH  27  28
ATOM     28  C   UNL     1       1.032  -5.050   0.378  1.00  0.00    -0.000 C 
BRANCH  28  29
ATOM     29  C   UNL     1       0.652  -6.533   0.534  1.00  0.00    -0.000 C 
BRANCH  29  30
ATOM     30  C   UNL     1       1.862  -7.427   0.856  1.00  0.00    -0.000 C 
BRANCH  30  31
ATOM     31  C   UNL     1       2.140  -8.453  -0.256  1.00  0.00    -0.003 C 
ATOM     32  C   UNL     1       1.302  -9.723  -0.110  1.00  0.00     0.004 C 
ENDBRANCH  30  31
ENDBRANCH  29  30
ENDBRANCH  28  29
ENDBRANCH  27  28
ENDBRANCH  26  27
ENDBRANCH  25  26
ENDBRANCH  24  25
ENDBRANCH  23  24
ENDBRANCH  22  23
ENDBRANCH  21  22
ENDBRANCH  20  21
ENDBRANCH  19  20
ENDBRANCH  18  19
ENDBRANCH   1  18
TORSDOF 28
ENDMDL
MODEL 8
REMARK VINA RESULT:    -0.280      4.668      9.750
REMARK INTER + INTRA:          -4.857
REMARK INTER:                  -1.499
REMARK INTRA:                  -3.358
REMARK UNBOUND:                -4.118
REMARK SMILES CCCCCCCCCCCCCCCCCCCCCCCCCCCCCC(=O)[O-]
REMARK SMILES IDX 16 1 17 2 18 3 19 4 20 5 21 6 22 7 23 8 24 9 25 10 26 11
REMARK SMILES IDX 27 12 28 13 29 14 30 15 31 16 32 17 15 18 14 19 13 20 12 21
REMARK SMILES IDX 11 22 10 23 9 24 8 25 7 26 6 27 5 28 4 29 3 30 2 31 1 32
REMARK H PARENT
REMARK Flexibility Score: inf
ROOT
ATOM      1  C   UNL     1       5.599  -5.135  -9.509  1.00  0.00     0.000 C 
ENDROOT
BRANCH   1   2
ATOM      2  C   UNL     1       6.425  -3.933  -9.998  1.00  0.00     0.000 C 
BRANCH   2   3
ATOM      3  C   UNL     1       7.943  -4.212 -10.021  1.00  0.00     0.000 C 
BRANCH   3   4
ATOM      4  C   UNL     1       8.693  -3.694  -8.783  1.00  0.00     0.000 C 
BRANCH   4   5
ATOM      5  C   UNL     1       7.933  -2.590  -8.034  1.00  0.00     0.000 C 
BRANCH   5   6
ATOM      6  C   UNL     1       7.468  -3.087  -6.658  1.00  0.00     0.000 C 
BRANCH   6   7
ATOM      7  C   UNL     1       8.064  -4.453  -6.288  1.00  0.00     0.000 C 
BRANCH   7   8
ATOM      8  C   UNL     1       7.003  -5.441  -5.767  1.00  0.00     0.000 C 
BRANCH   8   9
ATOM      9  C   UNL     1       7.097  -6.816  -6.463  1.00  0.00     0.000 C 
BRANCH   9  10
ATOM     10  C   UNL     1       8.541  -7.320  -6.635  1.00  0.00     0.000 C 
BRANCH  10  11
ATOM     11  C   UNL     1       8.869  -7.711  -8.084  1.00  0.00     0.000 C 
BRANCH  11  12
ATOM     12  C   UNL     1       8.508  -9.173  -8.402  1.00  0.00     0.000 C 
BRANCH  12  13
ATOM     13  C   UNL     1       7.705  -9.375  -9.703  1.00  0.00     0.006 C 
BRANCH  13  14
ATOM     14  C   UNL     1       6.434  -8.517  -9.809  1.00  0.00     0.053 C 
BRANCH  14  15
ATOM     15  C   UNL     1       5.308  -9.073  -8.993  1.00  0.00     0.041 C 
ATOM     16  O   UNL     1       5.472 -10.124  -8.318  1.00  0.00    -0.550 OA
ATOM     17  O   UNL     1       4.072  -8.443  -8.996  1.00  0.00    -0.550 OA
ENDBRANCH  14  15
ENDBRANCH  13  14
ENDBRANCH  12  13
ENDBRANCH  11  12
ENDBRANCH  10  11
ENDBRANCH   9  10
ENDBRANCH   8   9
ENDBRANCH   7   8
ENDBRANCH   6   7
ENDBRANCH   5   6
ENDBRANCH   4   5
ENDBRANCH   3   4
ENDBRANCH   2   3
ENDBRANCH   1   2
BRANCH   1  18
ATOM     18  C   UNL     1       4.086  -4.970  -9.743  1.00  0.00     0.000 C 
BRANCH  18  19
ATOM     19  C   UNL     1       3.327  -4.311  -8.568  1.00  0.00     0.000 C 
BRANCH  19  20
ATOM     20  C   UNL     1       3.772  -4.756  -7.158  1.00  0.00     0.000 C 
BRANCH  20  21
ATOM     21  C   UNL     1       3.904  -3.634  -6.106  1.00  0.00     0.000 C 
BRANCH  21  22
ATOM     22  C   UNL     1       2.590  -2.911  -5.744  1.00  0.00     0.000 C 
BRANCH  22  23
ATOM     23  C   UNL     1       2.516  -2.398  -4.293  1.00  0.00     0.000 C 
BRANCH  23  24
ATOM     24  C   UNL     1       1.785  -3.336  -3.312  1.00  0.00    -0.000 C 
BRANCH  24  25
ATOM     25  C   UNL     1       2.061  -3.015  -1.825  1.00  0.00    -0.000 C 
BRANCH  25  26
ATOM     26  C   UNL     1       2.216  -4.287  -0.974  1.00  0.00    -0.000 C 
BRANCH  26  27
ATOM     27  C   UNL     1       1.115  -4.413   0.102  1.00  0.00    -0.000 C 
BRANCH  27  28
ATOM     28  C   UNL     1       0.769  -5.870   0.468  1.00  0.00    -0.000 C 
BRANCH  28  29
ATOM     29  C   UNL     1       1.871  -6.626   1.232  1.00  0.00    -0.000 C 
BRANCH  29  30
ATOM     30  C   UNL     1       1.616  -8.142   1.299  1.00  0.00    -0.000 C 
BRANCH  30  31
ATOM     31  C   UNL     1       1.783  -8.822  -0.071  1.00  0.00    -0.003 C 
ATOM     32  C   UNL     1       2.856  -9.910  -0.062  1.00  0.00     0.004 C 
ENDBRANCH  30  31
ENDBRANCH  29  30
ENDBRANCH  28  29
ENDBRANCH  27  28
ENDBRANCH  26  27
ENDBRANCH  25  26
ENDBRANCH  24  25
ENDBRANCH  23  24
ENDBRANCH  22  23
ENDBRANCH  21  22
ENDBRANCH  20  21
ENDBRANCH  19  20
ENDBRANCH  18  19
ENDBRANCH   1  18
TORSDOF 28
ENDMDL
MODEL 9
REMARK VINA RESULT:    -0.182      3.322     10.593
REMARK INTER + INTRA:          -4.599
REMARK INTER:                  -1.838
REMARK INTRA:                  -2.761
REMARK UNBOUND:                -4.118
REMARK SMILES CCCCCCCCCCCCCCCCCCCCCCCCCCCCCC(=O)[O-]
REMARK SMILES IDX 16 1 17 2 18 3 19 4 20 5 21 6 22 7 23 8 24 9 25 10 26 11
REMARK SMILES IDX 27 12 28 13 29 14 30 15 31 16 32 17 15 18 14 19 13 20 12 21
REMARK SMILES IDX 11 22 10 23 9 24 8 25 7 26 6 27 5 28 4 29 3 30 2 31 1 32
REMARK H PARENT
REMARK Flexibility Score: inf
ROOT
ATOM      1  C   UNL     1       6.195  -4.123  -9.000  1.00  0.00     0.000 C 
ENDROOT
BRANCH   1   2
ATOM      2  C   UNL     1       6.463  -2.685  -8.524  1.00  0.00     0.000 C 
BRANCH   2   3
ATOM      3  C   UNL     1       7.663  -2.583  -7.557  1.00  0.00     0.000 C 
BRANCH   3   4
ATOM      4  C   UNL     1       9.017  -2.383  -8.258  1.00  0.00     0.000 C 
BRANCH   4   5
ATOM      5  C   UNL     1      10.125  -3.287  -7.701  1.00  0.00     0.000 C 
BRANCH   5   6
ATOM      6  C   UNL     1       9.528  -4.422  -6.857  1.00  0.00     0.000 C 
BRANCH   6   7
ATOM      7  C   UNL     1       9.836  -5.813  -7.432  1.00  0.00     0.000 C 
BRANCH   7   8
ATOM      8  C   UNL     1       9.172  -6.049  -8.801  1.00  0.00     0.000 C 
BRANCH   8   9
ATOM      9  C   UNL     1       9.065  -7.551  -9.145  1.00  0.00     0.000 C 
BRANCH   9  10
ATOM     10  C   UNL     1      10.073  -8.428  -8.381  1.00  0.00     0.000 C 
BRANCH  10  11
ATOM     11  C   UNL     1       9.429  -9.681  -7.768  1.00  0.00     0.000 C 
BRANCH  11  12
ATOM     12  C   UNL     1       7.922  -9.507  -7.507  1.00  0.00     0.000 C 
BRANCH  12  13
ATOM     13  C   UNL     1       7.545  -9.245  -6.034  1.00  0.00     0.006 C 
BRANCH  13  14
ATOM     14  C   UNL     1       7.745  -7.792  -5.573  1.00  0.00     0.053 C 
BRANCH  14  15
ATOM     15  C   UNL     1       6.493  -6.980  -5.706  1.00  0.00     0.041 C 
ATOM     16  O   UNL     1       6.560  -5.741  -5.921  1.00  0.00    -0.550 OA
ATOM     17  O   UNL     1       5.254  -7.590  -5.573  1.00  0.00    -0.550 OA
ENDBRANCH  14  15
ENDBRANCH  13  14
ENDBRANCH  12  13
ENDBRANCH  11  12
ENDBRANCH  10  11
ENDBRANCH   9  10
ENDBRANCH   8   9
ENDBRANCH   7   8
ENDBRANCH   6   7
ENDBRANCH   5   6
ENDBRANCH   4   5
ENDBRANCH   3   4
ENDBRANCH   2   3
ENDBRANCH   1   2
BRANCH   1  18
ATOM     18  C   UNL     1       4.788  -4.631  -8.637  1.00  0.00     0.000 C 
BRANCH  18  19
ATOM     19  C   UNL     1       3.935  -3.626  -7.829  1.00  0.00     0.000 C 
BRANCH  19  20
ATOM     20  C   UNL     1       3.131  -4.230  -6.657  1.00  0.00     0.000 C 
BRANCH  20  21
ATOM     21  C   UNL     1       2.506  -3.218  -5.674  1.00  0.00     0.000 C 
BRANCH  21  22
ATOM     22  C   UNL     1       3.043  -3.280  -4.230  1.00  0.00     0.000 C 
BRANCH  22  23
ATOM     23  C   UNL     1       2.029  -2.866  -3.146  1.00  0.00     0.000 C 
BRANCH  23  24
ATOM     24  C   UNL     1       2.655  -2.285  -1.863  1.00  0.00    -0.000 C 
BRANCH  24  25
ATOM     25  C   UNL     1       2.199  -0.841  -1.551  1.00  0.00    -0.000 C 
BRANCH  25  26
ATOM     26  C   UNL     1       3.369   0.055  -1.110  1.00  0.00    -0.000 C 
BRANCH  26  27
ATOM     27  C   UNL     1       2.890   1.349  -0.414  1.00  0.00    -0.000 C 
BRANCH  27  28
ATOM     28  C   UNL     1       3.049   2.615  -1.280  1.00  0.00    -0.000 C 
BRANCH  28  29
ATOM     29  C   UNL     1       2.192   3.815  -0.841  1.00  0.00    -0.000 C 
BRANCH  29  30
ATOM     30  C   UNL     1       2.892   4.695   0.209  1.00  0.00    -0.000 C 
BRANCH  30  31
ATOM     31  C   UNL     1       2.380   4.421   1.633  1.00  0.00    -0.003 C 
ATOM     32  C   UNL     1       3.375   3.621   2.474  1.00  0.00     0.004 C 
ENDBRANCH  30  31
ENDBRANCH  29  30
ENDBRANCH  28  29
ENDBRANCH  27  28
ENDBRANCH  26  27
ENDBRANCH  25  26
ENDBRANCH  24  25
ENDBRANCH  23  24
ENDBRANCH  22  23
ENDBRANCH  21  22
ENDBRANCH  20  21
ENDBRANCH  19  20
ENDBRANCH  18  19
ENDBRANCH   1  18
TORSDOF 28
ENDMDL
