MODEL 1
REMARK VINA RESULT:    -6.115      0.000      0.000
REMARK INTER + INTRA:         -11.379
REMARK INTER:                 -10.404
REMARK INTRA:                  -0.975
REMARK UNBOUND:                -0.975
REMARK SMILES CCCCCCCCCCCCCC(=O)[O-]
REMARK SMILES IDX 8 1 9 2 10 3 11 4 12 5 13 6 14 7 15 8 16 9 7 10 6 11 5 12
REMARK SMILES IDX 4 13 3 14 2 15 1 16
REMARK H PARENT
REMARK Flexibility Score: inf
ROOT
ATOM      1  C   UNL     1       3.230   2.980  16.878  1.00  0.00     0.000 C 
ENDROOT
BRANCH   1   2
ATOM      2  C   UNL     1       3.817   3.120  15.466  1.00  0.00     0.000 C 
BRANCH   2   3
ATOM      3  C   UNL     1       3.891   4.582  14.999  1.00  0.00     0.000 C 
BRANCH   3   4
ATOM      4  C   UNL     1       4.108   4.710  13.483  1.00  0.00     0.000 C 
BRANCH   4   5
ATOM      5  C   UNL     1       5.084   5.852  13.163  1.00  0.00     0.006 C 
BRANCH   5   6
ATOM      6  C   UNL     1       5.277   6.802  14.352  1.00  0.00     0.053 C 
BRANCH   6   7
ATOM      7  C   UNL     1       5.855   8.117  13.926  1.00  0.00     0.041 C 
ATOM      8  O   UNL     1       7.092   8.227  13.717  1.00  0.00    -0.550 OA
ATOM      9  O   UNL     1       5.032   9.228  13.791  1.00  0.00    -0.550 OA
ENDBRANCH   6   7
ENDBRANCH   5   6
ENDBRANCH   4   5
ENDBRANCH   3   4
ENDBRANCH   2   3
ENDBRANCH   1   2
BRANCH   1  10
ATOM     10  C   UNL     1       2.934   4.354  17.490  1.00  0.00     0.000 C 
BRANCH  10  11
ATOM     11  C   UNL     1       2.834   4.268  19.017  1.00  0.00    -0.000 C 
BRANCH  11  12
ATOM     12  C   UNL     1       2.342   5.593  19.613  1.00  0.00    -0.000 C 
BRANCH  12  13
ATOM     13  C   UNL     1       2.298   6.694  18.546  1.00  0.00    -0.000 C 
BRANCH  13  14
ATOM     14  C   UNL     1       2.020   8.064  19.181  1.00  0.00    -0.000 C 
BRANCH  14  15
ATOM     15  C   UNL     1       2.725   9.212  18.442  1.00  0.00    -0.003 C 
ATOM     16  C   UNL     1       3.404   8.755  17.150  1.00  0.00     0.004 C 
ENDBRANCH  14  15
ENDBRANCH  13  14
ENDBRANCH  12  13
ENDBRANCH  11  12
ENDBRANCH  10  11
ENDBRANCH   1  10
TORSDOF 12
ENDMDL
MODEL 2
REMARK VINA RESULT:    -6.035      3.145      5.033
REMARK INTER + INTRA:         -11.244
REMARK INTER:                 -10.314
REMARK INTRA:                  -0.930
REMARK UNBOUND:                -0.975
REMARK SMILES CCCCCCCCCCCCCC(=O)[O-]
REMARK SMILES IDX 8 1 9 2 10 3 11 4 12 5 13 6 14 7 15 8 16 9 7 10 6 11 5 12
REMARK SMILES IDX 4 13 3 14 2 15 1 16
REMARK H PARENT
REMARK Flexibility Score: inf
ROOT
ATOM      1  C   UNL     1       4.898   5.621  14.154  1.00  0.00     0.000 C 
ENDROOT
BRANCH   1   2
ATOM      2  C   UNL     1       4.485   4.454  13.245  1.00  0.00     0.000 C 
BRANCH   2   3
ATOM      3  C   UNL     1       3.737   3.348  14.006  1.00  0.00     0.000 C 
BRANCH   3   4
ATOM      4  C   UNL     1       2.818   3.900  15.106  1.00  0.00     0.000 C 
BRANCH   4   5
ATOM      5  C   UNL     1       3.273   3.423  16.492  1.00  0.00     0.006 C 
BRANCH   5   6
ATOM      6  C   UNL     1       2.968   4.450  17.590  1.00  0.00     0.053 C 
BRANCH   6   7
ATOM      7  C   UNL     1       2.893   3.812  18.944  1.00  0.00     0.041 C 
ATOM      8  O   UNL     1       2.340   4.418  19.899  1.00  0.00    -0.550 OA
ATOM      9  O   UNL     1       3.464   2.565  19.157  1.00  0.00    -0.550 OA
ENDBRANCH   6   7
ENDBRANCH   5   6
ENDBRANCH   4   5
ENDBRANCH   3   4
ENDBRANCH   2   3
ENDBRANCH   1   2
BRANCH   1  10
ATOM     10  C   UNL     1       5.387   6.815  13.326  1.00  0.00     0.000 C 
BRANCH  10  11
ATOM     11  C   UNL     1       5.284   8.119  14.125  1.00  0.00    -0.000 C 
BRANCH  11  12
ATOM     12  C   UNL     1       5.093   7.836  15.620  1.00  0.00    -0.000 C 
BRANCH  12  13
ATOM     13  C   UNL     1       4.109   8.830  16.248  1.00  0.00    -0.000 C 
BRANCH  13  14
ATOM     14  C   UNL     1       3.280   8.159  17.354  1.00  0.00    -0.000 C 
BRANCH  14  15
ATOM     15  C   UNL     1       2.573   9.176  18.262  1.00  0.00    -0.003 C 
ATOM     16  C   UNL     1       2.080   8.558  19.571  1.00  0.00     0.004 C 
ENDBRANCH  14  15
ENDBRANCH  13  14
ENDBRANCH  12  13
ENDBRANCH  11  12
ENDBRANCH  10  11
ENDBRANCH   1  10
TORSDOF 12
ENDMDL
MODEL 3
REMARK VINA RESULT:    -5.957      2.429      5.129
REMARK INTER + INTRA:         -11.110
REMARK INTER:                  -9.938
REMARK INTRA:                  -1.173
REMARK UNBOUND:                -0.975
REMARK SMILES CCCCCCCCCCCCCC(=O)[O-]
REMARK SMILES IDX 8 1 9 2 10 3 11 4 12 5 13 6 14 7 15 8 16 9 7 10 6 11 5 12
REMARK SMILES IDX 4 13 3 14 2 15 1 16
REMARK H PARENT
REMARK Flexibility Score: inf
ROOT
ATOM      1  C   UNL     1       5.233   6.038  13.810  1.00  0.00     0.000 C 
ENDROOT
BRANCH   1   2
ATOM      2  C   UNL     1       5.331   7.515  13.401  1.00  0.00     0.000 C 
BRANCH   2   3
ATOM      3  C   UNL     1       5.176   8.471  14.594  1.00  0.00     0.000 C 
BRANCH   3   4
ATOM      4  C   UNL     1       4.620   7.774  15.845  1.00  0.00     0.000 C 
BRANCH   4   5
ATOM      5  C   UNL     1       3.805   8.753  16.702  1.00  0.00     0.006 C 
BRANCH   5   6
ATOM      6  C   UNL     1       2.974   8.035  17.774  1.00  0.00     0.053 C 
BRANCH   6   7
ATOM      7  C   UNL     1       2.310   9.004  18.704  1.00  0.00     0.041 C 
ATOM      8  O   UNL     1       1.837  10.084  18.262  1.00  0.00    -0.550 OA
ATOM      9  O   UNL     1       2.242   8.729  20.064  1.00  0.00    -0.550 OA
ENDBRANCH   6   7
ENDBRANCH   5   6
ENDBRANCH   4   5
ENDBRANCH   3   4
ENDBRANCH   2   3
ENDBRANCH   1   2
BRANCH   1  10
ATOM     10  C   UNL     1       4.167   5.309  12.985  1.00  0.00     0.000 C 
BRANCH  10  11
ATOM     11  C   UNL     1       3.553   4.149  13.778  1.00  0.00    -0.000 C 
BRANCH  11  12
ATOM     12  C   UNL     1       4.108   4.104  15.207  1.00  0.00    -0.000 C 
BRANCH  12  13
ATOM     13  C   UNL     1       2.997   4.337  16.238  1.00  0.00    -0.000 C 
BRANCH  13  14
ATOM     14  C   UNL     1       3.220   3.477  17.491  1.00  0.00    -0.000 C 
BRANCH  14  15
ATOM     15  C   UNL     1       2.180   3.751  18.588  1.00  0.00    -0.003 C 
ATOM     16  C   UNL     1       2.604   4.871  19.539  1.00  0.00     0.004 C 
ENDBRANCH  14  15
ENDBRANCH  13  14
ENDBRANCH  12  13
ENDBRANCH  11  12
ENDBRANCH  10  11
ENDBRANCH   1  10
TORSDOF 12
ENDMDL
MODEL 4
REMARK VINA RESULT:    -5.854      2.169      5.184
REMARK INTER + INTRA:         -10.936
REMARK INTER:                  -9.714
REMARK INTRA:                  -1.222
REMARK UNBOUND:                -0.975
REMARK SMILES CCCCCCCCCCCCCC(=O)[O-]
REMARK SMILES IDX 8 1 9 2 10 3 11 4 12 5 13 6 14 7 15 8 16 9 7 10 6 11 5 12
REMARK SMILES IDX 4 13 3 14 2 15 1 16
REMARK H PARENT
REMARK Flexibility Score: inf
ROOT
ATOM      1  C   UNL     1       2.095   8.335  19.652  1.00  0.00     0.000 C 
ENDROOT
BRANCH   1   2
ATOM      2  C   UNL     1       1.905   7.057  18.822  1.00  0.00     0.000 C 
BRANCH   2   3
ATOM      3  C   UNL     1       2.371   5.795  19.564  1.00  0.00     0.000 C 
BRANCH   3   4
ATOM      4  C   UNL     1       2.776   4.660  18.611  1.00  0.00     0.000 C 
BRANCH   4   5
ATOM      5  C   UNL     1       2.951   5.184  17.178  1.00  0.00     0.006 C 
BRANCH   5   6
ATOM      6  C   UNL     1       2.725   4.089  16.127  1.00  0.00     0.053 C 
BRANCH   6   7
ATOM      7  C   UNL     1       3.970   3.804  15.344  1.00  0.00     0.041 C 
ATOM      8  O   UNL     1       4.351   4.602  14.447  1.00  0.00    -0.550 OA
ATOM      9  O   UNL     1       4.690   2.641  15.582  1.00  0.00    -0.550 OA
ENDBRANCH   6   7
ENDBRANCH   5   6
ENDBRANCH   4   5
ENDBRANCH   3   4
ENDBRANCH   2   3
ENDBRANCH   1   2
BRANCH   1  10
ATOM     10  C   UNL     1       2.874   9.393  18.862  1.00  0.00     0.000 C 
BRANCH  10  11
ATOM     11  C   UNL     1       2.983   9.007  17.382  1.00  0.00    -0.000 C 
BRANCH  11  12
ATOM     12  C   UNL     1       4.449   8.846  16.961  1.00  0.00    -0.000 C 
BRANCH  12  13
ATOM     13  C   UNL     1       4.562   8.069  15.643  1.00  0.00    -0.000 C 
BRANCH  13  14
ATOM     14  C   UNL     1       5.999   7.577  15.417  1.00  0.00    -0.000 C 
BRANCH  14  15
ATOM     15  C   UNL     1       6.384   7.541  13.930  1.00  0.00    -0.003 C 
ATOM     16  C   UNL     1       5.968   8.808  13.181  1.00  0.00     0.004 C 
ENDBRANCH  14  15
ENDBRANCH  13  14
ENDBRANCH  12  13
ENDBRANCH  11  12
ENDBRANCH  10  11
ENDBRANCH   1  10
TORSDOF 12
ENDMDL
MODEL 5
REMARK VINA RESULT:    -5.767      2.574      5.945
REMARK INTER + INTRA:         -10.787
REMARK INTER:                  -9.971
REMARK INTRA:                  -0.817
REMARK UNBOUND:                -0.975
REMARK SMILES CCCCCCCCCCCCCC(=O)[O-]
REMARK SMILES IDX 8 1 9 2 10 3 11 4 12 5 13 6 14 7 15 8 16 9 7 10 6 11 5 12
REMARK SMILES IDX 4 13 3 14 2 15 1 16
REMARK H PARENT
REMARK Flexibility Score: inf
ROOT
ATOM      1  C   UNL     1       2.682   9.167  18.785  1.00  0.00     0.000 C 
ENDROOT
BRANCH   1   2
ATOM      2  C   UNL     1       2.054   8.012  19.578  1.00  0.00     0.000 C 
BRANCH   2   3
ATOM      3  C   UNL     1       2.092   6.679  18.815  1.00  0.00     0.000 C 
BRANCH   3   4
ATOM      4  C   UNL     1       2.450   5.489  19.717  1.00  0.00     0.000 C 
BRANCH   4   5
ATOM      5  C   UNL     1       2.611   4.204  18.892  1.00  0.00     0.006 C 
BRANCH   5   6
ATOM      6  C   UNL     1       2.595   4.477  17.382  1.00  0.00     0.053 C 
BRANCH   6   7
ATOM      7  C   UNL     1       3.372   3.445  16.622  1.00  0.00     0.041 C 
ATOM      8  O   UNL     1       3.894   3.734  15.513  1.00  0.00    -0.550 OA
ATOM      9  O   UNL     1       3.490   2.155  17.123  1.00  0.00    -0.550 OA
ENDBRANCH   6   7
ENDBRANCH   5   6
ENDBRANCH   4   5
ENDBRANCH   3   4
ENDBRANCH   2   3
ENDBRANCH   1   2
BRANCH   1  10
ATOM     10  C   UNL     1       2.958   8.752  17.335  1.00  0.00     0.000 C 
BRANCH  10  11
ATOM     11  C   UNL     1       4.457   8.805  17.021  1.00  0.00    -0.000 C 
BRANCH  11  12
ATOM     12  C   UNL     1       4.725   8.471  15.549  1.00  0.00    -0.000 C 
BRANCH  12  13
ATOM     13  C   UNL     1       5.903   7.499  15.409  1.00  0.00    -0.000 C 
BRANCH  13  14
ATOM     14  C   UNL     1       6.571   7.640  14.034  1.00  0.00    -0.000 C 
BRANCH  14  15
ATOM     15  C   UNL     1       5.613   7.323  12.875  1.00  0.00    -0.003 C 
ATOM     16  C   UNL     1       5.031   5.912  12.959  1.00  0.00     0.004 C 
ENDBRANCH  14  15
ENDBRANCH  13  14
ENDBRANCH  12  13
ENDBRANCH  11  12
ENDBRANCH  10  11
ENDBRANCH   1  10
TORSDOF 12
ENDMDL
MODEL 6
REMARK VINA RESULT:    -5.622      2.370      5.299
REMARK INTER + INTRA:         -10.540
REMARK INTER:                  -9.761
REMARK INTRA:                  -0.779
REMARK UNBOUND:                -0.975
REMARK SMILES CCCCCCCCCCCCCC(=O)[O-]
REMARK SMILES IDX 8 1 9 2 10 3 11 4 12 5 13 6 14 7 15 8 16 9 7 10 6 11 5 12
REMARK SMILES IDX 4 13 3 14 2 15 1 16
REMARK H PARENT
REMARK Flexibility Score: inf
ROOT
ATOM      1  C   UNL     1       2.813   2.916  16.588  1.00  0.00     0.000 C 
ENDROOT
BRANCH   1   2
ATOM      2  C   UNL     1       3.459   2.820  17.978  1.00  0.00     0.000 C 
BRANCH   2   3
ATOM      3  C   UNL     1       2.925   3.879  18.954  1.00  0.00     0.000 C 
BRANCH   3   4
ATOM      4  C   UNL     1       2.231   5.048  18.239  1.00  0.00     0.000 C 
BRANCH   4   5
ATOM      5  C   UNL     1       2.312   6.331  19.079  1.00  0.00     0.006 C 
BRANCH   5   6
ATOM      6  C   UNL     1       2.554   7.577  18.217  1.00  0.00     0.053 C 
BRANCH   6   7
ATOM      7  C   UNL     1       2.222   8.838  18.955  1.00  0.00     0.041 C 
ATOM      8  O   UNL     1       1.950   9.891  18.320  1.00  0.00    -0.550 OA
ATOM      9  O   UNL     1       2.246   8.858  20.343  1.00  0.00    -0.550 OA
ENDBRANCH   6   7
ENDBRANCH   5   6
ENDBRANCH   4   5
ENDBRANCH   3   4
ENDBRANCH   2   3
ENDBRANCH   1   2
BRANCH   1  10
ATOM     10  C   UNL     1       3.875   3.122  15.502  1.00  0.00     0.000 C 
BRANCH  10  11
ATOM     11  C   UNL     1       3.482   4.263  14.556  1.00  0.00    -0.000 C 
BRANCH  11  12
ATOM     12  C   UNL     1       4.455   4.360  13.375  1.00  0.00    -0.000 C 
BRANCH  12  13
ATOM     13  C   UNL     1       4.892   5.810  13.137  1.00  0.00    -0.000 C 
BRANCH  13  14
ATOM     14  C   UNL     1       5.210   6.513  14.466  1.00  0.00    -0.000 C 
BRANCH  14  15
ATOM     15  C   UNL     1       6.098   7.752  14.281  1.00  0.00    -0.003 C 
ATOM     16  C   UNL     1       5.499   8.769  13.308  1.00  0.00     0.004 C 
ENDBRANCH  14  15
ENDBRANCH  13  14
ENDBRANCH  12  13
ENDBRANCH  11  12
ENDBRANCH  10  11
ENDBRANCH   1  10
TORSDOF 12
ENDMDL
MODEL 7
REMARK VINA RESULT:    -5.609      3.149      6.573
REMARK INTER + INTRA:         -10.519
REMARK INTER:                  -9.507
REMARK INTRA:                  -1.012
REMARK UNBOUND:                -0.975
REMARK SMILES CCCCCCCCCCCCCC(=O)[O-]
REMARK SMILES IDX 8 1 9 2 10 3 11 4 12 5 13 6 14 7 15 8 16 9 7 10 6 11 5 12
REMARK SMILES IDX 4 13 3 14 2 15 1 16
REMARK H PARENT
REMARK Flexibility Score: inf
ROOT
ATOM      1  C   UNL     1       4.968   8.423  16.017  1.00  0.00     0.000 C 
ENDROOT
BRANCH   1   2
ATOM      2  C   UNL     1       3.773   7.675  16.626  1.00  0.00     0.000 C 
BRANCH   2   3
ATOM      3  C   UNL     1       3.020   8.512  17.670  1.00  0.00     0.000 C 
BRANCH   3   4
ATOM      4  C   UNL     1       2.283   7.648  18.705  1.00  0.00     0.000 C 
BRANCH   4   5
ATOM      5  C   UNL     1       2.325   6.165  18.311  1.00  0.00     0.006 C 
BRANCH   5   6
ATOM      6  C   UNL     1       2.423   5.241  19.532  1.00  0.00     0.053 C 
BRANCH   6   7
ATOM      7  C   UNL     1       2.440   3.796  19.137  1.00  0.00     0.041 C 
ATOM      8  O   UNL     1       1.859   2.937  19.851  1.00  0.00    -0.550 OA
ATOM      9  O   UNL     1       3.125   3.395  17.998  1.00  0.00    -0.550 OA
ENDBRANCH   6   7
ENDBRANCH   5   6
ENDBRANCH   4   5
ENDBRANCH   3   4
ENDBRANCH   2   3
ENDBRANCH   1   2
BRANCH   1  10
ATOM     10  C   UNL     1       5.672   7.567  14.958  1.00  0.00     0.000 C 
BRANCH  10  11
ATOM     11  C   UNL     1       4.950   6.228  14.763  1.00  0.00    -0.000 C 
BRANCH  11  12
ATOM     12  C   UNL     1       4.929   5.825  13.283  1.00  0.00    -0.000 C 
BRANCH  12  13
ATOM     13  C   UNL     1       3.983   4.640  13.048  1.00  0.00    -0.000 C 
BRANCH  13  14
ATOM     14  C   UNL     1       3.469   4.075  14.381  1.00  0.00    -0.000 C 
BRANCH  14  15
ATOM     15  C   UNL     1       3.759   2.574  14.537  1.00  0.00    -0.003 C 
ATOM     16  C   UNL     1       4.832   2.075  13.569  1.00  0.00     0.004 C 
ENDBRANCH  14  15
ENDBRANCH  13  14
ENDBRANCH  12  13
ENDBRANCH  11  12
ENDBRANCH  10  11
ENDBRANCH   1  10
TORSDOF 12
ENDMDL
MODEL 8
REMARK VINA RESULT:    -5.558      2.969      4.771
REMARK INTER + INTRA:         -10.432
REMARK INTER:                  -9.169
REMARK INTRA:                  -1.262
REMARK UNBOUND:                -0.975
REMARK SMILES CCCCCCCCCCCCCC(=O)[O-]
REMARK SMILES IDX 8 1 9 2 10 3 11 4 12 5 13 6 14 7 15 8 16 9 7 10 6 11 5 12
REMARK SMILES IDX 4 13 3 14 2 15 1 16
REMARK H PARENT
REMARK Flexibility Score: inf
ROOT
ATOM      1  C   UNL     1       5.297   8.078  14.099  1.00  0.00     0.000 C 
ENDROOT
BRANCH   1   2
ATOM      2  C   UNL     1       5.699   6.721  13.502  1.00  0.00     0.000 C 
BRANCH   2   3
ATOM      3  C   UNL     1       4.505   5.957  12.909  1.00  0.00     0.000 C 
BRANCH   3   4
ATOM      4  C   UNL     1       4.496   4.472  13.304  1.00  0.00     0.000 C 
BRANCH   4   5
ATOM      5  C   UNL     1       3.385   4.183  14.324  1.00  0.00     0.006 C 
BRANCH   5   6
ATOM      6  C   UNL     1       3.940   3.649  15.652  1.00  0.00     0.053 C 
BRANCH   6   7
ATOM      7  C   UNL     1       3.414   2.282  15.965  1.00  0.00     0.041 C 
ATOM      8  O   UNL     1       3.975   1.573  16.841  1.00  0.00    -0.550 OA
ATOM      9  O   UNL     1       2.325   1.778  15.266  1.00  0.00    -0.550 OA
ENDBRANCH   6   7
ENDBRANCH   5   6
ENDBRANCH   4   5
ENDBRANCH   3   4
ENDBRANCH   2   3
ENDBRANCH   1   2
BRANCH   1  10
ATOM     10  C   UNL     1       5.395   8.056  15.628  1.00  0.00     0.000 C 
BRANCH  10  11
ATOM     11  C   UNL     1       4.116   7.489  16.256  1.00  0.00    -0.000 C 
BRANCH  11  12
ATOM     12  C   UNL     1       3.457   8.514  17.186  1.00  0.00    -0.000 C 
BRANCH  12  13
ATOM     13  C   UNL     1       2.612   7.819  18.262  1.00  0.00    -0.000 C 
BRANCH  13  14
ATOM     14  C   UNL     1       2.529   6.308  18.004  1.00  0.00    -0.000 C 
BRANCH  14  15
ATOM     15  C   UNL     1       2.253   5.504  19.283  1.00  0.00    -0.003 C 
ATOM     16  C   UNL     1       2.914   4.126  19.271  1.00  0.00     0.004 C 
ENDBRANCH  14  15
ENDBRANCH  13  14
ENDBRANCH  12  13
ENDBRANCH  11  12
ENDBRANCH  10  11
ENDBRANCH   1  10
TORSDOF 12
ENDMDL
MODEL 9
REMARK VINA RESULT:    -5.433      1.282      4.702
REMARK INTER + INTRA:         -10.220
REMARK INTER:                  -9.234
REMARK INTRA:                  -0.985
REMARK UNBOUND:                -0.975
REMARK SMILES CCCCCCCCCCCCCC(=O)[O-]
REMARK SMILES IDX 8 1 9 2 10 3 11 4 12 5 13 6 14 7 15 8 16 9 7 10 6 11 5 12
REMARK SMILES IDX 4 13 3 14 2 15 1 16
REMARK H PARENT
REMARK Flexibility Score: inf
ROOT
ATOM      1  C   UNL     1       2.489   5.403  19.663  1.00  0.00     0.000 C 
ENDROOT
BRANCH   1   2
ATOM      2  C   UNL     1       2.233   6.347  18.479  1.00  0.00     0.000 C 
BRANCH   2   3
ATOM      3  C   UNL     1       2.242   7.827  18.888  1.00  0.00     0.000 C 
BRANCH   3   4
ATOM      4  C   UNL     1       2.888   8.732  17.828  1.00  0.00     0.000 C 
BRANCH   4   5
ATOM      5  C   UNL     1       3.715   7.907  16.832  1.00  0.00     0.006 C 
BRANCH   5   6
ATOM      6  C   UNL     1       4.459   8.790  15.821  1.00  0.00     0.053 C 
BRANCH   6   7
ATOM      7  C   UNL     1       5.227   7.973  14.827  1.00  0.00     0.041 C 
ATOM      8  O   UNL     1       6.070   7.125  15.222  1.00  0.00    -0.550 OA
ATOM      9  O   UNL     1       5.035   8.172  13.466  1.00  0.00    -0.550 OA
ENDBRANCH   6   7
ENDBRANCH   5   6
ENDBRANCH   4   5
ENDBRANCH   3   4
ENDBRANCH   2   3
ENDBRANCH   1   2
BRANCH   1  10
ATOM     10  C   UNL     1       2.963   4.029  19.178  1.00  0.00     0.000 C 
BRANCH  10  11
ATOM     11  C   UNL     1       2.344   3.679  17.820  1.00  0.00    -0.000 C 
BRANCH  11  12
ATOM     12  C   UNL     1       3.426   3.285  16.807  1.00  0.00    -0.000 C 
BRANCH  12  13
ATOM     13  C   UNL     1       3.480   4.282  15.643  1.00  0.00    -0.000 C 
BRANCH  13  14
ATOM     14  C   UNL     1       3.595   3.551  14.297  1.00  0.00    -0.000 C 
BRANCH  14  15
ATOM     15  C   UNL     1       4.561   2.357  14.354  1.00  0.00    -0.003 C 
ATOM     16  C   UNL     1       4.480   1.472  13.110  1.00  0.00     0.004 C 
ENDBRANCH  14  15
ENDBRANCH  13  14
ENDBRANCH  12  13
ENDBRANCH  11  12
ENDBRANCH  10  11
ENDBRANCH   1  10
TORSDOF 12
ENDMDL
