MODEL 1
REMARK VINA RESULT:    -6.084      0.000      0.000
REMARK INTER + INTRA:         -19.345
REMARK INTER:                 -15.332
REMARK INTRA:                  -4.013
REMARK UNBOUND:                -4.013
REMARK SMILES CCCCCCCCCCCCCCCCCCCCCCCCCCCC(=O)[O-]
REMARK SMILES IDX 15 1 16 2 17 3 18 4 19 5 20 6 21 7 22 8 23 9 24 10 25 11
REMARK SMILES IDX 26 12 27 13 28 14 29 15 30 16 14 17 13 18 12 19 11 20 10 21
REMARK SMILES IDX 9 22 8 23 7 24 6 25 5 26 4 27 3 28 2 29 1 30
REMARK H PARENT
REMARK Flexibility Score: inf
ROOT
ATOM      1  C   UNL     1     137.996 138.483 114.619  1.00  0.00     0.000 C 
ENDROOT
BRANCH   1   2
ATOM      2  C   UNL     1     136.822 137.610 114.142  1.00  0.00     0.000 C 
BRANCH   2   3
ATOM      3  C   UNL     1     136.971 137.180 112.673  1.00  0.00     0.000 C 
BRANCH   3   4
ATOM      4  C   UNL     1     135.610 136.943 111.991  1.00  0.00     0.000 C 
BRANCH   4   5
ATOM      5  C   UNL     1     134.385 137.256 112.881  1.00  0.00     0.000 C 
BRANCH   5   6
ATOM      6  C   UNL     1     133.145 136.365 112.645  1.00  0.00     0.000 C 
BRANCH   6   7
ATOM      7  C   UNL     1     132.509 135.782 113.923  1.00  0.00     0.000 C 
BRANCH   7   8
ATOM      8  C   UNL     1     133.533 135.567 115.050  1.00  0.00     0.000 C 
BRANCH   8   9
ATOM      9  C   UNL     1     133.920 134.089 115.236  1.00  0.00     0.000 C 
BRANCH   9  10
ATOM     10  C   UNL     1     135.157 133.658 114.417  1.00  0.00     0.000 C 
BRANCH  10  11
ATOM     11  C   UNL     1     136.470 134.144 115.056  1.00  0.00     0.000 C 
BRANCH  11  12
ATOM     12  C   UNL     1     136.456 134.089 116.595  1.00  0.00     0.006 C 
BRANCH  12  13
ATOM     13  C   UNL     1     136.892 135.398 117.276  1.00  0.00     0.053 C 
BRANCH  13  14
ATOM     14  C   UNL     1     136.068 135.725 118.485  1.00  0.00     0.041 C 
ATOM     15  O   UNL     1     134.875 136.115 118.355  1.00  0.00    -0.550 OA
ATOM     16  O   UNL     1     136.626 135.630 119.754  1.00  0.00    -0.550 OA
ENDBRANCH  13  14
ENDBRANCH  12  13
ENDBRANCH  11  12
ENDBRANCH  10  11
ENDBRANCH   9  10
ENDBRANCH   8   9
ENDBRANCH   7   8
ENDBRANCH   6   7
ENDBRANCH   5   6
ENDBRANCH   4   5
ENDBRANCH   3   4
ENDBRANCH   2   3
ENDBRANCH   1   2
BRANCH   1  17
ATOM     17  C   UNL     1     138.757 139.203 113.485  1.00  0.00     0.000 C 
BRANCH  17  18
ATOM     18  C   UNL     1     140.297 139.126 113.568  1.00  0.00     0.000 C 
BRANCH  18  19
ATOM     19  C   UNL     1     141.044 139.584 112.299  1.00  0.00     0.000 C 
BRANCH  19  20
ATOM     20  C   UNL     1     142.519 139.974 112.523  1.00  0.00     0.000 C 
BRANCH  20  21
ATOM     21  C   UNL     1     142.912 140.192 113.999  1.00  0.00     0.000 C 
BRANCH  21  22
ATOM     22  C   UNL     1     143.623 141.529 114.292  1.00  0.00    -0.000 C 
BRANCH  22  23
ATOM     23  C   UNL     1     142.779 142.561 115.068  1.00  0.00    -0.000 C 
BRANCH  23  24
ATOM     24  C   UNL     1     141.783 143.370 114.210  1.00  0.00    -0.000 C 
BRANCH  24  25
ATOM     25  C   UNL     1     140.320 142.895 114.287  1.00  0.00    -0.000 C 
BRANCH  25  26
ATOM     26  C   UNL     1     139.777 142.877 115.726  1.00  0.00    -0.000 C 
BRANCH  26  27
ATOM     27  C   UNL     1     139.482 141.455 116.237  1.00  0.00    -0.000 C 
BRANCH  27  28
ATOM     28  C   UNL     1     139.896 141.178 117.697  1.00  0.00    -0.000 C 
BRANCH  28  29
ATOM     29  C   UNL     1     141.222 140.413 117.862  1.00  0.00    -0.003 C 
ATOM     30  C   UNL     1     141.744 140.434 119.300  1.00  0.00     0.004 C 
ENDBRANCH  28  29
ENDBRANCH  27  28
ENDBRANCH  26  27
ENDBRANCH  25  26
ENDBRANCH  24  25
ENDBRANCH  23  24
ENDBRANCH  22  23
ENDBRANCH  21  22
ENDBRANCH  20  21
ENDBRANCH  19  20
ENDBRANCH  18  19
ENDBRANCH  17  18
ENDBRANCH   1  17
TORSDOF 26
ENDMDL
MODEL 2
REMARK VINA RESULT:    -6.034      1.976      8.529
REMARK INTER + INTRA:         -19.220
REMARK INTER:                 -15.016
REMARK INTRA:                  -4.204
REMARK UNBOUND:                -4.013
REMARK SMILES CCCCCCCCCCCCCCCCCCCCCCCCCCCC(=O)[O-]
REMARK SMILES IDX 15 1 16 2 17 3 18 4 19 5 20 6 21 7 22 8 23 9 24 10 25 11
REMARK SMILES IDX 26 12 27 13 28 14 29 15 30 16 14 17 13 18 12 19 11 20 10 21
REMARK SMILES IDX 9 22 8 23 7 24 6 25 5 26 4 27 3 28 2 29 1 30
REMARK H PARENT
REMARK Flexibility Score: inf
ROOT
ATOM      1  C   UNL     1     138.058 138.227 114.540  1.00  0.00     0.000 C 
ENDROOT
BRANCH   1   2
ATOM      2  C   UNL     1     138.727 139.228 113.581  1.00  0.00     0.000 C 
BRANCH   2   3
ATOM      3  C   UNL     1     140.153 138.802 113.190  1.00  0.00     0.000 C 
BRANCH   3   4
ATOM      4  C   UNL     1     140.557 139.319 111.797  1.00  0.00     0.000 C 
BRANCH   4   5
ATOM      5  C   UNL     1     142.012 139.835 111.702  1.00  0.00     0.000 C 
BRANCH   5   6
ATOM      6  C   UNL     1     142.170 141.368 111.600  1.00  0.00     0.000 C 
BRANCH   6   7
ATOM      7  C   UNL     1     140.929 142.181 112.020  1.00  0.00     0.000 C 
BRANCH   7   8
ATOM      8  C   UNL     1     140.945 142.559 113.511  1.00  0.00     0.000 C 
BRANCH   8   9
ATOM      9  C   UNL     1     142.348 142.936 114.020  1.00  0.00     0.000 C 
BRANCH   9  10
ATOM     10  C   UNL     1     142.755 142.217 115.325  1.00  0.00     0.000 C 
BRANCH  10  11
ATOM     11  C   UNL     1     142.808 140.689 115.149  1.00  0.00     0.000 C 
BRANCH  11  12
ATOM     12  C   UNL     1     141.986 139.923 116.202  1.00  0.00     0.006 C 
BRANCH  12  13
ATOM     13  C   UNL     1     140.707 140.649 116.653  1.00  0.00     0.053 C 
BRANCH  13  14
ATOM     14  C   UNL     1     140.606 140.775 118.144  1.00  0.00     0.041 C 
ATOM     15  O   UNL     1     141.609 140.533 118.872  1.00  0.00    -0.550 OA
ATOM     16  O   UNL     1     139.398 141.127 118.732  1.00  0.00    -0.550 OA
ENDBRANCH  13  14
ENDBRANCH  12  13
ENDBRANCH  11  12
ENDBRANCH  10  11
ENDBRANCH   9  10
ENDBRANCH   8   9
ENDBRANCH   7   8
ENDBRANCH   6   7
ENDBRANCH   5   6
ENDBRANCH   4   5
ENDBRANCH   3   4
ENDBRANCH   2   3
ENDBRANCH   1   2
BRANCH   1  17
ATOM     17  C   UNL     1     136.734 137.629 114.016  1.00  0.00     0.000 C 
BRANCH  17  18
ATOM     18  C   UNL     1     136.854 136.790 112.725  1.00  0.00     0.000 C 
BRANCH  18  19
ATOM     19  C   UNL     1     135.589 136.765 111.843  1.00  0.00     0.000 C 
BRANCH  19  20
ATOM     20  C   UNL     1     134.363 137.476 112.451  1.00  0.00     0.000 C 
BRANCH  20  21
ATOM     21  C   UNL     1     133.209 136.538 112.859  1.00  0.00     0.000 C 
BRANCH  21  22
ATOM     22  C   UNL     1     133.245 136.063 114.326  1.00  0.00    -0.000 C 
BRANCH  22  23
ATOM     23  C   UNL     1     133.302 134.533 114.515  1.00  0.00    -0.000 C 
BRANCH  23  24
ATOM     24  C   UNL     1     134.235 133.787 113.538  1.00  0.00    -0.000 C 
BRANCH  24  25
ATOM     25  C   UNL     1     135.623 133.433 114.106  1.00  0.00    -0.000 C 
BRANCH  25  26
ATOM     26  C   UNL     1     135.746 133.738 115.608  1.00  0.00    -0.000 C 
BRANCH  26  27
ATOM     27  C   UNL     1     136.969 134.611 115.944  1.00  0.00    -0.000 C 
BRANCH  27  28
ATOM     28  C   UNL     1     136.783 135.580 117.130  1.00  0.00    -0.000 C 
BRANCH  28  29
ATOM     29  C   UNL     1     136.109 134.965 118.370  1.00  0.00    -0.003 C 
ATOM     30  C   UNL     1     135.038 135.874 118.975  1.00  0.00     0.004 C 
ENDBRANCH  28  29
ENDBRANCH  27  28
ENDBRANCH  26  27
ENDBRANCH  25  26
ENDBRANCH  24  25
ENDBRANCH  23  24
ENDBRANCH  22  23
ENDBRANCH  21  22
ENDBRANCH  20  21
ENDBRANCH  19  20
ENDBRANCH  18  19
ENDBRANCH  17  18
ENDBRANCH   1  17
TORSDOF 26
ENDMDL
MODEL 3
REMARK VINA RESULT:    -5.817      1.128      2.238
REMARK INTER + INTRA:         -18.673
REMARK INTER:                 -14.742
REMARK INTRA:                  -3.931
REMARK UNBOUND:                -4.013
REMARK SMILES CCCCCCCCCCCCCCCCCCCCCCCCCCCC(=O)[O-]
REMARK SMILES IDX 15 1 16 2 17 3 18 4 19 5 20 6 21 7 22 8 23 9 24 10 25 11
REMARK SMILES IDX 26 12 27 13 28 14 29 15 30 16 14 17 13 18 12 19 11 20 10 21
REMARK SMILES IDX 9 22 8 23 7 24 6 25 5 26 4 27 3 28 2 29 1 30
REMARK H PARENT
REMARK Flexibility Score: inf
ROOT
ATOM      1  C   UNL     1     138.043 138.642 114.702  1.00  0.00     0.000 C 
ENDROOT
BRANCH   1   2
ATOM      2  C   UNL     1     138.105 137.280 113.985  1.00  0.00     0.000 C 
BRANCH   2   3
ATOM      3  C   UNL     1     136.841 136.997 113.155  1.00  0.00     0.000 C 
BRANCH   3   4
ATOM      4  C   UNL     1     135.548 137.258 113.951  1.00  0.00     0.000 C 
BRANCH   4   5
ATOM      5  C   UNL     1     134.246 136.986 113.163  1.00  0.00     0.000 C 
BRANCH   5   6
ATOM      6  C   UNL     1     134.410 136.157 111.870  1.00  0.00     0.000 C 
BRANCH   6   7
ATOM      7  C   UNL     1     134.350 134.628 112.064  1.00  0.00     0.000 C 
BRANCH   7   8
ATOM      8  C   UNL     1     133.522 134.220 113.294  1.00  0.00     0.000 C 
BRANCH   8   9
ATOM      9  C   UNL     1     134.347 133.463 114.350  1.00  0.00     0.000 C 
BRANCH   9  10
ATOM     10  C   UNL     1     135.873 133.529 114.117  1.00  0.00     0.000 C 
BRANCH  10  11
ATOM     11  C   UNL     1     136.648 133.732 115.432  1.00  0.00     0.000 C 
BRANCH  11  12
ATOM     12  C   UNL     1     135.865 134.536 116.485  1.00  0.00     0.006 C 
BRANCH  12  13
ATOM     13  C   UNL     1     136.751 135.282 117.497  1.00  0.00     0.053 C 
BRANCH  13  14
ATOM     14  C   UNL     1     135.999 135.714 118.720  1.00  0.00     0.041 C 
ATOM     15  O   UNL     1     136.558 135.692 119.851  1.00  0.00    -0.550 OA
ATOM     16  O   UNL     1     134.672 136.110 118.616  1.00  0.00    -0.550 OA
ENDBRANCH  13  14
ENDBRANCH  12  13
ENDBRANCH  11  12
ENDBRANCH  10  11
ENDBRANCH   9  10
ENDBRANCH   8   9
ENDBRANCH   7   8
ENDBRANCH   6   7
ENDBRANCH   5   6
ENDBRANCH   4   5
ENDBRANCH   3   4
ENDBRANCH   2   3
ENDBRANCH   1   2
BRANCH   1  17
ATOM     17  C   UNL     1     138.995 139.710 114.122  1.00  0.00     0.000 C 
BRANCH  17  18
ATOM     18  C   UNL     1     139.417 139.492 112.652  1.00  0.00     0.000 C 
BRANCH  18  19
ATOM     19  C   UNL     1     140.324 140.592 112.063  1.00  0.00     0.000 C 
BRANCH  19  20
ATOM     20  C   UNL     1     141.251 140.122 110.924  1.00  0.00     0.000 C 
BRANCH  20  21
ATOM     21  C   UNL     1     142.743 140.028 111.304  1.00  0.00     0.000 C 
BRANCH  21  22
ATOM     22  C   UNL     1     143.019 139.752 112.796  1.00  0.00    -0.000 C 
BRANCH  22  23
ATOM     23  C   UNL     1     143.647 140.927 113.572  1.00  0.00    -0.000 C 
BRANCH  23  24
ATOM     24  C   UNL     1     143.021 141.208 114.955  1.00  0.00    -0.000 C 
BRANCH  24  25
ATOM     25  C   UNL     1     142.266 140.020 115.582  1.00  0.00    -0.000 C 
BRANCH  25  26
ATOM     26  C   UNL     1     141.705 140.342 116.977  1.00  0.00    -0.000 C 
BRANCH  26  27
ATOM     27  C   UNL     1     141.239 141.804 117.111  1.00  0.00    -0.000 C 
BRANCH  27  28
ATOM     28  C   UNL     1     139.803 142.086 116.619  1.00  0.00    -0.000 C 
BRANCH  28  29
ATOM     29  C   UNL     1     139.637 143.393 115.822  1.00  0.00    -0.003 C 
ATOM     30  C   UNL     1     140.238 143.311 114.418  1.00  0.00     0.004 C 
ENDBRANCH  28  29
ENDBRANCH  27  28
ENDBRANCH  26  27
ENDBRANCH  25  26
ENDBRANCH  24  25
ENDBRANCH  23  24
ENDBRANCH  22  23
ENDBRANCH  21  22
ENDBRANCH  20  21
ENDBRANCH  19  20
ENDBRANCH  18  19
ENDBRANCH  17  18
ENDBRANCH   1  17
TORSDOF 26
ENDMDL
MODEL 4
REMARK VINA RESULT:    -5.566      1.422      3.139
REMARK INTER + INTRA:         -18.039
REMARK INTER:                 -14.202
REMARK INTRA:                  -3.837
REMARK UNBOUND:                -4.013
REMARK SMILES CCCCCCCCCCCCCCCCCCCCCCCCCCCC(=O)[O-]
REMARK SMILES IDX 15 1 16 2 17 3 18 4 19 5 20 6 21 7 22 8 23 9 24 10 25 11
REMARK SMILES IDX 26 12 27 13 28 14 29 15 30 16 14 17 13 18 12 19 11 20 10 21
REMARK SMILES IDX 9 22 8 23 7 24 6 25 5 26 4 27 3 28 2 29 1 30
REMARK H PARENT
REMARK Flexibility Score: inf
ROOT
ATOM      1  C   UNL     1     137.324 137.757 112.066  1.00  0.00     0.000 C 
ENDROOT
BRANCH   1   2
ATOM      2  C   UNL     1     136.457 136.503 111.852  1.00  0.00     0.000 C 
BRANCH   2   3
ATOM      3  C   UNL     1     135.295 136.754 110.875  1.00  0.00     0.000 C 
BRANCH   3   4
ATOM      4  C   UNL     1     133.922 136.690 111.570  1.00  0.00     0.000 C 
BRANCH   4   5
ATOM      5  C   UNL     1     133.957 136.989 113.087  1.00  0.00     0.000 C 
BRANCH   5   6
ATOM      6  C   UNL     1     133.014 136.129 113.957  1.00  0.00     0.000 C 
BRANCH   6   7
ATOM      7  C   UNL     1     133.057 134.616 113.666  1.00  0.00     0.000 C 
BRANCH   7   8
ATOM      8  C   UNL     1     133.770 133.819 114.772  1.00  0.00     0.000 C 
BRANCH   8   9
ATOM      9  C   UNL     1     135.045 133.114 114.279  1.00  0.00     0.000 C 
BRANCH   9  10
ATOM     10  C   UNL     1     136.338 133.598 114.972  1.00  0.00     0.000 C 
BRANCH  10  11
ATOM     11  C   UNL     1     136.647 135.071 114.649  1.00  0.00     0.000 C 
BRANCH  11  12
ATOM     12  C   UNL     1     136.872 135.936 115.903  1.00  0.00     0.006 C 
BRANCH  12  13
ATOM     13  C   UNL     1     135.591 136.238 116.699  1.00  0.00     0.053 C 
BRANCH  13  14
ATOM     14  C   UNL     1     135.596 135.618 118.064  1.00  0.00     0.041 C 
ATOM     15  O   UNL     1     136.113 136.231 119.039  1.00  0.00    -0.550 OA
ATOM     16  O   UNL     1     135.060 134.350 118.255  1.00  0.00    -0.550 OA
ENDBRANCH  13  14
ENDBRANCH  12  13
ENDBRANCH  11  12
ENDBRANCH  10  11
ENDBRANCH   9  10
ENDBRANCH   8   9
ENDBRANCH   7   8
ENDBRANCH   6   7
ENDBRANCH   5   6
ENDBRANCH   4   5
ENDBRANCH   3   4
ENDBRANCH   2   3
ENDBRANCH   1   2
BRANCH   1  17
ATOM     17  C   UNL     1     138.380 137.997 110.965  1.00  0.00     0.000 C 
BRANCH  17  18
ATOM     18  C   UNL     1     139.476 139.028 111.313  1.00  0.00     0.000 C 
BRANCH  18  19
ATOM     19  C   UNL     1     139.367 139.647 112.721  1.00  0.00     0.000 C 
BRANCH  19  20
ATOM     20  C   UNL     1     140.278 139.001 113.784  1.00  0.00     0.000 C 
BRANCH  20  21
ATOM     21  C   UNL     1     140.119 139.576 115.206  1.00  0.00     0.000 C 
BRANCH  21  22
ATOM     22  C   UNL     1     139.505 140.989 115.272  1.00  0.00    -0.000 C 
BRANCH  22  23
ATOM     23  C   UNL     1     140.218 141.966 116.229  1.00  0.00    -0.000 C 
BRANCH  23  24
ATOM     24  C   UNL     1     141.535 142.565 115.691  1.00  0.00    -0.000 C 
BRANCH  24  25
ATOM     25  C   UNL     1     141.455 143.140 114.264  1.00  0.00    -0.000 C 
BRANCH  25  26
ATOM     26  C   UNL     1     142.377 142.405 113.276  1.00  0.00    -0.000 C 
BRANCH  26  27
ATOM     27  C   UNL     1     143.414 141.510 113.979  1.00  0.00    -0.000 C 
BRANCH  27  28
ATOM     28  C   UNL     1     143.773 140.206 113.235  1.00  0.00    -0.000 C 
BRANCH  28  29
ATOM     29  C   UNL     1     143.070 140.020 111.878  1.00  0.00    -0.003 C 
ATOM     30  C   UNL     1     143.328 138.644 111.261  1.00  0.00     0.004 C 
ENDBRANCH  28  29
ENDBRANCH  27  28
ENDBRANCH  26  27
ENDBRANCH  25  26
ENDBRANCH  24  25
ENDBRANCH  23  24
ENDBRANCH  22  23
ENDBRANCH  21  22
ENDBRANCH  20  21
ENDBRANCH  19  20
ENDBRANCH  18  19
ENDBRANCH  17  18
ENDBRANCH   1  17
TORSDOF 26
ENDMDL
MODEL 5
REMARK VINA RESULT:    -5.480      1.519      3.531
REMARK INTER + INTRA:         -17.822
REMARK INTER:                 -14.056
REMARK INTRA:                  -3.766
REMARK UNBOUND:                -4.013
REMARK SMILES CCCCCCCCCCCCCCCCCCCCCCCCCCCC(=O)[O-]
REMARK SMILES IDX 15 1 16 2 17 3 18 4 19 5 20 6 21 7 22 8 23 9 24 10 25 11
REMARK SMILES IDX 26 12 27 13 28 14 29 15 30 16 14 17 13 18 12 19 11 20 10 21
REMARK SMILES IDX 9 22 8 23 7 24 6 25 5 26 4 27 3 28 2 29 1 30
REMARK H PARENT
REMARK Flexibility Score: inf
ROOT
ATOM      1  C   UNL     1     135.091 137.190 113.404  1.00  0.00     0.000 C 
ENDROOT
BRANCH   1   2
ATOM      2  C   UNL     1     133.741 137.002 112.687  1.00  0.00     0.000 C 
BRANCH   2   3
ATOM      3  C   UNL     1     133.236 135.551 112.760  1.00  0.00     0.000 C 
BRANCH   3   4
ATOM      4  C   UNL     1     132.753 135.170 114.173  1.00  0.00     0.000 C 
BRANCH   4   5
ATOM      5  C   UNL     1     133.630 134.115 114.887  1.00  0.00     0.000 C 
BRANCH   5   6
ATOM      6  C   UNL     1     134.520 133.254 113.964  1.00  0.00     0.000 C 
BRANCH   6   7
ATOM      7  C   UNL     1     136.009 133.198 114.362  1.00  0.00     0.000 C 
BRANCH   7   8
ATOM      8  C   UNL     1     136.254 133.658 115.809  1.00  0.00     0.000 C 
BRANCH   8   9
ATOM      9  C   UNL     1     136.882 135.060 115.896  1.00  0.00     0.000 C 
BRANCH   9  10
ATOM     10  C   UNL     1     136.105 136.040 116.802  1.00  0.00     0.000 C 
BRANCH  10  11
ATOM     11  C   UNL     1     135.439 135.322 117.990  1.00  0.00     0.000 C 
BRANCH  11  12
ATOM     12  C   UNL     1     136.335 135.251 119.240  1.00  0.00     0.006 C 
BRANCH  12  13
ATOM     13  C   UNL     1     136.106 136.393 120.245  1.00  0.00     0.053 C 
BRANCH  13  14
ATOM     14  C   UNL     1     135.480 135.924 121.524  1.00  0.00     0.041 C 
ATOM     15  O   UNL     1     134.291 136.241 121.804  1.00  0.00    -0.550 OA
ATOM     16  O   UNL     1     136.219 135.164 122.422  1.00  0.00    -0.550 OA
ENDBRANCH  13  14
ENDBRANCH  12  13
ENDBRANCH  11  12
ENDBRANCH  10  11
ENDBRANCH   9  10
ENDBRANCH   8   9
ENDBRANCH   7   8
ENDBRANCH   6   7
ENDBRANCH   5   6
ENDBRANCH   4   5
ENDBRANCH   3   4
ENDBRANCH   2   3
ENDBRANCH   1   2
BRANCH   1  17
ATOM     17  C   UNL     1     136.320 136.785 112.562  1.00  0.00     0.000 C 
BRANCH  17  18
ATOM     18  C   UNL     1     137.673 137.343 113.058  1.00  0.00     0.000 C 
BRANCH  18  19
ATOM     19  C   UNL     1     137.580 138.323 114.244  1.00  0.00     0.000 C 
BRANCH  19  20
ATOM     20  C   UNL     1     138.706 139.375 114.302  1.00  0.00     0.000 C 
BRANCH  20  21
ATOM     21  C   UNL     1     139.499 139.544 112.990  1.00  0.00     0.000 C 
BRANCH  21  22
ATOM     22  C   UNL     1     140.928 138.965 113.014  1.00  0.00    -0.000 C 
BRANCH  22  23
ATOM     23  C   UNL     1     141.939 139.685 112.098  1.00  0.00    -0.000 C 
BRANCH  23  24
ATOM     24  C   UNL     1     143.201 140.220 112.808  1.00  0.00    -0.000 C 
BRANCH  24  25
ATOM     25  C   UNL     1     143.313 141.755 112.868  1.00  0.00    -0.000 C 
BRANCH  25  26
ATOM     26  C   UNL     1     142.092 142.414 113.531  1.00  0.00    -0.000 C 
BRANCH  26  27
ATOM     27  C   UNL     1     142.453 143.195 114.809  1.00  0.00    -0.000 C 
BRANCH  27  28
ATOM     28  C   UNL     1     142.230 142.435 116.133  1.00  0.00    -0.000 C 
BRANCH  28  29
ATOM     29  C   UNL     1     141.378 141.157 116.011  1.00  0.00    -0.003 C 
ATOM     30  C   UNL     1     142.153 139.892 116.382  1.00  0.00     0.004 C 
ENDBRANCH  28  29
ENDBRANCH  27  28
ENDBRANCH  26  27
ENDBRANCH  25  26
ENDBRANCH  24  25
ENDBRANCH  23  24
ENDBRANCH  22  23
ENDBRANCH  21  22
ENDBRANCH  20  21
ENDBRANCH  19  20
ENDBRANCH  18  19
ENDBRANCH  17  18
ENDBRANCH   1  17
TORSDOF 26
ENDMDL
MODEL 6
REMARK VINA RESULT:    -5.430      2.132      8.409
REMARK INTER + INTRA:         -17.696
REMARK INTER:                 -14.829
REMARK INTRA:                  -2.867
REMARK UNBOUND:                -4.013
REMARK SMILES CCCCCCCCCCCCCCCCCCCCCCCCCCCC(=O)[O-]
REMARK SMILES IDX 15 1 16 2 17 3 18 4 19 5 20 6 21 7 22 8 23 9 24 10 25 11
REMARK SMILES IDX 26 12 27 13 28 14 29 15 30 16 14 17 13 18 12 19 11 20 10 21
REMARK SMILES IDX 9 22 8 23 7 24 6 25 5 26 4 27 3 28 2 29 1 30
REMARK H PARENT
REMARK Flexibility Score: inf
ROOT
ATOM      1  C   UNL     1     138.703 138.521 112.281  1.00  0.00     0.000 C 
ENDROOT
BRANCH   1   2
ATOM      2  C   UNL     1     139.786 139.615 112.279  1.00  0.00     0.000 C 
BRANCH   2   3
ATOM      3  C   UNL     1     141.115 139.123 111.679  1.00  0.00     0.000 C 
BRANCH   3   4
ATOM      4  C   UNL     1     142.220 138.981 112.742  1.00  0.00     0.000 C 
BRANCH   4   5
ATOM      5  C   UNL     1     143.246 140.137 112.758  1.00  0.00     0.000 C 
BRANCH   5   6
ATOM      6  C   UNL     1     143.181 141.068 113.989  1.00  0.00     0.000 C 
BRANCH   6   7
ATOM      7  C   UNL     1     142.802 142.531 113.681  1.00  0.00     0.000 C 
BRANCH   7   8
ATOM      8  C   UNL     1     141.300 142.708 113.405  1.00  0.00     0.000 C 
BRANCH   8   9
ATOM      9  C   UNL     1     140.580 143.519 114.497  1.00  0.00     0.000 C 
BRANCH   9  10
ATOM     10  C   UNL     1     140.275 142.711 115.779  1.00  0.00     0.000 C 
BRANCH  10  11
ATOM     11  C   UNL     1     139.797 141.283 115.460  1.00  0.00     0.000 C 
BRANCH  11  12
ATOM     12  C   UNL     1     139.517 140.438 116.716  1.00  0.00     0.006 C 
BRANCH  12  13
ATOM     13  C   UNL     1     139.515 141.241 118.028  1.00  0.00     0.053 C 
BRANCH  13  14
ATOM     14  C   UNL     1     140.448 140.675 119.057  1.00  0.00     0.041 C 
ATOM     15  O   UNL     1     140.064 140.525 120.250  1.00  0.00    -0.550 OA
ATOM     16  O   UNL     1     141.750 140.343 118.706  1.00  0.00    -0.550 OA
ENDBRANCH  13  14
ENDBRANCH  12  13
ENDBRANCH  11  12
ENDBRANCH  10  11
ENDBRANCH   9  10
ENDBRANCH   8   9
ENDBRANCH   7   8
ENDBRANCH   6   7
ENDBRANCH   5   6
ENDBRANCH   4   5
ENDBRANCH   3   4
ENDBRANCH   2   3
ENDBRANCH   1   2
BRANCH   1  17
ATOM     17  C   UNL     1     137.963 138.355 110.936  1.00  0.00     0.000 C 
BRANCH  17  18
ATOM     18  C   UNL     1     136.897 137.238 110.902  1.00  0.00     0.000 C 
BRANCH  18  19
ATOM     19  C   UNL     1     136.215 136.944 112.253  1.00  0.00     0.000 C 
BRANCH  19  20
ATOM     20  C   UNL     1     136.493 135.540 112.825  1.00  0.00     0.000 C 
BRANCH  20  21
ATOM     21  C   UNL     1     135.447 134.471 112.448  1.00  0.00     0.000 C 
BRANCH  21  22
ATOM     22  C   UNL     1     134.032 135.016 112.167  1.00  0.00    -0.000 C 
BRANCH  22  23
ATOM     23  C   UNL     1     132.961 134.613 113.201  1.00  0.00    -0.000 C 
BRANCH  23  24
ATOM     24  C   UNL     1     133.406 134.706 114.676  1.00  0.00    -0.000 C 
BRANCH  24  25
ATOM     25  C   UNL     1     133.767 136.124 115.159  1.00  0.00    -0.000 C 
BRANCH  25  26
ATOM     26  C   UNL     1     134.502 136.122 116.510  1.00  0.00    -0.000 C 
BRANCH  26  27
ATOM     27  C   UNL     1     136.034 136.147 116.357  1.00  0.00    -0.000 C 
BRANCH  27  28
ATOM     28  C   UNL     1     136.815 135.331 117.409  1.00  0.00    -0.000 C 
BRANCH  28  29
ATOM     29  C   UNL     1     136.010 134.953 118.665  1.00  0.00    -0.003 C 
ATOM     30  C   UNL     1     136.173 135.966 119.800  1.00  0.00     0.004 C 
ENDBRANCH  28  29
ENDBRANCH  27  28
ENDBRANCH  26  27
ENDBRANCH  25  26
ENDBRANCH  24  25
ENDBRANCH  23  24
ENDBRANCH  22  23
ENDBRANCH  21  22
ENDBRANCH  20  21
ENDBRANCH  19  20
ENDBRANCH  18  19
ENDBRANCH  17  18
ENDBRANCH   1  17
TORSDOF 26
ENDMDL
MODEL 7
REMARK VINA RESULT:    -5.325      1.223      2.167
REMARK INTER + INTRA:         -17.432
REMARK INTER:                 -14.132
REMARK INTRA:                  -3.300
REMARK UNBOUND:                -4.013
REMARK SMILES CCCCCCCCCCCCCCCCCCCCCCCCCCCC(=O)[O-]
REMARK SMILES IDX 15 1 16 2 17 3 18 4 19 5 20 6 21 7 22 8 23 9 24 10 25 11
REMARK SMILES IDX 26 12 27 13 28 14 29 15 30 16 14 17 13 18 12 19 11 20 10 21
REMARK SMILES IDX 9 22 8 23 7 24 6 25 5 26 4 27 3 28 2 29 1 30
REMARK H PARENT
REMARK Flexibility Score: inf
ROOT
ATOM      1  C   UNL     1     139.743 138.841 111.048  1.00  0.00     0.000 C 
ENDROOT
BRANCH   1   2
ATOM      2  C   UNL     1     138.670 138.279 111.999  1.00  0.00     0.000 C 
BRANCH   2   3
ATOM      3  C   UNL     1     138.784 138.860 113.419  1.00  0.00     0.000 C 
BRANCH   3   4
ATOM      4  C   UNL     1     137.706 138.301 114.368  1.00  0.00     0.000 C 
BRANCH   4   5
ATOM      5  C   UNL     1     136.409 137.841 113.663  1.00  0.00     0.000 C 
BRANCH   5   6
ATOM      6  C   UNL     1     136.120 136.325 113.722  1.00  0.00     0.000 C 
BRANCH   6   7
ATOM      7  C   UNL     1     135.269 135.777 112.560  1.00  0.00     0.000 C 
BRANCH   7   8
ATOM      8  C   UNL     1     135.413 134.256 112.384  1.00  0.00     0.000 C 
BRANCH   8   9
ATOM      9  C   UNL     1     135.354 133.489 113.717  1.00  0.00     0.000 C 
BRANCH   9  10
ATOM     10  C   UNL     1     133.919 133.167 114.191  1.00  0.00     0.000 C 
BRANCH  10  11
ATOM     11  C   UNL     1     133.721 133.483 115.684  1.00  0.00     0.000 C 
BRANCH  11  12
ATOM     12  C   UNL     1     134.455 134.757 116.141  1.00  0.00     0.006 C 
BRANCH  12  13
ATOM     13  C   UNL     1     135.604 134.501 117.131  1.00  0.00     0.053 C 
BRANCH  13  14
ATOM     14  C   UNL     1     135.523 135.369 118.351  1.00  0.00     0.041 C 
ATOM     15  O   UNL     1     136.222 135.104 119.368  1.00  0.00    -0.550 OA
ATOM     16  O   UNL     1     134.653 136.452 118.378  1.00  0.00    -0.550 OA
ENDBRANCH  13  14
ENDBRANCH  12  13
ENDBRANCH  11  12
ENDBRANCH  10  11
ENDBRANCH   9  10
ENDBRANCH   8   9
ENDBRANCH   7   8
ENDBRANCH   6   7
ENDBRANCH   5   6
ENDBRANCH   4   5
ENDBRANCH   3   4
ENDBRANCH   2   3
ENDBRANCH   1   2
BRANCH   1  17
ATOM     17  C   UNL     1     139.701 140.375 110.876  1.00  0.00     0.000 C 
BRANCH  17  18
ATOM     18  C   UNL     1     140.744 141.162 111.701  1.00  0.00     0.000 C 
BRANCH  18  19
ATOM     19  C   UNL     1     142.206 140.981 111.247  1.00  0.00     0.000 C 
BRANCH  19  20
ATOM     20  C   UNL     1     143.121 140.287 112.275  1.00  0.00     0.000 C 
BRANCH  20  21
ATOM     21  C   UNL     1     142.659 140.417 113.741  1.00  0.00     0.000 C 
BRANCH  21  22
ATOM     22  C   UNL     1     143.574 141.275 114.638  1.00  0.00    -0.000 C 
BRANCH  22  23
ATOM     23  C   UNL     1     142.899 142.511 115.267  1.00  0.00    -0.000 C 
BRANCH  23  24
ATOM     24  C   UNL     1     142.181 143.444 114.270  1.00  0.00    -0.000 C 
BRANCH  24  25
ATOM     25  C   UNL     1     140.650 143.516 114.431  1.00  0.00    -0.000 C 
BRANCH  25  26
ATOM     26  C   UNL     1     140.164 142.901 115.754  1.00  0.00    -0.000 C 
BRANCH  26  27
ATOM     27  C   UNL     1     139.510 141.519 115.566  1.00  0.00    -0.000 C 
BRANCH  27  28
ATOM     28  C   UNL     1     139.793 140.497 116.687  1.00  0.00    -0.000 C 
BRANCH  28  29
ATOM     29  C   UNL     1     140.775 140.978 117.771  1.00  0.00    -0.003 C 
ATOM     30  C   UNL     1     140.192 140.888 119.182  1.00  0.00     0.004 C 
ENDBRANCH  28  29
ENDBRANCH  27  28
ENDBRANCH  26  27
ENDBRANCH  25  26
ENDBRANCH  24  25
ENDBRANCH  23  24
ENDBRANCH  22  23
ENDBRANCH  21  22
ENDBRANCH  20  21
ENDBRANCH  19  20
ENDBRANCH  18  19
ENDBRANCH  17  18
ENDBRANCH   1  17
TORSDOF 26
ENDMDL
MODEL 8
REMARK VINA RESULT:    -5.235      2.229      3.564
REMARK INTER + INTRA:         -17.206
REMARK INTER:                 -13.635
REMARK INTRA:                  -3.570
REMARK UNBOUND:                -4.013
REMARK SMILES CCCCCCCCCCCCCCCCCCCCCCCCCCCC(=O)[O-]
REMARK SMILES IDX 15 1 16 2 17 3 18 4 19 5 20 6 21 7 22 8 23 9 24 10 25 11
REMARK SMILES IDX 26 12 27 13 28 14 29 15 30 16 14 17 13 18 12 19 11 20 10 21
REMARK SMILES IDX 9 22 8 23 7 24 6 25 5 26 4 27 3 28 2 29 1 30
REMARK H PARENT
REMARK Flexibility Score: inf
ROOT
ATOM      1  C   UNL     1     139.405 139.386 110.973  1.00  0.00     0.000 C 
ENDROOT
BRANCH   1   2
ATOM      2  C   UNL     1     139.245 138.852 112.408  1.00  0.00     0.000 C 
BRANCH   2   3
ATOM      3  C   UNL     1     138.001 137.960 112.566  1.00  0.00     0.000 C 
BRANCH   3   4
ATOM      4  C   UNL     1     137.380 138.064 113.972  1.00  0.00     0.000 C 
BRANCH   4   5
ATOM      5  C   UNL     1     137.828 136.956 114.953  1.00  0.00     0.000 C 
BRANCH   5   6
ATOM      6  C   UNL     1     136.702 136.318 115.796  1.00  0.00     0.000 C 
BRANCH   6   7
ATOM      7  C   UNL     1     137.071 134.983 116.473  1.00  0.00     0.000 C 
BRANCH   7   8
ATOM      8  C   UNL     1     135.834 134.161 116.875  1.00  0.00     0.000 C 
BRANCH   8   9
ATOM      9  C   UNL     1     134.513 134.793 116.401  1.00  0.00     0.000 C 
BRANCH   9  10
ATOM     10  C   UNL     1     133.668 133.871 115.494  1.00  0.00     0.000 C 
BRANCH  10  11
ATOM     11  C   UNL     1     133.086 134.628 114.287  1.00  0.00     0.000 C 
BRANCH  11  12
ATOM     12  C   UNL     1     133.830 134.340 112.970  1.00  0.00     0.006 C 
BRANCH  12  13
ATOM     13  C   UNL     1     134.903 135.382 112.611  1.00  0.00     0.053 C 
BRANCH  13  14
ATOM     14  C   UNL     1     134.331 136.603 111.955  1.00  0.00     0.041 C 
ATOM     15  O   UNL     1     133.215 137.060 112.327  1.00  0.00    -0.550 OA
ATOM     16  O   UNL     1     135.013 137.216 110.912  1.00  0.00    -0.550 OA
ENDBRANCH  13  14
ENDBRANCH  12  13
ENDBRANCH  11  12
ENDBRANCH  10  11
ENDBRANCH   9  10
ENDBRANCH   8   9
ENDBRANCH   7   8
ENDBRANCH   6   7
ENDBRANCH   5   6
ENDBRANCH   4   5
ENDBRANCH   3   4
ENDBRANCH   2   3
ENDBRANCH   1   2
BRANCH   1  17
ATOM     17  C   UNL     1     139.978 140.817 110.887  1.00  0.00     0.000 C 
BRANCH  17  18
ATOM     18  C   UNL     1     141.367 141.014 111.532  1.00  0.00     0.000 C 
BRANCH  18  19
ATOM     19  C   UNL     1     142.398 139.911 111.213  1.00  0.00     0.000 C 
BRANCH  19  20
ATOM     20  C   UNL     1     143.299 139.508 112.397  1.00  0.00     0.000 C 
BRANCH  20  21
ATOM     21  C   UNL     1     142.836 140.038 113.770  1.00  0.00     0.000 C 
BRANCH  21  22
ATOM     22  C   UNL     1     143.703 141.170 114.356  1.00  0.00    -0.000 C 
BRANCH  22  23
ATOM     23  C   UNL     1     142.915 142.361 114.939  1.00  0.00    -0.000 C 
BRANCH  23  24
ATOM     24  C   UNL     1     142.220 143.261 113.894  1.00  0.00    -0.000 C 
BRANCH  24  25
ATOM     25  C   UNL     1     140.705 143.447 114.100  1.00  0.00    -0.000 C 
BRANCH  25  26
ATOM     26  C   UNL     1     140.185 142.737 115.361  1.00  0.00    -0.000 C 
BRANCH  26  27
ATOM     27  C   UNL     1     139.626 141.332 115.069  1.00  0.00    -0.000 C 
BRANCH  27  28
ATOM     28  C   UNL     1     139.630 140.358 116.266  1.00  0.00    -0.000 C 
BRANCH  28  29
ATOM     29  C   UNL     1     140.572 140.751 117.419  1.00  0.00    -0.003 C 
ATOM     30  C   UNL     1     141.875 139.950 117.418  1.00  0.00     0.004 C 
ENDBRANCH  28  29
ENDBRANCH  27  28
ENDBRANCH  26  27
ENDBRANCH  25  26
ENDBRANCH  24  25
ENDBRANCH  23  24
ENDBRANCH  22  23
ENDBRANCH  21  22
ENDBRANCH  20  21
ENDBRANCH  19  20
ENDBRANCH  18  19
ENDBRANCH  17  18
ENDBRANCH   1  17
TORSDOF 26
ENDMDL
MODEL 9
REMARK VINA RESULT:    -5.015      2.238      8.555
REMARK INTER + INTRA:         -16.651
REMARK INTER:                 -14.256
REMARK INTRA:                  -2.396
REMARK UNBOUND:                -4.013
REMARK SMILES CCCCCCCCCCCCCCCCCCCCCCCCCCCC(=O)[O-]
REMARK SMILES IDX 15 1 16 2 17 3 18 4 19 5 20 6 21 7 22 8 23 9 24 10 25 11
REMARK SMILES IDX 26 12 27 13 28 14 29 15 30 16 14 17 13 18 12 19 11 20 10 21
REMARK SMILES IDX 9 22 8 23 7 24 6 25 5 26 4 27 3 28 2 29 1 30
REMARK H PARENT
REMARK Flexibility Score: inf
ROOT
ATOM      1  C   UNL     1     139.467 139.196 112.961  1.00  0.00     0.000 C 
ENDROOT
BRANCH   1   2
ATOM      2  C   UNL     1     140.988 139.111 113.180  1.00  0.00     0.000 C 
BRANCH   2   3
ATOM      3  C   UNL     1     141.748 138.773 111.886  1.00  0.00     0.000 C 
BRANCH   3   4
ATOM      4  C   UNL     1     142.813 139.831 111.540  1.00  0.00     0.000 C 
BRANCH   4   5
ATOM      5  C   UNL     1     142.321 141.293 111.644  1.00  0.00     0.000 C 
BRANCH   5   6
ATOM      6  C   UNL     1     143.025 142.159 112.713  1.00  0.00     0.000 C 
BRANCH   6   7
ATOM      7  C   UNL     1     142.138 142.575 113.903  1.00  0.00     0.000 C 
BRANCH   7   8
ATOM      8  C   UNL     1     142.801 142.294 115.263  1.00  0.00     0.000 C 
BRANCH   8   9
ATOM      9  C   UNL     1     142.791 140.802 115.638  1.00  0.00     0.000 C 
BRANCH   9  10
ATOM     10  C   UNL     1     141.650 140.405 116.602  1.00  0.00     0.000 C 
BRANCH  10  11
ATOM     11  C   UNL     1     141.337 141.522 117.613  1.00  0.00     0.000 C 
BRANCH  11  12
ATOM     12  C   UNL     1     139.924 141.420 118.217  1.00  0.00     0.006 C 
BRANCH  12  13
ATOM     13  C   UNL     1     139.771 140.322 119.283  1.00  0.00     0.053 C 
BRANCH  13  14
ATOM     14  C   UNL     1     140.682 140.523 120.457  1.00  0.00     0.041 C 
ATOM     15  O   UNL     1     141.913 140.260 120.359  1.00  0.00    -0.550 OA
ATOM     16  O   UNL     1     140.168 140.968 121.668  1.00  0.00    -0.550 OA
ENDBRANCH  13  14
ENDBRANCH  12  13
ENDBRANCH  11  12
ENDBRANCH  10  11
ENDBRANCH   9  10
ENDBRANCH   8   9
ENDBRANCH   7   8
ENDBRANCH   6   7
ENDBRANCH   5   6
ENDBRANCH   4   5
ENDBRANCH   3   4
ENDBRANCH   2   3
ENDBRANCH   1   2
BRANCH   1  17
ATOM     17  C   UNL     1     139.030 139.110 111.482  1.00  0.00     0.000 C 
BRANCH  17  18
ATOM     18  C   UNL     1     137.933 138.067 111.177  1.00  0.00     0.000 C 
BRANCH  18  19
ATOM     19  C   UNL     1     137.144 137.570 112.405  1.00  0.00     0.000 C 
BRANCH  19  20
ATOM     20  C   UNL     1     136.288 136.312 112.157  1.00  0.00     0.000 C 
BRANCH  20  21
ATOM     21  C   UNL     1     134.845 136.595 111.690  1.00  0.00     0.000 C 
BRANCH  21  22
ATOM     22  C   UNL     1     133.904 137.142 112.783  1.00  0.00    -0.000 C 
BRANCH  22  23
ATOM     23  C   UNL     1     132.802 136.166 113.243  1.00  0.00    -0.000 C 
BRANCH  23  24
ATOM     24  C   UNL     1     133.268 134.713 113.474  1.00  0.00    -0.000 C 
BRANCH  24  25
ATOM     25  C   UNL     1     134.061 134.483 114.775  1.00  0.00    -0.000 C 
BRANCH  25  26
ATOM     26  C   UNL     1     135.153 133.410 114.623  1.00  0.00    -0.000 C 
BRANCH  26  27
ATOM     27  C   UNL     1     136.428 133.736 115.422  1.00  0.00    -0.000 C 
BRANCH  27  28
ATOM     28  C   UNL     1     136.207 134.047 116.918  1.00  0.00    -0.000 C 
BRANCH  28  29
ATOM     29  C   UNL     1     136.957 135.287 117.439  1.00  0.00    -0.003 C 
ATOM     30  C   UNL     1     136.278 135.923 118.653  1.00  0.00     0.004 C 
ENDBRANCH  28  29
ENDBRANCH  27  28
ENDBRANCH  26  27
ENDBRANCH  25  26
ENDBRANCH  24  25
ENDBRANCH  23  24
ENDBRANCH  22  23
ENDBRANCH  21  22
ENDBRANCH  20  21
ENDBRANCH  19  20
ENDBRANCH  18  19
ENDBRANCH  17  18
ENDBRANCH   1  17
TORSDOF 26
ENDMDL
