MODEL 1
REMARK VINA RESULT:    -4.610      0.000      0.000
REMARK INTER + INTRA:          -5.866
REMARK INTER:                  -5.553
REMARK INTRA:                  -0.314
REMARK UNBOUND:                -0.314
REMARK SMILES O=c1c(O)c(-c2ccc(O)cc2O)oc2cc(O)cc(O)c12
REMARK SMILES IDX 5 1 3 2 2 3 1 4 22 5 20 6 19 7 17 8 16 9 15 10 14 11 6 12
REMARK SMILES IDX 8 13 7 14 9 15 11 16 12 17 10 18 13 20 4 22 21 24 18 26
REMARK H PARENT 10 19 13 21 4 23 21 25 18 27
REMARK Flexibility Score: inf
ROOT
ATOM      1  C   UNL     1      -4.339  -7.487   8.473  1.00  0.00     0.184 A 
ATOM      2  C   UNL     1      -3.853  -8.698   7.957  1.00  0.00     0.208 A 
ATOM      3  C   UNL     1      -2.468  -8.922   7.935  1.00  0.00     0.238 A 
ATOM      4  O   UNL     1      -2.042 -10.034   7.527  1.00  0.00    -0.285 OA
ATOM      5  C   UNL     1      -1.586  -7.918   8.404  1.00  0.00     0.111 A 
ATOM      6  C   UNL     1      -0.162  -8.021   8.392  1.00  0.00     0.134 A 
ATOM      7  C   UNL     1       0.607  -7.017   8.994  1.00  0.00     0.093 A 
ATOM      8  C   UNL     1       0.010  -5.886   9.549  1.00  0.00     0.123 A 
ATOM      9  C   UNL     1      -1.378  -5.748   9.514  1.00  0.00     0.094 A 
ATOM     10  C   UNL     1      -2.176  -6.749   8.954  1.00  0.00     0.146 A 
ATOM     11  O   UNL     1      -3.492  -6.585   8.953  1.00  0.00    -0.451 OA
ENDROOT
BRANCH   1  12
ATOM     12  C   UNL     1      -5.787  -7.188   8.500  1.00  0.00     0.063 A 
ATOM     13  C   UNL     1      -7.641  -5.794   7.761  1.00  0.00     0.047 A 
ATOM     14  C   UNL     1      -6.287  -6.135   7.713  1.00  0.00     0.020 A 
ATOM     15  C   UNL     1      -8.512  -6.495   8.603  1.00  0.00     0.119 A 
ATOM     16  C   UNL     1      -8.024  -7.540   9.391  1.00  0.00     0.093 A 
ATOM     17  C   UNL     1      -6.671  -7.899   9.344  1.00  0.00     0.130 A 
BRANCH  15  18
ATOM     18  O   UNL     1      -9.863  -6.160   8.664  1.00  0.00    -0.508 OA
ATOM     19  H   UNL     1     -10.571  -6.732   8.219  1.00  0.00     0.293 HD
ENDBRANCH  15  18
BRANCH  17  20
ATOM     20  O   UNL     1      -6.247  -8.976  10.125  1.00  0.00    -0.507 OA
ATOM     21  H   UNL     1      -6.518  -9.933   9.941  1.00  0.00     0.293 HD
ENDBRANCH  17  20
ENDBRANCH   1  12
BRANCH   2  22
ATOM     22  O   UNL     1      -4.748  -9.669   7.497  1.00  0.00    -0.502 OA
ATOM     23  H   UNL     1      -5.725  -9.469   7.324  1.00  0.00     0.293 HD
ENDBRANCH   2  22
BRANCH   6  24
ATOM     24  O   UNL     1       0.542  -9.065   7.785  1.00  0.00    -0.507 OA
ATOM     25  H   UNL     1       0.405 -10.044   7.983  1.00  0.00     0.293 HD
ENDBRANCH   6  24
BRANCH   8  26
ATOM     26  O   UNL     1       0.807  -4.900  10.125  1.00  0.00    -0.508 OA
ATOM     27  H   UNL     1       1.452  -5.113  10.878  1.00  0.00     0.293 HD
ENDBRANCH   8  26
TORSDOF 6
ENDMDL
MODEL 2
REMARK VINA RESULT:    -4.500      1.755      2.970
REMARK INTER + INTRA:          -5.734
REMARK INTER:                  -5.336
REMARK INTRA:                  -0.398
REMARK UNBOUND:                -0.314
REMARK SMILES O=c1c(O)c(-c2ccc(O)cc2O)oc2cc(O)cc(O)c12
REMARK SMILES IDX 5 1 3 2 2 3 1 4 22 5 20 6 19 7 17 8 16 9 15 10 14 11 6 12
REMARK SMILES IDX 8 13 7 14 9 15 11 16 12 17 10 18 13 20 4 22 21 24 18 26
REMARK H PARENT 10 19 13 21 4 23 21 25 18 27
REMARK Flexibility Score: inf
ROOT
ATOM      1  C   UNL     1      -4.379  -7.868   8.205  1.00  0.00     0.184 A 
ATOM      2  C   UNL     1      -4.199  -6.564   8.690  1.00  0.00     0.208 A 
ATOM      3  C   UNL     1      -2.911  -6.145   9.057  1.00  0.00     0.238 A 
ATOM      4  O   UNL     1      -2.747  -4.956   9.434  1.00  0.00    -0.285 OA
ATOM      5  C   UNL     1      -1.824  -7.049   8.962  1.00  0.00     0.111 A 
ATOM      6  C   UNL     1      -0.482  -6.746   9.345  1.00  0.00     0.134 A 
ATOM      7  C   UNL     1       0.534  -7.675   9.091  1.00  0.00     0.093 A 
ATOM      8  C   UNL     1       0.250  -8.920   8.531  1.00  0.00     0.123 A 
ATOM      9  C   UNL     1      -1.067  -9.249   8.207  1.00  0.00     0.094 A 
ATOM     10  C   UNL     1      -2.098  -8.330   8.413  1.00  0.00     0.146 A 
ATOM     11  O   UNL     1      -3.334  -8.677   8.078  1.00  0.00    -0.451 OA
ENDROOT
BRANCH   1  12
ATOM     12  C   UNL     1      -5.717  -8.371   7.825  1.00  0.00     0.063 A 
ATOM     13  C   UNL     1      -7.418  -8.678   6.111  1.00  0.00     0.047 A 
ATOM     14  C   UNL     1      -6.138  -8.263   6.488  1.00  0.00     0.020 A 
ATOM     15  C   UNL     1      -8.298  -9.198   7.067  1.00  0.00     0.119 A 
ATOM     16  C   UNL     1      -7.890  -9.306   8.399  1.00  0.00     0.093 A 
ATOM     17  C   UNL     1      -6.606  -8.904   8.788  1.00  0.00     0.130 A 
BRANCH  15  18
ATOM     18  O   UNL     1      -9.578  -9.609   6.703  1.00  0.00    -0.508 OA
ATOM     19  H   UNL     1      -9.856 -10.582   6.756  1.00  0.00     0.293 HD
ENDBRANCH  15  18
BRANCH  17  20
ATOM     20  O   UNL     1      -6.239  -9.070  10.125  1.00  0.00    -0.507 OA
ATOM     21  H   UNL     1      -6.860  -9.457  10.824  1.00  0.00     0.293 HD
ENDBRANCH  17  20
ENDBRANCH   1  12
BRANCH   2  22
ATOM     22  O   UNL     1      -5.291  -5.695   8.777  1.00  0.00    -0.502 OA
ATOM     23  H   UNL     1      -5.233  -4.722   8.503  1.00  0.00     0.293 HD
ENDBRANCH   2  22
BRANCH   6  24
ATOM     24  O   UNL     1      -0.102  -5.568   9.994  1.00  0.00    -0.507 OA
ATOM     25  H   UNL     1       0.438  -4.827   9.574  1.00  0.00     0.293 HD
ENDBRANCH   6  24
BRANCH   8  26
ATOM     26  O   UNL     1       1.283  -9.826   8.308  1.00  0.00    -0.508 OA
ATOM     27  H   UNL     1       1.899  -9.742   7.507  1.00  0.00     0.293 HD
ENDBRANCH   8  26
TORSDOF 6
ENDMDL
MODEL 3
REMARK VINA RESULT:    -4.310      5.759      7.957
REMARK INTER + INTRA:          -5.506
REMARK INTER:                  -5.135
REMARK INTRA:                  -0.370
REMARK UNBOUND:                -0.314
REMARK SMILES O=c1c(O)c(-c2ccc(O)cc2O)oc2cc(O)cc(O)c12
REMARK SMILES IDX 5 1 3 2 2 3 1 4 22 5 20 6 19 7 17 8 16 9 15 10 14 11 6 12
REMARK SMILES IDX 8 13 7 14 9 15 11 16 12 17 10 18 13 20 4 22 21 24 18 26
REMARK H PARENT 10 19 13 21 4 23 21 25 18 27
REMARK Flexibility Score: inf
ROOT
ATOM      1  C   UNL     1      -8.686  -4.517   7.631  1.00  0.00     0.184 A 
ATOM      2  C   UNL     1      -7.968  -4.040   8.738  1.00  0.00     0.208 A 
ATOM      3  C   UNL     1      -7.737  -2.661   8.858  1.00  0.00     0.238 A 
ATOM      4  O   UNL     1      -7.145  -2.234   9.883  1.00  0.00    -0.285 OA
ATOM      5  C   UNL     1      -8.206  -1.780   7.852  1.00  0.00     0.111 A 
ATOM      6  C   UNL     1      -7.995  -0.368   7.849  1.00  0.00     0.134 A 
ATOM      7  C   UNL     1      -8.608   0.419   6.867  1.00  0.00     0.093 A 
ATOM      8  C   UNL     1      -9.370  -0.158   5.852  1.00  0.00     0.123 A 
ATOM      9  C   UNL     1      -9.534  -1.544   5.811  1.00  0.00     0.094 A 
ATOM     10  C   UNL     1      -8.966  -2.353   6.798  1.00  0.00     0.146 A 
ATOM     11  O   UNL     1      -9.157  -3.664   6.730  1.00  0.00    -0.451 OA
ENDROOT
BRANCH   1  12
ATOM     12  C   UNL     1      -8.939  -5.962   7.442  1.00  0.00     0.063 A 
ATOM     13  C   UNL     1     -10.125  -7.977   8.120  1.00  0.00     0.047 A 
ATOM     14  C   UNL     1      -9.905  -6.602   8.238  1.00  0.00     0.020 A 
ATOM     15  C   UNL     1      -9.376  -8.732   7.211  1.00  0.00     0.119 A 
ATOM     16  C   UNL     1      -8.411  -8.106   6.418  1.00  0.00     0.093 A 
ATOM     17  C   UNL     1      -8.189  -6.727   6.518  1.00  0.00     0.130 A 
BRANCH  15  18
ATOM     18  O   UNL     1      -9.583 -10.105   7.089  1.00  0.00    -0.508 OA
ATOM     19  H   UNL     1     -10.514 -10.505   7.124  1.00  0.00     0.293 HD
ENDBRANCH  15  18
BRANCH  17  20
ATOM     20  O   UNL     1      -7.239  -6.149   5.674  1.00  0.00    -0.507 OA
ATOM     21  H   UNL     1      -7.483  -5.609   4.854  1.00  0.00     0.293 HD
ENDBRANCH  17  20
ENDBRANCH   1  12
BRANCH   2  22
ATOM     22  O   UNL     1      -7.515  -4.934   9.714  1.00  0.00    -0.502 OA
ATOM     23  H   UNL     1      -7.601  -4.744  10.705  1.00  0.00     0.293 HD
ENDBRANCH   2  22
BRANCH   6  24
ATOM     24  O   UNL     1      -7.178   0.302   8.765  1.00  0.00    -0.507 OA
ATOM     25  H   UNL     1      -6.856   1.252   8.661  1.00  0.00     0.293 HD
ENDBRANCH   6  24
BRANCH   8  26
ATOM     26  O   UNL     1      -9.952   0.654   4.882  1.00  0.00    -0.508 OA
ATOM     27  H   UNL     1     -10.854   1.093   5.029  1.00  0.00     0.293 HD
ENDBRANCH   8  26
TORSDOF 6
ENDMDL
MODEL 4
REMARK VINA RESULT:    -4.294      4.327      7.624
REMARK INTER + INTRA:          -5.486
REMARK INTER:                  -5.129
REMARK INTRA:                  -0.357
REMARK UNBOUND:                -0.314
REMARK SMILES O=c1c(O)c(-c2ccc(O)cc2O)oc2cc(O)cc(O)c12
REMARK SMILES IDX 5 1 3 2 2 3 1 4 22 5 20 6 19 7 17 8 16 9 15 10 14 11 6 12
REMARK SMILES IDX 8 13 7 14 9 15 11 16 12 17 10 18 13 20 4 22 21 24 18 26
REMARK H PARENT 10 19 13 21 4 23 21 25 18 27
REMARK Flexibility Score: inf
ROOT
ATOM      1  C   UNL     1      -8.073  -4.513   7.938  1.00  0.00     0.184 A 
ATOM      2  C   UNL     1      -8.587  -4.257   6.658  1.00  0.00     0.208 A 
ATOM      3  C   UNL     1      -8.880  -2.934   6.293  1.00  0.00     0.238 A 
ATOM      4  O   UNL     1      -9.284  -2.705   5.124  1.00  0.00    -0.285 OA
ATOM      5  C   UNL     1      -8.679  -1.887   7.226  1.00  0.00     0.111 A 
ATOM      6  C   UNL     1      -8.979  -0.512   6.978  1.00  0.00     0.134 A 
ATOM      7  C   UNL     1      -8.625   0.452   7.929  1.00  0.00     0.093 A 
ATOM      8  C   UNL     1      -8.043   0.090   9.143  1.00  0.00     0.123 A 
ATOM      9  C   UNL     1      -7.799  -1.256   9.420  1.00  0.00     0.094 A 
ATOM     10  C   UNL     1      -8.107  -2.240   8.477  1.00  0.00     0.146 A 
ATOM     11  O   UNL     1      -7.846  -3.507   8.773  1.00  0.00    -0.451 OA
ENDROOT
BRANCH   1  12
ATOM     12  C   UNL     1      -7.768  -5.889   8.384  1.00  0.00     0.063 A 
ATOM     13  C   UNL     1      -6.132  -7.663   8.703  1.00  0.00     0.047 A 
ATOM     14  C   UNL     1      -6.440  -6.349   8.340  1.00  0.00     0.020 A 
ATOM     15  C   UNL     1      -7.147  -8.537   9.105  1.00  0.00     0.119 A 
ATOM     16  C   UNL     1      -8.470  -8.090   9.149  1.00  0.00     0.093 A 
ATOM     17  C   UNL     1      -8.791  -6.773   8.799  1.00  0.00     0.130 A 
BRANCH  15  18
ATOM     18  O   UNL     1      -6.852  -9.851   9.464  1.00  0.00    -0.508 OA
ATOM     19  H   UNL     1      -6.182 -10.404   8.942  1.00  0.00     0.293 HD
ENDBRANCH  15  18
BRANCH  17  20
ATOM     20  O   UNL     1     -10.125  -6.371   8.898  1.00  0.00    -0.507 OA
ATOM     21  H   UNL     1     -10.881  -6.843   8.420  1.00  0.00     0.293 HD
ENDBRANCH  17  20
ENDBRANCH   1  12
BRANCH   2  22
ATOM     22  O   UNL     1      -8.779  -5.311   5.759  1.00  0.00    -0.502 OA
ATOM     23  H   UNL     1      -8.024  -5.694   5.204  1.00  0.00     0.293 HD
ENDBRANCH   2  22
BRANCH   6  24
ATOM     24  O   UNL     1      -9.640  -0.050   5.837  1.00  0.00    -0.507 OA
ATOM     25  H   UNL     1      -9.645  -0.519   4.945  1.00  0.00     0.293 HD
ENDBRANCH   6  24
BRANCH   8  26
ATOM     26  O   UNL     1      -7.719   1.075  10.072  1.00  0.00    -0.508 OA
ATOM     27  H   UNL     1      -7.984   0.992  11.048  1.00  0.00     0.293 HD
ENDBRANCH   8  26
TORSDOF 6
ENDMDL
MODEL 5
REMARK VINA RESULT:    -4.286      7.055      9.045
REMARK INTER + INTRA:          -5.477
REMARK INTER:                  -5.114
REMARK INTRA:                  -0.362
REMARK UNBOUND:                -0.314
REMARK SMILES O=c1c(O)c(-c2ccc(O)cc2O)oc2cc(O)cc(O)c12
REMARK SMILES IDX 5 1 3 2 2 3 1 4 22 5 20 6 19 7 17 8 16 9 15 10 14 11 6 12
REMARK SMILES IDX 8 13 7 14 9 15 11 16 12 17 10 18 13 20 4 22 21 24 18 26
REMARK H PARENT 10 19 13 21 4 23 21 25 18 27
REMARK Flexibility Score: inf
ROOT
ATOM      1  C   UNL     1      -9.253  -6.100   3.716  1.00  0.00     0.184 A 
ATOM      2  C   UNL     1      -9.272  -6.686   4.991  1.00  0.00     0.208 A 
ATOM      3  C   UNL     1      -9.425  -5.863   6.117  1.00  0.00     0.238 A 
ATOM      4  O   UNL     1      -9.501  -6.400   7.252  1.00  0.00    -0.285 OA
ATOM      5  C   UNL     1      -9.530  -4.460   5.953  1.00  0.00     0.111 A 
ATOM      6  C   UNL     1      -9.648  -3.525   7.026  1.00  0.00     0.134 A 
ATOM      7  C   UNL     1      -9.868  -2.172   6.741  1.00  0.00     0.093 A 
ATOM      8  C   UNL     1      -9.909  -1.709   5.426  1.00  0.00     0.123 A 
ATOM      9  C   UNL     1      -9.736  -2.606   4.371  1.00  0.00     0.094 A 
ATOM     10  C   UNL     1      -9.552  -3.967   4.621  1.00  0.00     0.146 A 
ATOM     11  O   UNL     1      -9.405  -4.788   3.589  1.00  0.00    -0.451 OA
ENDROOT
BRANCH   1  12
ATOM     12  C   UNL     1      -9.072  -6.916   2.496  1.00  0.00     0.063 A 
ATOM     13  C   UNL     1      -9.962  -8.560   0.936  1.00  0.00     0.047 A 
ATOM     14  C   UNL     1     -10.125  -7.736   2.053  1.00  0.00     0.020 A 
ATOM     15  C   UNL     1      -8.741  -8.581   0.252  1.00  0.00     0.119 A 
ATOM     16  C   UNL     1      -7.688  -7.773   0.686  1.00  0.00     0.093 A 
ATOM     17  C   UNL     1      -7.842  -6.935   1.798  1.00  0.00     0.130 A 
BRANCH  15  18
ATOM     18  O   UNL     1      -8.566  -9.403  -0.860  1.00  0.00    -0.508 OA
ATOM     19  H   UNL     1      -9.238  -9.417  -1.619  1.00  0.00     0.293 HD
ENDBRANCH  15  18
BRANCH  17  20
ATOM     20  O   UNL     1      -6.768  -6.120   2.164  1.00  0.00    -0.507 OA
ATOM     21  H   UNL     1      -6.218  -5.597   1.495  1.00  0.00     0.293 HD
ENDBRANCH  17  20
ENDBRANCH   1  12
BRANCH   2  22
ATOM     22  O   UNL     1      -9.162  -8.074   5.122  1.00  0.00    -0.502 OA
ATOM     23  H   UNL     1      -9.741  -8.716   4.595  1.00  0.00     0.293 HD
ENDBRANCH   2  22
BRANCH   6  24
ATOM     24  O   UNL     1      -9.532  -3.867   8.377  1.00  0.00    -0.507 OA
ATOM     25  H   UNL     1      -9.581  -3.213   9.142  1.00  0.00     0.293 HD
ENDBRANCH   6  24
BRANCH   8  26
ATOM     26  O   UNL     1     -10.114  -0.354   5.181  1.00  0.00    -0.508 OA
ATOM     27  H   UNL     1     -10.693  -0.036   4.412  1.00  0.00     0.293 HD
ENDBRANCH   8  26
TORSDOF 6
ENDMDL
MODEL 6
REMARK VINA RESULT:    -4.279     18.231     20.148
REMARK INTER + INTRA:          -5.469
REMARK INTER:                  -5.090
REMARK INTRA:                  -0.379
REMARK UNBOUND:                -0.314
REMARK SMILES O=c1c(O)c(-c2ccc(O)cc2O)oc2cc(O)cc(O)c12
REMARK SMILES IDX 5 1 3 2 2 3 1 4 22 5 20 6 19 7 17 8 16 9 15 10 14 11 6 12
REMARK SMILES IDX 8 13 7 14 9 15 11 16 12 17 10 18 13 20 4 22 21 24 18 26
REMARK H PARENT 10 19 13 21 4 23 21 25 18 27
REMARK Flexibility Score: inf
ROOT
ATOM      1  C   UNL     1      -9.094   5.992  -4.640  1.00  0.00     0.184 A 
ATOM      2  C   UNL     1      -8.950   6.551  -5.919  1.00  0.00     0.208 A 
ATOM      3  C   UNL     1      -9.033   5.714  -7.042  1.00  0.00     0.238 A 
ATOM      4  O   UNL     1      -8.964   6.230  -8.187  1.00  0.00    -0.285 OA
ATOM      5  C   UNL     1      -9.231   4.322  -6.868  1.00  0.00     0.111 A 
ATOM      6  C   UNL     1      -9.291   3.372  -7.933  1.00  0.00     0.134 A 
ATOM      7  C   UNL     1      -9.614   2.039  -7.650  1.00  0.00     0.093 A 
ATOM      8  C   UNL     1      -9.814   1.607  -6.340  1.00  0.00     0.123 A 
ATOM      9  C   UNL     1      -9.699   2.515  -5.286  1.00  0.00     0.094 A 
ATOM     10  C   UNL     1      -9.416   3.860  -5.538  1.00  0.00     0.146 A 
ATOM     11  O   UNL     1      -9.329   4.693  -4.508  1.00  0.00    -0.451 OA
ENDROOT
BRANCH   1  12
ATOM     12  C   UNL     1      -8.993   6.823  -3.421  1.00  0.00     0.063 A 
ATOM     13  C   UNL     1     -10.043   8.360  -1.853  1.00  0.00     0.047 A 
ATOM     14  C   UNL     1     -10.125   7.524  -2.970  1.00  0.00     0.020 A 
ATOM     15  C   UNL     1      -8.827   8.515  -1.178  1.00  0.00     0.119 A 
ATOM     16  C   UNL     1      -7.696   7.825  -1.621  1.00  0.00     0.093 A 
ATOM     17  C   UNL     1      -7.767   6.975  -2.732  1.00  0.00     0.130 A 
BRANCH  15  18
ATOM     18  O   UNL     1      -8.734   9.350  -0.067  1.00  0.00    -0.508 OA
ATOM     19  H   UNL     1      -9.558   9.646   0.443  1.00  0.00     0.293 HD
ENDBRANCH  15  18
BRANCH  17  20
ATOM     20  O   UNL     1      -6.614   6.282  -3.107  1.00  0.00    -0.507 OA
ATOM     21  H   UNL     1      -5.840   6.718  -3.592  1.00  0.00     0.293 HD
ENDBRANCH  17  20
ENDBRANCH   1  12
BRANCH   2  22
ATOM     22  O   UNL     1      -8.752   7.928  -6.060  1.00  0.00    -0.502 OA
ATOM     23  H   UNL     1      -8.422   8.510  -5.300  1.00  0.00     0.293 HD
ENDBRANCH   2  22
BRANCH   6  24
ATOM     24  O   UNL     1      -9.020   3.679  -9.269  1.00  0.00    -0.507 OA
ATOM     25  H   UNL     1      -8.529   4.501  -9.583  1.00  0.00     0.293 HD
ENDBRANCH   6  24
BRANCH   8  26
ATOM     26  O   UNL     1     -10.116   0.270  -6.095  1.00  0.00    -0.508 OA
ATOM     27  H   UNL     1     -10.835   0.002  -5.432  1.00  0.00     0.293 HD
ENDBRANCH   8  26
TORSDOF 6
ENDMDL
MODEL 7
REMARK VINA RESULT:    -4.238      4.075      8.213
REMARK INTER + INTRA:          -5.419
REMARK INTER:                  -5.027
REMARK INTRA:                  -0.392
REMARK UNBOUND:                -0.314
REMARK SMILES O=c1c(O)c(-c2ccc(O)cc2O)oc2cc(O)cc(O)c12
REMARK SMILES IDX 5 1 3 2 2 3 1 4 22 5 20 6 19 7 17 8 16 9 15 10 14 11 6 12
REMARK SMILES IDX 8 13 7 14 9 15 11 16 12 17 10 18 13 20 4 22 21 24 18 26
REMARK H PARENT 10 19 13 21 4 23 21 25 18 27
REMARK Flexibility Score: inf
ROOT
ATOM      1  C   UNL     1      -7.990  -4.328   7.865  1.00  0.00     0.184 A 
ATOM      2  C   UNL     1      -7.901  -3.306   8.822  1.00  0.00     0.208 A 
ATOM      3  C   UNL     1      -8.252  -1.997   8.457  1.00  0.00     0.238 A 
ATOM      4  O   UNL     1      -8.228  -1.097   9.337  1.00  0.00    -0.285 OA
ATOM      5  C   UNL     1      -8.662  -1.724   7.129  1.00  0.00     0.111 A 
ATOM      6  C   UNL     1      -9.003  -0.427   6.637  1.00  0.00     0.134 A 
ATOM      7  C   UNL     1      -9.511  -0.295   5.339  1.00  0.00     0.093 A 
ATOM      8  C   UNL     1      -9.631  -1.397   4.494  1.00  0.00     0.123 A 
ATOM      9  C   UNL     1      -9.245  -2.660   4.946  1.00  0.00     0.094 A 
ATOM     10  C   UNL     1      -8.769  -2.832   6.247  1.00  0.00     0.146 A 
ATOM     11  O   UNL     1      -8.426  -4.052   6.641  1.00  0.00    -0.451 OA
ENDROOT
BRANCH   1  12
ATOM     12  C   UNL     1      -7.611  -5.720   8.187  1.00  0.00     0.063 A 
ATOM     13  C   UNL     1      -5.882  -7.426   8.348  1.00  0.00     0.047 A 
ATOM     14  C   UNL     1      -6.261  -6.103   8.104  1.00  0.00     0.020 A 
ATOM     15  C   UNL     1      -6.849  -8.385   8.671  1.00  0.00     0.119 A 
ATOM     16  C   UNL     1      -8.193  -8.015   8.753  1.00  0.00     0.093 A 
ATOM     17  C   UNL     1      -8.585  -6.690   8.521  1.00  0.00     0.130 A 
BRANCH  15  18
ATOM     18  O   UNL     1      -6.482  -9.708   8.911  1.00  0.00    -0.508 OA
ATOM     19  H   UNL     1      -7.167 -10.407   9.175  1.00  0.00     0.293 HD
ENDBRANCH  15  18
BRANCH  17  20
ATOM     20  O   UNL     1      -9.938  -6.370   8.654  1.00  0.00    -0.507 OA
ATOM     21  H   UNL     1     -10.330  -5.964   9.493  1.00  0.00     0.293 HD
ENDBRANCH  17  20
ENDBRANCH   1  12
BRANCH   2  22
ATOM     22  O   UNL     1      -7.490  -3.605  10.125  1.00  0.00    -0.502 OA
ATOM     23  H   UNL     1      -8.079  -3.436  10.931  1.00  0.00     0.293 HD
ENDBRANCH   2  22
BRANCH   6  24
ATOM     24  O   UNL     1      -8.838   0.754   7.366  1.00  0.00    -0.507 OA
ATOM     25  H   UNL     1      -9.439   1.560   7.300  1.00  0.00     0.293 HD
ENDBRANCH   6  24
BRANCH   8  26
ATOM     26  O   UNL     1     -10.125  -1.225   3.204  1.00  0.00    -0.508 OA
ATOM     27  H   UNL     1     -10.772  -1.887   2.791  1.00  0.00     0.293 HD
ENDBRANCH   8  26
TORSDOF 6
ENDMDL
MODEL 8
REMARK VINA RESULT:    -4.234      3.990      7.018
REMARK INTER + INTRA:          -5.413
REMARK INTER:                  -5.082
REMARK INTRA:                  -0.332
REMARK UNBOUND:                -0.314
REMARK SMILES O=c1c(O)c(-c2ccc(O)cc2O)oc2cc(O)cc(O)c12
REMARK SMILES IDX 5 1 3 2 2 3 1 4 22 5 20 6 19 7 17 8 16 9 15 10 14 11 6 12
REMARK SMILES IDX 8 13 7 14 9 15 11 16 12 17 10 18 13 20 4 22 21 24 18 26
REMARK H PARENT 10 19 13 21 4 23 21 25 18 27
REMARK Flexibility Score: inf
ROOT
ATOM      1  C   UNL     1      -7.536  -3.779   8.827  1.00  0.00     0.184 A 
ATOM      2  C   UNL     1      -6.316  -4.252   9.332  1.00  0.00     0.208 A 
ATOM      3  C   UNL     1      -6.073  -5.634   9.342  1.00  0.00     0.238 A 
ATOM      4  O   UNL     1      -4.954  -6.049   9.741  1.00  0.00    -0.285 OA
ATOM      5  C   UNL     1      -7.068  -6.526   8.870  1.00  0.00     0.111 A 
ATOM      6  C   UNL     1      -6.946  -7.949   8.871  1.00  0.00     0.134 A 
ATOM      7  C   UNL     1      -7.943  -8.726   8.267  1.00  0.00     0.093 A 
ATOM      8  C   UNL     1      -9.085  -8.140   7.723  1.00  0.00     0.123 A 
ATOM      9  C   UNL     1      -9.241  -6.754   7.770  1.00  0.00     0.094 A 
ATOM     10  C   UNL     1      -8.248  -5.948   8.332  1.00  0.00     0.146 A 
ATOM     11  O   UNL     1      -8.429  -4.633   8.344  1.00  0.00    -0.451 OA
ENDROOT
BRANCH   1  12
ATOM     12  C   UNL     1      -7.854  -2.334   8.813  1.00  0.00     0.063 A 
ATOM     13  C   UNL     1      -8.275  -0.281  10.050  1.00  0.00     0.047 A 
ATOM     14  C   UNL     1      -7.921  -1.633  10.029  1.00  0.00     0.020 A 
ATOM     15  C   UNL     1      -8.575   0.385   8.857  1.00  0.00     0.119 A 
ATOM     16  C   UNL     1      -8.514  -0.305   7.643  1.00  0.00     0.093 A 
ATOM     17  C   UNL     1      -8.151  -1.656   7.607  1.00  0.00     0.130 A 
BRANCH  15  18
ATOM     18  O   UNL     1      -8.934   1.731   8.867  1.00  0.00    -0.508 OA
ATOM     19  H   UNL     1      -9.905   2.020   8.878  1.00  0.00     0.293 HD
ENDBRANCH  15  18
BRANCH  17  20
ATOM     20  O   UNL     1      -8.070  -2.285   6.363  1.00  0.00    -0.507 OA
ATOM     21  H   UNL     1      -7.199  -2.420   5.867  1.00  0.00     0.293 HD
ENDBRANCH  17  20
ENDBRANCH   1  12
BRANCH   2  22
ATOM     22  O   UNL     1      -5.354  -3.349   9.794  1.00  0.00    -0.502 OA
ATOM     23  H   UNL     1      -5.185  -3.194  10.781  1.00  0.00     0.293 HD
ENDBRANCH   2  22
BRANCH   6  24
ATOM     24  O   UNL     1      -5.890  -8.644   9.467  1.00  0.00    -0.507 OA
ATOM     25  H   UNL     1      -5.837  -8.882  10.445  1.00  0.00     0.293 HD
ENDBRANCH   6  24
BRANCH   8  26
ATOM     26  O   UNL     1     -10.063  -8.945   7.146  1.00  0.00    -0.508 OA
ATOM     27  H   UNL     1     -10.353  -9.817   7.575  1.00  0.00     0.293 HD
ENDBRANCH   8  26
TORSDOF 6
ENDMDL
MODEL 9
REMARK VINA RESULT:    -4.193     19.641     21.826
REMARK INTER + INTRA:          -5.365
REMARK INTER:                  -4.970
REMARK INTRA:                  -0.395
REMARK UNBOUND:                -0.314
REMARK SMILES O=c1c(O)c(-c2ccc(O)cc2O)oc2cc(O)cc(O)c12
REMARK SMILES IDX 5 1 3 2 2 3 1 4 22 5 20 6 19 7 17 8 16 9 15 10 14 11 6 12
REMARK SMILES IDX 8 13 7 14 9 15 11 16 12 17 10 18 13 20 4 22 21 24 18 26
REMARK H PARENT 10 19 13 21 4 23 21 25 18 27
REMARK Flexibility Score: inf
ROOT
ATOM      1  C   UNL     1      -8.754   7.586  -5.009  1.00  0.00     0.184 A 
ATOM      2  C   UNL     1      -9.467   6.505  -5.549  1.00  0.00     0.208 A 
ATOM      3  C   UNL     1      -9.530   6.358  -6.943  1.00  0.00     0.238 A 
ATOM      4  O   UNL     1     -10.120   5.353  -7.419  1.00  0.00    -0.285 OA
ATOM      5  C   UNL     1      -8.901   7.313  -7.780  1.00  0.00     0.111 A 
ATOM      6  C   UNL     1      -8.934   7.286  -9.207  1.00  0.00     0.134 A 
ATOM      7  C   UNL     1      -8.174   8.213  -9.932  1.00  0.00     0.093 A 
ATOM      8  C   UNL     1      -7.436   9.203  -9.285  1.00  0.00     0.123 A 
ATOM      9  C   UNL     1      -7.444   9.275  -7.892  1.00  0.00     0.094 A 
ATOM     10  C   UNL     1      -8.162   8.343  -7.139  1.00  0.00     0.146 A 
ATOM     11  O   UNL     1      -8.132   8.437  -5.816  1.00  0.00    -0.451 OA
ENDROOT
BRANCH   1  12
ATOM     12  C   UNL     1      -8.674   7.803  -3.549  1.00  0.00     0.063 A 
ATOM     13  C   UNL     1      -9.758   8.491  -1.481  1.00  0.00     0.047 A 
ATOM     14  C   UNL     1      -9.820   8.224  -2.851  1.00  0.00     0.020 A 
ATOM     15  C   UNL     1      -8.549   8.348  -0.791  1.00  0.00     0.119 A 
ATOM     16  C   UNL     1      -7.405   7.933  -1.476  1.00  0.00     0.093 A 
ATOM     17  C   UNL     1      -7.455   7.652  -2.847  1.00  0.00     0.130 A 
BRANCH  15  18
ATOM     18  O   UNL     1      -8.476   8.616   0.574  1.00  0.00    -0.508 OA
ATOM     19  H   UNL     1      -8.816   7.955   1.263  1.00  0.00     0.293 HD
ENDBRANCH  15  18
BRANCH  17  20
ATOM     20  O   UNL     1      -6.289   7.205  -3.472  1.00  0.00    -0.507 OA
ATOM     21  H   UNL     1      -6.275   6.440  -4.134  1.00  0.00     0.293 HD
ENDBRANCH  17  20
ENDBRANCH   1  12
BRANCH   2  22
ATOM     22  O   UNL     1     -10.081   5.580  -4.699  1.00  0.00    -0.502 OA
ATOM     23  H   UNL     1     -11.086   5.466  -4.657  1.00  0.00     0.293 HD
ENDBRANCH   2  22
BRANCH   6  24
ATOM     24  O   UNL     1      -9.709   6.395  -9.955  1.00  0.00    -0.507 OA
ATOM     25  H   UNL     1     -10.523   5.910  -9.609  1.00  0.00     0.293 HD
ENDBRANCH   6  24
BRANCH   8  26
ATOM     26  O   UNL     1      -6.705  10.118 -10.039  1.00  0.00    -0.508 OA
ATOM     27  H   UNL     1      -6.813  11.118  -9.910  1.00  0.00     0.293 HD
ENDBRANCH   8  26
TORSDOF 6
ENDMDL
