MODEL 1
REMARK VINA RESULT:    -4.117      0.000      0.000
REMARK INTER + INTRA:          -8.368
REMARK INTER:                  -7.486
REMARK INTRA:                  -0.883
REMARK UNBOUND:                -0.883
REMARK SMILES CCCCCCCCCCCCCCCC(=O)[O-]
REMARK SMILES IDX 9 1 10 2 11 3 12 4 13 5 14 6 15 7 16 8 17 9 18 10 8 11 7 12
REMARK SMILES IDX 6 13 5 14 4 15 3 16 2 17 1 18
REMARK H PARENT
REMARK Flexibility Score: inf
ROOT
ATOM      1  C   UNL     1     -16.935 -10.524 -19.746  1.00  0.00     0.000 C 
ENDROOT
BRANCH   1   2
ATOM      2  C   UNL     1     -15.738  -9.681 -20.215  1.00  0.00     0.000 C 
BRANCH   2   3
ATOM      3  C   UNL     1     -16.027  -8.172 -20.165  1.00  0.00     0.000 C 
BRANCH   3   4
ATOM      4  C   UNL     1     -14.778  -7.346 -19.790  1.00  0.00     0.000 C 
BRANCH   4   5
ATOM      5  C   UNL     1     -14.954  -5.829 -19.987  1.00  0.00     0.000 C 
BRANCH   5   6
ATOM      6  C   UNL     1     -16.416  -5.354 -20.098  1.00  0.00     0.006 C 
BRANCH   6   7
ATOM      7  C   UNL     1     -16.682  -4.392 -21.266  1.00  0.00     0.053 C 
BRANCH   7   8
ATOM      8  C   UNL     1     -17.590  -4.994 -22.294  1.00  0.00     0.041 C 
ATOM      9  O   UNL     1     -18.513  -5.775 -21.943  1.00  0.00    -0.550 OA
ATOM     10  O   UNL     1     -17.439  -4.664 -23.634  1.00  0.00    -0.550 OA
ENDBRANCH   7   8
ENDBRANCH   6   7
ENDBRANCH   5   6
ENDBRANCH   4   5
ENDBRANCH   3   4
ENDBRANCH   2   3
ENDBRANCH   1   2
BRANCH   1  11
ATOM     11  C   UNL     1     -16.838 -12.010 -20.166  1.00  0.00     0.000 C 
BRANCH  11  12
ATOM     12  C   UNL     1     -17.455 -12.299 -21.548  1.00  0.00    -0.000 C 
BRANCH  12  13
ATOM     13  C   UNL     1     -18.016 -13.726 -21.725  1.00  0.00    -0.000 C 
BRANCH  13  14
ATOM     14  C   UNL     1     -19.237 -13.846 -22.656  1.00  0.00    -0.000 C 
BRANCH  14  15
ATOM     15  C   UNL     1     -19.262 -12.772 -23.754  1.00  0.00    -0.000 C 
BRANCH  15  16
ATOM     16  C   UNL     1     -18.735 -13.330 -25.081  1.00  0.00    -0.000 C 
BRANCH  16  17
ATOM     17  C   UNL     1     -17.660 -12.413 -25.675  1.00  0.00    -0.003 C 
ATOM     18  C   UNL     1     -16.259 -12.916 -25.340  1.00  0.00     0.004 C 
ENDBRANCH  16  17
ENDBRANCH  15  16
ENDBRANCH  14  15
ENDBRANCH  13  14
ENDBRANCH  12  13
ENDBRANCH  11  12
ENDBRANCH   1  11
TORSDOF 14
ENDMDL
MODEL 2
REMARK VINA RESULT:    -4.051      2.652      7.493
REMARK INTER + INTRA:          -8.249
REMARK INTER:                  -7.498
REMARK INTRA:                  -0.750
REMARK UNBOUND:                -0.883
REMARK SMILES CCCCCCCCCCCCCCCC(=O)[O-]
REMARK SMILES IDX 9 1 10 2 11 3 12 4 13 5 14 6 15 7 16 8 17 9 18 10 8 11 7 12
REMARK SMILES IDX 6 13 5 14 4 15 3 16 2 17 1 18
REMARK H PARENT
REMARK Flexibility Score: inf
ROOT
ATOM      1  C   UNL     1     -16.576 -11.796 -20.645  1.00  0.00     0.000 C 
ENDROOT
BRANCH   1   2
ATOM      2  C   UNL     1     -16.853 -13.064 -19.821  1.00  0.00     0.000 C 
BRANCH   2   3
ATOM      3  C   UNL     1     -17.718 -14.082 -20.582  1.00  0.00     0.000 C 
BRANCH   3   4
ATOM      4  C   UNL     1     -17.801 -13.769 -22.092  1.00  0.00     0.000 C 
BRANCH   4   5
ATOM      5  C   UNL     1     -19.241 -13.582 -22.608  1.00  0.00     0.000 C 
BRANCH   5   6
ATOM      6  C   UNL     1     -19.365 -12.753 -23.901  1.00  0.00     0.006 C 
BRANCH   6   7
ATOM      7  C   UNL     1     -18.720 -13.405 -25.135  1.00  0.00     0.053 C 
BRANCH   7   8
ATOM      8  C   UNL     1     -17.636 -12.552 -25.718  1.00  0.00     0.041 C 
ATOM      9  O   UNL     1     -17.889 -11.772 -26.673  1.00  0.00    -0.550 OA
ATOM     10  O   UNL     1     -16.355 -12.593 -25.183  1.00  0.00    -0.550 OA
ENDBRANCH   7   8
ENDBRANCH   6   7
ENDBRANCH   5   6
ENDBRANCH   4   5
ENDBRANCH   3   4
ENDBRANCH   2   3
ENDBRANCH   1   2
BRANCH   1  11
ATOM     11  C   UNL     1     -16.703 -10.492 -19.823  1.00  0.00     0.000 C 
BRANCH  11  12
ATOM     12  C   UNL     1     -15.613  -9.452 -20.146  1.00  0.00    -0.000 C 
BRANCH  12  13
ATOM     13  C   UNL     1     -16.097  -7.986 -20.170  1.00  0.00    -0.000 C 
BRANCH  13  14
ATOM     14  C   UNL     1     -14.991  -6.922 -20.051  1.00  0.00    -0.000 C 
BRANCH  14  15
ATOM     15  C   UNL     1     -15.524  -5.486 -20.163  1.00  0.00    -0.000 C 
BRANCH  15  16
ATOM     16  C   UNL     1     -16.933  -5.469 -20.769  1.00  0.00    -0.000 C 
BRANCH  16  17
ATOM     17  C   UNL     1     -17.083  -4.328 -21.781  1.00  0.00    -0.003 C 
ATOM     18  C   UNL     1     -17.564  -4.848 -23.132  1.00  0.00     0.004 C 
ENDBRANCH  16  17
ENDBRANCH  15  16
ENDBRANCH  14  15
ENDBRANCH  13  14
ENDBRANCH  12  13
ENDBRANCH  11  12
ENDBRANCH   1  11
TORSDOF 14
ENDMDL
MODEL 3
REMARK VINA RESULT:    -3.612      7.043      9.660
REMARK INTER + INTRA:          -7.450
REMARK INTER:                  -6.741
REMARK INTRA:                  -0.709
REMARK UNBOUND:                -0.883
REMARK SMILES CCCCCCCCCCCCCCCC(=O)[O-]
REMARK SMILES IDX 9 1 10 2 11 3 12 4 13 5 14 6 15 7 16 8 17 9 18 10 8 11 7 12
REMARK SMILES IDX 6 13 5 14 4 15 3 16 2 17 1 18
REMARK H PARENT
REMARK Flexibility Score: inf
ROOT
ATOM      1  C   UNL     1     -14.391  -4.551 -16.800  1.00  0.00     0.000 C 
ENDROOT
BRANCH   1   2
ATOM      2  C   UNL     1     -14.181  -4.022 -15.372  1.00  0.00     0.000 C 
BRANCH   2   3
ATOM      3  C   UNL     1     -14.400  -2.503 -15.269  1.00  0.00     0.000 C 
BRANCH   3   4
ATOM      4  C   UNL     1     -14.536  -2.027 -13.807  1.00  0.00     0.000 C 
BRANCH   4   5
ATOM      5  C   UNL     1     -14.654  -3.177 -12.788  1.00  0.00     0.000 C 
BRANCH   5   6
ATOM      6  C   UNL     1     -13.366  -3.478 -11.997  1.00  0.00     0.006 C 
BRANCH   6   7
ATOM      7  C   UNL     1     -13.599  -4.202 -10.662  1.00  0.00     0.053 C 
BRANCH   7   8
ATOM      8  C   UNL     1     -13.836  -3.243  -9.537  1.00  0.00     0.041 C 
ATOM      9  O   UNL     1     -12.906  -2.494  -9.136  1.00  0.00    -0.550 OA
ATOM     10  O   UNL     1     -15.094  -3.150  -8.955  1.00  0.00    -0.550 OA
ENDBRANCH   7   8
ENDBRANCH   6   7
ENDBRANCH   5   6
ENDBRANCH   4   5
ENDBRANCH   3   4
ENDBRANCH   2   3
ENDBRANCH   1   2
BRANCH   1  11
ATOM     11  C   UNL     1     -13.921  -6.012 -16.986  1.00  0.00     0.000 C 
BRANCH  11  12
ATOM     12  C   UNL     1     -13.608  -6.375 -18.451  1.00  0.00    -0.000 C 
BRANCH  12  13
ATOM     13  C   UNL     1     -14.572  -5.768 -19.492  1.00  0.00    -0.000 C 
BRANCH  13  14
ATOM     14  C   UNL     1     -15.475  -6.778 -20.225  1.00  0.00    -0.000 C 
BRANCH  14  15
ATOM     15  C   UNL     1     -16.716  -6.127 -20.854  1.00  0.00    -0.000 C 
BRANCH  15  16
ATOM     16  C   UNL     1     -16.650  -4.599 -20.744  1.00  0.00    -0.000 C 
BRANCH  16  17
ATOM     17  C   UNL     1     -17.047  -3.935 -22.067  1.00  0.00    -0.003 C 
ATOM     18  C   UNL     1     -17.701  -4.936 -23.013  1.00  0.00     0.004 C 
ENDBRANCH  16  17
ENDBRANCH  15  16
ENDBRANCH  14  15
ENDBRANCH  13  14
ENDBRANCH  12  13
ENDBRANCH  11  12
ENDBRANCH   1  11
TORSDOF 14
ENDMDL
MODEL 4
REMARK VINA RESULT:    -3.463      5.928     10.914
REMARK INTER + INTRA:          -7.181
REMARK INTER:                  -6.492
REMARK INTRA:                  -0.688
REMARK UNBOUND:                -0.883
REMARK SMILES CCCCCCCCCCCCCCCC(=O)[O-]
REMARK SMILES IDX 9 1 10 2 11 3 12 4 13 5 14 6 15 7 16 8 17 9 18 10 8 11 7 12
REMARK SMILES IDX 6 13 5 14 4 15 3 16 2 17 1 18
REMARK H PARENT
REMARK Flexibility Score: inf
ROOT
ATOM      1  C   UNL     1     -14.659  -4.243 -16.724  1.00  0.00     0.000 C 
ENDROOT
BRANCH   1   2
ATOM      2  C   UNL     1     -13.952  -5.544 -17.137  1.00  0.00     0.000 C 
BRANCH   2   3
ATOM      3  C   UNL     1     -13.708  -5.624 -18.653  1.00  0.00     0.000 C 
BRANCH   3   4
ATOM      4  C   UNL     1     -14.372  -6.864 -19.290  1.00  0.00     0.000 C 
BRANCH   4   5
ATOM      5  C   UNL     1     -15.242  -6.539 -20.519  1.00  0.00     0.000 C 
BRANCH   5   6
ATOM      6  C   UNL     1     -16.229  -5.373 -20.326  1.00  0.00     0.006 C 
BRANCH   6   7
ATOM      7  C   UNL     1     -17.492  -5.462 -21.198  1.00  0.00     0.053 C 
BRANCH   7   8
ATOM      8  C   UNL     1     -17.396  -4.594 -22.415  1.00  0.00     0.041 C 
ATOM      9  O   UNL     1     -17.003  -3.403 -22.314  1.00  0.00    -0.550 OA
ATOM     10  O   UNL     1     -17.707  -5.113 -23.666  1.00  0.00    -0.550 OA
ENDBRANCH   7   8
ENDBRANCH   6   7
ENDBRANCH   5   6
ENDBRANCH   4   5
ENDBRANCH   3   4
ENDBRANCH   2   3
ENDBRANCH   1   2
BRANCH   1  11
ATOM     11  C   UNL     1     -14.421  -3.860 -15.245  1.00  0.00     0.000 C 
BRANCH  11  12
ATOM     12  C   UNL     1     -14.092  -2.368 -15.041  1.00  0.00    -0.000 C 
BRANCH  12  13
ATOM     13  C   UNL     1     -13.219  -2.057 -13.806  1.00  0.00    -0.000 C 
BRANCH  13  14
ATOM     14  C   UNL     1     -12.876  -3.266 -12.917  1.00  0.00    -0.000 C 
BRANCH  14  15
ATOM     15  C   UNL     1     -13.712  -3.321 -11.630  1.00  0.00    -0.000 C 
BRANCH  15  16
ATOM     16  C   UNL     1     -12.877  -2.904 -10.414  1.00  0.00    -0.000 C 
BRANCH  16  17
ATOM     17  C   UNL     1     -13.384  -3.586  -9.138  1.00  0.00    -0.003 C 
ATOM     18  C   UNL     1     -14.231  -4.811  -9.466  1.00  0.00     0.004 C 
ENDBRANCH  16  17
ENDBRANCH  15  16
ENDBRANCH  14  15
ENDBRANCH  13  14
ENDBRANCH  12  13
ENDBRANCH  11  12
ENDBRANCH   1  11
TORSDOF 14
ENDMDL
MODEL 5
REMARK VINA RESULT:    -3.123      0.992      2.465
REMARK INTER + INTRA:          -6.561
REMARK INTER:                  -5.932
REMARK INTRA:                  -0.629
REMARK UNBOUND:                -0.883
REMARK SMILES CCCCCCCCCCCCCCCC(=O)[O-]
REMARK SMILES IDX 9 1 10 2 11 3 12 4 13 5 14 6 15 7 16 8 17 9 18 10 8 11 7 12
REMARK SMILES IDX 6 13 5 14 4 15 3 16 2 17 1 18
REMARK H PARENT
REMARK Flexibility Score: inf
ROOT
ATOM      1  C   UNL     1     -17.340 -12.208 -21.829  1.00  0.00     0.000 C 
ENDROOT
BRANCH   1   2
ATOM      2  C   UNL     1     -16.647 -12.102 -20.461  1.00  0.00     0.000 C 
BRANCH   2   3
ATOM      3  C   UNL     1     -16.892 -10.744 -19.783  1.00  0.00     0.000 C 
BRANCH   3   4
ATOM      4  C   UNL     1     -15.849  -9.684 -20.198  1.00  0.00     0.000 C 
BRANCH   4   5
ATOM      5  C   UNL     1     -16.320  -8.233 -19.985  1.00  0.00     0.000 C 
BRANCH   5   6
ATOM      6  C   UNL     1     -15.432  -7.158 -20.642  1.00  0.00     0.006 C 
BRANCH   6   7
ATOM      7  C   UNL     1     -15.742  -5.721 -20.195  1.00  0.00     0.053 C 
BRANCH   7   8
ATOM      8  C   UNL     1     -16.699  -5.038 -21.124  1.00  0.00     0.041 C 
ATOM      9  O   UNL     1     -16.612  -3.798 -21.321  1.00  0.00    -0.550 OA
ATOM     10  O   UNL     1     -17.662  -5.778 -21.798  1.00  0.00    -0.550 OA
ENDBRANCH   7   8
ENDBRANCH   6   7
ENDBRANCH   5   6
ENDBRANCH   4   5
ENDBRANCH   3   4
ENDBRANCH   2   3
ENDBRANCH   1   2
BRANCH   1  11
ATOM     11  C   UNL     1     -18.596 -13.112 -21.810  1.00  0.00     0.000 C 
BRANCH  11  12
ATOM     12  C   UNL     1     -19.463 -12.986 -23.078  1.00  0.00    -0.000 C 
BRANCH  12  13
ATOM     13  C   UNL     1     -18.914 -13.725 -24.317  1.00  0.00    -0.000 C 
BRANCH  13  14
ATOM     14  C   UNL     1     -19.307 -13.118 -25.677  1.00  0.00    -0.000 C 
BRANCH  14  15
ATOM     15  C   UNL     1     -18.186 -12.279 -26.307  1.00  0.00    -0.000 C 
BRANCH  15  16
ATOM     16  C   UNL     1     -16.977 -12.186 -25.370  1.00  0.00    -0.000 C 
BRANCH  16  17
ATOM     17  C   UNL     1     -15.848 -13.115 -25.833  1.00  0.00    -0.003 C 
ATOM     18  C   UNL     1     -14.534 -12.777 -25.136  1.00  0.00     0.004 C 
ENDBRANCH  16  17
ENDBRANCH  15  16
ENDBRANCH  14  15
ENDBRANCH  13  14
ENDBRANCH  12  13
ENDBRANCH  11  12
ENDBRANCH   1  11
TORSDOF 14
ENDMDL
MODEL 6
REMARK VINA RESULT:    -2.654      4.051      9.597
REMARK INTER + INTRA:          -5.709
REMARK INTER:                  -5.073
REMARK INTRA:                  -0.636
REMARK UNBOUND:                -0.883
REMARK SMILES CCCCCCCCCCCCCCCC(=O)[O-]
REMARK SMILES IDX 9 1 10 2 11 3 12 4 13 5 14 6 15 7 16 8 17 9 18 10 8 11 7 12
REMARK SMILES IDX 6 13 5 14 4 15 3 16 2 17 1 18
REMARK H PARENT
REMARK Flexibility Score: inf
ROOT
ATOM      1  C   UNL     1     -15.679  -6.530 -20.352  1.00  0.00     0.000 C 
ENDROOT
BRANCH   1   2
ATOM      2  C   UNL     1     -15.240  -7.986 -20.134  1.00  0.00     0.000 C 
BRANCH   2   3
ATOM      3  C   UNL     1     -16.431  -8.958 -20.084  1.00  0.00     0.000 C 
BRANCH   3   4
ATOM      4  C   UNL     1     -16.002 -10.424 -20.310  1.00  0.00     0.000 C 
BRANCH   4   5
ATOM      5  C   UNL     1     -17.097 -11.451 -19.964  1.00  0.00     0.000 C 
BRANCH   5   6
ATOM      6  C   UNL     1     -17.031 -12.766 -20.765  1.00  0.00     0.006 C 
BRANCH   6   7
ATOM      7  C   UNL     1     -18.326 -13.118 -21.513  1.00  0.00     0.053 C 
BRANCH   7   8
ATOM      8  C   UNL     1     -18.263 -12.729 -22.958  1.00  0.00     0.041 C 
ATOM      9  O   UNL     1     -17.150 -12.544 -23.516  1.00  0.00    -0.550 OA
ATOM     10  O   UNL     1     -19.432 -12.605 -23.697  1.00  0.00    -0.550 OA
ENDBRANCH   7   8
ENDBRANCH   6   7
ENDBRANCH   5   6
ENDBRANCH   4   5
ENDBRANCH   3   4
ENDBRANCH   2   3
ENDBRANCH   1   2
BRANCH   1  11
ATOM     11  C   UNL     1     -14.784  -5.504 -19.617  1.00  0.00     0.000 C 
BRANCH  11  12
ATOM     12  C   UNL     1     -13.813  -6.148 -18.608  1.00  0.00    -0.000 C 
BRANCH  12  13
ATOM     13  C   UNL     1     -13.991  -5.682 -17.147  1.00  0.00    -0.000 C 
BRANCH  13  14
ATOM     14  C   UNL     1     -14.644  -4.300 -16.967  1.00  0.00    -0.000 C 
BRANCH  14  15
ATOM     15  C   UNL     1     -14.385  -3.688 -15.582  1.00  0.00    -0.000 C 
BRANCH  15  16
ATOM     16  C   UNL     1     -13.925  -2.230 -15.703  1.00  0.00    -0.000 C 
BRANCH  16  17
ATOM     17  C   UNL     1     -13.438  -1.693 -14.352  1.00  0.00    -0.003 C 
ATOM     18  C   UNL     1     -13.192  -2.829 -13.364  1.00  0.00     0.004 C 
ENDBRANCH  16  17
ENDBRANCH  15  16
ENDBRANCH  14  15
ENDBRANCH  13  14
ENDBRANCH  12  13
ENDBRANCH  11  12
ENDBRANCH   1  11
TORSDOF 14
ENDMDL
MODEL 7
REMARK VINA RESULT:    -2.566      4.342      5.383
REMARK INTER + INTRA:          -5.549
REMARK INTER:                  -5.019
REMARK INTRA:                  -0.530
REMARK UNBOUND:                -0.883
REMARK SMILES CCCCCCCCCCCCCCCC(=O)[O-]
REMARK SMILES IDX 9 1 10 2 11 3 12 4 13 5 14 6 15 7 16 8 17 9 18 10 8 11 7 12
REMARK SMILES IDX 6 13 5 14 4 15 3 16 2 17 1 18
REMARK H PARENT
REMARK Flexibility Score: inf
ROOT
ATOM      1  C   UNL     1     -15.865  -6.936 -20.447  1.00  0.00     0.000 C 
ENDROOT
BRANCH   1   2
ATOM      2  C   UNL     1     -15.050  -5.844 -19.734  1.00  0.00     0.000 C 
BRANCH   2   3
ATOM      3  C   UNL     1     -13.925  -6.426 -18.863  1.00  0.00     0.000 C 
BRANCH   3   4
ATOM      4  C   UNL     1     -14.009  -5.946 -17.398  1.00  0.00     0.000 C 
BRANCH   4   5
ATOM      5  C   UNL     1     -14.592  -4.529 -17.241  1.00  0.00     0.000 C 
BRANCH   5   6
ATOM      6  C   UNL     1     -14.446  -3.918 -15.834  1.00  0.00     0.006 C 
BRANCH   6   7
ATOM      7  C   UNL     1     -14.231  -2.396 -15.825  1.00  0.00     0.053 C 
BRANCH   7   8
ATOM      8  C   UNL     1     -13.736  -1.908 -14.498  1.00  0.00     0.041 C 
ATOM      9  O   UNL     1     -13.731  -0.676 -14.239  1.00  0.00    -0.550 OA
ATOM     10  O   UNL     1     -13.314  -2.816 -13.536  1.00  0.00    -0.550 OA
ENDBRANCH   7   8
ENDBRANCH   6   7
ENDBRANCH   5   6
ENDBRANCH   4   5
ENDBRANCH   3   4
ENDBRANCH   2   3
ENDBRANCH   1   2
BRANCH   1  11
ATOM     11  C   UNL     1     -15.402  -8.370 -20.097  1.00  0.00     0.000 C 
BRANCH  11  12
ATOM     12  C   UNL     1     -16.553  -9.394 -20.055  1.00  0.00    -0.000 C 
BRANCH  12  13
ATOM     13  C   UNL     1     -16.131 -10.859 -20.302  1.00  0.00    -0.000 C 
BRANCH  13  14
ATOM     14  C   UNL     1     -17.284 -11.877 -20.373  1.00  0.00    -0.000 C 
BRANCH  14  15
ATOM     15  C   UNL     1     -17.408 -12.549 -21.749  1.00  0.00    -0.000 C 
BRANCH  15  16
ATOM     16  C   UNL     1     -18.873 -12.623 -22.192  1.00  0.00    -0.000 C 
BRANCH  16  17
ATOM     17  C   UNL     1     -19.028 -13.513 -23.432  1.00  0.00    -0.003 C 
ATOM     18  C   UNL     1     -18.898 -12.698 -24.715  1.00  0.00     0.004 C 
ENDBRANCH  16  17
ENDBRANCH  15  16
ENDBRANCH  14  15
ENDBRANCH  13  14
ENDBRANCH  12  13
ENDBRANCH  11  12
ENDBRANCH   1  11
TORSDOF 14
ENDMDL
MODEL 8
REMARK VINA RESULT:    -2.277      2.622      3.316
REMARK INTER + INTRA:          -5.023
REMARK INTER:                  -4.509
REMARK INTRA:                  -0.514
REMARK UNBOUND:                -0.883
REMARK SMILES CCCCCCCCCCCCCCCC(=O)[O-]
REMARK SMILES IDX 9 1 10 2 11 3 12 4 13 5 14 6 15 7 16 8 17 9 18 10 8 11 7 12
REMARK SMILES IDX 6 13 5 14 4 15 3 16 2 17 1 18
REMARK H PARENT
REMARK Flexibility Score: inf
ROOT
ATOM      1  C   UNL     1     -17.071 -10.671 -19.758  1.00  0.00     0.000 C 
ENDROOT
BRANCH   1   2
ATOM      2  C   UNL     1     -15.953  -9.867 -20.441  1.00  0.00     0.000 C 
BRANCH   2   3
ATOM      3  C   UNL     1     -15.647  -8.549 -19.710  1.00  0.00     0.000 C 
BRANCH   3   4
ATOM      4  C   UNL     1     -15.700  -7.328 -20.654  1.00  0.00     0.000 C 
BRANCH   4   5
ATOM      5  C   UNL     1     -15.626  -5.975 -19.922  1.00  0.00     0.000 C 
BRANCH   5   6
ATOM      6  C   UNL     1     -14.215  -5.561 -19.461  1.00  0.00     0.006 C 
BRANCH   6   7
ATOM      7  C   UNL     1     -13.667  -6.385 -18.286  1.00  0.00     0.053 C 
BRANCH   7   8
ATOM      8  C   UNL     1     -14.087  -5.824 -16.962  1.00  0.00     0.041 C 
ATOM      9  O   UNL     1     -14.445  -4.621 -16.870  1.00  0.00    -0.550 OA
ATOM     10  O   UNL     1     -14.118  -6.640 -15.839  1.00  0.00    -0.550 OA
ENDBRANCH   7   8
ENDBRANCH   6   7
ENDBRANCH   5   6
ENDBRANCH   4   5
ENDBRANCH   3   4
ENDBRANCH   2   3
ENDBRANCH   1   2
BRANCH   1  11
ATOM     11  C   UNL     1     -16.662 -12.125 -19.423  1.00  0.00     0.000 C 
BRANCH  11  12
ATOM     12  C   UNL     1     -17.232 -13.166 -20.406  1.00  0.00    -0.000 C 
BRANCH  12  13
ATOM     13  C   UNL     1     -18.217 -12.602 -21.452  1.00  0.00    -0.000 C 
BRANCH  13  14
ATOM     14  C   UNL     1     -18.523 -13.531 -22.641  1.00  0.00    -0.000 C 
BRANCH  14  15
ATOM     15  C   UNL     1     -19.286 -12.826 -23.774  1.00  0.00    -0.000 C 
BRANCH  15  16
ATOM     16  C   UNL     1     -18.688 -13.179 -25.140  1.00  0.00    -0.000 C 
BRANCH  16  17
ATOM     17  C   UNL     1     -17.279 -13.763 -24.990  1.00  0.00    -0.003 C 
ATOM     18  C   UNL     1     -16.234 -12.852 -25.626  1.00  0.00     0.004 C 
ENDBRANCH  16  17
ENDBRANCH  15  16
ENDBRANCH  14  15
ENDBRANCH  13  14
ENDBRANCH  12  13
ENDBRANCH  11  12
ENDBRANCH   1  11
TORSDOF 14
ENDMDL
MODEL 9
REMARK VINA RESULT:    -2.040     16.158     19.478
REMARK INTER + INTRA:          -4.593
REMARK INTER:                  -3.556
REMARK INTRA:                  -1.036
REMARK UNBOUND:                -0.883
REMARK SMILES CCCCCCCCCCCCCCCC(=O)[O-]
REMARK SMILES IDX 9 1 10 2 11 3 12 4 13 5 14 6 15 7 16 8 17 9 18 10 8 11 7 12
REMARK SMILES IDX 6 13 5 14 4 15 3 16 2 17 1 18
REMARK H PARENT
REMARK Flexibility Score: inf
ROOT
ATOM      1  C   UNL     1     -30.502   3.637 -26.500  1.00  0.00     0.000 C 
ENDROOT
BRANCH   1   2
ATOM      2  C   UNL     1     -30.443   4.681 -27.626  1.00  0.00     0.000 C 
BRANCH   2   3
ATOM      3  C   UNL     1     -31.315   4.295 -28.832  1.00  0.00     0.000 C 
BRANCH   3   4
ATOM      4  C   UNL     1     -32.707   3.778 -28.409  1.00  0.00     0.000 C 
BRANCH   4   5
ATOM      5  C   UNL     1     -33.125   2.474 -29.115  1.00  0.00     0.000 C 
BRANCH   5   6
ATOM      6  C   UNL     1     -33.098   1.216 -28.225  1.00  0.00     0.006 C 
BRANCH   6   7
ATOM      7  C   UNL     1     -33.058  -0.109 -29.004  1.00  0.00     0.053 C 
BRANCH   7   8
ATOM      8  C   UNL     1     -32.731  -1.271 -28.117  1.00  0.00     0.041 C 
ATOM      9  O   UNL     1     -32.807  -1.154 -26.866  1.00  0.00    -0.550 OA
ATOM     10  O   UNL     1     -32.377  -2.493 -28.675  1.00  0.00    -0.550 OA
ENDBRANCH   7   8
ENDBRANCH   6   7
ENDBRANCH   5   6
ENDBRANCH   4   5
ENDBRANCH   3   4
ENDBRANCH   2   3
ENDBRANCH   1   2
BRANCH   1  11
ATOM     11  C   UNL     1     -31.414   4.057 -25.323  1.00  0.00     0.000 C 
BRANCH  11  12
ATOM     12  C   UNL     1     -32.384   2.947 -24.871  1.00  0.00    -0.000 C 
BRANCH  12  13
ATOM     13  C   UNL     1     -31.836   1.510 -25.002  1.00  0.00    -0.000 C 
BRANCH  13  14
ATOM     14  C   UNL     1     -31.500   0.806 -23.675  1.00  0.00    -0.000 C 
BRANCH  14  15
ATOM     15  C   UNL     1     -31.159  -0.682 -23.854  1.00  0.00    -0.000 C 
BRANCH  15  16
ATOM     16  C   UNL     1     -30.912  -1.355 -22.499  1.00  0.00    -0.000 C 
BRANCH  16  17
ATOM     17  C   UNL     1     -29.443  -1.223 -22.079  1.00  0.00    -0.003 C 
ATOM     18  C   UNL     1     -29.224  -1.751 -20.665  1.00  0.00     0.004 C 
ENDBRANCH  16  17
ENDBRANCH  15  16
ENDBRANCH  14  15
ENDBRANCH  13  14
ENDBRANCH  12  13
ENDBRANCH  11  12
ENDBRANCH   1  11
TORSDOF 14
ENDMDL
