MODEL 1
REMARK VINA RESULT:    -3.997      0.000      0.000
REMARK INTER + INTRA:         -10.413
REMARK INTER:                  -7.735
REMARK INTRA:                  -2.678
REMARK UNBOUND:                -2.678
REMARK SMILES CCCCCCCCCCCCCCCCCC(=O)[O-]
REMARK SMILES IDX 10 1 11 2 12 3 13 4 14 5 15 6 16 7 17 8 18 9 19 10 20 11
REMARK SMILES IDX 9 12 8 13 7 14 6 15 5 16 4 17 3 18 2 19 1 20
REMARK H PARENT
REMARK Flexibility Score: inf
ROOT
ATOM      1  C   UNL     1      12.077  26.608  33.750  1.00  0.00     0.000 C 
ENDROOT
BRANCH   1   2
ATOM      2  C   UNL     1      12.705  25.228  33.484  1.00  0.00     0.000 C 
BRANCH   2   3
ATOM      3  C   UNL     1      14.124  25.316  32.897  1.00  0.00     0.000 C 
BRANCH   3   4
ATOM      4  C   UNL     1      14.943  24.037  33.137  1.00  0.00     0.000 C 
BRANCH   4   5
ATOM      5  C   UNL     1      16.361  24.329  33.653  1.00  0.00     0.000 C 
BRANCH   5   6
ATOM      6  C   UNL     1      16.490  23.957  35.137  1.00  0.00     0.000 C 
BRANCH   6   7
ATOM      7  C   UNL     1      15.375  23.009  35.615  1.00  0.00     0.006 C 
BRANCH   7   8
ATOM      8  C   UNL     1      15.874  21.650  36.130  1.00  0.00     0.053 C 
BRANCH   8   9
ATOM      9  C   UNL     1      15.653  20.555  35.132  1.00  0.00     0.041 C 
ATOM     10  O   UNL     1      15.104  19.478  35.483  1.00  0.00    -0.550 OA
ATOM     11  O   UNL     1      16.024  20.738  33.805  1.00  0.00    -0.550 OA
ENDBRANCH   8   9
ENDBRANCH   7   8
ENDBRANCH   6   7
ENDBRANCH   5   6
ENDBRANCH   4   5
ENDBRANCH   3   4
ENDBRANCH   2   3
ENDBRANCH   1   2
BRANCH   1  12
ATOM     12  C   UNL     1      12.346  27.197  35.148  1.00  0.00     0.000 C 
BRANCH  12  13
ATOM     13  C   UNL     1      12.925  26.167  36.132  1.00  0.00    -0.000 C 
BRANCH  13  14
ATOM     14  C   UNL     1      14.371  26.489  36.553  1.00  0.00    -0.000 C 
BRANCH  14  15
ATOM     15  C   UNL     1      14.930  27.827  36.030  1.00  0.00    -0.000 C 
BRANCH  15  16
ATOM     16  C   UNL     1      16.146  27.711  35.093  1.00  0.00    -0.000 C 
BRANCH  16  17
ATOM     17  C   UNL     1      15.840  28.176  33.659  1.00  0.00    -0.000 C 
BRANCH  17  18
ATOM     18  C   UNL     1      16.988  27.870  32.682  1.00  0.00    -0.000 C 
BRANCH  18  19
ATOM     19  C   UNL     1      16.927  28.728  31.409  1.00  0.00    -0.003 C 
ATOM     20  C   UNL     1      16.715  30.201  31.750  1.00  0.00     0.004 C 
ENDBRANCH  18  19
ENDBRANCH  17  18
ENDBRANCH  16  17
ENDBRANCH  15  16
ENDBRANCH  14  15
ENDBRANCH  13  14
ENDBRANCH  12  13
ENDBRANCH   1  12
TORSDOF 16
ENDMDL
MODEL 2
REMARK VINA RESULT:    -3.905      1.502      2.279
REMARK INTER + INTRA:         -10.235
REMARK INTER:                  -7.700
REMARK INTRA:                  -2.535
REMARK UNBOUND:                -2.678
REMARK SMILES CCCCCCCCCCCCCCCCCC(=O)[O-]
REMARK SMILES IDX 10 1 11 2 12 3 13 4 14 5 15 6 16 7 17 8 18 9 19 10 20 11
REMARK SMILES IDX 9 12 8 13 7 14 6 15 5 16 4 17 3 18 2 19 1 20
REMARK H PARENT
REMARK Flexibility Score: inf
ROOT
ATOM      1  C   UNL     1      11.902  27.359  34.722  1.00  0.00     0.000 C 
ENDROOT
BRANCH   1   2
ATOM      2  C   UNL     1      12.549  26.397  35.736  1.00  0.00     0.000 C 
BRANCH   2   3
ATOM      3  C   UNL     1      13.440  25.334  35.071  1.00  0.00     0.000 C 
BRANCH   3   4
ATOM      4  C   UNL     1      13.438  25.437  33.537  1.00  0.00     0.000 C 
BRANCH   4   5
ATOM      5  C   UNL     1      14.487  24.525  32.881  1.00  0.00     0.000 C 
BRANCH   5   6
ATOM      6  C   UNL     1      15.898  24.865  33.381  1.00  0.00     0.000 C 
BRANCH   6   7
ATOM      7  C   UNL     1      16.592  23.674  34.068  1.00  0.00     0.006 C 
BRANCH   7   8
ATOM      8  C   UNL     1      16.339  22.317  33.393  1.00  0.00     0.053 C 
BRANCH   8   9
ATOM      9  C   UNL     1      15.758  21.316  34.343  1.00  0.00     0.041 C 
ATOM     10  O   UNL     1      15.567  20.128  33.974  1.00  0.00    -0.550 OA
ATOM     11  O   UNL     1      15.459  21.687  35.649  1.00  0.00    -0.550 OA
ENDBRANCH   8   9
ENDBRANCH   7   8
ENDBRANCH   6   7
ENDBRANCH   5   6
ENDBRANCH   4   5
ENDBRANCH   3   4
ENDBRANCH   2   3
ENDBRANCH   1   2
BRANCH   1  12
ATOM     12  C   UNL     1      11.348  28.668  35.316  1.00  0.00     0.000 C 
BRANCH  12  13
ATOM     13  C   UNL     1      12.026  29.061  36.639  1.00  0.00    -0.000 C 
BRANCH  13  14
ATOM     14  C   UNL     1      12.910  30.314  36.509  1.00  0.00    -0.000 C 
BRANCH  14  15
ATOM     15  C   UNL     1      14.313  30.076  35.915  1.00  0.00    -0.000 C 
BRANCH  15  16
ATOM     16  C   UNL     1      15.163  29.017  36.639  1.00  0.00    -0.000 C 
BRANCH  16  17
ATOM     17  C   UNL     1      15.861  28.047  35.671  1.00  0.00    -0.000 C 
BRANCH  17  18
ATOM     18  C   UNL     1      15.665  28.442  34.197  1.00  0.00    -0.000 C 
BRANCH  18  19
ATOM     19  C   UNL     1      16.993  28.573  33.437  1.00  0.00    -0.003 C 
ATOM     20  C   UNL     1      16.831  28.165  31.975  1.00  0.00     0.004 C 
ENDBRANCH  18  19
ENDBRANCH  17  18
ENDBRANCH  16  17
ENDBRANCH  15  16
ENDBRANCH  14  15
ENDBRANCH  13  14
ENDBRANCH  12  13
ENDBRANCH   1  12
TORSDOF 16
ENDMDL
MODEL 3
REMARK VINA RESULT:    -3.817      3.285      6.329
REMARK INTER + INTRA:         -10.066
REMARK INTER:                  -8.137
REMARK INTRA:                  -1.928
REMARK UNBOUND:                -2.678
REMARK SMILES CCCCCCCCCCCCCCCCCC(=O)[O-]
REMARK SMILES IDX 10 1 11 2 12 3 13 4 14 5 15 6 16 7 17 8 18 9 19 10 20 11
REMARK SMILES IDX 9 12 8 13 7 14 6 15 5 16 4 17 3 18 2 19 1 20
REMARK H PARENT
REMARK Flexibility Score: inf
ROOT
ATOM      1  C   UNL     1      11.512  27.437  34.408  1.00  0.00     0.000 C 
ENDROOT
BRANCH   1   2
ATOM      2  C   UNL     1      11.593  28.605  35.409  1.00  0.00     0.000 C 
BRANCH   2   3
ATOM      3  C   UNL     1      12.922  28.642  36.182  1.00  0.00     0.000 C 
BRANCH   3   4
ATOM      4  C   UNL     1      13.656  29.986  36.029  1.00  0.00     0.000 C 
BRANCH   4   5
ATOM      5  C   UNL     1      15.089  29.821  35.500  1.00  0.00     0.000 C 
BRANCH   5   6
ATOM      6  C   UNL     1      15.307  28.408  34.939  1.00  0.00     0.000 C 
BRANCH   6   7
ATOM      7  C   UNL     1      16.598  28.286  34.110  1.00  0.00     0.006 C 
BRANCH   7   8
ATOM      8  C   UNL     1      16.376  27.887  32.643  1.00  0.00     0.053 C 
BRANCH   8   9
ATOM      9  C   UNL     1      16.780  28.976  31.697  1.00  0.00     0.041 C 
ATOM     10  O   UNL     1      16.844  30.169  32.093  1.00  0.00    -0.550 OA
ATOM     11  O   UNL     1      17.120  28.667  30.385  1.00  0.00    -0.550 OA
ENDBRANCH   8   9
ENDBRANCH   7   8
ENDBRANCH   6   7
ENDBRANCH   5   6
ENDBRANCH   4   5
ENDBRANCH   3   4
ENDBRANCH   2   3
ENDBRANCH   1   2
BRANCH   1  12
ATOM     12  C   UNL     1      12.609  26.366  34.555  1.00  0.00     0.000 C 
BRANCH  12  13
ATOM     13  C   UNL     1      12.643  25.376  33.378  1.00  0.00    -0.000 C 
BRANCH  13  14
ATOM     14  C   UNL     1      14.068  24.913  33.027  1.00  0.00    -0.000 C 
BRANCH  14  15
ATOM     15  C   UNL     1      14.959  24.542  34.230  1.00  0.00    -0.000 C 
BRANCH  15  16
ATOM     16  C   UNL     1      16.464  24.433  33.927  1.00  0.00    -0.000 C 
BRANCH  16  17
ATOM     17  C   UNL     1      17.033  23.035  34.224  1.00  0.00    -0.000 C 
BRANCH  17  18
ATOM     18  C   UNL     1      16.366  21.935  33.381  1.00  0.00    -0.000 C 
BRANCH  18  19
ATOM     19  C   UNL     1      15.943  20.720  34.220  1.00  0.00    -0.003 C 
ATOM     20  C   UNL     1      15.685  21.119  35.671  1.00  0.00     0.004 C 
ENDBRANCH  18  19
ENDBRANCH  17  18
ENDBRANCH  16  17
ENDBRANCH  15  16
ENDBRANCH  14  15
ENDBRANCH  13  14
ENDBRANCH  12  13
ENDBRANCH   1  12
TORSDOF 16
ENDMDL
MODEL 4
REMARK VINA RESULT:    -3.724      3.452      6.301
REMARK INTER + INTRA:          -9.886
REMARK INTER:                  -7.446
REMARK INTRA:                  -2.440
REMARK UNBOUND:                -2.678
REMARK SMILES CCCCCCCCCCCCCCCCCC(=O)[O-]
REMARK SMILES IDX 10 1 11 2 12 3 13 4 14 5 15 6 16 7 17 8 18 9 19 10 20 11
REMARK SMILES IDX 9 12 8 13 7 14 6 15 5 16 4 17 3 18 2 19 1 20
REMARK H PARENT
REMARK Flexibility Score: inf
ROOT
ATOM      1  C   UNL     1      11.865  27.844  36.397  1.00  0.00     0.000 C 
ENDROOT
BRANCH   1   2
ATOM      2  C   UNL     1      12.539  29.024  37.123  1.00  0.00     0.000 C 
BRANCH   2   3
ATOM      3  C   UNL     1      13.522  29.796  36.228  1.00  0.00     0.000 C 
BRANCH   3   4
ATOM      4  C   UNL     1      14.901  29.121  36.145  1.00  0.00     0.000 C 
BRANCH   4   5
ATOM      5  C   UNL     1      15.108  28.354  34.829  1.00  0.00     0.000 C 
BRANCH   5   6
ATOM      6  C   UNL     1      16.602  28.219  34.503  1.00  0.00     0.000 C 
BRANCH   6   7
ATOM      7  C   UNL     1      16.919  28.496  33.022  1.00  0.00     0.006 C 
BRANCH   7   8
ATOM      8  C   UNL     1      16.561  29.914  32.551  1.00  0.00     0.053 C 
BRANCH   8   9
ATOM      9  C   UNL     1      16.735  30.076  31.072  1.00  0.00     0.041 C 
ATOM     10  O   UNL     1      16.655  31.216  30.545  1.00  0.00    -0.550 OA
ATOM     11  O   UNL     1      17.021  28.970  30.280  1.00  0.00    -0.550 OA
ENDBRANCH   8   9
ENDBRANCH   7   8
ENDBRANCH   6   7
ENDBRANCH   5   6
ENDBRANCH   4   5
ENDBRANCH   3   4
ENDBRANCH   2   3
ENDBRANCH   1   2
BRANCH   1  12
ATOM     12  C   UNL     1      11.184  28.195  35.061  1.00  0.00     0.000 C 
BRANCH  12  13
ATOM     13  C   UNL     1      11.507  27.192  33.941  1.00  0.00    -0.000 C 
BRANCH  13  14
ATOM     14  C   UNL     1      12.421  26.045  34.410  1.00  0.00    -0.000 C 
BRANCH  14  15
ATOM     15  C   UNL     1      13.029  25.181  33.287  1.00  0.00    -0.000 C 
BRANCH  15  16
ATOM     16  C   UNL     1      14.519  25.433  32.995  1.00  0.00    -0.000 C 
BRANCH  16  17
ATOM     17  C   UNL     1      15.408  24.229  33.347  1.00  0.00    -0.000 C 
BRANCH  17  18
ATOM     18  C   UNL     1      15.257  23.792  34.814  1.00  0.00    -0.000 C 
BRANCH  18  19
ATOM     19  C   UNL     1      15.985  24.728  35.789  1.00  0.00    -0.003 C 
ATOM     20  C   UNL     1      15.035  25.249  36.863  1.00  0.00     0.004 C 
ENDBRANCH  18  19
ENDBRANCH  17  18
ENDBRANCH  16  17
ENDBRANCH  15  16
ENDBRANCH  14  15
ENDBRANCH  13  14
ENDBRANCH  12  13
ENDBRANCH   1  12
TORSDOF 16
ENDMDL
MODEL 5
REMARK VINA RESULT:    -3.533      4.514      9.293
REMARK INTER + INTRA:          -9.515
REMARK INTER:                  -8.809
REMARK INTRA:                  -0.706
REMARK UNBOUND:                -2.678
REMARK SMILES CCCCCCCCCCCCCCCCCC(=O)[O-]
REMARK SMILES IDX 10 1 11 2 12 3 13 4 14 5 15 6 16 7 17 8 18 9 19 10 20 11
REMARK SMILES IDX 9 12 8 13 7 14 6 15 5 16 4 17 3 18 2 19 1 20
REMARK H PARENT
REMARK Flexibility Score: inf
ROOT
ATOM      1  C   UNL     1      15.669  21.690  34.333  1.00  0.00     0.000 C 
ENDROOT
BRANCH   1   2
ATOM      2  C   UNL     1      15.670  22.947  33.444  1.00  0.00     0.000 C 
BRANCH   2   3
ATOM      3  C   UNL     1      16.760  23.959  33.836  1.00  0.00     0.000 C 
BRANCH   3   4
ATOM      4  C   UNL     1      16.182  25.339  34.194  1.00  0.00     0.000 C 
BRANCH   4   5
ATOM      5  C   UNL     1      14.957  25.708  33.342  1.00  0.00     0.000 C 
BRANCH   5   6
ATOM      6  C   UNL     1      13.973  26.572  34.145  1.00  0.00     0.000 C 
BRANCH   6   7
ATOM      7  C   UNL     1      12.502  26.192  33.893  1.00  0.00     0.006 C 
BRANCH   7   8
ATOM      8  C   UNL     1      11.518  27.368  33.987  1.00  0.00     0.053 C 
BRANCH   8   9
ATOM      9  C   UNL     1      11.492  27.971  35.357  1.00  0.00     0.041 C 
ATOM     10  O   UNL     1      11.242  29.195  35.507  1.00  0.00    -0.550 OA
ATOM     11  O   UNL     1      11.712  27.172  36.474  1.00  0.00    -0.550 OA
ENDBRANCH   8   9
ENDBRANCH   7   8
ENDBRANCH   6   7
ENDBRANCH   5   6
ENDBRANCH   4   5
ENDBRANCH   3   4
ENDBRANCH   2   3
ENDBRANCH   1   2
BRANCH   1  12
ATOM     12  C   UNL     1      16.904  20.780  34.190  1.00  0.00     0.000 C 
BRANCH  12  13
ATOM     13  C   UNL     1      16.725  19.413  34.872  1.00  0.00    -0.000 C 
BRANCH  13  14
ATOM     14  C   UNL     1      15.380  18.747  34.532  1.00  0.00    -0.000 C 
BRANCH  14  15
ATOM     15  C   UNL     1      15.302  17.232  34.810  1.00  0.00    -0.000 C 
BRANCH  15  16
ATOM     16  C   UNL     1      16.298  16.366  34.018  1.00  0.00    -0.000 C 
BRANCH  16  17
ATOM     17  C   UNL     1      16.008  14.861  34.141  1.00  0.00    -0.000 C 
BRANCH  17  18
ATOM     18  C   UNL     1      14.556  14.507  33.777  1.00  0.00    -0.000 C 
BRANCH  18  19
ATOM     19  C   UNL     1      14.459  13.611  32.532  1.00  0.00    -0.003 C 
ATOM     20  C   UNL     1      15.839  13.353  31.934  1.00  0.00     0.004 C 
ENDBRANCH  18  19
ENDBRANCH  17  18
ENDBRANCH  16  17
ENDBRANCH  15  16
ENDBRANCH  14  15
ENDBRANCH  13  14
ENDBRANCH  12  13
ENDBRANCH   1  12
TORSDOF 16
ENDMDL
MODEL 6
REMARK VINA RESULT:    -3.504      3.061      6.538
REMARK INTER + INTRA:          -9.459
REMARK INTER:                  -7.045
REMARK INTRA:                  -2.414
REMARK UNBOUND:                -2.678
REMARK SMILES CCCCCCCCCCCCCCCCCC(=O)[O-]
REMARK SMILES IDX 10 1 11 2 12 3 13 4 14 5 15 6 16 7 17 8 18 9 19 10 20 11
REMARK SMILES IDX 9 12 8 13 7 14 6 15 5 16 4 17 3 18 2 19 1 20
REMARK H PARENT
REMARK Flexibility Score: inf
ROOT
ATOM      1  C   UNL     1      14.302  25.627  33.067  1.00  0.00     0.000 C 
ENDROOT
BRANCH   1   2
ATOM      2  C   UNL     1      15.520  26.546  33.276  1.00  0.00     0.000 C 
BRANCH   2   3
ATOM      3  C   UNL     1      15.138  27.938  33.808  1.00  0.00     0.000 C 
BRANCH   3   4
ATOM      4  C   UNL     1      15.843  28.278  35.131  1.00  0.00     0.000 C 
BRANCH   4   5
ATOM      5  C   UNL     1      15.616  27.211  36.215  1.00  0.00     0.000 C 
BRANCH   5   6
ATOM      6  C   UNL     1      14.278  27.438  36.934  1.00  0.00     0.000 C 
BRANCH   6   7
ATOM      7  C   UNL     1      13.200  26.417  36.527  1.00  0.00     0.006 C 
BRANCH   7   8
ATOM      8  C   UNL     1      11.773  26.984  36.481  1.00  0.00     0.053 C 
BRANCH   8   9
ATOM      9  C   UNL     1      11.585  27.941  35.344  1.00  0.00     0.041 C 
ATOM     10  O   UNL     1      11.466  27.512  34.167  1.00  0.00    -0.550 OA
ATOM     11  O   UNL     1      11.507  29.307  35.590  1.00  0.00    -0.550 OA
ENDBRANCH   8   9
ENDBRANCH   7   8
ENDBRANCH   6   7
ENDBRANCH   5   6
ENDBRANCH   4   5
ENDBRANCH   3   4
ENDBRANCH   2   3
ENDBRANCH   1   2
BRANCH   1  12
ATOM     12  C   UNL     1      14.513  24.153  33.460  1.00  0.00     0.000 C 
BRANCH  12  13
ATOM     13  C   UNL     1      15.996  23.780  33.621  1.00  0.00    -0.000 C 
BRANCH  13  14
ATOM     14  C   UNL     1      16.405  23.576  35.090  1.00  0.00    -0.000 C 
BRANCH  14  15
ATOM     15  C   UNL     1      15.245  23.565  36.106  1.00  0.00    -0.000 C 
BRANCH  15  16
ATOM     16  C   UNL     1      14.999  22.219  36.811  1.00  0.00    -0.000 C 
BRANCH  16  17
ATOM     17  C   UNL     1      16.024  21.142  36.413  1.00  0.00    -0.000 C 
BRANCH  17  18
ATOM     18  C   UNL     1      15.428  19.725  36.435  1.00  0.00    -0.000 C 
BRANCH  18  19
ATOM     19  C   UNL     1      15.329  19.103  35.033  1.00  0.00    -0.003 C 
ATOM     20  C   UNL     1      15.683  20.122  33.954  1.00  0.00     0.004 C 
ENDBRANCH  18  19
ENDBRANCH  17  18
ENDBRANCH  16  17
ENDBRANCH  15  16
ENDBRANCH  14  15
ENDBRANCH  13  14
ENDBRANCH  12  13
ENDBRANCH   1  12
TORSDOF 16
ENDMDL
MODEL 7
REMARK VINA RESULT:    -3.450      2.188      3.765
REMARK INTER + INTRA:          -9.356
REMARK INTER:                  -7.441
REMARK INTRA:                  -1.914
REMARK UNBOUND:                -2.678
REMARK SMILES CCCCCCCCCCCCCCCCCC(=O)[O-]
REMARK SMILES IDX 10 1 11 2 12 3 13 4 14 5 15 6 16 7 17 8 18 9 19 10 20 11
REMARK SMILES IDX 9 12 8 13 7 14 6 15 5 16 4 17 3 18 2 19 1 20
REMARK H PARENT
REMARK Flexibility Score: inf
ROOT
ATOM      1  C   UNL     1      14.840  23.681  33.415  1.00  0.00     0.000 C 
ENDROOT
BRANCH   1   2
ATOM      2  C   UNL     1      15.675  23.699  34.709  1.00  0.00     0.000 C 
BRANCH   2   3
ATOM      3  C   UNL     1      16.924  22.806  34.631  1.00  0.00     0.000 C 
BRANCH   3   4
ATOM      4  C   UNL     1      16.792  21.698  33.573  1.00  0.00     0.000 C 
BRANCH   4   5
ATOM      5  C   UNL     1      16.806  20.288  34.186  1.00  0.00     0.000 C 
BRANCH   5   6
ATOM      6  C   UNL     1      15.392  19.689  34.211  1.00  0.00     0.000 C 
BRANCH   6   7
ATOM      7  C   UNL     1      15.348  18.289  34.851  1.00  0.00     0.006 C 
BRANCH   7   8
ATOM      8  C   UNL     1      16.518  17.374  34.458  1.00  0.00     0.053 C 
BRANCH   8   9
ATOM      9  C   UNL     1      16.152  15.924  34.543  1.00  0.00     0.041 C 
ATOM     10  O   UNL     1      16.950  15.098  35.056  1.00  0.00    -0.550 OA
ATOM     11  O   UNL     1      14.912  15.492  34.088  1.00  0.00    -0.550 OA
ENDBRANCH   8   9
ENDBRANCH   7   8
ENDBRANCH   6   7
ENDBRANCH   5   6
ENDBRANCH   4   5
ENDBRANCH   3   4
ENDBRANCH   2   3
ENDBRANCH   1   2
BRANCH   1  12
ATOM     12  C   UNL     1      14.294  25.049  32.963  1.00  0.00     0.000 C 
BRANCH  12  13
ATOM     13  C   UNL     1      12.833  25.280  33.383  1.00  0.00    -0.000 C 
BRANCH  13  14
ATOM     14  C   UNL     1      12.633  26.601  34.147  1.00  0.00    -0.000 C 
BRANCH  14  15
ATOM     15  C   UNL     1      12.629  26.483  35.685  1.00  0.00    -0.000 C 
BRANCH  15  16
ATOM     16  C   UNL     1      13.803  27.172  36.401  1.00  0.00    -0.000 C 
BRANCH  16  17
ATOM     17  C   UNL     1      14.770  27.867  35.428  1.00  0.00    -0.000 C 
BRANCH  17  18
ATOM     18  C   UNL     1      16.162  27.212  35.410  1.00  0.00    -0.000 C 
BRANCH  18  19
ATOM     19  C   UNL     1      16.921  27.470  34.099  1.00  0.00    -0.003 C 
ATOM     20  C   UNL     1      16.026  28.162  33.075  1.00  0.00     0.004 C 
ENDBRANCH  18  19
ENDBRANCH  17  18
ENDBRANCH  16  17
ENDBRANCH  15  16
ENDBRANCH  14  15
ENDBRANCH  13  14
ENDBRANCH  12  13
ENDBRANCH   1  12
TORSDOF 16
ENDMDL
MODEL 8
REMARK VINA RESULT:    -3.435      3.794      6.186
REMARK INTER + INTRA:          -9.325
REMARK INTER:                  -6.376
REMARK INTRA:                  -2.949
REMARK UNBOUND:                -2.678
REMARK SMILES CCCCCCCCCCCCCCCCCC(=O)[O-]
REMARK SMILES IDX 10 1 11 2 12 3 13 4 14 5 15 6 16 7 17 8 18 9 19 10 20 11
REMARK SMILES IDX 9 12 8 13 7 14 6 15 5 16 4 17 3 18 2 19 1 20
REMARK H PARENT
REMARK Flexibility Score: inf
ROOT
ATOM      1  C   UNL     1      13.193  25.146  33.578  1.00  0.00     0.000 C 
ENDROOT
BRANCH   1   2
ATOM      2  C   UNL     1      14.507  25.271  32.785  1.00  0.00     0.000 C 
BRANCH   2   3
ATOM      3  C   UNL     1      15.656  25.865  33.616  1.00  0.00     0.000 C 
BRANCH   3   4
ATOM      4  C   UNL     1      16.219  27.159  33.003  1.00  0.00     0.000 C 
BRANCH   4   5
ATOM      5  C   UNL     1      15.684  28.423  33.694  1.00  0.00     0.000 C 
BRANCH   5   6
ATOM      6  C   UNL     1      16.076  28.443  35.179  1.00  0.00     0.000 C 
BRANCH   6   7
ATOM      7  C   UNL     1      15.642  29.735  35.894  1.00  0.00     0.006 C 
BRANCH   7   8
ATOM      8  C   UNL     1      14.360  29.598  36.731  1.00  0.00     0.053 C 
BRANCH   8   9
ATOM      9  C   UNL     1      13.345  30.642  36.381  1.00  0.00     0.041 C 
ATOM     10  O   UNL     1      12.121  30.353  36.358  1.00  0.00    -0.550 OA
ATOM     11  O   UNL     1      13.751  31.944  36.114  1.00  0.00    -0.550 OA
ENDBRANCH   8   9
ENDBRANCH   7   8
ENDBRANCH   6   7
ENDBRANCH   5   6
ENDBRANCH   4   5
ENDBRANCH   3   4
ENDBRANCH   2   3
ENDBRANCH   1   2
BRANCH   1  12
ATOM     12  C   UNL     1      12.504  26.479  33.927  1.00  0.00     0.000 C 
BRANCH  12  13
ATOM     13  C   UNL     1      12.563  26.810  35.428  1.00  0.00    -0.000 C 
BRANCH  13  14
ATOM     14  C   UNL     1      13.026  25.618  36.286  1.00  0.00    -0.000 C 
BRANCH  14  15
ATOM     15  C   UNL     1      14.315  25.850  37.100  1.00  0.00    -0.000 C 
BRANCH  15  16
ATOM     16  C   UNL     1      15.350  24.713  37.032  1.00  0.00    -0.000 C 
BRANCH  16  17
ATOM     17  C   UNL     1      14.751  23.390  36.526  1.00  0.00    -0.000 C 
BRANCH  17  18
ATOM     18  C   UNL     1      15.823  22.325  36.246  1.00  0.00    -0.000 C 
BRANCH  18  19
ATOM     19  C   UNL     1      16.675  22.652  35.010  1.00  0.00    -0.003 C 
ATOM     20  C   UNL     1      16.058  22.060  33.746  1.00  0.00     0.004 C 
ENDBRANCH  18  19
ENDBRANCH  17  18
ENDBRANCH  16  17
ENDBRANCH  15  16
ENDBRANCH  14  15
ENDBRANCH  13  14
ENDBRANCH  12  13
ENDBRANCH   1  12
TORSDOF 16
ENDMDL
MODEL 9
REMARK VINA RESULT:    -3.432      4.071      7.595
REMARK INTER + INTRA:          -9.320
REMARK INTER:                  -8.164
REMARK INTRA:                  -1.155
REMARK UNBOUND:                -2.678
REMARK SMILES CCCCCCCCCCCCCCCCCC(=O)[O-]
REMARK SMILES IDX 10 1 11 2 12 3 13 4 14 5 15 6 16 7 17 8 18 9 19 10 20 11
REMARK SMILES IDX 9 12 8 13 7 14 6 15 5 16 4 17 3 18 2 19 1 20
REMARK H PARENT
REMARK Flexibility Score: inf
ROOT
ATOM      1  C   UNL     1      12.644  27.274  34.780  1.00  0.00     0.000 C 
ENDROOT
BRANCH   1   2
ATOM      2  C   UNL     1      13.541  28.238  35.579  1.00  0.00     0.000 C 
BRANCH   2   3
ATOM      3  C   UNL     1      14.859  28.568  34.859  1.00  0.00     0.000 C 
BRANCH   3   4
ATOM      4  C   UNL     1      15.579  29.782  35.470  1.00  0.00     0.000 C 
BRANCH   4   5
ATOM      5  C   UNL     1      16.037  30.795  34.409  1.00  0.00     0.000 C 
BRANCH   5   6
ATOM      6  C   UNL     1      16.474  30.080  33.122  1.00  0.00     0.000 C 
BRANCH   6   7
ATOM      7  C   UNL     1      16.421  30.993  31.884  1.00  0.00     0.006 C 
BRANCH   7   8
ATOM      8  C   UNL     1      16.924  30.336  30.589  1.00  0.00     0.053 C 
BRANCH   8   9
ATOM      9  C   UNL     1      16.486  31.088  29.370  1.00  0.00     0.041 C 
ATOM     10  O   UNL     1      16.563  32.344  29.338  1.00  0.00    -0.550 OA
ATOM     11  O   UNL     1      16.023  30.398  28.256  1.00  0.00    -0.550 OA
ENDBRANCH   8   9
ENDBRANCH   7   8
ENDBRANCH   6   7
ENDBRANCH   5   6
ENDBRANCH   4   5
ENDBRANCH   3   4
ENDBRANCH   2   3
ENDBRANCH   1   2
BRANCH   1  12
ATOM     12  C   UNL     1      13.085  25.799  34.795  1.00  0.00     0.000 C 
BRANCH  12  13
ATOM     13  C   UNL     1      13.100  25.162  33.395  1.00  0.00    -0.000 C 
BRANCH  13  14
ATOM     14  C   UNL     1      14.523  24.976  32.837  1.00  0.00    -0.000 C 
BRANCH  14  15
ATOM     15  C   UNL     1      15.664  25.183  33.854  1.00  0.00    -0.000 C 
BRANCH  15  16
ATOM     16  C   UNL     1      16.690  24.039  33.934  1.00  0.00    -0.000 C 
BRANCH  16  17
ATOM     17  C   UNL     1      16.136  22.703  33.410  1.00  0.00    -0.000 C 
BRANCH  17  18
ATOM     18  C   UNL     1      15.777  21.728  34.543  1.00  0.00    -0.000 C 
BRANCH  18  19
ATOM     19  C   UNL     1      16.096  20.267  34.191  1.00  0.00    -0.003 C 
ATOM     20  C   UNL     1      15.349  19.305  35.111  1.00  0.00     0.004 C 
ENDBRANCH  18  19
ENDBRANCH  17  18
ENDBRANCH  16  17
ENDBRANCH  15  16
ENDBRANCH  14  15
ENDBRANCH  13  14
ENDBRANCH  12  13
ENDBRANCH   1  12
TORSDOF 16
ENDMDL
