MODEL 1
REMARK VINA RESULT:     0.000      0.000      0.000
REMARK INTER + INTRA:          -3.104
REMARK INTER:                   0.000
REMARK INTRA:                  -3.104
REMARK UNBOUND:                -3.104
REMARK SMILES CCCCCCCCCCCCCCCC(=O)[O-]
REMARK SMILES IDX 9 1 10 2 11 3 12 4 13 5 14 6 15 7 16 8 17 9 18 10 8 11 7 12
REMARK SMILES IDX 6 13 5 14 4 15 3 16 2 17 1 18
REMARK H PARENT
REMARK Flexibility Score: inf
ROOT
ATOM      1  C   UNL     1     171.432 190.551 194.168  1.00  0.00     0.000 C 
ENDROOT
BRANCH   1   2
ATOM      2  C   UNL     1     170.768 191.604 195.072  1.00  0.00     0.000 C 
BRANCH   2   3
ATOM      3  C   UNL     1     169.531 192.244 194.422  1.00  0.00     0.000 C 
BRANCH   3   4
ATOM      4  C   UNL     1     168.341 192.344 195.393  1.00  0.00     0.000 C 
BRANCH   4   5
ATOM      5  C   UNL     1     168.700 191.886 196.816  1.00  0.00     0.000 C 
BRANCH   5   6
ATOM      6  C   UNL     1     167.462 191.478 197.634  1.00  0.00     0.006 C 
BRANCH   6   7
ATOM      7  C   UNL     1     167.782 190.384 198.662  1.00  0.00     0.053 C 
BRANCH   7   8
ATOM      8  C   UNL     1     168.853 190.815 199.616  1.00  0.00     0.041 C 
ATOM      9  O   UNL     1     169.929 190.167 199.695  1.00  0.00    -0.550 OA
ATOM     10  O   UNL     1     168.676 191.954 200.392  1.00  0.00    -0.550 OA
ENDBRANCH   7   8
ENDBRANCH   6   7
ENDBRANCH   5   6
ENDBRANCH   4   5
ENDBRANCH   3   4
ENDBRANCH   2   3
ENDBRANCH   1   2
BRANCH   1  11
ATOM     11  C   UNL     1     171.556 189.178 194.847  1.00  0.00     0.000 C 
BRANCH  11  12
ATOM     12  C   UNL     1     171.174 189.221 196.337  1.00  0.00    -0.000 C 
BRANCH  12  13
ATOM     13  C   UNL     1     170.039 188.241 196.679  1.00  0.00    -0.000 C 
BRANCH  13  14
ATOM     14  C   UNL     1     169.228 187.821 195.440  1.00  0.00    -0.000 C 
BRANCH  14  15
ATOM     15  C   UNL     1     167.836 188.487 195.404  1.00  0.00    -0.000 C 
BRANCH  15  16
ATOM     16  C   UNL     1     167.476 189.093 194.034  1.00  0.00    -0.000 C 
BRANCH  16  17
ATOM     17  C   UNL     1     168.425 188.701 192.889  1.00  0.00    -0.003 C 
ATOM     18  C   UNL     1     168.556 189.792 191.828  1.00  0.00     0.004 C 
ENDBRANCH  16  17
ENDBRANCH  15  16
ENDBRANCH  14  15
ENDBRANCH  13  14
ENDBRANCH  12  13
ENDBRANCH  11  12
ENDBRANCH   1  11
TORSDOF 14
ENDMDL
MODEL 2
REMARK VINA RESULT:     0.011      4.647      6.785
REMARK INTER + INTRA:          -3.085
REMARK INTER:                   0.000
REMARK INTRA:                  -3.085
REMARK UNBOUND:                -3.104
REMARK SMILES CCCCCCCCCCCCCCCC(=O)[O-]
REMARK SMILES IDX 9 1 10 2 11 3 12 4 13 5 14 6 15 7 16 8 17 9 18 10 8 11 7 12
REMARK SMILES IDX 6 13 5 14 4 15 3 16 2 17 1 18
REMARK H PARENT
REMARK Flexibility Score: inf
ROOT
ATOM      1  C   UNL     1     171.005 190.216 193.880  1.00  0.00     0.000 C 
ENDROOT
BRANCH   1   2
ATOM      2  C   UNL     1     171.902 189.314 193.014  1.00  0.00     0.000 C 
BRANCH   2   3
ATOM      3  C   UNL     1     171.106 188.234 192.266  1.00  0.00     0.000 C 
BRANCH   3   4
ATOM      4  C   UNL     1     170.998 188.519 190.758  1.00  0.00     0.000 C 
BRANCH   4   5
ATOM      5  C   UNL     1     169.584 188.270 190.210  1.00  0.00     0.000 C 
BRANCH   5   6
ATOM      6  C   UNL     1     168.701 187.481 191.191  1.00  0.00     0.006 C 
BRANCH   6   7
ATOM      7  C   UNL     1     167.272 188.037 191.261  1.00  0.00     0.053 C 
BRANCH   7   8
ATOM      8  C   UNL     1     166.659 188.165 189.901  1.00  0.00     0.041 C 
ATOM      9  O   UNL     1     166.391 187.135 189.227  1.00  0.00    -0.550 OA
ATOM     10  O   UNL     1     166.350 189.420 189.391  1.00  0.00    -0.550 OA
ENDBRANCH   7   8
ENDBRANCH   6   7
ENDBRANCH   5   6
ENDBRANCH   4   5
ENDBRANCH   3   4
ENDBRANCH   2   3
ENDBRANCH   1   2
BRANCH   1  11
ATOM     11  C   UNL     1     169.637 189.581 194.177  1.00  0.00     0.000 C 
BRANCH  11  12
ATOM     12  C   UNL     1     168.464 190.475 193.739  1.00  0.00    -0.000 C 
BRANCH  12  13
ATOM     13  C   UNL     1     168.924 191.664 192.879  1.00  0.00    -0.000 C 
BRANCH  13  14
ATOM     14  C   UNL     1     168.425 191.571 191.426  1.00  0.00    -0.000 C 
BRANCH  14  15
ATOM     15  C   UNL     1     169.516 191.967 190.409  1.00  0.00    -0.000 C 
BRANCH  15  16
ATOM     16  C   UNL     1     170.748 192.632 191.052  1.00  0.00    -0.000 C 
BRANCH  16  17
ATOM     17  C   UNL     1     172.100 192.091 190.559  1.00  0.00    -0.003 C 
ATOM     18  C   UNL     1     172.065 191.649 189.097  1.00  0.00     0.004 C 
ENDBRANCH  16  17
ENDBRANCH  15  16
ENDBRANCH  14  15
ENDBRANCH  13  14
ENDBRANCH  12  13
ENDBRANCH  11  12
ENDBRANCH   1  11
TORSDOF 14
ENDMDL
MODEL 3
REMARK VINA RESULT:     0.013      7.877     10.144
REMARK INTER + INTRA:          -3.081
REMARK INTER:                   0.000
REMARK INTRA:                  -3.081
REMARK UNBOUND:                -3.104
REMARK SMILES CCCCCCCCCCCCCCCC(=O)[O-]
REMARK SMILES IDX 9 1 10 2 11 3 12 4 13 5 14 6 15 7 16 8 17 9 18 10 8 11 7 12
REMARK SMILES IDX 6 13 5 14 4 15 3 16 2 17 1 18
REMARK H PARENT
REMARK Flexibility Score: inf
ROOT
ATOM      1  C   UNL     1     176.326 181.706 193.298  1.00  0.00     0.000 C 
ENDROOT
BRANCH   1   2
ATOM      2  C   UNL     1     177.357 182.774 193.704  1.00  0.00     0.000 C 
BRANCH   2   3
ATOM      3  C   UNL     1     177.102 183.333 195.112  1.00  0.00     0.000 C 
BRANCH   3   4
ATOM      4  C   UNL     1     177.254 184.864 195.174  1.00  0.00     0.000 C 
BRANCH   4   5
ATOM      5  C   UNL     1     177.881 185.447 193.899  1.00  0.00     0.000 C 
BRANCH   5   6
ATOM      6  C   UNL     1     177.206 186.756 193.454  1.00  0.00     0.006 C 
BRANCH   6   7
ATOM      7  C   UNL     1     177.505 187.093 191.987  1.00  0.00     0.053 C 
BRANCH   7   8
ATOM      8  C   UNL     1     176.451 187.977 191.395  1.00  0.00     0.041 C 
ATOM      9  O   UNL     1     175.308 188.038 191.919  1.00  0.00    -0.550 OA
ATOM     10  O   UNL     1     176.742 188.760 190.285  1.00  0.00    -0.550 OA
ENDBRANCH   7   8
ENDBRANCH   6   7
ENDBRANCH   5   6
ENDBRANCH   4   5
ENDBRANCH   3   4
ENDBRANCH   2   3
ENDBRANCH   1   2
BRANCH   1  11
ATOM     11  C   UNL     1     175.477 182.130 192.090  1.00  0.00     0.000 C 
BRANCH  11  12
ATOM     12  C   UNL     1     175.994 183.420 191.429  1.00  0.00    -0.000 C 
BRANCH  12  13
ATOM     13  C   UNL     1     174.919 184.518 191.368  1.00  0.00    -0.000 C 
BRANCH  13  14
ATOM     14  C   UNL     1     173.776 184.282 192.371  1.00  0.00    -0.000 C 
BRANCH  14  15
ATOM     15  C   UNL     1     173.871 185.219 193.594  1.00  0.00    -0.000 C 
BRANCH  15  16
ATOM     16  C   UNL     1     173.567 184.521 194.932  1.00  0.00    -0.000 C 
BRANCH  16  17
ATOM     17  C   UNL     1     173.108 183.059 194.805  1.00  0.00    -0.003 C 
ATOM     18  C   UNL     1     173.671 182.162 195.907  1.00  0.00     0.004 C 
ENDBRANCH  16  17
ENDBRANCH  15  16
ENDBRANCH  14  15
ENDBRANCH  13  14
ENDBRANCH  12  13
ENDBRANCH  11  12
ENDBRANCH   1  11
TORSDOF 14
ENDMDL
MODEL 4
REMARK VINA RESULT:     0.014      6.219      8.276
REMARK INTER + INTRA:          -3.078
REMARK INTER:                   0.000
REMARK INTRA:                  -3.078
REMARK UNBOUND:                -3.104
REMARK SMILES CCCCCCCCCCCCCCCC(=O)[O-]
REMARK SMILES IDX 9 1 10 2 11 3 12 4 13 5 14 6 15 7 16 8 17 9 18 10 8 11 7 12
REMARK SMILES IDX 6 13 5 14 4 15 3 16 2 17 1 18
REMARK H PARENT
REMARK Flexibility Score: inf
ROOT
ATOM      1  C   UNL     1     171.738 193.998 198.131  1.00  0.00     0.000 C 
ENDROOT
BRANCH   1   2
ATOM      2  C   UNL     1     170.878 193.425 199.270  1.00  0.00     0.000 C 
BRANCH   2   3
ATOM      3  C   UNL     1     171.550 193.568 200.645  1.00  0.00     0.000 C 
BRANCH   3   4
ATOM      4  C   UNL     1     170.920 194.687 201.494  1.00  0.00     0.000 C 
BRANCH   4   5
ATOM      5  C   UNL     1     171.968 195.499 202.271  1.00  0.00     0.000 C 
BRANCH   5   6
ATOM      6  C   UNL     1     173.379 194.897 202.165  1.00  0.00     0.006 C 
BRANCH   6   7
ATOM      7  C   UNL     1     174.455 195.973 201.970  1.00  0.00     0.053 C 
BRANCH   7   8
ATOM      8  C   UNL     1     175.750 195.384 201.501  1.00  0.00     0.041 C 
ATOM      9  O   UNL     1     175.782 194.216 201.034  1.00  0.00    -0.550 OA
ATOM     10  O   UNL     1     176.915 196.140 201.547  1.00  0.00    -0.550 OA
ENDBRANCH   7   8
ENDBRANCH   6   7
ENDBRANCH   5   6
ENDBRANCH   4   5
ENDBRANCH   3   4
ENDBRANCH   2   3
ENDBRANCH   1   2
BRANCH   1  11
ATOM     11  C   UNL     1     173.220 194.134 198.516  1.00  0.00     0.000 C 
BRANCH  11  12
ATOM     12  C   UNL     1     173.749 195.566 198.328  1.00  0.00    -0.000 C 
BRANCH  12  13
ATOM     13  C   UNL     1     172.620 196.580 198.081  1.00  0.00    -0.000 C 
BRANCH  13  14
ATOM     14  C   UNL     1     172.452 197.573 199.244  1.00  0.00    -0.000 C 
BRANCH  14  15
ATOM     15  C   UNL     1     170.968 197.867 199.550  1.00  0.00    -0.000 C 
BRANCH  15  16
ATOM     16  C   UNL     1     169.996 197.288 198.506  1.00  0.00    -0.000 C 
BRANCH  16  17
ATOM     17  C   UNL     1     168.787 196.544 199.097  1.00  0.00    -0.003 C 
ATOM     18  C   UNL     1     168.110 195.617 198.088  1.00  0.00     0.004 C 
ENDBRANCH  16  17
ENDBRANCH  15  16
ENDBRANCH  14  15
ENDBRANCH  13  14
ENDBRANCH  12  13
ENDBRANCH  11  12
ENDBRANCH   1  11
TORSDOF 14
ENDMDL
MODEL 5
REMARK VINA RESULT:     0.016      4.133      6.158
REMARK INTER + INTRA:          -3.075
REMARK INTER:                   0.000
REMARK INTRA:                  -3.075
REMARK UNBOUND:                -3.104
REMARK SMILES CCCCCCCCCCCCCCCC(=O)[O-]
REMARK SMILES IDX 9 1 10 2 11 3 12 4 13 5 14 6 15 7 16 8 17 9 18 10 8 11 7 12
REMARK SMILES IDX 6 13 5 14 4 15 3 16 2 17 1 18
REMARK H PARENT
REMARK Flexibility Score: inf
ROOT
ATOM      1  C   UNL     1     169.791 191.813 191.747  1.00  0.00     0.000 C 
ENDROOT
BRANCH   1   2
ATOM      2  C   UNL     1     170.944 191.397 192.677  1.00  0.00     0.000 C 
BRANCH   2   3
ATOM      3  C   UNL     1     170.703 190.030 193.338  1.00  0.00     0.000 C 
BRANCH   3   4
ATOM      4  C   UNL     1     171.456 188.891 192.629  1.00  0.00     0.000 C 
BRANCH   4   5
ATOM      5  C   UNL     1     170.626 187.601 192.538  1.00  0.00     0.000 C 
BRANCH   5   6
ATOM      6  C   UNL     1     169.275 187.716 193.264  1.00  0.00     0.006 C 
BRANCH   6   7
ATOM      7  C   UNL     1     168.142 187.026 192.493  1.00  0.00     0.053 C 
BRANCH   7   8
ATOM      8  C   UNL     1     166.795 187.440 192.999  1.00  0.00     0.041 C 
ATOM      9  O   UNL     1     165.769 186.785 192.678  1.00  0.00    -0.550 OA
ATOM     10  O   UNL     1     166.677 188.528 193.855  1.00  0.00    -0.550 OA
ENDBRANCH   7   8
ENDBRANCH   6   7
ENDBRANCH   5   6
ENDBRANCH   4   5
ENDBRANCH   3   4
ENDBRANCH   2   3
ENDBRANCH   1   2
BRANCH   1  11
ATOM     11  C   UNL     1     168.450 191.175 192.142  1.00  0.00     0.000 C 
BRANCH  11  12
ATOM     12  C   UNL     1     167.786 190.425 190.974  1.00  0.00    -0.000 C 
BRANCH  12  13
ATOM     13  C   UNL     1     168.702 190.336 189.741  1.00  0.00    -0.000 C 
BRANCH  13  14
ATOM     14  C   UNL     1     169.115 188.890 189.415  1.00  0.00    -0.000 C 
BRANCH  14  15
ATOM     15  C   UNL     1     170.593 188.791 188.982  1.00  0.00    -0.000 C 
BRANCH  15  16
ATOM     16  C   UNL     1     171.251 190.157 188.712  1.00  0.00    -0.000 C 
BRANCH  16  17
ATOM     17  C   UNL     1     172.585 190.383 189.442  1.00  0.00    -0.003 C 
ATOM     18  C   UNL     1     172.945 191.862 189.574  1.00  0.00     0.004 C 
ENDBRANCH  16  17
ENDBRANCH  15  16
ENDBRANCH  14  15
ENDBRANCH  13  14
ENDBRANCH  12  13
ENDBRANCH  11  12
ENDBRANCH   1  11
TORSDOF 14
ENDMDL
MODEL 6
REMARK VINA RESULT:     0.018     10.507     12.643
REMARK INTER + INTRA:          -3.071
REMARK INTER:                   0.000
REMARK INTRA:                  -3.071
REMARK UNBOUND:                -3.104
REMARK SMILES CCCCCCCCCCCCCCCC(=O)[O-]
REMARK SMILES IDX 9 1 10 2 11 3 12 4 13 5 14 6 15 7 16 8 17 9 18 10 8 11 7 12
REMARK SMILES IDX 6 13 5 14 4 15 3 16 2 17 1 18
REMARK H PARENT
REMARK Flexibility Score: inf
ROOT
ATOM      1  C   UNL     1     177.752 194.333 202.116  1.00  0.00     0.000 C 
ENDROOT
BRANCH   1   2
ATOM      2  C   UNL     1     177.453 194.953 200.740  1.00  0.00     0.000 C 
BRANCH   2   3
ATOM      3  C   UNL     1     178.576 195.884 200.256  1.00  0.00     0.000 C 
BRANCH   3   4
ATOM      4  C   UNL     1     179.028 195.565 198.820  1.00  0.00     0.000 C 
BRANCH   4   5
ATOM      5  C   UNL     1     177.919 194.906 197.985  1.00  0.00     0.000 C 
BRANCH   5   6
ATOM      6  C   UNL     1     178.451 193.783 197.078  1.00  0.00     0.006 C 
BRANCH   6   7
ATOM      7  C   UNL     1     179.982 193.795 196.978  1.00  0.00     0.053 C 
BRANCH   7   8
ATOM      8  C   UNL     1     180.499 192.596 196.244  1.00  0.00     0.041 C 
ATOM      9  O   UNL     1     180.743 191.529 196.867  1.00  0.00    -0.550 OA
ATOM     10  O   UNL     1     180.678 192.646 194.868  1.00  0.00    -0.550 OA
ENDBRANCH   7   8
ENDBRANCH   6   7
ENDBRANCH   5   6
ENDBRANCH   4   5
ENDBRANCH   3   4
ENDBRANCH   2   3
ENDBRANCH   1   2
BRANCH   1  11
ATOM     11  C   UNL     1     178.071 192.832 202.034  1.00  0.00     0.000 C 
BRANCH  11  12
ATOM     12  C   UNL     1     177.868 192.263 200.619  1.00  0.00    -0.000 C 
BRANCH  12  13
ATOM     13  C   UNL     1     179.165 191.683 200.030  1.00  0.00    -0.000 C 
BRANCH  13  14
ATOM     14  C   UNL     1     180.395 191.977 200.906  1.00  0.00    -0.000 C 
BRANCH  14  15
ATOM     15  C   UNL     1     181.458 192.809 200.157  1.00  0.00    -0.000 C 
BRANCH  15  16
ATOM     16  C   UNL     1     181.805 194.139 200.853  1.00  0.00    -0.000 C 
BRANCH  16  17
ATOM     17  C   UNL     1     181.533 194.162 202.366  1.00  0.00    -0.003 C 
ATOM     18  C   UNL     1     181.199 195.560 202.886  1.00  0.00     0.004 C 
ENDBRANCH  16  17
ENDBRANCH  15  16
ENDBRANCH  14  15
ENDBRANCH  13  14
ENDBRANCH  12  13
ENDBRANCH  11  12
ENDBRANCH   1  11
TORSDOF 14
ENDMDL
MODEL 7
REMARK VINA RESULT:     0.019      7.407      8.863
REMARK INTER + INTRA:          -3.070
REMARK INTER:                   0.000
REMARK INTRA:                  -3.070
REMARK UNBOUND:                -3.104
REMARK SMILES CCCCCCCCCCCCCCCC(=O)[O-]
REMARK SMILES IDX 9 1 10 2 11 3 12 4 13 5 14 6 15 7 16 8 17 9 18 10 8 11 7 12
REMARK SMILES IDX 6 13 5 14 4 15 3 16 2 17 1 18
REMARK H PARENT
REMARK Flexibility Score: inf
ROOT
ATOM      1  C   UNL     1     178.366 184.337 196.995  1.00  0.00     0.000 C 
ENDROOT
BRANCH   1   2
ATOM      2  C   UNL     1     177.922 185.029 198.295  1.00  0.00     0.000 C 
BRANCH   2   3
ATOM      3  C   UNL     1     177.327 186.424 198.046  1.00  0.00     0.000 C 
BRANCH   3   4
ATOM      4  C   UNL     1     176.097 186.706 198.927  1.00  0.00     0.000 C 
BRANCH   4   5
ATOM      5  C   UNL     1     175.736 185.519 199.834  1.00  0.00     0.000 C 
BRANCH   5   6
ATOM      6  C   UNL     1     174.221 185.396 200.070  1.00  0.00     0.006 C 
BRANCH   6   7
ATOM      7  C   UNL     1     173.824 184.001 200.571  1.00  0.00     0.053 C 
BRANCH   7   8
ATOM      8  C   UNL     1     172.406 183.668 200.220  1.00  0.00     0.041 C 
ATOM      9  O   UNL     1     172.154 182.948 199.219  1.00  0.00    -0.550 OA
ATOM     10  O   UNL     1     171.366 184.124 201.019  1.00  0.00    -0.550 OA
ENDBRANCH   7   8
ENDBRANCH   6   7
ENDBRANCH   5   6
ENDBRANCH   4   5
ENDBRANCH   3   4
ENDBRANCH   2   3
ENDBRANCH   1   2
BRANCH   1  11
ATOM     11  C   UNL     1     177.607 183.028 196.730  1.00  0.00     0.000 C 
BRANCH  11  12
ATOM     12  C   UNL     1     176.793 182.561 197.950  1.00  0.00    -0.000 C 
BRANCH  12  13
ATOM     13  C   UNL     1     175.298 182.402 197.630  1.00  0.00    -0.000 C 
BRANCH  13  14
ATOM     14  C   UNL     1     174.893 183.113 196.327  1.00  0.00    -0.000 C 
BRANCH  14  15
ATOM     15  C   UNL     1     174.062 184.386 196.592  1.00  0.00    -0.000 C 
BRANCH  15  16
ATOM     16  C   UNL     1     174.505 185.599 195.753  1.00  0.00    -0.000 C 
BRANCH  16  17
ATOM     17  C   UNL     1     175.524 185.278 194.647  1.00  0.00    -0.003 C 
ATOM     18  C   UNL     1     176.546 186.396 194.441  1.00  0.00     0.004 C 
ENDBRANCH  16  17
ENDBRANCH  15  16
ENDBRANCH  14  15
ENDBRANCH  13  14
ENDBRANCH  12  13
ENDBRANCH  11  12
ENDBRANCH   1  11
TORSDOF 14
ENDMDL
MODEL 8
REMARK VINA RESULT:     0.020     10.149     12.197
REMARK INTER + INTRA:          -3.067
REMARK INTER:                   0.000
REMARK INTRA:                  -3.067
REMARK UNBOUND:                -3.104
REMARK SMILES CCCCCCCCCCCCCCCC(=O)[O-]
REMARK SMILES IDX 9 1 10 2 11 3 12 4 13 5 14 6 15 7 16 8 17 9 18 10 8 11 7 12
REMARK SMILES IDX 6 13 5 14 4 15 3 16 2 17 1 18
REMARK H PARENT
REMARK Flexibility Score: inf
ROOT
ATOM      1  C   UNL     1     177.848 190.357 193.714  1.00  0.00     0.000 C 
ENDROOT
BRANCH   1   2
ATOM      2  C   UNL     1     178.170 191.617 192.892  1.00  0.00     0.000 C 
BRANCH   2   3
ATOM      3  C   UNL     1     179.393 192.376 193.432  1.00  0.00     0.000 C 
BRANCH   3   4
ATOM      4  C   UNL     1     180.679 192.051 192.653  1.00  0.00     0.000 C 
BRANCH   4   5
ATOM      5  C   UNL     1     181.718 191.311 193.510  1.00  0.00     0.000 C 
BRANCH   5   6
ATOM      6  C   UNL     1     181.745 191.810 194.965  1.00  0.00     0.006 C 
BRANCH   6   7
ATOM      7  C   UNL     1     182.398 190.796 195.914  1.00  0.00     0.053 C 
BRANCH   7   8
ATOM      8  C   UNL     1     183.773 190.414 195.455  1.00  0.00     0.041 C 
ATOM      9  O   UNL     1     184.033 189.218 195.162  1.00  0.00    -0.550 OA
ATOM     10  O   UNL     1     184.755 191.386 195.318  1.00  0.00    -0.550 OA
ENDBRANCH   7   8
ENDBRANCH   6   7
ENDBRANCH   5   6
ENDBRANCH   4   5
ENDBRANCH   3   4
ENDBRANCH   2   3
ENDBRANCH   1   2
BRANCH   1  11
ATOM     11  C   UNL     1     178.224 190.504 195.197  1.00  0.00     0.000 C 
BRANCH  11  12
ATOM     12  C   UNL     1     179.006 189.291 195.730  1.00  0.00    -0.000 C 
BRANCH  12  13
ATOM     13  C   UNL     1     179.273 188.241 194.639  1.00  0.00    -0.000 C 
BRANCH  13  14
ATOM     14  C   UNL     1     180.750 187.814 194.579  1.00  0.00    -0.000 C 
BRANCH  14  15
ATOM     15  C   UNL     1     181.274 187.732 193.129  1.00  0.00    -0.000 C 
BRANCH  15  16
ATOM     16  C   UNL     1     180.189 187.984 192.065  1.00  0.00    -0.000 C 
BRANCH  16  17
ATOM     17  C   UNL     1     180.653 188.823 190.862  1.00  0.00    -0.003 C 
ATOM     18  C   UNL     1     179.495 189.505 190.135  1.00  0.00     0.004 C 
ENDBRANCH  16  17
ENDBRANCH  15  16
ENDBRANCH  14  15
ENDBRANCH  13  14
ENDBRANCH  12  13
ENDBRANCH  11  12
ENDBRANCH   1  11
TORSDOF 14
ENDMDL
MODEL 9
REMARK VINA RESULT:     0.022      5.964      8.350
REMARK INTER + INTRA:          -3.064
REMARK INTER:                   0.000
REMARK INTRA:                  -3.064
REMARK UNBOUND:                -3.104
REMARK SMILES CCCCCCCCCCCCCCCC(=O)[O-]
REMARK SMILES IDX 9 1 10 2 11 3 12 4 13 5 14 6 15 7 16 8 17 9 18 10 8 11 7 12
REMARK SMILES IDX 6 13 5 14 4 15 3 16 2 17 1 18
REMARK H PARENT
REMARK Flexibility Score: inf
ROOT
ATOM      1  C   UNL     1     173.242 184.781 190.572  1.00  0.00     0.000 C 
ENDROOT
BRANCH   1   2
ATOM      2  C   UNL     1     174.157 184.822 189.336  1.00  0.00     0.000 C 
BRANCH   2   3
ATOM      3  C   UNL     1     174.252 186.227 188.720  1.00  0.00     0.000 C 
BRANCH   3   4
ATOM      4  C   UNL     1     173.383 187.256 189.464  1.00  0.00     0.000 C 
BRANCH   4   5
ATOM      5  C   UNL     1     174.037 188.646 189.525  1.00  0.00     0.000 C 
BRANCH   5   6
ATOM      6  C   UNL     1     173.628 189.436 190.780  1.00  0.00     0.006 C 
BRANCH   6   7
ATOM      7  C   UNL     1     172.229 189.050 191.278  1.00  0.00     0.053 C 
BRANCH   7   8
ATOM      8  C   UNL     1     171.963 189.585 192.652  1.00  0.00     0.041 C 
ATOM      9  O   UNL     1     172.276 190.769 192.942  1.00  0.00    -0.550 OA
ATOM     10  O   UNL     1     171.336 188.786 193.600  1.00  0.00    -0.550 OA
ENDBRANCH   7   8
ENDBRANCH   6   7
ENDBRANCH   5   6
ENDBRANCH   4   5
ENDBRANCH   3   4
ENDBRANCH   2   3
ENDBRANCH   1   2
BRANCH   1  11
ATOM     11  C   UNL     1     173.762 183.832 191.664  1.00  0.00     0.000 C 
BRANCH  11  12
ATOM     12  C   UNL     1     173.966 184.542 193.014  1.00  0.00    -0.000 C 
BRANCH  12  13
ATOM     13  C   UNL     1     173.488 186.003 192.985  1.00  0.00    -0.000 C 
BRANCH  13  14
ATOM     14  C   UNL     1     174.574 186.989 193.451  1.00  0.00    -0.000 C 
BRANCH  14  15
ATOM     15  C   UNL     1     175.991 186.526 193.051  1.00  0.00    -0.000 C 
BRANCH  15  16
ATOM     16  C   UNL     1     176.510 187.173 191.753  1.00  0.00    -0.000 C 
BRANCH  16  17
ATOM     17  C   UNL     1     177.286 186.222 190.827  1.00  0.00    -0.003 C 
ATOM     18  C   UNL     1     177.338 184.790 191.358  1.00  0.00     0.004 C 
ENDBRANCH  16  17
ENDBRANCH  15  16
ENDBRANCH  14  15
ENDBRANCH  13  14
ENDBRANCH  12  13
ENDBRANCH  11  12
ENDBRANCH   1  11
TORSDOF 14
ENDMDL
