MODEL 1
REMARK VINA RESULT:    -6.103      0.000      0.000
REMARK INTER + INTRA:          -7.345
REMARK INTER:                  -7.174
REMARK INTRA:                  -0.172
REMARK UNBOUND:                -0.172
REMARK SMILES O=C([O-])C=Cc1ccc(O)c(O)c1
REMARK SMILES IDX 6 1 13 2 7 3 11 4 8 5 9 6 5 7 4 8 2 9 1 10 3 11 12 12 10 14
REMARK H PARENT 12 13 10 15
REMARK Flexibility Score: inf
ROOT
ATOM      1  C   UNL     1      80.181  60.487  11.575  1.00  0.00    -0.022 A 
ATOM      2  C   UNL     1      79.666  61.055  12.750  1.00  0.00     0.058 A 
ATOM      3  C   UNL     1      79.318  60.236  10.496  1.00  0.00     0.012 A 
ATOM      4  C   UNL     1      78.315  61.419  12.829  1.00  0.00     0.157 A 
ATOM      5  C   UNL     1      77.970  60.599  10.573  1.00  0.00     0.051 A 
ATOM      6  C   UNL     1      77.466  61.194  11.737  1.00  0.00     0.157 A 
ENDROOT
BRANCH   1   7
ATOM      7  C   UNL     1      81.596  60.063  11.537  1.00  0.00     0.010 C 
ATOM      8  C   UNL     1      82.617  60.805  11.080  1.00  0.00     0.025 C 
BRANCH   8   9
ATOM      9  C   UNL     1      82.541  62.232  10.714  1.00  0.00     0.064 C 
ATOM     10  O   UNL     1      83.192  63.074  11.384  1.00  0.00    -0.545 OA
ATOM     11  O   UNL     1      81.710  62.676   9.691  1.00  0.00    -0.545 OA
ENDBRANCH   8   9
ENDBRANCH   1   7
BRANCH   4  12
ATOM     12  O   UNL     1      77.808  62.001  13.990  1.00  0.00    -0.504 OA
ATOM     13  H   UNL     1      77.843  61.522  14.881  1.00  0.00     0.293 HD
ENDBRANCH   4  12
BRANCH   6  14
ATOM     14  O   UNL     1      76.123  61.559  11.818  1.00  0.00    -0.504 OA
ATOM     15  H   UNL     1      75.382  60.906  11.595  1.00  0.00     0.293 HD
ENDBRANCH   6  14
TORSDOF 4
ENDMDL
MODEL 2
REMARK VINA RESULT:    -6.069      0.999      2.070
REMARK INTER + INTRA:          -7.305
REMARK INTER:                  -7.096
REMARK INTRA:                  -0.209
REMARK UNBOUND:                -0.172
REMARK SMILES O=C([O-])C=Cc1ccc(O)c(O)c1
REMARK SMILES IDX 6 1 13 2 7 3 11 4 8 5 9 6 5 7 4 8 2 9 1 10 3 11 12 12 10 14
REMARK H PARENT 12 13 10 15
REMARK Flexibility Score: inf
ROOT
ATOM      1  C   UNL     1      79.945  60.629  12.312  1.00  0.00    -0.022 A 
ATOM      2  C   UNL     1      79.082  60.075  11.355  1.00  0.00     0.058 A 
ATOM      3  C   UNL     1      79.489  61.684  13.120  1.00  0.00     0.012 A 
ATOM      4  C   UNL     1      77.761  60.530  11.242  1.00  0.00     0.157 A 
ATOM      5  C   UNL     1      78.173  62.139  13.008  1.00  0.00     0.051 A 
ATOM      6  C   UNL     1      77.304  61.562  12.072  1.00  0.00     0.157 A 
ENDROOT
BRANCH   1   7
ATOM      7  C   UNL     1      81.347  60.169  12.375  1.00  0.00     0.010 C 
ATOM      8  C   UNL     1      82.367  60.687  11.674  1.00  0.00     0.025 C 
BRANCH   8   9
ATOM      9  C   UNL     1      82.311  61.919  10.866  1.00  0.00     0.064 C 
ATOM     10  O   UNL     1      81.733  61.896   9.749  1.00  0.00    -0.545 OA
ATOM     11  O   UNL     1      82.944  63.086  11.276  1.00  0.00    -0.545 OA
ENDBRANCH   8   9
ENDBRANCH   1   7
BRANCH   4  12
ATOM     12  O   UNL     1      76.898  59.965  10.304  1.00  0.00    -0.504 OA
ATOM     13  H   UNL     1      76.882  58.967  10.133  1.00  0.00     0.293 HD
ENDBRANCH   4  12
BRANCH   6  14
ATOM     14  O   UNL     1      75.989  62.011  11.958  1.00  0.00    -0.504 OA
ATOM     15  H   UNL     1      75.766  62.880  11.490  1.00  0.00     0.293 HD
ENDBRANCH   6  14
TORSDOF 4
ENDMDL
MODEL 3
REMARK VINA RESULT:    -5.970      1.648      4.589
REMARK INTER + INTRA:          -7.189
REMARK INTER:                  -6.972
REMARK INTRA:                  -0.217
REMARK UNBOUND:                -0.172
REMARK SMILES O=C([O-])C=Cc1ccc(O)c(O)c1
REMARK SMILES IDX 6 1 13 2 7 3 11 4 8 5 9 6 5 7 4 8 2 9 1 10 3 11 12 12 10 14
REMARK H PARENT 12 13 10 15
REMARK Flexibility Score: inf
ROOT
ATOM      1  C   UNL     1      80.378  61.165  12.014  1.00  0.00    -0.022 A 
ATOM      2  C   UNL     1      80.424  62.565  12.081  1.00  0.00     0.058 A 
ATOM      3  C   UNL     1      81.477  60.465  11.491  1.00  0.00     0.012 A 
ATOM      4  C   UNL     1      81.575  63.257  11.680  1.00  0.00     0.157 A 
ATOM      5  C   UNL     1      82.626  61.153  11.091  1.00  0.00     0.051 A 
ATOM      6  C   UNL     1      82.680  62.550  11.187  1.00  0.00     0.157 A 
ENDROOT
BRANCH   1   7
ATOM      7  C   UNL     1      79.134  60.463  12.393  1.00  0.00     0.010 C 
ATOM      8  C   UNL     1      78.013  60.417  11.657  1.00  0.00     0.025 C 
BRANCH   8   9
ATOM      9  C   UNL     1      77.883  60.894  10.267  1.00  0.00     0.064 C 
ATOM     10  O   UNL     1      77.570  62.093  10.055  1.00  0.00    -0.545 OA
ATOM     11  O   UNL     1      78.026  60.030   9.187  1.00  0.00    -0.545 OA
ENDBRANCH   8   9
ENDBRANCH   1   7
BRANCH   4  12
ATOM     12  O   UNL     1      81.627  64.648  11.765  1.00  0.00    -0.504 OA
ATOM     13  H   UNL     1      81.414  65.134  12.627  1.00  0.00     0.293 HD
ENDBRANCH   4  12
BRANCH   6  14
ATOM     14  O   UNL     1      83.824  63.241  10.792  1.00  0.00    -0.504 OA
ATOM     15  H   UNL     1      84.589  63.410  11.434  1.00  0.00     0.293 HD
ENDBRANCH   6  14
TORSDOF 4
ENDMDL
MODEL 4
REMARK VINA RESULT:    -5.702      2.383      5.303
REMARK INTER + INTRA:          -6.874
REMARK INTER:                  -6.605
REMARK INTRA:                  -0.269
REMARK UNBOUND:                -0.172
REMARK SMILES O=C([O-])C=Cc1ccc(O)c(O)c1
REMARK SMILES IDX 6 1 13 2 7 3 11 4 8 5 9 6 5 7 4 8 2 9 1 10 3 11 12 12 10 14
REMARK H PARENT 12 13 10 15
REMARK Flexibility Score: inf
ROOT
ATOM      1  C   UNL     1      79.728  60.472  11.009  1.00  0.00    -0.022 A 
ATOM      2  C   UNL     1      80.774  59.767  10.397  1.00  0.00     0.058 A 
ATOM      3  C   UNL     1      79.895  60.950  12.320  1.00  0.00     0.012 A 
ATOM      4  C   UNL     1      81.994  59.587  11.064  1.00  0.00     0.157 A 
ATOM      5  C   UNL     1      81.110  60.772  12.986  1.00  0.00     0.051 A 
ATOM      6  C   UNL     1      82.164  60.093  12.359  1.00  0.00     0.157 A 
ENDROOT
BRANCH   1   7
ATOM      7  C   UNL     1      78.434  60.603  10.307  1.00  0.00     0.010 C 
ATOM      8  C   UNL     1      77.437  59.707  10.344  1.00  0.00     0.025 C 
BRANCH   8   9
ATOM      9  C   UNL     1      77.375  58.532  11.234  1.00  0.00     0.064 C 
ATOM     10  O   UNL     1      76.694  58.596  12.290  1.00  0.00    -0.545 OA
ATOM     11  O   UNL     1      78.108  57.382  10.970  1.00  0.00    -0.545 OA
ENDBRANCH   8   9
ENDBRANCH   1   7
BRANCH   4  12
ATOM     12  O   UNL     1      83.041  58.903  10.447  1.00  0.00    -0.504 OA
ATOM     13  H   UNL     1      83.422  58.051  10.841  1.00  0.00     0.293 HD
ENDBRANCH   4  12
BRANCH   6  14
ATOM     14  O   UNL     1      83.379  59.914  13.018  1.00  0.00    -0.504 OA
ATOM     15  H   UNL     1      83.451  59.338  13.848  1.00  0.00     0.293 HD
ENDBRANCH   6  14
TORSDOF 4
ENDMDL
MODEL 5
REMARK VINA RESULT:    -5.666      2.149      4.713
REMARK INTER + INTRA:          -6.831
REMARK INTER:                  -6.698
REMARK INTRA:                  -0.133
REMARK UNBOUND:                -0.172
REMARK SMILES O=C([O-])C=Cc1ccc(O)c(O)c1
REMARK SMILES IDX 6 1 13 2 7 3 11 4 8 5 9 6 5 7 4 8 2 9 1 10 3 11 12 12 10 14
REMARK H PARENT 12 13 10 15
REMARK Flexibility Score: inf
ROOT
ATOM      1  C   UNL     1      80.267  61.240  12.289  1.00  0.00    -0.022 A 
ATOM      2  C   UNL     1      80.055  59.888  11.981  1.00  0.00     0.058 A 
ATOM      3  C   UNL     1      81.485  61.844  11.934  1.00  0.00     0.012 A 
ATOM      4  C   UNL     1      81.025  59.160  11.278  1.00  0.00     0.157 A 
ATOM      5  C   UNL     1      82.452  61.120  11.233  1.00  0.00     0.051 A 
ATOM      6  C   UNL     1      82.225  59.778  10.900  1.00  0.00     0.157 A 
ENDROOT
BRANCH   1   7
ATOM      7  C   UNL     1      79.252  61.971  13.077  1.00  0.00     0.010 C 
ATOM      8  C   UNL     1      78.109  62.478  12.592  1.00  0.00     0.025 C 
BRANCH   8   9
ATOM      9  C   UNL     1      77.573  62.237  11.239  1.00  0.00     0.064 C 
ATOM     10  O   UNL     1      77.518  63.191  10.420  1.00  0.00    -0.545 OA
ATOM     11  O   UNL     1      77.061  60.999  10.871  1.00  0.00    -0.545 OA
ENDBRANCH   8   9
ENDBRANCH   1   7
BRANCH   4  12
ATOM     12  O   UNL     1      80.805  57.822  10.955  1.00  0.00    -0.504 OA
ATOM     13  H   UNL     1      81.384  57.339  10.279  1.00  0.00     0.293 HD
ENDBRANCH   4  12
BRANCH   6  14
ATOM     14  O   UNL     1      83.186  59.051  10.199  1.00  0.00    -0.504 OA
ATOM     15  H   UNL     1      82.970  58.603   9.317  1.00  0.00     0.293 HD
ENDBRANCH   6  14
TORSDOF 4
ENDMDL
MODEL 6
REMARK VINA RESULT:    -5.633      2.173      2.519
REMARK INTER + INTRA:          -6.792
REMARK INTER:                  -6.563
REMARK INTRA:                  -0.229
REMARK UNBOUND:                -0.172
REMARK SMILES O=C([O-])C=Cc1ccc(O)c(O)c1
REMARK SMILES IDX 6 1 13 2 7 3 11 4 8 5 9 6 5 7 4 8 2 9 1 10 3 11 12 12 10 14
REMARK H PARENT 12 13 10 15
REMARK Flexibility Score: inf
ROOT
ATOM      1  C   UNL     1      80.328  61.584  12.395  1.00  0.00    -0.022 A 
ATOM      2  C   UNL     1      79.045  61.332  12.901  1.00  0.00     0.058 A 
ATOM      3  C   UNL     1      80.480  62.472  11.316  1.00  0.00     0.012 A 
ATOM      4  C   UNL     1      77.930  61.998  12.373  1.00  0.00     0.157 A 
ATOM      5  C   UNL     1      79.371  63.137  10.789  1.00  0.00     0.051 A 
ATOM      6  C   UNL     1      78.093  62.906  11.318  1.00  0.00     0.157 A 
ENDROOT
BRANCH   1   7
ATOM      7  C   UNL     1      81.480  60.830  12.932  1.00  0.00     0.010 C 
ATOM      8  C   UNL     1      82.012  59.728  12.381  1.00  0.00     0.025 C 
BRANCH   8   9
ATOM      9  C   UNL     1      81.670  59.186  11.052  1.00  0.00     0.064 C 
ATOM     10  O   UNL     1      82.409  59.452  10.070  1.00  0.00    -0.545 OA
ATOM     11  O   UNL     1      80.510  58.448  10.847  1.00  0.00    -0.545 OA
ENDBRANCH   8   9
ENDBRANCH   1   7
BRANCH   4  12
ATOM     12  O   UNL     1      76.657  61.762  12.889  1.00  0.00    -0.504 OA
ATOM     13  H   UNL     1      76.360  60.832  13.162  1.00  0.00     0.293 HD
ENDBRANCH   4  12
BRANCH   6  14
ATOM     14  O   UNL     1      76.983  63.568  10.797  1.00  0.00    -0.504 OA
ATOM     15  H   UNL     1      76.456  63.189  10.020  1.00  0.00     0.293 HD
ENDBRANCH   6  14
TORSDOF 4
ENDMDL
MODEL 7
REMARK VINA RESULT:    -5.627      1.843      4.564
REMARK INTER + INTRA:          -6.786
REMARK INTER:                  -6.665
REMARK INTRA:                  -0.121
REMARK UNBOUND:                -0.172
REMARK SMILES O=C([O-])C=Cc1ccc(O)c(O)c1
REMARK SMILES IDX 6 1 13 2 7 3 11 4 8 5 9 6 5 7 4 8 2 9 1 10 3 11 12 12 10 14
REMARK H PARENT 12 13 10 15
REMARK Flexibility Score: inf
ROOT
ATOM      1  C   UNL     1      80.618  60.374  11.335  1.00  0.00    -0.022 A 
ATOM      2  C   UNL     1      81.727  60.934  10.685  1.00  0.00     0.058 A 
ATOM      3  C   UNL     1      79.847  61.175  12.195  1.00  0.00     0.012 A 
ATOM      4  C   UNL     1      82.034  62.292  10.847  1.00  0.00     0.157 A 
ATOM      5  C   UNL     1      80.152  62.529  12.357  1.00  0.00     0.051 A 
ATOM      6  C   UNL     1      81.243  63.093  11.682  1.00  0.00     0.157 A 
ENDROOT
BRANCH   1   7
ATOM      7  C   UNL     1      80.347  58.929  11.191  1.00  0.00     0.010 C 
ATOM      8  C   UNL     1      79.193  58.394  10.765  1.00  0.00     0.025 C 
BRANCH   8   9
ATOM      9  C   UNL     1      78.061  59.146  10.190  1.00  0.00     0.064 C 
ATOM     10  O   UNL     1      78.131  59.547   8.999  1.00  0.00    -0.545 OA
ATOM     11  O   UNL     1      76.952  59.485  10.955  1.00  0.00    -0.545 OA
ENDBRANCH   8   9
ENDBRANCH   1   7
BRANCH   4  12
ATOM     12  O   UNL     1      83.125  62.853  10.184  1.00  0.00    -0.504 OA
ATOM     13  H   UNL     1      84.072  62.542  10.366  1.00  0.00     0.293 HD
ENDBRANCH   4  12
BRANCH   6  14
ATOM     14  O   UNL     1      81.550  64.444  11.838  1.00  0.00    -0.504 OA
ATOM     15  H   UNL     1      82.506  64.774  11.818  1.00  0.00     0.293 HD
ENDBRANCH   6  14
TORSDOF 4
ENDMDL
MODEL 8
REMARK VINA RESULT:    -5.592      1.856      4.924
REMARK INTER + INTRA:          -6.745
REMARK INTER:                  -6.452
REMARK INTRA:                  -0.293
REMARK UNBOUND:                -0.172
REMARK SMILES O=C([O-])C=Cc1ccc(O)c(O)c1
REMARK SMILES IDX 6 1 13 2 7 3 11 4 8 5 9 6 5 7 4 8 2 9 1 10 3 11 12 12 10 14
REMARK H PARENT 12 13 10 15
REMARK Flexibility Score: inf
ROOT
ATOM      1  C   UNL     1      79.525  59.922  10.579  1.00  0.00    -0.022 A 
ATOM      2  C   UNL     1      79.892  61.170  11.104  1.00  0.00     0.058 A 
ATOM      3  C   UNL     1      80.341  58.806  10.823  1.00  0.00     0.012 A 
ATOM      4  C   UNL     1      81.032  61.293  11.910  1.00  0.00     0.157 A 
ATOM      5  C   UNL     1      81.478  58.926  11.627  1.00  0.00     0.051 A 
ATOM      6  C   UNL     1      81.825  60.168  12.175  1.00  0.00     0.157 A 
ENDROOT
BRANCH   1   7
ATOM      7  C   UNL     1      78.349  59.830   9.689  1.00  0.00     0.010 C 
ATOM      8  C   UNL     1      77.104  59.515  10.077  1.00  0.00     0.025 C 
BRANCH   8   9
ATOM      9  C   UNL     1      76.649  59.393  11.475  1.00  0.00     0.064 C 
ATOM     10  O   UNL     1      76.149  60.394  12.049  1.00  0.00    -0.545 OA
ATOM     11  O   UNL     1      76.826  58.217  12.195  1.00  0.00    -0.545 OA
ENDBRANCH   8   9
ENDBRANCH   1   7
BRANCH   4  12
ATOM     12  O   UNL     1      81.385  62.529  12.449  1.00  0.00    -0.504 OA
ATOM     13  H   UNL     1      80.693  63.149  12.851  1.00  0.00     0.293 HD
ENDBRANCH   4  12
BRANCH   6  14
ATOM     14  O   UNL     1      82.957  60.294  12.980  1.00  0.00    -0.504 OA
ATOM     15  H   UNL     1      83.327  61.201  13.234  1.00  0.00     0.293 HD
ENDBRANCH   6  14
TORSDOF 4
ENDMDL
MODEL 9
REMARK VINA RESULT:    -5.487      2.765      3.696
REMARK INTER + INTRA:          -6.621
REMARK INTER:                  -6.327
REMARK INTRA:                  -0.294
REMARK UNBOUND:                -0.172
REMARK SMILES O=C([O-])C=Cc1ccc(O)c(O)c1
REMARK SMILES IDX 6 1 13 2 7 3 11 4 8 5 9 6 5 7 4 8 2 9 1 10 3 11 12 12 10 14
REMARK H PARENT 12 13 10 15
REMARK Flexibility Score: inf
ROOT
ATOM      1  C   UNL     1      78.770  59.511  10.868  1.00  0.00    -0.022 A 
ATOM      2  C   UNL     1      78.153  60.250   9.848  1.00  0.00     0.058 A 
ATOM      3  C   UNL     1      78.672  58.110  10.857  1.00  0.00     0.012 A 
ATOM      4  C   UNL     1      77.491  59.597   8.799  1.00  0.00     0.157 A 
ATOM      5  C   UNL     1      78.013  57.457   9.812  1.00  0.00     0.051 A 
ATOM      6  C   UNL     1      77.424  58.198   8.779  1.00  0.00     0.157 A 
ENDROOT
BRANCH   1   7
ATOM      7  C   UNL     1      79.415  60.224  11.990  1.00  0.00     0.010 C 
ATOM      8  C   UNL     1      80.717  60.536  12.066  1.00  0.00     0.025 C 
BRANCH   8   9
ATOM      9  C   UNL     1      81.696  60.393  10.972  1.00  0.00     0.064 C 
ATOM     10  O   UNL     1      81.839  61.333  10.147  1.00  0.00    -0.545 OA
ATOM     11  O   UNL     1      82.413  59.217  10.788  1.00  0.00    -0.545 OA
ENDBRANCH   8   9
ENDBRANCH   1   7
BRANCH   4  12
ATOM     12  O   UNL     1      76.895  60.332   7.775  1.00  0.00    -0.504 OA
ATOM     13  H   UNL     1      76.675  59.912   6.880  1.00  0.00     0.293 HD
ENDBRANCH   4  12
BRANCH   6  14
ATOM     14  O   UNL     1      76.767  57.552   7.732  1.00  0.00    -0.504 OA
ATOM     15  H   UNL     1      76.732  57.951   6.802  1.00  0.00     0.293 HD
ENDBRANCH   6  14
TORSDOF 4
ENDMDL
