MODEL 1
REMARK VINA RESULT:    -6.375      0.000      0.000
REMARK INTER + INTRA:         -10.850
REMARK INTER:                  -9.356
REMARK INTRA:                  -1.494
REMARK UNBOUND:                -1.494
REMARK SMILES O=c1c(O[C@@H]2O[C@@H](CO)[C@@H](O)[C@H](O)[C@@H]2O)c(-c2ccc(O)c(O)c2)oc2cc(O)cc(O)c12
REMARK SMILES IDX 4 1 3 2 16 3 25 4 2 5 26 6 1 7 33 8 27 9 31 10 28 11 30 12
REMARK SMILES IDX 17 13 18 14 19 15 20 16 24 17 22 18 21 19 23 21 32 23 29 25
REMARK SMILES IDX 5 27 14 28 6 29 12 30 7 31 10 32 15 33 13 35 8 37 9 38 11 40
REMARK H PARENT 21 20 23 22 32 24 29 26 15 34 13 36 9 39 11 41
REMARK Flexibility Score: inf
ROOT
ATOM      1  O   UNL     1      33.935   4.132 -19.945  1.00  0.00    -0.454 OA
ENDROOT
BRANCH   1   2
ATOM      2  C   UNL     1      34.918   4.580 -20.855  1.00  0.00     0.214 A 
ATOM      3  C   UNL     1      34.484   5.317 -21.969  1.00  0.00     0.180 A 
ATOM      4  O   UNL     1      35.368   5.846 -22.804  1.00  0.00    -0.452 OA
ATOM      5  C   UNL     1      36.306   4.366 -20.694  1.00  0.00     0.239 A 
ATOM      6  C   UNL     1      36.678   5.682 -22.685  1.00  0.00     0.146 A 
ATOM      7  O   UNL     1      36.723   3.740 -19.687  1.00  0.00    -0.285 OA
ATOM      8  C   UNL     1      37.220   4.891 -21.644  1.00  0.00     0.111 A 
ATOM      9  C   UNL     1      37.513   6.308 -23.613  1.00  0.00     0.094 A 
ATOM     10  C   UNL     1      38.638   4.704 -21.600  1.00  0.00     0.134 A 
ATOM     11  C   UNL     1      38.898   6.168 -23.527  1.00  0.00     0.123 A 
ATOM     12  C   UNL     1      39.450   5.373 -22.523  1.00  0.00     0.093 A 
BRANCH   3  13
ATOM     13  C   UNL     1      33.046   5.565 -22.222  1.00  0.00     0.025 A 
ATOM     14  C   UNL     1      32.271   4.663 -22.972  1.00  0.00     0.016 A 
ATOM     15  C   UNL     1      30.914   4.908 -23.190  1.00  0.00     0.051 A 
ATOM     16  C   UNL     1      30.313   6.060 -22.670  1.00  0.00     0.157 A 
ATOM     17  C   UNL     1      32.447   6.732 -21.723  1.00  0.00     0.062 A 
ATOM     18  C   UNL     1      31.083   6.978 -21.937  1.00  0.00     0.158 A 
BRANCH  16  19
ATOM     19  O   UNL     1      28.957   6.276 -22.902  1.00  0.00    -0.504 OA
ATOM     20  H   UNL     1      28.515   6.008 -23.774  1.00  0.00     0.293 HD
ENDBRANCH  16  19
BRANCH  18  21
ATOM     21  O   UNL     1      30.492   8.133 -21.425  1.00  0.00    -0.504 OA
ATOM     22  H   UNL     1      30.766   9.054 -21.741  1.00  0.00     0.293 HD
ENDBRANCH  18  21
ENDBRANCH   3  13
BRANCH  10  23
ATOM     23  O   UNL     1      39.302   3.863 -20.695  1.00  0.00    -0.507 OA
ATOM     24  H   UNL     1      40.238   3.504 -20.798  1.00  0.00     0.293 HD
ENDBRANCH  10  23
BRANCH  11  25
ATOM     25  O   UNL     1      39.738   6.811 -24.431  1.00  0.00    -0.508 OA
ATOM     26  H   UNL     1      39.999   6.380 -25.313  1.00  0.00     0.293 HD
ENDBRANCH  11  25
ENDBRANCH   1   2
BRANCH   1  27
ATOM     27  C   UNL     1      33.400   2.814 -19.816  1.00  0.00     0.339 C 
ATOM     28  C   UNL     1      34.052   2.088 -18.599  1.00  0.00     0.214 C 
ATOM     29  O   UNL     1      31.974   2.861 -19.769  1.00  0.00    -0.332 OA
ATOM     30  C   UNL     1      33.050   1.088 -17.997  1.00  0.00     0.180 C 
ATOM     31  C   UNL     1      31.504   3.069 -18.450  1.00  0.00     0.179 C 
ATOM     32  C   UNL     1      31.727   1.787 -17.599  1.00  0.00     0.177 C 
BRANCH  28  33
ATOM     33  O   UNL     1      34.443   3.010 -17.613  1.00  0.00    -0.384 OA
ATOM     34  H   UNL     1      34.892   2.497 -16.893  1.00  0.00     0.211 HD
ENDBRANCH  28  33
BRANCH  30  35
ATOM     35  O   UNL     1      33.605   0.448 -16.876  1.00  0.00    -0.387 OA
ATOM     36  H   UNL     1      33.010   0.640 -16.108  1.00  0.00     0.211 HD
ENDBRANCH  30  35
BRANCH  31  37
ATOM     37  C   UNL     1      30.031   3.497 -18.502  1.00  0.00     0.191 C 
BRANCH  37  38
ATOM     38  O   UNL     1      29.845   4.496 -19.465  1.00  0.00    -0.394 OA
ATOM     39  H   UNL     1      29.677   5.341 -18.971  1.00  0.00     0.210 HD
ENDBRANCH  37  38
ENDBRANCH  31  37
BRANCH  32  40
ATOM     40  O   UNL     1      30.674   0.873 -17.777  1.00  0.00    -0.387 OA
ATOM     41  H   UNL     1      31.012   0.144 -18.353  1.00  0.00     0.211 HD
ENDBRANCH  32  40
ENDBRANCH   1  27
TORSDOF 12
ENDMDL
MODEL 2
REMARK VINA RESULT:    -6.337      2.111      3.179
REMARK INTER + INTRA:         -10.794
REMARK INTER:                  -9.332
REMARK INTRA:                  -1.462
REMARK UNBOUND:                -1.494
REMARK SMILES O=c1c(O[C@@H]2O[C@@H](CO)[C@@H](O)[C@H](O)[C@@H]2O)c(-c2ccc(O)c(O)c2)oc2cc(O)cc(O)c12
REMARK SMILES IDX 4 1 3 2 16 3 25 4 2 5 26 6 1 7 33 8 27 9 31 10 28 11 30 12
REMARK SMILES IDX 17 13 18 14 19 15 20 16 24 17 22 18 21 19 23 21 32 23 29 25
REMARK SMILES IDX 5 27 14 28 6 29 12 30 7 31 10 32 15 33 13 35 8 37 9 38 11 40
REMARK H PARENT 21 20 23 22 32 24 29 26 15 34 13 36 9 39 11 41
REMARK Flexibility Score: inf
ROOT
ATOM      1  O   UNL     1      31.848   2.765 -20.508  1.00  0.00    -0.454 OA
ENDROOT
BRANCH   1   2
ATOM      2  C   UNL     1      33.116   2.939 -21.105  1.00  0.00     0.214 A 
ATOM      3  C   UNL     1      33.409   4.200 -21.652  1.00  0.00     0.180 A 
ATOM      4  O   UNL     1      34.617   4.452 -22.137  1.00  0.00    -0.452 OA
ATOM      5  C   UNL     1      34.116   1.941 -21.152  1.00  0.00     0.239 A 
ATOM      6  C   UNL     1      35.588   3.551 -22.190  1.00  0.00     0.146 A 
ATOM      7  O   UNL     1      33.892   0.816 -20.638  1.00  0.00    -0.285 OA
ATOM      8  C   UNL     1      35.375   2.226 -21.739  1.00  0.00     0.111 A 
ATOM      9  C   UNL     1      36.828   3.939 -22.702  1.00  0.00     0.094 A 
ATOM     10  C   UNL     1      36.444   1.282 -21.873  1.00  0.00     0.134 A 
ATOM     11  C   UNL     1      37.882   3.028 -22.774  1.00  0.00     0.123 A 
ATOM     12  C   UNL     1      37.685   1.712 -22.358  1.00  0.00     0.093 A 
BRANCH   3  13
ATOM     13  C   UNL     1      32.408   5.291 -21.664  1.00  0.00     0.025 A 
ATOM     14  C   UNL     1      31.377   5.326 -22.619  1.00  0.00     0.016 A 
ATOM     15  C   UNL     1      30.436   6.357 -22.607  1.00  0.00     0.051 A 
ATOM     16  C   UNL     1      30.514   7.372 -21.647  1.00  0.00     0.157 A 
ATOM     17  C   UNL     1      32.500   6.325 -20.718  1.00  0.00     0.062 A 
ATOM     18  C   UNL     1      31.553   7.359 -20.701  1.00  0.00     0.158 A 
BRANCH  16  19
ATOM     19  O   UNL     1      29.559   8.386 -21.659  1.00  0.00    -0.504 OA
ATOM     20  H   UNL     1      29.111   8.687 -22.516  1.00  0.00     0.293 HD
ENDBRANCH  16  19
BRANCH  18  21
ATOM     21  O   UNL     1      31.642   8.373 -19.748  1.00  0.00    -0.504 OA
ATOM     22  H   UNL     1      31.260   9.294 -19.918  1.00  0.00     0.293 HD
ENDBRANCH  18  21
ENDBRANCH   3  13
BRANCH  10  23
ATOM     23  O   UNL     1      36.341  -0.083 -21.571  1.00  0.00    -0.507 OA
ATOM     24  H   UNL     1      35.712  -0.495 -20.901  1.00  0.00     0.293 HD
ENDBRANCH  10  23
BRANCH  11  25
ATOM     25  O   UNL     1      39.128   3.414 -23.257  1.00  0.00    -0.508 OA
ATOM     26  H   UNL     1      39.495   4.347 -23.092  1.00  0.00     0.293 HD
ENDBRANCH  11  25
ENDBRANCH   1   2
BRANCH   1  27
ATOM     27  C   UNL     1      31.559   2.483 -19.138  1.00  0.00     0.339 C 
ATOM     28  C   UNL     1      30.710   3.637 -18.521  1.00  0.00     0.214 C 
ATOM     29  O   UNL     1      30.962   1.193 -19.014  1.00  0.00    -0.332 OA
ATOM     30  C   UNL     1      29.796   3.075 -17.420  1.00  0.00     0.180 C 
ATOM     31  C   UNL     1      29.559   1.249 -19.191  1.00  0.00     0.179 C 
ATOM     32  C   UNL     1      28.897   1.936 -17.962  1.00  0.00     0.177 C 
BRANCH  28  33
ATOM     33  O   UNL     1      29.927   4.267 -19.504  1.00  0.00    -0.384 OA
ATOM     34  H   UNL     1      28.978   4.064 -19.298  1.00  0.00     0.211 HD
ENDBRANCH  28  33
BRANCH  30  35
ATOM     35  O   UNL     1      28.995   4.092 -16.875  1.00  0.00    -0.387 OA
ATOM     36  H   UNL     1      28.875   4.776 -17.580  1.00  0.00     0.211 HD
ENDBRANCH  30  35
BRANCH  31  37
ATOM     37  C   UNL     1      29.024  -0.168 -19.436  1.00  0.00     0.191 C 
BRANCH  37  38
ATOM     38  O   UNL     1      27.624  -0.172 -19.422  1.00  0.00    -0.394 OA
ATOM     39  H   UNL     1      27.331  -0.586 -20.276  1.00  0.00     0.210 HD
ENDBRANCH  37  38
ENDBRANCH  31  37
BRANCH  32  40
ATOM     40  O   UNL     1      28.679   1.013 -16.925  1.00  0.00    -0.387 OA
ATOM     41  H   UNL     1      28.089   1.451 -16.261  1.00  0.00     0.211 HD
ENDBRANCH  32  40
ENDBRANCH   1  27
TORSDOF 12
ENDMDL
MODEL 3
REMARK VINA RESULT:    -6.234      1.716      2.685
REMARK INTER + INTRA:         -10.643
REMARK INTER:                  -9.025
REMARK INTRA:                  -1.619
REMARK UNBOUND:                -1.494
REMARK SMILES O=c1c(O[C@@H]2O[C@@H](CO)[C@@H](O)[C@H](O)[C@@H]2O)c(-c2ccc(O)c(O)c2)oc2cc(O)cc(O)c12
REMARK SMILES IDX 4 1 3 2 16 3 25 4 2 5 26 6 1 7 33 8 27 9 31 10 28 11 30 12
REMARK SMILES IDX 17 13 18 14 19 15 20 16 24 17 22 18 21 19 23 21 32 23 29 25
REMARK SMILES IDX 5 27 14 28 6 29 12 30 7 31 10 32 15 33 13 35 8 37 9 38 11 40
REMARK H PARENT 21 20 23 22 32 24 29 26 15 34 13 36 9 39 11 41
REMARK Flexibility Score: inf
ROOT
ATOM      1  O   UNL     1      32.704   2.997 -20.783  1.00  0.00    -0.454 OA
ENDROOT
BRANCH   1   2
ATOM      2  C   UNL     1      33.931   3.387 -21.363  1.00  0.00     0.214 A 
ATOM      3  C   UNL     1      34.033   4.704 -21.844  1.00  0.00     0.180 A 
ATOM      4  O   UNL     1      35.189   5.156 -22.309  1.00  0.00    -0.452 OA
ATOM      5  C   UNL     1      35.068   2.551 -21.456  1.00  0.00     0.239 A 
ATOM      6  C   UNL     1      36.283   4.412 -22.403  1.00  0.00     0.146 A 
ATOM      7  O   UNL     1      35.013   1.381 -21.001  1.00  0.00    -0.285 OA
ATOM      8  C   UNL     1      36.270   3.049 -22.022  1.00  0.00     0.111 A 
ATOM      9  C   UNL     1      37.451   5.005 -22.888  1.00  0.00     0.094 A 
ATOM     10  C   UNL     1      37.466   2.282 -22.198  1.00  0.00     0.134 A 
ATOM     11  C   UNL     1      38.627   4.265 -23.001  1.00  0.00     0.123 A 
ATOM     12  C   UNL     1      38.628   2.915 -22.653  1.00  0.00     0.093 A 
BRANCH   3  13
ATOM     13  C   UNL     1      32.882   5.634 -21.805  1.00  0.00     0.025 A 
ATOM     14  C   UNL     1      31.868   5.581 -22.777  1.00  0.00     0.016 A 
ATOM     15  C   UNL     1      30.784   6.459 -22.717  1.00  0.00     0.051 A 
ATOM     16  C   UNL     1      30.701   7.408 -21.692  1.00  0.00     0.157 A 
ATOM     17  C   UNL     1      32.809   6.603 -20.792  1.00  0.00     0.062 A 
ATOM     18  C   UNL     1      31.720   7.483 -20.727  1.00  0.00     0.158 A 
BRANCH  16  19
ATOM     19  O   UNL     1      29.606   8.268 -21.657  1.00  0.00    -0.504 OA
ATOM     20  H   UNL     1      28.948   8.263 -20.887  1.00  0.00     0.293 HD
ENDBRANCH  16  19
BRANCH  18  21
ATOM     21  O   UNL     1      31.647   8.433 -19.708  1.00  0.00    -0.504 OA
ATOM     22  H   UNL     1      31.778   8.180 -18.738  1.00  0.00     0.293 HD
ENDBRANCH  18  21
ENDBRANCH   3  13
BRANCH  10  23
ATOM     23  O   UNL     1      37.567   0.903 -21.966  1.00  0.00    -0.507 OA
ATOM     24  H   UNL     1      38.385   0.336 -22.119  1.00  0.00     0.293 HD
ENDBRANCH  10  23
BRANCH  11  25
ATOM     25  O   UNL     1      39.801   4.855 -23.457  1.00  0.00    -0.508 OA
ATOM     26  H   UNL     1      40.506   5.202 -22.812  1.00  0.00     0.293 HD
ENDBRANCH  11  25
ENDBRANCH   1   2
BRANCH   1  27
ATOM     27  C   UNL     1      32.355   2.994 -19.397  1.00  0.00     0.339 C 
ATOM     28  C   UNL     1      30.996   3.728 -19.185  1.00  0.00     0.214 C 
ATOM     29  O   UNL     1      32.384   1.663 -18.883  1.00  0.00    -0.332 OA
ATOM     30  C   UNL     1      30.264   3.121 -17.976  1.00  0.00     0.180 C 
ATOM     31  C   UNL     1      31.151   1.000 -19.088  1.00  0.00     0.179 C 
ATOM     32  C   UNL     1      30.065   1.595 -18.147  1.00  0.00     0.177 C 
BRANCH  28  33
ATOM     33  O   UNL     1      30.182   3.621 -20.327  1.00  0.00    -0.384 OA
ATOM     34  H   UNL     1      29.468   4.304 -20.245  1.00  0.00     0.211 HD
ENDBRANCH  28  33
BRANCH  30  35
ATOM     35  O   UNL     1      29.018   3.744 -17.790  1.00  0.00    -0.387 OA
ATOM     36  H   UNL     1      28.644   3.396 -16.943  1.00  0.00     0.211 HD
ENDBRANCH  30  35
BRANCH  31  37
ATOM     37  C   UNL     1      31.349  -0.508 -18.884  1.00  0.00     0.191 C 
BRANCH  37  38
ATOM     38  O   UNL     1      32.261  -0.745 -17.847  1.00  0.00    -0.394 OA
ATOM     39  H   UNL     1      32.903  -1.425 -18.183  1.00  0.00     0.210 HD
ENDBRANCH  37  38
ENDBRANCH  31  37
BRANCH  32  40
ATOM     40  O   UNL     1      30.117   0.998 -16.875  1.00  0.00    -0.387 OA
ATOM     41  H   UNL     1      30.540   1.649 -16.262  1.00  0.00     0.211 HD
ENDBRANCH  32  40
ENDBRANCH   1  27
TORSDOF 12
ENDMDL
MODEL 4
REMARK VINA RESULT:    -6.155      1.759      1.956
REMARK INTER + INTRA:         -10.528
REMARK INTER:                  -8.992
REMARK INTRA:                  -1.535
REMARK UNBOUND:                -1.494
REMARK SMILES O=c1c(O[C@@H]2O[C@@H](CO)[C@@H](O)[C@H](O)[C@@H]2O)c(-c2ccc(O)c(O)c2)oc2cc(O)cc(O)c12
REMARK SMILES IDX 4 1 3 2 16 3 25 4 2 5 26 6 1 7 33 8 27 9 31 10 28 11 30 12
REMARK SMILES IDX 17 13 18 14 19 15 20 16 24 17 22 18 21 19 23 21 32 23 29 25
REMARK SMILES IDX 5 27 14 28 6 29 12 30 7 31 10 32 15 33 13 35 8 37 9 38 11 40
REMARK H PARENT 21 20 23 22 32 24 29 26 15 34 13 36 9 39 11 41
REMARK Flexibility Score: inf
ROOT
ATOM      1  O   UNL     1      34.039   3.950 -20.865  1.00  0.00    -0.454 OA
ENDROOT
BRANCH   1   2
ATOM      2  C   UNL     1      35.125   4.497 -21.583  1.00  0.00     0.214 A 
ATOM      3  C   UNL     1      34.966   5.787 -22.118  1.00  0.00     0.180 A 
ATOM      4  O   UNL     1      35.983   6.391 -22.717  1.00  0.00    -0.452 OA
ATOM      5  C   UNL     1      36.368   3.848 -21.762  1.00  0.00     0.239 A 
ATOM      6  C   UNL     1      37.168   5.825 -22.896  1.00  0.00     0.146 A 
ATOM      7  O   UNL     1      36.549   2.709 -21.262  1.00  0.00    -0.285 OA
ATOM      8  C   UNL     1      37.413   4.499 -22.466  1.00  0.00     0.111 A 
ATOM      9  C   UNL     1      38.172   6.570 -23.520  1.00  0.00     0.094 A 
ATOM     10  C   UNL     1      38.696   3.923 -22.737  1.00  0.00     0.134 A 
ATOM     11  C   UNL     1      39.437   6.019 -23.727  1.00  0.00     0.123 A 
ATOM     12  C   UNL     1      39.691   4.706 -23.333  1.00  0.00     0.093 A 
BRANCH   3  13
ATOM     13  C   UNL     1      33.688   6.524 -21.994  1.00  0.00     0.025 A 
ATOM     14  C   UNL     1      32.742   6.526 -23.034  1.00  0.00     0.016 A 
ATOM     15  C   UNL     1      31.537   7.218 -22.895  1.00  0.00     0.051 A 
ATOM     16  C   UNL     1      31.263   7.925 -21.719  1.00  0.00     0.157 A 
ATOM     17  C   UNL     1      33.420   7.255 -20.826  1.00  0.00     0.062 A 
ATOM     18  C   UNL     1      32.210   7.947 -20.682  1.00  0.00     0.158 A 
BRANCH  16  19
ATOM     19  O   UNL     1      30.051   8.603 -21.608  1.00  0.00    -0.504 OA
ATOM     20  H   UNL     1      30.011   9.590 -21.381  1.00  0.00     0.293 HD
ENDBRANCH  16  19
BRANCH  18  21
ATOM     21  O   UNL     1      31.946   8.659 -19.511  1.00  0.00    -0.504 OA
ATOM     22  H   UNL     1      31.001   8.886 -19.231  1.00  0.00     0.293 HD
ENDBRANCH  18  21
ENDBRANCH   3  13
BRANCH  10  23
ATOM     23  O   UNL     1      39.041   2.591 -22.468  1.00  0.00    -0.507 OA
ATOM     24  H   UNL     1      39.578   1.985 -23.068  1.00  0.00     0.293 HD
ENDBRANCH  10  23
BRANCH  11  25
ATOM     25  O   UNL     1      40.451   6.763 -24.323  1.00  0.00    -0.508 OA
ATOM     26  H   UNL     1      41.033   7.396 -23.781  1.00  0.00     0.293 HD
ENDBRANCH  11  25
ENDBRANCH   1   2
BRANCH   1  27
ATOM     27  C   UNL     1      32.879   3.305 -21.393  1.00  0.00     0.339 C 
ATOM     28  C   UNL     1      33.056   1.757 -21.343  1.00  0.00     0.214 C 
ATOM     29  O   UNL     1      31.706   3.778 -20.731  1.00  0.00    -0.332 OA
ATOM     30  C   UNL     1      31.684   1.085 -21.166  1.00  0.00     0.180 C 
ATOM     31  C   UNL     1      31.446   3.046 -19.548  1.00  0.00     0.179 C 
ATOM     32  C   UNL     1      30.956   1.615 -19.906  1.00  0.00     0.177 C 
BRANCH  28  33
ATOM     33  O   UNL     1      33.901   1.381 -20.284  1.00  0.00    -0.384 OA
ATOM     34  H   UNL     1      33.557   1.820 -19.464  1.00  0.00     0.211 HD
ENDBRANCH  28  33
BRANCH  30  35
ATOM     35  O   UNL     1      31.825  -0.310 -21.081  1.00  0.00    -0.387 OA
ATOM     36  H   UNL     1      31.009  -0.658 -20.641  1.00  0.00     0.211 HD
ENDBRANCH  30  35
BRANCH  31  37
ATOM     37  C   UNL     1      30.437   3.820 -18.688  1.00  0.00     0.191 C 
BRANCH  37  38
ATOM     38  O   UNL     1      29.687   4.696 -19.483  1.00  0.00    -0.394 OA
ATOM     39  H   UNL     1      28.734   4.550 -19.246  1.00  0.00     0.210 HD
ENDBRANCH  37  38
ENDBRANCH  31  37
BRANCH  32  40
ATOM     40  O   UNL     1      29.573   1.603 -20.157  1.00  0.00    -0.387 OA
ATOM     41  H   UNL     1      29.451   1.424 -21.123  1.00  0.00     0.211 HD
ENDBRANCH  32  40
ENDBRANCH   1  27
TORSDOF 12
ENDMDL
MODEL 5
REMARK VINA RESULT:    -6.073      2.847      5.077
REMARK INTER + INTRA:         -10.407
REMARK INTER:                  -8.815
REMARK INTRA:                  -1.592
REMARK UNBOUND:                -1.494
REMARK SMILES O=c1c(O[C@@H]2O[C@@H](CO)[C@@H](O)[C@H](O)[C@@H]2O)c(-c2ccc(O)c(O)c2)oc2cc(O)cc(O)c12
REMARK SMILES IDX 4 1 3 2 16 3 25 4 2 5 26 6 1 7 33 8 27 9 31 10 28 11 30 12
REMARK SMILES IDX 17 13 18 14 19 15 20 16 24 17 22 18 21 19 23 21 32 23 29 25
REMARK SMILES IDX 5 27 14 28 6 29 12 30 7 31 10 32 15 33 13 35 8 37 9 38 11 40
REMARK H PARENT 21 20 23 22 32 24 29 26 15 34 13 36 9 39 11 41
REMARK Flexibility Score: inf
ROOT
ATOM      1  O   UNL     1      33.855   4.526 -21.984  1.00  0.00    -0.454 OA
ENDROOT
BRANCH   1   2
ATOM      2  C   UNL     1      34.731   3.422 -22.075  1.00  0.00     0.214 A 
ATOM      3  C   UNL     1      34.229   2.163 -21.704  1.00  0.00     0.180 A 
ATOM      4  O   UNL     1      34.973   1.076 -21.861  1.00  0.00    -0.452 OA
ATOM      5  C   UNL     1      36.060   3.499 -22.550  1.00  0.00     0.239 A 
ATOM      6  C   UNL     1      36.218   1.100 -22.313  1.00  0.00     0.146 A 
ATOM      7  O   UNL     1      36.521   4.607 -22.922  1.00  0.00    -0.285 OA
ATOM      8  C   UNL     1      36.849   2.324 -22.642  1.00  0.00     0.111 A 
ATOM      9  C   UNL     1      36.896  -0.114 -22.459  1.00  0.00     0.094 A 
ATOM     10  C   UNL     1      38.214   2.290 -23.072  1.00  0.00     0.134 A 
ATOM     11  C   UNL     1      38.206  -0.140 -22.935  1.00  0.00     0.123 A 
ATOM     12  C   UNL     1      38.853   1.056 -23.241  1.00  0.00     0.093 A 
BRANCH   3  13
ATOM     13  C   UNL     1      32.856   2.001 -21.174  1.00  0.00     0.025 A 
ATOM     14  C   UNL     1      32.602   1.994 -19.792  1.00  0.00     0.016 A 
ATOM     15  C   UNL     1      31.299   1.853 -19.312  1.00  0.00     0.051 A 
ATOM     16  C   UNL     1      30.231   1.707 -20.204  1.00  0.00     0.157 A 
ATOM     17  C   UNL     1      31.786   1.830 -22.067  1.00  0.00     0.062 A 
ATOM     18  C   UNL     1      30.476   1.692 -21.588  1.00  0.00     0.158 A 
BRANCH  16  19
ATOM     19  O   UNL     1      28.942   1.571 -19.696  1.00  0.00    -0.504 OA
ATOM     20  H   UNL     1      28.583   2.188 -18.977  1.00  0.00     0.293 HD
ENDBRANCH  16  19
BRANCH  18  21
ATOM     21  O   UNL     1      29.416   1.538 -22.482  1.00  0.00    -0.504 OA
ATOM     22  H   UNL     1      29.572   1.448 -23.477  1.00  0.00     0.293 HD
ENDBRANCH  18  21
ENDBRANCH   3  13
BRANCH  10  23
ATOM     23  O   UNL     1      38.996   3.427 -23.326  1.00  0.00    -0.507 OA
ATOM     24  H   UNL     1      38.717   4.227 -23.870  1.00  0.00     0.293 HD
ENDBRANCH  10  23
BRANCH  11  25
ATOM     25  O   UNL     1      38.878  -1.346 -23.109  1.00  0.00    -0.508 OA
ATOM     26  H   UNL     1      38.777  -1.891 -23.961  1.00  0.00     0.293 HD
ENDBRANCH  11  25
ENDBRANCH   1   2
BRANCH   1  27
ATOM     27  C   UNL     1      33.602   5.348 -20.843  1.00  0.00     0.339 C 
ATOM     28  C   UNL     1      34.351   6.709 -20.986  1.00  0.00     0.214 C 
ATOM     29  O   UNL     1      32.197   5.478 -20.630  1.00  0.00    -0.332 OA
ATOM     30  C   UNL     1      33.560   7.812 -20.263  1.00  0.00     0.180 C 
ATOM     31  C   UNL     1      31.651   6.541 -21.387  1.00  0.00     0.179 C 
ATOM     32  C   UNL     1      32.108   7.904 -20.795  1.00  0.00     0.177 C 
BRANCH  28  33
ATOM     33  O   UNL     1      34.510   7.056 -22.339  1.00  0.00    -0.384 OA
ATOM     34  H   UNL     1      34.727   6.223 -22.832  1.00  0.00     0.211 HD
ENDBRANCH  28  33
BRANCH  30  35
ATOM     35  O   UNL     1      34.199   9.054 -20.411  1.00  0.00    -0.387 OA
ATOM     36  H   UNL     1      33.490   9.732 -20.546  1.00  0.00     0.211 HD
ENDBRANCH  30  35
BRANCH  31  37
ATOM     37  C   UNL     1      30.124   6.398 -21.432  1.00  0.00     0.191 C 
BRANCH  37  38
ATOM     38  O   UNL     1      29.661   5.741 -20.285  1.00  0.00    -0.394 OA
ATOM     39  H   UNL     1      29.012   5.054 -20.592  1.00  0.00     0.210 HD
ENDBRANCH  37  38
ENDBRANCH  31  37
BRANCH  32  40
ATOM     40  O   UNL     1      31.274   8.299 -19.734  1.00  0.00    -0.387 OA
ATOM     41  H   UNL     1      30.773   9.097 -20.036  1.00  0.00     0.211 HD
ENDBRANCH  32  40
ENDBRANCH   1  27
TORSDOF 12
ENDMDL
MODEL 6
REMARK VINA RESULT:    -5.987      2.709      5.570
REMARK INTER + INTRA:         -10.281
REMARK INTER:                  -8.898
REMARK INTRA:                  -1.383
REMARK UNBOUND:                -1.494
REMARK SMILES O=c1c(O[C@@H]2O[C@@H](CO)[C@@H](O)[C@H](O)[C@@H]2O)c(-c2ccc(O)c(O)c2)oc2cc(O)cc(O)c12
REMARK SMILES IDX 4 1 3 2 16 3 25 4 2 5 26 6 1 7 33 8 27 9 31 10 28 11 30 12
REMARK SMILES IDX 17 13 18 14 19 15 20 16 24 17 22 18 21 19 23 21 32 23 29 25
REMARK SMILES IDX 5 27 14 28 6 29 12 30 7 31 10 32 15 33 13 35 8 37 9 38 11 40
REMARK H PARENT 21 20 23 22 32 24 29 26 15 34 13 36 9 39 11 41
REMARK Flexibility Score: inf
ROOT
ATOM      1  O   UNL     1      33.210   4.411 -20.706  1.00  0.00    -0.454 OA
ENDROOT
BRANCH   1   2
ATOM      2  C   UNL     1      33.995   3.297 -21.078  1.00  0.00     0.214 A 
ATOM      3  C   UNL     1      33.550   2.026 -20.675  1.00  0.00     0.180 A 
ATOM      4  O   UNL     1      34.191   0.937 -21.077  1.00  0.00    -0.452 OA
ATOM      5  C   UNL     1      35.171   3.378 -21.858  1.00  0.00     0.239 A 
ATOM      6  C   UNL     1      35.289   0.965 -21.818  1.00  0.00     0.146 A 
ATOM      7  O   UNL     1      35.569   4.499 -22.262  1.00  0.00    -0.285 OA
ATOM      8  C   UNL     1      35.868   2.195 -22.214  1.00  0.00     0.111 A 
ATOM      9  C   UNL     1      35.864  -0.249 -22.201  1.00  0.00     0.094 A 
ATOM     10  C   UNL     1      37.086   2.162 -22.967  1.00  0.00     0.134 A 
ATOM     11  C   UNL     1      37.018  -0.272 -22.985  1.00  0.00     0.123 A 
ATOM     12  C   UNL     1      37.617   0.929 -23.364  1.00  0.00     0.093 A 
BRANCH   3  13
ATOM     13  C   UNL     1      32.341   1.858 -19.837  1.00  0.00     0.025 A 
ATOM     14  C   UNL     1      32.399   1.982 -18.438  1.00  0.00     0.016 A 
ATOM     15  C   UNL     1      31.246   1.832 -17.665  1.00  0.00     0.051 A 
ATOM     16  C   UNL     1      30.021   1.547 -18.276  1.00  0.00     0.157 A 
ATOM     17  C   UNL     1      31.115   1.548 -20.445  1.00  0.00     0.062 A 
ATOM     18  C   UNL     1      29.955   1.400 -19.672  1.00  0.00     0.158 A 
BRANCH  16  19
ATOM     19  O   UNL     1      28.887   1.405 -17.480  1.00  0.00    -0.504 OA
ATOM     20  H   UNL     1      28.952   1.171 -16.496  1.00  0.00     0.293 HD
ENDBRANCH  16  19
BRANCH  18  21
ATOM     21  O   UNL     1      28.737   1.107 -20.286  1.00  0.00    -0.504 OA
ATOM     22  H   UNL     1      28.013   1.806 -20.387  1.00  0.00     0.293 HD
ENDBRANCH  18  21
ENDBRANCH   3  13
BRANCH  10  23
ATOM     23  O   UNL     1      37.825   3.296 -23.332  1.00  0.00    -0.507 OA
ATOM     24  H   UNL     1      38.498   3.348 -24.080  1.00  0.00     0.293 HD
ENDBRANCH  10  23
BRANCH  11  25
ATOM     25  O   UNL     1      37.580  -1.476 -23.393  1.00  0.00    -0.508 OA
ATOM     26  H   UNL     1      37.364  -2.350 -22.921  1.00  0.00     0.293 HD
ENDBRANCH  11  25
ENDBRANCH   1   2
BRANCH   1  27
ATOM     27  C   UNL     1      32.330   5.174 -21.533  1.00  0.00     0.339 C 
ATOM     28  C   UNL     1      30.878   5.118 -20.965  1.00  0.00     0.214 C 
ATOM     29  O   UNL     1      32.836   6.497 -21.705  1.00  0.00    -0.332 OA
ATOM     30  C   UNL     1      30.138   6.421 -21.310  1.00  0.00     0.180 C 
ATOM     31  C   UNL     1      32.424   7.352 -20.655  1.00  0.00     0.179 C 
ATOM     32  C   UNL     1      30.906   7.661 -20.787  1.00  0.00     0.177 C 
BRANCH  28  33
ATOM     33  O   UNL     1      30.891   4.942 -19.570  1.00  0.00    -0.384 OA
ATOM     34  H   UNL     1      31.617   5.512 -19.208  1.00  0.00     0.211 HD
ENDBRANCH  28  33
BRANCH  30  35
ATOM     35  O   UNL     1      28.839   6.407 -20.775  1.00  0.00    -0.387 OA
ATOM     36  H   UNL     1      28.889   5.942 -19.903  1.00  0.00     0.211 HD
ENDBRANCH  30  35
BRANCH  31  37
ATOM     37  C   UNL     1      33.289   8.621 -20.669  1.00  0.00     0.191 C 
BRANCH  37  38
ATOM     38  O   UNL     1      34.348   8.501 -19.761  1.00  0.00    -0.394 OA
ATOM     39  H   UNL     1      34.773   9.396 -19.699  1.00  0.00     0.210 HD
ENDBRANCH  37  38
ENDBRANCH  31  37
BRANCH  32  40
ATOM     40  O   UNL     1      30.682   8.727 -21.676  1.00  0.00    -0.387 OA
ATOM     41  H   UNL     1      30.412   9.510 -21.133  1.00  0.00     0.211 HD
ENDBRANCH  32  40
ENDBRANCH   1  27
TORSDOF 12
ENDMDL
MODEL 7
REMARK VINA RESULT:    -5.935      3.117      3.819
REMARK INTER + INTRA:         -10.204
REMARK INTER:                  -8.513
REMARK INTRA:                  -1.690
REMARK UNBOUND:                -1.494
REMARK SMILES O=c1c(O[C@@H]2O[C@@H](CO)[C@@H](O)[C@H](O)[C@@H]2O)c(-c2ccc(O)c(O)c2)oc2cc(O)cc(O)c12
REMARK SMILES IDX 4 1 3 2 16 3 25 4 2 5 26 6 1 7 33 8 27 9 31 10 28 11 30 12
REMARK SMILES IDX 17 13 18 14 19 15 20 16 24 17 22 18 21 19 23 21 32 23 29 25
REMARK SMILES IDX 5 27 14 28 6 29 12 30 7 31 10 32 15 33 13 35 8 37 9 38 11 40
REMARK H PARENT 21 20 23 22 32 24 29 26 15 34 13 36 9 39 11 41
REMARK Flexibility Score: inf
ROOT
ATOM      1  O   UNL     1      36.138   5.078 -18.890  1.00  0.00    -0.454 OA
ENDROOT
BRANCH   1   2
ATOM      2  C   UNL     1      37.204   5.991 -19.049  1.00  0.00     0.214 A 
ATOM      3  C   UNL     1      36.979   7.118 -19.858  1.00  0.00     0.180 A 
ATOM      4  O   UNL     1      37.907   8.058 -19.965  1.00  0.00    -0.452 OA
ATOM      5  C   UNL     1      38.462   5.862 -18.416  1.00  0.00     0.239 A 
ATOM      6  C   UNL     1      39.095   7.985 -19.380  1.00  0.00     0.146 A 
ATOM      7  O   UNL     1      38.676   4.882 -17.659  1.00  0.00    -0.285 OA
ATOM      8  C   UNL     1      39.456   6.855 -18.607  1.00  0.00     0.111 A 
ATOM      9  C   UNL     1      39.984   9.049 -19.546  1.00  0.00     0.094 A 
ATOM     10  C   UNL     1      40.773   6.808 -18.047  1.00  0.00     0.134 A 
ATOM     11  C   UNL     1      41.244   9.020 -18.947  1.00  0.00     0.123 A 
ATOM     12  C   UNL     1      41.627   7.906 -18.202  1.00  0.00     0.093 A 
BRANCH   3  13
ATOM     13  C   UNL     1      35.698   7.314 -20.573  1.00  0.00     0.025 A 
ATOM     14  C   UNL     1      35.556   6.963 -21.927  1.00  0.00     0.016 A 
ATOM     15  C   UNL     1      34.336   7.145 -22.581  1.00  0.00     0.051 A 
ATOM     16  C   UNL     1      33.243   7.688 -21.897  1.00  0.00     0.157 A 
ATOM     17  C   UNL     1      34.607   7.882 -19.896  1.00  0.00     0.062 A 
ATOM     18  C   UNL     1      33.380   8.062 -20.550  1.00  0.00     0.158 A 
BRANCH  16  19
ATOM     19  O   UNL     1      32.038   7.855 -22.576  1.00  0.00    -0.504 OA
ATOM     20  H   UNL     1      31.624   7.107 -23.119  1.00  0.00     0.293 HD
ENDBRANCH  16  19
BRANCH  18  21
ATOM     21  O   UNL     1      32.296   8.613 -19.865  1.00  0.00    -0.504 OA
ATOM     22  H   UNL     1      31.832   8.113 -19.119  1.00  0.00     0.293 HD
ENDBRANCH  18  21
ENDBRANCH   3  13
BRANCH  10  23
ATOM     23  O   UNL     1      41.303   5.710 -17.354  1.00  0.00    -0.507 OA
ATOM     24  H   UNL     1      42.278   5.466 -17.289  1.00  0.00     0.293 HD
ENDBRANCH  10  23
BRANCH  11  25
ATOM     25  O   UNL     1      42.124  10.088 -19.084  1.00  0.00    -0.508 OA
ATOM     26  H   UNL     1      43.114   9.941 -19.258  1.00  0.00     0.293 HD
ENDBRANCH  11  25
ENDBRANCH   1   2
BRANCH   1  27
ATOM     27  C   UNL     1      36.009   3.778 -19.469  1.00  0.00     0.339 C 
ATOM     28  C   UNL     1      35.699   2.726 -18.359  1.00  0.00     0.214 C 
ATOM     29  O   UNL     1      35.055   3.801 -20.530  1.00  0.00    -0.332 OA
ATOM     30  C   UNL     1      34.851   1.587 -18.950  1.00  0.00     0.180 C 
ATOM     31  C   UNL     1      33.738   3.605 -20.050  1.00  0.00     0.179 C 
ATOM     32  C   UNL     1      33.553   2.129 -19.597  1.00  0.00     0.177 C 
BRANCH  28  33
ATOM     33  O   UNL     1      35.009   3.316 -17.286  1.00  0.00    -0.384 OA
ATOM     34  H   UNL     1      35.319   4.255 -17.218  1.00  0.00     0.211 HD
ENDBRANCH  28  33
BRANCH  30  35
ATOM     35  O   UNL     1      34.529   0.646 -17.957  1.00  0.00    -0.387 OA
ATOM     36  H   UNL     1      34.257  -0.185 -18.422  1.00  0.00     0.211 HD
ENDBRANCH  30  35
BRANCH  31  37
ATOM     37  C   UNL     1      32.737   4.021 -21.137  1.00  0.00     0.191 C 
BRANCH  37  38
ATOM     38  O   UNL     1      33.267   3.771 -22.410  1.00  0.00    -0.394 OA
ATOM     39  H   UNL     1      32.555   3.311 -22.929  1.00  0.00     0.210 HD
ENDBRANCH  37  38
ENDBRANCH  31  37
BRANCH  32  40
ATOM     40  O   UNL     1      33.224   1.304 -20.687  1.00  0.00    -0.387 OA
ATOM     41  H   UNL     1      33.596   0.406 -20.498  1.00  0.00     0.211 HD
ENDBRANCH  32  40
ENDBRANCH   1  27
TORSDOF 12
ENDMDL
MODEL 8
REMARK VINA RESULT:    -5.895      3.315      4.810
REMARK INTER + INTRA:         -10.145
REMARK INTER:                  -9.188
REMARK INTRA:                  -0.958
REMARK UNBOUND:                -1.494
REMARK SMILES O=c1c(O[C@@H]2O[C@@H](CO)[C@@H](O)[C@H](O)[C@@H]2O)c(-c2ccc(O)c(O)c2)oc2cc(O)cc(O)c12
REMARK SMILES IDX 4 1 3 2 16 3 25 4 2 5 26 6 1 7 33 8 27 9 31 10 28 11 30 12
REMARK SMILES IDX 17 13 18 14 19 15 20 16 24 17 22 18 21 19 23 21 32 23 29 25
REMARK SMILES IDX 5 27 14 28 6 29 12 30 7 31 10 32 15 33 13 35 8 37 9 38 11 40
REMARK H PARENT 21 20 23 22 32 24 29 26 15 34 13 36 9 39 11 41
REMARK Flexibility Score: inf
ROOT
ATOM      1  O   UNL     1      33.971   4.867 -22.226  1.00  0.00    -0.454 OA
ENDROOT
BRANCH   1   2
ATOM      2  C   UNL     1      34.569   3.598 -22.386  1.00  0.00     0.214 A 
ATOM      3  C   UNL     1      33.798   2.587 -22.985  1.00  0.00     0.180 A 
ATOM      4  O   UNL     1      34.337   1.406 -23.250  1.00  0.00    -0.452 OA
ATOM      5  C   UNL     1      35.900   3.294 -22.017  1.00  0.00     0.239 A 
ATOM      6  C   UNL     1      35.583   1.081 -22.934  1.00  0.00     0.146 A 
ATOM      7  O   UNL     1      36.622   4.190 -21.513  1.00  0.00    -0.285 OA
ATOM      8  C   UNL     1      36.423   1.997 -22.255  1.00  0.00     0.111 A 
ATOM      9  C   UNL     1      36.049  -0.188 -23.285  1.00  0.00     0.094 A 
ATOM     10  C   UNL     1      37.740   1.570 -21.891  1.00  0.00     0.134 A 
ATOM     11  C   UNL     1      37.353  -0.574 -22.977  1.00  0.00     0.123 A 
ATOM     12  C   UNL     1      38.188   0.305 -22.288  1.00  0.00     0.093 A 
BRANCH   3  13
ATOM     13  C   UNL     1      32.389   2.819 -23.379  1.00  0.00     0.025 A 
ATOM     14  C   UNL     1      31.406   1.832 -23.186  1.00  0.00     0.016 A 
ATOM     15  C   UNL     1      30.081   2.073 -23.552  1.00  0.00     0.051 A 
ATOM     16  C   UNL     1      29.719   3.297 -24.124  1.00  0.00     0.157 A 
ATOM     17  C   UNL     1      32.028   4.037 -23.976  1.00  0.00     0.062 A 
ATOM     18  C   UNL     1      30.697   4.282 -24.341  1.00  0.00     0.158 A 
BRANCH  16  19
ATOM     19  O   UNL     1      28.388   3.509 -24.477  1.00  0.00    -0.504 OA
ATOM     20  H   UNL     1      28.074   4.388 -24.872  1.00  0.00     0.293 HD
ENDBRANCH  16  19
BRANCH  18  21
ATOM     21  O   UNL     1      30.344   5.501 -24.920  1.00  0.00    -0.504 OA
ATOM     22  H   UNL     1      30.002   5.558 -25.870  1.00  0.00     0.293 HD
ENDBRANCH  18  21
ENDBRANCH   3  13
BRANCH  10  23
ATOM     23  O   UNL     1      38.638   2.328 -21.126  1.00  0.00    -0.507 OA
ATOM     24  H   UNL     1      39.639   2.224 -21.113  1.00  0.00     0.293 HD
ENDBRANCH  10  23
BRANCH  11  25
ATOM     25  O   UNL     1      37.834  -1.826 -23.348  1.00  0.00    -0.508 OA
ATOM     26  H   UNL     1      37.286  -2.453 -23.929  1.00  0.00     0.293 HD
ENDBRANCH  11  25
ENDBRANCH   1   2
BRANCH   1  27
ATOM     27  C   UNL     1      33.710   5.563 -21.006  1.00  0.00     0.339 C 
ATOM     28  C   UNL     1      34.410   6.957 -21.023  1.00  0.00     0.214 C 
ATOM     29  O   UNL     1      32.305   5.621 -20.761  1.00  0.00    -0.332 OA
ATOM     30  C   UNL     1      33.595   7.954 -20.183  1.00  0.00     0.180 C 
ATOM     31  C   UNL     1      31.711   6.734 -21.402  1.00  0.00     0.179 C 
ATOM     32  C   UNL     1      32.131   8.047 -20.682  1.00  0.00     0.177 C 
BRANCH  28  33
ATOM     33  O   UNL     1      34.533   7.442 -22.337  1.00  0.00    -0.384 OA
ATOM     34  H   UNL     1      35.351   7.035 -22.724  1.00  0.00     0.211 HD
ENDBRANCH  28  33
BRANCH  30  35
ATOM     35  O   UNL     1      34.188   9.227 -20.214  1.00  0.00    -0.387 OA
ATOM     36  H   UNL     1      33.671   9.772 -20.859  1.00  0.00     0.211 HD
ENDBRANCH  30  35
BRANCH  31  37
ATOM     37  C   UNL     1      30.188   6.541 -21.439  1.00  0.00     0.191 C 
BRANCH  37  38
ATOM     38  O   UNL     1      29.761   5.806 -20.326  1.00  0.00    -0.394 OA
ATOM     39  H   UNL     1      30.566   5.642 -19.768  1.00  0.00     0.210 HD
ENDBRANCH  37  38
ENDBRANCH  31  37
BRANCH  32  40
ATOM     40  O   UNL     1      31.302   8.304 -19.576  1.00  0.00    -0.387 OA
ATOM     41  H   UNL     1      30.884   9.189 -19.723  1.00  0.00     0.211 HD
ENDBRANCH  32  40
ENDBRANCH   1  27
TORSDOF 12
ENDMDL
MODEL 9
REMARK VINA RESULT:    -5.869      2.944      7.486
REMARK INTER + INTRA:         -10.108
REMARK INTER:                  -8.774
REMARK INTRA:                  -1.334
REMARK UNBOUND:                -1.494
REMARK SMILES O=c1c(O[C@@H]2O[C@@H](CO)[C@@H](O)[C@H](O)[C@@H]2O)c(-c2ccc(O)c(O)c2)oc2cc(O)cc(O)c12
REMARK SMILES IDX 4 1 3 2 16 3 25 4 2 5 26 6 1 7 33 8 27 9 31 10 28 11 30 12
REMARK SMILES IDX 17 13 18 14 19 15 20 16 24 17 22 18 21 19 23 21 32 23 29 25
REMARK SMILES IDX 5 27 14 28 6 29 12 30 7 31 10 32 15 33 13 35 8 37 9 38 11 40
REMARK H PARENT 21 20 23 22 32 24 29 26 15 34 13 36 9 39 11 41
REMARK Flexibility Score: inf
ROOT
ATOM      1  O   UNL     1      33.228   5.233 -23.134  1.00  0.00    -0.454 OA
ENDROOT
BRANCH   1   2
ATOM      2  C   UNL     1      32.338   4.185 -23.455  1.00  0.00     0.214 A 
ATOM      3  C   UNL     1      32.642   2.902 -22.970  1.00  0.00     0.180 A 
ATOM      4  O   UNL     1      31.794   1.900 -23.157  1.00  0.00    -0.452 OA
ATOM      5  C   UNL     1      31.147   4.354 -24.199  1.00  0.00     0.239 A 
ATOM      6  C   UNL     1      30.662   2.015 -23.836  1.00  0.00     0.146 A 
ATOM      7  O   UNL     1      30.834   5.498 -24.613  1.00  0.00    -0.285 OA
ATOM      8  C   UNL     1      30.296   3.244 -24.436  1.00  0.00     0.111 A 
ATOM      9  C   UNL     1      29.836   0.894 -23.947  1.00  0.00     0.094 A 
ATOM     10  C   UNL     1      29.088   3.293 -25.204  1.00  0.00     0.134 A 
ATOM     11  C   UNL     1      28.632   0.967 -24.648  1.00  0.00     0.123 A 
ATOM     12  C   UNL     1      28.266   2.162 -25.266  1.00  0.00     0.093 A 
BRANCH   3  13
ATOM     13  C   UNL     1      33.881   2.637 -22.204  1.00  0.00     0.025 A 
ATOM     14  C   UNL     1      35.120   2.480 -22.850  1.00  0.00     0.016 A 
ATOM     15  C   UNL     1      36.279   2.242 -22.110  1.00  0.00     0.051 A 
ATOM     16  C   UNL     1      36.219   2.150 -20.715  1.00  0.00     0.157 A 
ATOM     17  C   UNL     1      33.819   2.519 -20.807  1.00  0.00     0.062 A 
ATOM     18  C   UNL     1      34.983   2.285 -20.061  1.00  0.00     0.158 A 
BRANCH  16  19
ATOM     19  O   UNL     1      37.393   1.915 -20.004  1.00  0.00    -0.504 OA
ATOM     20  H   UNL     1      37.387   1.453 -19.102  1.00  0.00     0.293 HD
ENDBRANCH  16  19
BRANCH  18  21
ATOM     21  O   UNL     1      34.915   2.185 -18.671  1.00  0.00    -0.504 OA
ATOM     22  H   UNL     1      35.511   2.737 -18.070  1.00  0.00     0.293 HD
ENDBRANCH  18  21
ENDBRANCH   3  13
BRANCH  10  23
ATOM     23  O   UNL     1      28.659   4.406 -25.940  1.00  0.00    -0.507 OA
ATOM     24  H   UNL     1      29.252   5.113 -26.344  1.00  0.00     0.293 HD
ENDBRANCH  10  23
BRANCH  11  25
ATOM     25  O   UNL     1      27.791  -0.137 -24.739  1.00  0.00    -0.508 OA
ATOM     26  H   UNL     1      27.948  -0.971 -24.180  1.00  0.00     0.293 HD
ENDBRANCH  11  25
ENDBRANCH   1   2
BRANCH   1  27
ATOM     27  C   UNL     1      33.352   5.923 -21.888  1.00  0.00     0.339 C 
ATOM     28  C   UNL     1      33.767   7.406 -22.136  1.00  0.00     0.214 C 
ATOM     29  O   UNL     1      32.159   5.774 -21.120  1.00  0.00    -0.332 OA
ATOM     30  C   UNL     1      33.194   8.296 -21.021  1.00  0.00     0.180 C 
ATOM     31  C   UNL     1      31.200   6.760 -21.452  1.00  0.00     0.179 C 
ATOM     32  C   UNL     1      31.656   8.146 -20.915  1.00  0.00     0.177 C 
BRANCH  28  33
ATOM     33  O   UNL     1      33.299   7.857 -23.383  1.00  0.00    -0.384 OA
ATOM     34  H   UNL     1      33.659   7.242 -24.072  1.00  0.00     0.211 HD
ENDBRANCH  28  33
BRANCH  30  35
ATOM     35  O   UNL     1      33.526   9.642 -21.245  1.00  0.00    -0.387 OA
ATOM     36  H   UNL     1      34.465   9.662 -21.555  1.00  0.00     0.211 HD
ENDBRANCH  30  35
BRANCH  31  37
ATOM     37  C   UNL     1      29.830   6.335 -20.905  1.00  0.00     0.191 C 
BRANCH  37  38
ATOM     38  O   UNL     1      29.984   5.404 -19.871  1.00  0.00    -0.394 OA
ATOM     39  H   UNL     1      29.619   4.543 -20.207  1.00  0.00     0.210 HD
ENDBRANCH  37  38
ENDBRANCH  31  37
BRANCH  32  40
ATOM     40  O   UNL     1      31.287   8.313 -19.569  1.00  0.00    -0.387 OA
ATOM     41  H   UNL     1      31.879   9.008 -19.186  1.00  0.00     0.211 HD
ENDBRANCH  32  40
ENDBRANCH   1  27
TORSDOF 12
ENDMDL
