MODEL 1
REMARK VINA RESULT:    -4.527      0.000      0.000
REMARK INTER + INTRA:          -9.433
REMARK INTER:                  -7.702
REMARK INTRA:                  -1.730
REMARK UNBOUND:                -1.730
REMARK SMILES CCCCCCCCCCCCCC(=O)[O-]
REMARK SMILES IDX 8 1 9 2 10 3 11 4 12 5 13 6 14 7 15 8 16 9 7 10 6 11 5 12
REMARK SMILES IDX 4 13 3 14 2 15 1 16
REMARK H PARENT
REMARK Flexibility Score: inf
ROOT
ATOM      1  C   UNL     1     -24.333  60.808  28.867  1.00  0.00     0.000 C 
ENDROOT
BRANCH   1   2
ATOM      2  C   UNL     1     -25.346  59.796  29.427  1.00  0.00     0.000 C 
BRANCH   2   3
ATOM      3  C   UNL     1     -24.795  59.028  30.648  1.00  0.00     0.000 C 
BRANCH   3   4
ATOM      4  C   UNL     1     -25.566  59.302  31.953  1.00  0.00     0.000 C 
BRANCH   4   5
ATOM      5  C   UNL     1     -26.705  60.331  31.831  1.00  0.00     0.006 C 
BRANCH   5   6
ATOM      6  C   UNL     1     -26.527  61.581  32.709  1.00  0.00     0.053 C 
BRANCH   6   7
ATOM      7  C   UNL     1     -27.440  61.567  33.895  1.00  0.00     0.041 C 
ATOM      8  O   UNL     1     -27.810  60.473  34.398  1.00  0.00    -0.550 OA
ATOM      9  O   UNL     1     -27.856  62.762  34.468  1.00  0.00    -0.550 OA
ENDBRANCH   6   7
ENDBRANCH   5   6
ENDBRANCH   4   5
ENDBRANCH   3   4
ENDBRANCH   2   3
ENDBRANCH   1   2
BRANCH   1  10
ATOM     10  C   UNL     1     -24.604  62.247  29.335  1.00  0.00     0.000 C 
BRANCH  10  11
ATOM     11  C   UNL     1     -23.773  62.658  30.570  1.00  0.00    -0.000 C 
BRANCH  11  12
ATOM     12  C   UNL     1     -22.391  61.982  30.589  1.00  0.00    -0.000 C 
BRANCH  12  13
ATOM     13  C   UNL     1     -21.744  61.987  31.983  1.00  0.00    -0.000 C 
BRANCH  13  14
ATOM     14  C   UNL     1     -22.605  61.270  33.037  1.00  0.00    -0.000 C 
BRANCH  14  15
ATOM     15  C   UNL     1     -22.145  61.567  34.473  1.00  0.00    -0.003 C 
ATOM     16  C   UNL     1     -20.886  62.432  34.525  1.00  0.00     0.004 C 
ENDBRANCH  14  15
ENDBRANCH  13  14
ENDBRANCH  12  13
ENDBRANCH  11  12
ENDBRANCH  10  11
ENDBRANCH   1  10
TORSDOF 12
ENDMDL
MODEL 2
REMARK VINA RESULT:    -4.473      1.703      2.641
REMARK INTER + INTRA:          -9.341
REMARK INTER:                  -7.355
REMARK INTRA:                  -1.986
REMARK UNBOUND:                -1.730
REMARK SMILES CCCCCCCCCCCCCC(=O)[O-]
REMARK SMILES IDX 8 1 9 2 10 3 11 4 12 5 13 6 14 7 15 8 16 9 7 10 6 11 5 12
REMARK SMILES IDX 4 13 3 14 2 15 1 16
REMARK H PARENT
REMARK Flexibility Score: inf
ROOT
ATOM      1  C   UNL     1     -24.880  60.926  28.713  1.00  0.00     0.000 C 
ENDROOT
BRANCH   1   2
ATOM      2  C   UNL     1     -24.860  59.435  29.087  1.00  0.00     0.000 C 
BRANCH   2   3
ATOM      3  C   UNL     1     -25.613  59.149  30.404  1.00  0.00     0.000 C 
BRANCH   3   4
ATOM      4  C   UNL     1     -24.708  58.623  31.534  1.00  0.00     0.000 C 
BRANCH   4   5
ATOM      5  C   UNL     1     -25.186  58.960  32.959  1.00  0.00     0.006 C 
BRANCH   5   6
ATOM      6  C   UNL     1     -26.215  60.099  33.029  1.00  0.00     0.053 C 
BRANCH   6   7
ATOM      7  C   UNL     1     -26.361  60.638  34.419  1.00  0.00     0.041 C 
ATOM      8  O   UNL     1     -27.502  60.746  34.941  1.00  0.00    -0.550 OA
ATOM      9  O   UNL     1     -25.234  60.988  35.151  1.00  0.00    -0.550 OA
ENDBRANCH   6   7
ENDBRANCH   5   6
ENDBRANCH   4   5
ENDBRANCH   3   4
ENDBRANCH   2   3
ENDBRANCH   1   2
BRANCH   1  10
ATOM     10  C   UNL     1     -25.300  61.830  29.885  1.00  0.00     0.000 C 
BRANCH  10  11
ATOM     11  C   UNL     1     -24.158  62.728  30.408  1.00  0.00    -0.000 C 
BRANCH  11  12
ATOM     12  C   UNL     1     -23.209  61.967  31.351  1.00  0.00    -0.000 C 
BRANCH  12  13
ATOM     13  C   UNL     1     -21.759  61.938  30.840  1.00  0.00    -0.000 C 
BRANCH  13  14
ATOM     14  C   UNL     1     -21.312  60.529  30.414  1.00  0.00    -0.000 C 
BRANCH  14  15
ATOM     15  C   UNL     1     -21.282  60.358  28.887  1.00  0.00    -0.003 C 
ATOM     16  C   UNL     1     -21.084  61.681  28.146  1.00  0.00     0.004 C 
ENDBRANCH  14  15
ENDBRANCH  13  14
ENDBRANCH  12  13
ENDBRANCH  11  12
ENDBRANCH  10  11
ENDBRANCH   1  10
TORSDOF 12
ENDMDL
MODEL 3
REMARK VINA RESULT:    -4.460      2.016      4.184
REMARK INTER + INTRA:          -9.318
REMARK INTER:                  -7.510
REMARK INTRA:                  -1.808
REMARK UNBOUND:                -1.730
REMARK SMILES CCCCCCCCCCCCCC(=O)[O-]
REMARK SMILES IDX 8 1 9 2 10 3 11 4 12 5 13 6 14 7 15 8 16 9 7 10 6 11 5 12
REMARK SMILES IDX 4 13 3 14 2 15 1 16
REMARK H PARENT
REMARK Flexibility Score: inf
ROOT
ATOM      1  C   UNL     1     -20.936  61.014  29.717  1.00  0.00     0.000 C 
ENDROOT
BRANCH   1   2
ATOM      2  C   UNL     1     -21.120  62.014  30.870  1.00  0.00     0.000 C 
BRANCH   2   3
ATOM      3  C   UNL     1     -22.536  61.949  31.483  1.00  0.00     0.000 C 
BRANCH   3   4
ATOM      4  C   UNL     1     -23.605  62.689  30.656  1.00  0.00     0.000 C 
BRANCH   4   5
ATOM      5  C   UNL     1     -25.037  62.142  30.806  1.00  0.00     0.006 C 
BRANCH   5   6
ATOM      6  C   UNL     1     -25.254  61.271  32.054  1.00  0.00     0.053 C 
BRANCH   6   7
ATOM      7  C   UNL     1     -26.617  60.650  32.072  1.00  0.00     0.041 C 
ATOM      8  O   UNL     1     -26.743  59.397  32.049  1.00  0.00    -0.550 OA
ATOM      9  O   UNL     1     -27.747  61.453  32.151  1.00  0.00    -0.550 OA
ENDBRANCH   6   7
ENDBRANCH   5   6
ENDBRANCH   4   5
ENDBRANCH   3   4
ENDBRANCH   2   3
ENDBRANCH   1   2
BRANCH   1  10
ATOM     10  C   UNL     1     -20.587  61.697  28.384  1.00  0.00     0.000 C 
BRANCH  10  11
ATOM     11  C   UNL     1     -21.719  61.614  27.337  1.00  0.00    -0.000 C 
BRANCH  11  12
ATOM     12  C   UNL     1     -22.893  60.745  27.821  1.00  0.00    -0.000 C 
BRANCH  12  13
ATOM     13  C   UNL     1     -22.844  59.313  27.264  1.00  0.00    -0.000 C 
BRANCH  13  14
ATOM     14  C   UNL     1     -23.123  58.251  28.341  1.00  0.00    -0.000 C 
BRANCH  14  15
ATOM     15  C   UNL     1     -23.956  58.803  29.509  1.00  0.00    -0.003 C 
ATOM     16  C   UNL     1     -23.810  57.974  30.785  1.00  0.00     0.004 C 
ENDBRANCH  14  15
ENDBRANCH  13  14
ENDBRANCH  12  13
ENDBRANCH  11  12
ENDBRANCH  10  11
ENDBRANCH   1  10
TORSDOF 12
ENDMDL
MODEL 4
REMARK VINA RESULT:    -4.457      2.987      5.134
REMARK INTER + INTRA:          -9.315
REMARK INTER:                  -7.417
REMARK INTRA:                  -1.897
REMARK UNBOUND:                -1.730
REMARK SMILES CCCCCCCCCCCCCC(=O)[O-]
REMARK SMILES IDX 8 1 9 2 10 3 11 4 12 5 13 6 14 7 15 8 16 9 7 10 6 11 5 12
REMARK SMILES IDX 4 13 3 14 2 15 1 16
REMARK H PARENT
REMARK Flexibility Score: inf
ROOT
ATOM      1  C   UNL     1     -26.032  59.672  31.520  1.00  0.00     0.000 C 
ENDROOT
BRANCH   1   2
ATOM      2  C   UNL     1     -25.403  60.997  31.983  1.00  0.00     0.000 C 
BRANCH   2   3
ATOM      3  C   UNL     1     -25.085  61.939  30.802  1.00  0.00     0.000 C 
BRANCH   3   4
ATOM      4  C   UNL     1     -23.628  62.440  30.784  1.00  0.00     0.000 C 
BRANCH   4   5
ATOM      5  C   UNL     1     -22.629  61.565  31.565  1.00  0.00     0.006 C 
BRANCH   5   6
ATOM      6  C   UNL     1     -21.327  62.283  31.954  1.00  0.00     0.053 C 
BRANCH   6   7
ATOM      7  C   UNL     1     -20.918  61.976  33.362  1.00  0.00     0.041 C 
ATOM      8  O   UNL     1     -19.709  61.752  33.637  1.00  0.00    -0.550 OA
ATOM      9  O   UNL     1     -21.866  61.972  34.377  1.00  0.00    -0.550 OA
ENDBRANCH   6   7
ENDBRANCH   5   6
ENDBRANCH   4   5
ENDBRANCH   3   4
ENDBRANCH   2   3
ENDBRANCH   1   2
BRANCH   1  10
ATOM     10  C   UNL     1     -25.405  59.134  30.223  1.00  0.00     0.000 C 
BRANCH  10  11
ATOM     11  C   UNL     1     -24.079  58.376  30.451  1.00  0.00    -0.000 C 
BRANCH  11  12
ATOM     12  C   UNL     1     -23.078  58.604  29.305  1.00  0.00    -0.000 C 
BRANCH  12  13
ATOM     13  C   UNL     1     -23.589  59.607  28.258  1.00  0.00    -0.000 C 
BRANCH  13  14
ATOM     14  C   UNL     1     -22.472  60.109  27.326  1.00  0.00    -0.000 C 
BRANCH  14  15
ATOM     15  C   UNL     1     -22.051  61.554  27.639  1.00  0.00    -0.003 C 
ATOM     16  C   UNL     1     -20.707  61.637  28.362  1.00  0.00     0.004 C 
ENDBRANCH  14  15
ENDBRANCH  13  14
ENDBRANCH  12  13
ENDBRANCH  11  12
ENDBRANCH  10  11
ENDBRANCH   1  10
TORSDOF 12
ENDMDL
MODEL 5
REMARK VINA RESULT:    -4.432      1.263      3.688
REMARK INTER + INTRA:          -9.271
REMARK INTER:                  -7.605
REMARK INTRA:                  -1.666
REMARK UNBOUND:                -1.730
REMARK SMILES CCCCCCCCCCCCCC(=O)[O-]
REMARK SMILES IDX 8 1 9 2 10 3 11 4 12 5 13 6 14 7 15 8 16 9 7 10 6 11 5 12
REMARK SMILES IDX 4 13 3 14 2 15 1 16
REMARK H PARENT
REMARK Flexibility Score: inf
ROOT
ATOM      1  C   UNL     1     -22.444  62.080  31.237  1.00  0.00     0.000 C 
ENDROOT
BRANCH   1   2
ATOM      2  C   UNL     1     -22.063  60.965  32.224  1.00  0.00     0.000 C 
BRANCH   2   3
ATOM      3  C   UNL     1     -22.601  61.230  33.646  1.00  0.00     0.000 C 
BRANCH   3   4
ATOM      4  C   UNL     1     -23.687  60.233  34.095  1.00  0.00     0.000 C 
BRANCH   4   5
ATOM      5  C   UNL     1     -24.894  60.866  34.813  1.00  0.00     0.006 C 
BRANCH   5   6
ATOM      6  C   UNL     1     -26.228  60.710  34.066  1.00  0.00     0.053 C 
BRANCH   6   7
ATOM      7  C   UNL     1     -27.248  61.705  34.529  1.00  0.00     0.041 C 
ATOM      8  O   UNL     1     -28.125  62.131  33.731  1.00  0.00    -0.550 OA
ATOM      9  O   UNL     1     -27.252  62.135  35.849  1.00  0.00    -0.550 OA
ENDBRANCH   6   7
ENDBRANCH   5   6
ENDBRANCH   4   5
ENDBRANCH   3   4
ENDBRANCH   2   3
ENDBRANCH   1   2
BRANCH   1  10
ATOM     10  C   UNL     1     -23.965  62.266  31.103  1.00  0.00     0.000 C 
BRANCH  10  11
ATOM     11  C   UNL     1     -24.414  62.641  29.674  1.00  0.00    -0.000 C 
BRANCH  11  12
ATOM     12  C   UNL     1     -23.873  61.658  28.620  1.00  0.00    -0.000 C 
BRANCH  12  13
ATOM     13  C   UNL     1     -24.736  60.394  28.485  1.00  0.00    -0.000 C 
BRANCH  13  14
ATOM     14  C   UNL     1     -23.962  59.110  28.831  1.00  0.00    -0.000 C 
BRANCH  14  15
ATOM     15  C   UNL     1     -24.231  58.630  30.267  1.00  0.00    -0.003 C 
ATOM     16  C   UNL     1     -25.618  59.022  30.773  1.00  0.00     0.004 C 
ENDBRANCH  14  15
ENDBRANCH  13  14
ENDBRANCH  12  13
ENDBRANCH  11  12
ENDBRANCH  10  11
ENDBRANCH   1  10
TORSDOF 12
ENDMDL
MODEL 6
REMARK VINA RESULT:    -4.411      1.605      3.375
REMARK INTER + INTRA:          -9.235
REMARK INTER:                  -7.399
REMARK INTRA:                  -1.837
REMARK UNBOUND:                -1.730
REMARK SMILES CCCCCCCCCCCCCC(=O)[O-]
REMARK SMILES IDX 8 1 9 2 10 3 11 4 12 5 13 6 14 7 15 8 16 9 7 10 6 11 5 12
REMARK SMILES IDX 4 13 3 14 2 15 1 16
REMARK H PARENT
REMARK Flexibility Score: inf
ROOT
ATOM      1  C   UNL     1     -24.564  62.618  30.720  1.00  0.00     0.000 C 
ENDROOT
BRANCH   1   2
ATOM      2  C   UNL     1     -23.156  62.302  31.250  1.00  0.00     0.000 C 
BRANCH   2   3
ATOM      3  C   UNL     1     -23.131  61.030  32.126  1.00  0.00     0.000 C 
BRANCH   3   4
ATOM      4  C   UNL     1     -24.380  60.862  33.012  1.00  0.00     0.000 C 
BRANCH   4   5
ATOM      5  C   UNL     1     -25.179  59.567  32.769  1.00  0.00     0.006 C 
BRANCH   5   6
ATOM      6  C   UNL     1     -26.605  59.792  32.241  1.00  0.00     0.053 C 
BRANCH   6   7
ATOM      7  C   UNL     1     -27.389  60.716  33.122  1.00  0.00     0.041 C 
ATOM      8  O   UNL     1     -28.035  61.674  32.621  1.00  0.00    -0.550 OA
ATOM      9  O   UNL     1     -27.434  60.499  34.493  1.00  0.00    -0.550 OA
ENDBRANCH   6   7
ENDBRANCH   5   6
ENDBRANCH   4   5
ENDBRANCH   3   4
ENDBRANCH   2   3
ENDBRANCH   1   2
BRANCH   1  10
ATOM     10  C   UNL     1     -24.756  62.208  29.251  1.00  0.00     0.000 C 
BRANCH  10  11
ATOM     11  C   UNL     1     -25.291  60.770  29.079  1.00  0.00    -0.000 C 
BRANCH  11  12
ATOM     12  C   UNL     1     -24.227  59.821  28.500  1.00  0.00    -0.000 C 
BRANCH  12  13
ATOM     13  C   UNL     1     -23.094  60.567  27.778  1.00  0.00    -0.000 C 
BRANCH  13  14
ATOM     14  C   UNL     1     -21.720  60.327  28.428  1.00  0.00    -0.000 C 
BRANCH  14  15
ATOM     15  C   UNL     1     -20.850  61.594  28.448  1.00  0.00    -0.003 C 
ATOM     16  C   UNL     1     -19.873  61.625  29.623  1.00  0.00     0.004 C 
ENDBRANCH  14  15
ENDBRANCH  13  14
ENDBRANCH  12  13
ENDBRANCH  11  12
ENDBRANCH  10  11
ENDBRANCH   1  10
TORSDOF 12
ENDMDL
MODEL 7
REMARK VINA RESULT:    -4.390      3.653      5.537
REMARK INTER + INTRA:          -9.200
REMARK INTER:                  -7.150
REMARK INTRA:                  -2.050
REMARK UNBOUND:                -1.730
REMARK SMILES CCCCCCCCCCCCCC(=O)[O-]
REMARK SMILES IDX 8 1 9 2 10 3 11 4 12 5 13 6 14 7 15 8 16 9 7 10 6 11 5 12
REMARK SMILES IDX 4 13 3 14 2 15 1 16
REMARK H PARENT
REMARK Flexibility Score: inf
ROOT
ATOM      1  C   UNL     1     -24.390  62.645  30.678  1.00  0.00     0.000 C 
ENDROOT
BRANCH   1   2
ATOM      2  C   UNL     1     -24.648  62.186  29.234  1.00  0.00     0.000 C 
BRANCH   2   3
ATOM      3  C   UNL     1     -25.367  60.822  29.171  1.00  0.00     0.000 C 
BRANCH   3   4
ATOM      4  C   UNL     1     -24.447  59.654  28.766  1.00  0.00     0.000 C 
BRANCH   4   5
ATOM      5  C   UNL     1     -23.318  60.025  27.785  1.00  0.00     0.006 C 
BRANCH   5   6
ATOM      6  C   UNL     1     -21.916  60.045  28.413  1.00  0.00     0.053 C 
BRANCH   6   7
ATOM      7  C   UNL     1     -21.210  61.343  28.166  1.00  0.00     0.041 C 
ATOM      8  O   UNL     1     -20.302  61.730  28.948  1.00  0.00    -0.550 OA
ATOM      9  O   UNL     1     -21.531  62.108  27.052  1.00  0.00    -0.550 OA
ENDBRANCH   6   7
ENDBRANCH   5   6
ENDBRANCH   4   5
ENDBRANCH   3   4
ENDBRANCH   2   3
ENDBRANCH   1   2
BRANCH   1  10
ATOM     10  C   UNL     1     -23.212  61.908  31.338  1.00  0.00     0.000 C 
BRANCH  10  11
ATOM     11  C   UNL     1     -23.624  61.065  32.564  1.00  0.00    -0.000 C 
BRANCH  11  12
ATOM     12  C   UNL     1     -23.632  59.558  32.254  1.00  0.00    -0.000 C 
BRANCH  12  13
ATOM     13  C   UNL     1     -25.022  58.923  32.422  1.00  0.00    -0.000 C 
BRANCH  13  14
ATOM     14  C   UNL     1     -25.998  59.831  33.190  1.00  0.00    -0.000 C 
BRANCH  14  15
ATOM     15  C   UNL     1     -27.134  60.359  32.299  1.00  0.00    -0.003 C 
ATOM     16  C   UNL     1     -27.495  61.814  32.598  1.00  0.00     0.004 C 
ENDBRANCH  14  15
ENDBRANCH  13  14
ENDBRANCH  12  13
ENDBRANCH  11  12
ENDBRANCH  10  11
ENDBRANCH   1  10
TORSDOF 12
ENDMDL
MODEL 8
REMARK VINA RESULT:    -4.355      2.460      4.584
REMARK INTER + INTRA:          -9.140
REMARK INTER:                  -7.336
REMARK INTRA:                  -1.803
REMARK UNBOUND:                -1.730
REMARK SMILES CCCCCCCCCCCCCC(=O)[O-]
REMARK SMILES IDX 8 1 9 2 10 3 11 4 12 5 13 6 14 7 15 8 16 9 7 10 6 11 5 12
REMARK SMILES IDX 4 13 3 14 2 15 1 16
REMARK H PARENT
REMARK Flexibility Score: inf
ROOT
ATOM      1  C   UNL     1     -23.328  60.675  28.783  1.00  0.00     0.000 C 
ENDROOT
BRANCH   1   2
ATOM      2  C   UNL     1     -24.012  62.039  28.975  1.00  0.00     0.000 C 
BRANCH   2   3
ATOM      3  C   UNL     1     -23.864  62.572  30.416  1.00  0.00     0.000 C 
BRANCH   3   4
ATOM      4  C   UNL     1     -22.612  62.047  31.146  1.00  0.00     0.000 C 
BRANCH   4   5
ATOM      5  C   UNL     1     -22.885  61.390  32.512  1.00  0.00     0.006 C 
BRANCH   5   6
ATOM      6  C   UNL     1     -21.618  61.015  33.298  1.00  0.00     0.053 C 
BRANCH   6   7
ATOM      7  C   UNL     1     -21.515  61.771  34.588  1.00  0.00     0.041 C 
ATOM      8  O   UNL     1     -22.520  61.883  35.339  1.00  0.00    -0.550 OA
ATOM      9  O   UNL     1     -20.301  62.321  34.977  1.00  0.00    -0.550 OA
ENDBRANCH   6   7
ENDBRANCH   5   6
ENDBRANCH   4   5
ENDBRANCH   3   4
ENDBRANCH   2   3
ENDBRANCH   1   2
BRANCH   1  10
ATOM     10  C   UNL     1     -24.331  59.527  28.582  1.00  0.00     0.000 C 
BRANCH  10  11
ATOM     11  C   UNL     1     -25.485  59.533  29.608  1.00  0.00    -0.000 C 
BRANCH  11  12
ATOM     12  C   UNL     1     -25.080  58.876  30.939  1.00  0.00    -0.000 C 
BRANCH  12  13
ATOM     13  C   UNL     1     -25.981  59.299  32.110  1.00  0.00    -0.000 C 
BRANCH  13  14
ATOM     14  C   UNL     1     -26.615  60.685  31.897  1.00  0.00    -0.000 C 
BRANCH  14  15
ATOM     15  C   UNL     1     -26.628  61.529  33.182  1.00  0.00    -0.003 C 
ATOM     16  C   UNL     1     -26.053  60.784  34.387  1.00  0.00     0.004 C 
ENDBRANCH  14  15
ENDBRANCH  13  14
ENDBRANCH  12  13
ENDBRANCH  11  12
ENDBRANCH  10  11
ENDBRANCH   1  10
TORSDOF 12
ENDMDL
MODEL 9
REMARK VINA RESULT:    -4.351      1.501      2.537
REMARK INTER + INTRA:          -9.134
REMARK INTER:                  -7.777
REMARK INTRA:                  -1.358
REMARK UNBOUND:                -1.730
REMARK SMILES CCCCCCCCCCCCCC(=O)[O-]
REMARK SMILES IDX 8 1 9 2 10 3 11 4 12 5 13 6 14 7 15 8 16 9 7 10 6 11 5 12
REMARK SMILES IDX 4 13 3 14 2 15 1 16
REMARK H PARENT
REMARK Flexibility Score: inf
ROOT
ATOM      1  C   UNL     1     -21.963  60.780  28.550  1.00  0.00     0.000 C 
ENDROOT
BRANCH   1   2
ATOM      2  C   UNL     1     -23.145  61.654  28.099  1.00  0.00     0.000 C 
BRANCH   2   3
ATOM      3  C   UNL     1     -24.333  61.589  29.084  1.00  0.00     0.000 C 
BRANCH   3   4
ATOM      4  C   UNL     1     -24.487  62.852  29.953  1.00  0.00     0.000 C 
BRANCH   4   5
ATOM      5  C   UNL     1     -25.478  62.717  31.125  1.00  0.00     0.006 C 
BRANCH   5   6
ATOM      6  C   UNL     1     -25.677  61.276  31.623  1.00  0.00     0.053 C 
BRANCH   6   7
ATOM      7  C   UNL     1     -26.600  61.214  32.801  1.00  0.00     0.041 C 
ATOM      8  O   UNL     1     -26.138  61.256  33.972  1.00  0.00    -0.550 OA
ATOM      9  O   UNL     1     -27.974  61.144  32.606  1.00  0.00    -0.550 OA
ENDBRANCH   6   7
ENDBRANCH   5   6
ENDBRANCH   4   5
ENDBRANCH   3   4
ENDBRANCH   2   3
ENDBRANCH   1   2
BRANCH   1  10
ATOM     10  C   UNL     1     -20.715  61.603  28.910  1.00  0.00     0.000 C 
BRANCH  10  11
ATOM     11  C   UNL     1     -20.592  61.902  30.420  1.00  0.00    -0.000 C 
BRANCH  11  12
ATOM     12  C   UNL     1     -21.425  60.929  31.272  1.00  0.00    -0.000 C 
BRANCH  12  13
ATOM     13  C   UNL     1     -21.995  61.587  32.540  1.00  0.00    -0.000 C 
BRANCH  13  14
ATOM     14  C   UNL     1     -20.934  62.379  33.323  1.00  0.00    -0.000 C 
BRANCH  14  15
ATOM     15  C   UNL     1     -21.099  62.236  34.845  1.00  0.00    -0.003 C 
ATOM     16  C   UNL     1     -22.456  61.655  35.242  1.00  0.00     0.004 C 
ENDBRANCH  14  15
ENDBRANCH  13  14
ENDBRANCH  12  13
ENDBRANCH  11  12
ENDBRANCH  10  11
ENDBRANCH   1  10
TORSDOF 12
ENDMDL
