MODEL 1
REMARK VINA RESULT:    -5.616      0.000      0.000
REMARK INTER + INTRA:          -6.887
REMARK INTER:                  -6.600
REMARK INTRA:                  -0.287
REMARK UNBOUND:                -0.287
REMARK SMILES O=c1c(O)c(-c2ccc(O)cc2)oc2cc(O)cc(O)c12
REMARK SMILES IDX 5 1 3 2 2 3 1 4 21 5 19 6 18 7 16 8 15 9 14 10 13 11 6 12
REMARK SMILES IDX 7 13 8 14 9 15 12 16 11 17 10 18 4 20 20 22 17 24
REMARK H PARENT 10 19 4 21 20 23 17 25
REMARK Flexibility Score: inf
ROOT
ATOM      1  C   UNL     1    -140.836 154.288 139.348  1.00  0.00     0.180 A 
ATOM      2  C   UNL     1    -141.641 155.261 138.731  1.00  0.00     0.208 A 
ATOM      3  C   UNL     1    -141.336 155.669 137.423  1.00  0.00     0.238 A 
ATOM      4  O   UNL     1    -142.016 156.594 136.906  1.00  0.00    -0.285 OA
ATOM      5  C   UNL     1    -140.264 155.061 136.726  1.00  0.00     0.111 A 
ATOM      6  C   UNL     1    -139.893 155.364 135.382  1.00  0.00     0.134 A 
ATOM      7  C   UNL     1    -138.748 154.774 134.831  1.00  0.00     0.093 A 
ATOM      8  C   UNL     1    -137.998 153.846 135.552  1.00  0.00     0.123 A 
ATOM      9  C   UNL     1    -138.383 153.500 136.847  1.00  0.00     0.094 A 
ATOM     10  C   UNL     1    -139.498 154.100 137.438  1.00  0.00     0.146 A 
ATOM     11  O   UNL     1    -139.817 153.758 138.681  1.00  0.00    -0.452 OA
ENDROOT
BRANCH   1  12
ATOM     12  C   UNL     1    -141.084 153.817 140.729  1.00  0.00     0.021 A 
ATOM     13  C   UNL     1    -141.907 152.706 140.988  1.00  0.00     0.016 A 
ATOM     14  C   UNL     1    -142.147 152.294 142.303  1.00  0.00     0.047 A 
ATOM     15  C   UNL     1    -141.581 152.993 143.373  1.00  0.00     0.115 A 
ATOM     16  C   UNL     1    -140.537 154.527 141.810  1.00  0.00     0.016 A 
ATOM     17  C   UNL     1    -140.777 154.113 143.124  1.00  0.00     0.047 A 
BRANCH  15  18
ATOM     18  O   UNL     1    -141.827 152.571 144.678  1.00  0.00    -0.508 OA
ATOM     19  H   UNL     1    -142.663 152.048 144.916  1.00  0.00     0.293 HD
ENDBRANCH  15  18
ENDBRANCH   1  12
BRANCH   2  20
ATOM     20  O   UNL     1    -142.741 155.795 139.409  1.00  0.00    -0.502 OA
ATOM     21  H   UNL     1    -143.086 156.731 139.233  1.00  0.00     0.293 HD
ENDBRANCH   2  20
BRANCH   6  22
ATOM     22  O   UNL     1    -140.621 156.211 134.540  1.00  0.00    -0.507 OA
ATOM     23  H   UNL     1    -140.681 156.115 133.537  1.00  0.00     0.293 HD
ENDBRANCH   6  22
BRANCH   8  24
ATOM     24  O   UNL     1    -136.875 153.266 134.966  1.00  0.00    -0.508 OA
ATOM     25  H   UNL     1    -136.950 152.670 134.150  1.00  0.00     0.293 HD
ENDBRANCH   8  24
TORSDOF 5
ENDMDL
MODEL 2
REMARK VINA RESULT:    -5.573     19.411     20.961
REMARK INTER + INTRA:          -6.837
REMARK INTER:                  -6.761
REMARK INTRA:                  -0.076
REMARK UNBOUND:                -0.287
REMARK SMILES O=c1c(O)c(-c2ccc(O)cc2)oc2cc(O)cc(O)c12
REMARK SMILES IDX 5 1 3 2 2 3 1 4 21 5 19 6 18 7 16 8 15 9 14 10 13 11 6 12
REMARK SMILES IDX 7 13 8 14 9 15 12 16 11 17 10 18 4 20 20 22 17 24
REMARK H PARENT 10 19 4 21 20 23 17 25
REMARK Flexibility Score: inf
ROOT
ATOM      1  C   UNL     1    -154.073 139.451 138.558  1.00  0.00     0.180 A 
ATOM      2  C   UNL     1    -154.533 140.619 139.190  1.00  0.00     0.208 A 
ATOM      3  C   UNL     1    -154.216 140.834 140.540  1.00  0.00     0.238 A 
ATOM      4  O   UNL     1    -154.695 141.844 141.119  1.00  0.00    -0.285 OA
ATOM      5  C   UNL     1    -153.396 139.907 141.228  1.00  0.00     0.111 A 
ATOM      6  C   UNL     1    -152.974 140.046 142.585  1.00  0.00     0.134 A 
ATOM      7  C   UNL     1    -152.250 139.013 143.192  1.00  0.00     0.093 A 
ATOM      8  C   UNL     1    -151.878 137.875 142.477  1.00  0.00     0.123 A 
ATOM      9  C   UNL     1    -152.238 137.754 141.134  1.00  0.00     0.094 A 
ATOM     10  C   UNL     1    -152.993 138.750 140.511  1.00  0.00     0.146 A 
ATOM     11  O   UNL     1    -153.332 138.584 139.238  1.00  0.00    -0.452 OA
ENDROOT
BRANCH   1  12
ATOM     12  C   UNL     1    -154.378 139.147 137.142  1.00  0.00     0.021 A 
ATOM     13  C   UNL     1    -155.704 139.059 136.680  1.00  0.00     0.016 A 
ATOM     14  C   UNL     1    -155.967 138.747 135.342  1.00  0.00     0.047 A 
ATOM     15  C   UNL     1    -154.914 138.505 134.455  1.00  0.00     0.115 A 
ATOM     16  C   UNL     1    -153.326 138.883 136.249  1.00  0.00     0.016 A 
ATOM     17  C   UNL     1    -153.592 138.572 134.912  1.00  0.00     0.047 A 
BRANCH  15  18
ATOM     18  O   UNL     1    -155.192 138.197 133.125  1.00  0.00    -0.508 OA
ATOM     19  H   UNL     1    -154.464 138.200 132.418  1.00  0.00     0.293 HD
ENDBRANCH  15  18
ENDBRANCH   1  12
BRANCH   2  20
ATOM     20  O   UNL     1    -155.279 141.559 138.472  1.00  0.00    -0.502 OA
ATOM     21  H   UNL     1    -156.219 141.826 138.738  1.00  0.00     0.293 HD
ENDBRANCH   2  20
BRANCH   6  22
ATOM     22  O   UNL     1    -153.214 141.179 143.368  1.00  0.00    -0.507 OA
ATOM     23  H   UNL     1    -152.618 141.992 143.405  1.00  0.00     0.293 HD
ENDBRANCH   6  22
BRANCH   8  24
ATOM     24  O   UNL     1    -151.144 136.875 143.109  1.00  0.00    -0.508 OA
ATOM     25  H   UNL     1    -150.663 137.043 143.985  1.00  0.00     0.293 HD
ENDBRANCH   8  24
TORSDOF 5
ENDMDL
MODEL 3
REMARK VINA RESULT:    -5.409     17.570     18.936
REMARK INTER + INTRA:          -6.644
REMARK INTER:                  -6.362
REMARK INTRA:                  -0.282
REMARK UNBOUND:                -0.287
REMARK SMILES O=c1c(O)c(-c2ccc(O)cc2)oc2cc(O)cc(O)c12
REMARK SMILES IDX 5 1 3 2 2 3 1 4 21 5 19 6 18 7 16 8 15 9 14 10 13 11 6 12
REMARK SMILES IDX 7 13 8 14 9 15 12 16 11 17 10 18 4 20 20 22 17 24
REMARK H PARENT 10 19 4 21 20 23 17 25
REMARK Flexibility Score: inf
ROOT
ATOM      1  C   UNL     1    -153.785 141.350 139.966  1.00  0.00     0.180 A 
ATOM      2  C   UNL     1    -154.789 142.184 139.447  1.00  0.00     0.208 A 
ATOM      3  C   UNL     1    -155.196 142.013 138.114  1.00  0.00     0.238 A 
ATOM      4  O   UNL     1    -156.042 142.812 137.634  1.00  0.00    -0.285 OA
ATOM      5  C   UNL     1    -154.633 140.975 137.332  1.00  0.00     0.111 A 
ATOM      6  C   UNL     1    -155.002 140.681 135.985  1.00  0.00     0.134 A 
ATOM      7  C   UNL     1    -154.301 139.696 135.277  1.00  0.00     0.093 A 
ATOM      8  C   UNL     1    -153.290 138.953 135.884  1.00  0.00     0.123 A 
ATOM      9  C   UNL     1    -152.959 139.194 137.217  1.00  0.00     0.094 A 
ATOM     10  C   UNL     1    -153.614 140.194 137.939  1.00  0.00     0.146 A 
ATOM     11  O   UNL     1    -153.252 140.405 139.200  1.00  0.00    -0.452 OA
ENDROOT
BRANCH   1  12
ATOM     12  C   UNL     1    -153.293 141.478 141.356  1.00  0.00     0.021 A 
ATOM     13  C   UNL     1    -152.331 142.442 141.708  1.00  0.00     0.016 A 
ATOM     14  C   UNL     1    -151.864 142.528 143.024  1.00  0.00     0.047 A 
ATOM     15  C   UNL     1    -152.339 141.646 143.999  1.00  0.00     0.115 A 
ATOM     16  C   UNL     1    -153.750 140.582 142.337  1.00  0.00     0.016 A 
ATOM     17  C   UNL     1    -153.283 140.671 143.652  1.00  0.00     0.047 A 
BRANCH  15  18
ATOM     18  O   UNL     1    -151.866 141.745 145.306  1.00  0.00    -0.508 OA
ATOM     19  H   UNL     1    -150.902 141.989 145.502  1.00  0.00     0.293 HD
ENDBRANCH  15  18
ENDBRANCH   1  12
BRANCH   2  20
ATOM     20  O   UNL     1    -155.387 143.154 140.258  1.00  0.00    -0.502 OA
ATOM     21  H   UNL     1    -155.384 144.138 140.019  1.00  0.00     0.293 HD
ENDBRANCH   2  20
BRANCH   6  22
ATOM     22  O   UNL     1    -156.055 141.302 135.308  1.00  0.00    -0.507 OA
ATOM     23  H   UNL     1    -156.300 142.277 135.390  1.00  0.00     0.293 HD
ENDBRANCH   6  22
BRANCH   8  24
ATOM     24  O   UNL     1    -152.627 137.970 135.153  1.00  0.00    -0.508 OA
ATOM     25  H   UNL     1    -153.063 137.512 134.362  1.00  0.00     0.293 HD
ENDBRANCH   8  24
TORSDOF 5
ENDMDL
MODEL 4
REMARK VINA RESULT:    -5.356      1.465      3.059
REMARK INTER + INTRA:          -6.581
REMARK INTER:                  -6.292
REMARK INTRA:                  -0.289
REMARK UNBOUND:                -0.287
REMARK SMILES O=c1c(O)c(-c2ccc(O)cc2)oc2cc(O)cc(O)c12
REMARK SMILES IDX 5 1 3 2 2 3 1 4 21 5 19 6 18 7 16 8 15 9 14 10 13 11 6 12
REMARK SMILES IDX 7 13 8 14 9 15 12 16 11 17 10 18 4 20 20 22 17 24
REMARK H PARENT 10 19 4 21 20 23 17 25
REMARK Flexibility Score: inf
ROOT
ATOM      1  C   UNL     1    -140.619 153.076 139.916  1.00  0.00     0.180 A 
ATOM      2  C   UNL     1    -139.629 152.222 139.400  1.00  0.00     0.208 A 
ATOM      3  C   UNL     1    -139.220 152.380 138.066  1.00  0.00     0.238 A 
ATOM      4  O   UNL     1    -138.389 151.565 137.589  1.00  0.00    -0.285 OA
ATOM      5  C   UNL     1    -139.765 153.425 137.281  1.00  0.00     0.111 A 
ATOM      6  C   UNL     1    -139.391 153.707 135.932  1.00  0.00     0.134 A 
ATOM      7  C   UNL     1    -140.074 154.701 135.220  1.00  0.00     0.093 A 
ATOM      8  C   UNL     1    -141.072 155.465 135.824  1.00  0.00     0.123 A 
ATOM      9  C   UNL     1    -141.407 155.235 137.159  1.00  0.00     0.094 A 
ATOM     10  C   UNL     1    -140.770 154.226 137.885  1.00  0.00     0.146 A 
ATOM     11  O   UNL     1    -141.135 154.026 139.146  1.00  0.00    -0.452 OA
ENDROOT
BRANCH   1  12
ATOM     12  C   UNL     1    -141.112 152.961 141.307  1.00  0.00     0.021 A 
ATOM     13  C   UNL     1    -142.121 152.044 141.654  1.00  0.00     0.016 A 
ATOM     14  C   UNL     1    -142.587 151.972 142.971  1.00  0.00     0.047 A 
ATOM     15  C   UNL     1    -142.065 152.821 143.951  1.00  0.00     0.115 A 
ATOM     16  C   UNL     1    -140.607 153.826 142.293  1.00  0.00     0.016 A 
ATOM     17  C   UNL     1    -141.075 153.750 143.609  1.00  0.00     0.047 A 
BRANCH  15  18
ATOM     18  O   UNL     1    -142.539 152.736 145.259  1.00  0.00    -0.508 OA
ATOM     19  H   UNL     1    -143.029 153.509 145.695  1.00  0.00     0.293 HD
ENDBRANCH  15  18
ENDBRANCH   1  12
BRANCH   2  20
ATOM     20  O   UNL     1    -139.049 151.245 140.214  1.00  0.00    -0.502 OA
ATOM     21  H   UNL     1    -138.508 151.476 141.040  1.00  0.00     0.293 HD
ENDBRANCH   2  20
BRANCH   6  22
ATOM     22  O   UNL     1    -138.349 153.065 135.257  1.00  0.00    -0.507 OA
ATOM     23  H   UNL     1    -137.387 153.051 135.560  1.00  0.00     0.293 HD
ENDBRANCH   6  22
BRANCH   8  24
ATOM     24  O   UNL     1    -141.718 156.457 135.091  1.00  0.00    -0.508 OA
ATOM     25  H   UNL     1    -142.729 156.528 135.069  1.00  0.00     0.293 HD
ENDBRANCH   8  24
TORSDOF 5
ENDMDL
MODEL 5
REMARK VINA RESULT:    -5.342     17.967     19.652
REMARK INTER + INTRA:          -6.566
REMARK INTER:                  -6.270
REMARK INTRA:                  -0.296
REMARK UNBOUND:                -0.287
REMARK SMILES O=c1c(O)c(-c2ccc(O)cc2)oc2cc(O)cc(O)c12
REMARK SMILES IDX 5 1 3 2 2 3 1 4 21 5 19 6 18 7 16 8 15 9 14 10 13 11 6 12
REMARK SMILES IDX 7 13 8 14 9 15 12 16 11 17 10 18 4 20 20 22 17 24
REMARK H PARENT 10 19 4 21 20 23 17 25
REMARK Flexibility Score: inf
ROOT
ATOM      1  C   UNL     1    -153.330 139.440 140.322  1.00  0.00     0.180 A 
ATOM      2  C   UNL     1    -154.522 138.824 139.906  1.00  0.00     0.208 A 
ATOM      3  C   UNL     1    -154.824 138.779 138.536  1.00  0.00     0.238 A 
ATOM      4  O   UNL     1    -155.928 138.293 138.177  1.00  0.00    -0.285 OA
ATOM      5  C   UNL     1    -153.905 139.301 137.594  1.00  0.00     0.111 A 
ATOM      6  C   UNL     1    -154.086 139.269 136.178  1.00  0.00     0.134 A 
ATOM      7  C   UNL     1    -153.158 139.911 135.348  1.00  0.00     0.093 A 
ATOM      8  C   UNL     1    -152.024 140.528 135.876  1.00  0.00     0.123 A 
ATOM      9  C   UNL     1    -151.809 140.517 137.254  1.00  0.00     0.094 A 
ATOM     10  C   UNL     1    -152.735 139.918 138.111  1.00  0.00     0.146 A 
ATOM     11  O   UNL     1    -152.502 139.949 139.418  1.00  0.00    -0.452 OA
ENDROOT
BRANCH   1  12
ATOM     12  C   UNL     1    -152.949 139.539 141.749  1.00  0.00     0.021 A 
ATOM     13  C   UNL     1    -153.397 140.601 142.556  1.00  0.00     0.016 A 
ATOM     14  C   UNL     1    -153.004 140.686 143.895  1.00  0.00     0.047 A 
ATOM     15  C   UNL     1    -152.150 139.724 144.442  1.00  0.00     0.115 A 
ATOM     16  C   UNL     1    -152.074 138.587 142.299  1.00  0.00     0.016 A 
ATOM     17  C   UNL     1    -151.684 138.674 143.640  1.00  0.00     0.047 A 
BRANCH  15  18
ATOM     18  O   UNL     1    -151.769 139.820 145.778  1.00  0.00    -0.508 OA
ATOM     19  H   UNL     1    -150.796 139.920 146.044  1.00  0.00     0.293 HD
ENDBRANCH  15  18
ENDBRANCH   1  12
BRANCH   2  20
ATOM     20  O   UNL     1    -155.381 138.247 140.847  1.00  0.00    -0.502 OA
ATOM     21  H   UNL     1    -155.997 138.799 141.431  1.00  0.00     0.293 HD
ENDBRANCH   2  20
BRANCH   6  22
ATOM     22  O   UNL     1    -155.137 138.606 135.537  1.00  0.00    -0.507 OA
ATOM     23  H   UNL     1    -155.628 137.808 135.910  1.00  0.00     0.293 HD
ENDBRANCH   6  22
BRANCH   8  24
ATOM     24  O   UNL     1    -151.114 141.142 135.019  1.00  0.00    -0.508 OA
ATOM     25  H   UNL     1    -151.348 141.346 134.055  1.00  0.00     0.293 HD
ENDBRANCH   8  24
TORSDOF 5
ENDMDL
MODEL 6
REMARK VINA RESULT:    -5.300      2.091      2.919
REMARK INTER + INTRA:          -6.516
REMARK INTER:                  -6.225
REMARK INTRA:                  -0.292
REMARK UNBOUND:                -0.287
REMARK SMILES O=c1c(O)c(-c2ccc(O)cc2)oc2cc(O)cc(O)c12
REMARK SMILES IDX 5 1 3 2 2 3 1 4 21 5 19 6 18 7 16 8 15 9 14 10 13 11 6 12
REMARK SMILES IDX 7 13 8 14 9 15 12 16 11 17 10 18 4 20 20 22 17 24
REMARK H PARENT 10 19 4 21 20 23 17 25
REMARK Flexibility Score: inf
ROOT
ATOM      1  C   UNL     1    -141.130 154.956 140.406  1.00  0.00     0.180 A 
ATOM      2  C   UNL     1    -139.940 155.580 139.996  1.00  0.00     0.208 A 
ATOM      3  C   UNL     1    -139.623 155.613 138.629  1.00  0.00     0.238 A 
ATOM      4  O   UNL     1    -138.520 156.107 138.277  1.00  0.00    -0.285 OA
ATOM      5  C   UNL     1    -140.526 155.072 137.682  1.00  0.00     0.111 A 
ATOM      6  C   UNL     1    -140.329 155.091 136.269  1.00  0.00     0.134 A 
ATOM      7  C   UNL     1    -141.242 154.431 135.435  1.00  0.00     0.093 A 
ATOM      8  C   UNL     1    -142.375 153.807 135.957  1.00  0.00     0.123 A 
ATOM      9  C   UNL     1    -142.606 153.831 137.333  1.00  0.00     0.094 A 
ATOM     10  C   UNL     1    -141.695 154.449 138.193  1.00  0.00     0.146 A 
ATOM     11  O   UNL     1    -141.943 154.429 139.498  1.00  0.00    -0.452 OA
ENDROOT
BRANCH   1  12
ATOM     12  C   UNL     1    -141.525 154.868 141.829  1.00  0.00     0.021 A 
ATOM     13  C   UNL     1    -141.050 153.836 142.660  1.00  0.00     0.016 A 
ATOM     14  C   UNL     1    -141.457 153.760 143.996  1.00  0.00     0.047 A 
ATOM     15  C   UNL     1    -142.352 154.701 144.514  1.00  0.00     0.115 A 
ATOM     16  C   UNL     1    -142.440 155.797 142.352  1.00  0.00     0.016 A 
ATOM     17  C   UNL     1    -142.844 155.720 143.688  1.00  0.00     0.047 A 
BRANCH  15  18
ATOM     18  O   UNL     1    -142.747 154.614 145.848  1.00  0.00    -0.508 OA
ATOM     19  H   UNL     1    -142.099 154.803 146.605  1.00  0.00     0.293 HD
ENDBRANCH  15  18
ENDBRANCH   1  12
BRANCH   2  20
ATOM     20  O   UNL     1    -139.097 156.176 140.940  1.00  0.00    -0.502 OA
ATOM     21  H   UNL     1    -138.958 157.178 140.988  1.00  0.00     0.293 HD
ENDBRANCH   2  20
BRANCH   6  22
ATOM     22  O   UNL     1    -139.278 155.758 135.632  1.00  0.00    -0.507 OA
ATOM     23  H   UNL     1    -139.093 156.747 135.706  1.00  0.00     0.293 HD
ENDBRANCH   6  22
BRANCH   8  24
ATOM     24  O   UNL     1    -143.269 153.176 135.097  1.00  0.00    -0.508 OA
ATOM     25  H   UNL     1    -144.257 153.402 135.099  1.00  0.00     0.293 HD
ENDBRANCH   8  24
TORSDOF 5
ENDMDL
MODEL 7
REMARK VINA RESULT:    -5.296     17.740     19.519
REMARK INTER + INTRA:          -6.511
REMARK INTER:                  -6.216
REMARK INTRA:                  -0.295
REMARK UNBOUND:                -0.287
REMARK SMILES O=c1c(O)c(-c2ccc(O)cc2)oc2cc(O)cc(O)c12
REMARK SMILES IDX 5 1 3 2 2 3 1 4 21 5 19 6 18 7 16 8 15 9 14 10 13 11 6 12
REMARK SMILES IDX 7 13 8 14 9 15 12 16 11 17 10 18 4 20 20 22 17 24
REMARK H PARENT 10 19 4 21 20 23 17 25
REMARK Flexibility Score: inf
ROOT
ATOM      1  C   UNL     1    -153.416 140.379 139.624  1.00  0.00     0.180 A 
ATOM      2  C   UNL     1    -152.756 139.311 138.992  1.00  0.00     0.208 A 
ATOM      3  C   UNL     1    -153.102 138.981 137.672  1.00  0.00     0.238 A 
ATOM      4  O   UNL     1    -152.561 137.978 137.139  1.00  0.00    -0.285 OA
ATOM      5  C   UNL     1    -154.063 139.758 136.980  1.00  0.00     0.111 A 
ATOM      6  C   UNL     1    -154.457 139.544 135.625  1.00  0.00     0.134 A 
ATOM      7  C   UNL     1    -155.495 140.310 135.078  1.00  0.00     0.093 A 
ATOM      8  C   UNL     1    -156.108 141.323 135.814  1.00  0.00     0.123 A 
ATOM      9  C   UNL     1    -155.692 141.578 137.121  1.00  0.00     0.094 A 
ATOM     10  C   UNL     1    -154.686 140.806 137.707  1.00  0.00     0.146 A 
ATOM     11  O   UNL     1    -154.336 141.069 138.960  1.00  0.00    -0.452 OA
ENDROOT
BRANCH   1  12
ATOM     12  C   UNL     1    -153.117 140.777 141.018  1.00  0.00     0.021 A 
ATOM     13  C   UNL     1    -153.750 140.154 142.110  1.00  0.00     0.016 A 
ATOM     14  C   UNL     1    -153.469 140.564 143.417  1.00  0.00     0.047 A 
ATOM     15  C   UNL     1    -152.567 141.607 143.650  1.00  0.00     0.115 A 
ATOM     16  C   UNL     1    -152.228 141.837 141.259  1.00  0.00     0.016 A 
ATOM     17  C   UNL     1    -151.948 142.244 142.567  1.00  0.00     0.047 A 
BRANCH  15  18
ATOM     18  O   UNL     1    -152.296 142.003 144.958  1.00  0.00    -0.508 OA
ATOM     19  H   UNL     1    -152.107 141.325 145.688  1.00  0.00     0.293 HD
ENDBRANCH  15  18
ENDBRANCH   1  12
BRANCH   2  20
ATOM     20  O   UNL     1    -151.756 138.604 139.667  1.00  0.00    -0.502 OA
ATOM     21  H   UNL     1    -151.129 137.964 139.194  1.00  0.00     0.293 HD
ENDBRANCH   2  20
BRANCH   6  22
ATOM     22  O   UNL     1    -153.853 138.617 134.769  1.00  0.00    -0.507 OA
ATOM     23  H   UNL     1    -154.326 137.839 134.336  1.00  0.00     0.293 HD
ENDBRANCH   6  22
BRANCH   8  24
ATOM     24  O   UNL     1    -157.124 142.076 135.232  1.00  0.00    -0.508 OA
ATOM     25  H   UNL     1    -158.050 141.692 135.082  1.00  0.00     0.293 HD
ENDBRANCH   8  24
TORSDOF 5
ENDMDL
MODEL 8
REMARK VINA RESULT:    -5.252      1.381      6.512
REMARK INTER + INTRA:          -6.460
REMARK INTER:                  -6.444
REMARK INTRA:                  -0.016
REMARK UNBOUND:                -0.287
REMARK SMILES O=c1c(O)c(-c2ccc(O)cc2)oc2cc(O)cc(O)c12
REMARK SMILES IDX 5 1 3 2 2 3 1 4 21 5 19 6 18 7 16 8 15 9 14 10 13 11 6 12
REMARK SMILES IDX 7 13 8 14 9 15 12 16 11 17 10 18 4 20 20 22 17 24
REMARK H PARENT 10 19 4 21 20 23 17 25
REMARK Flexibility Score: inf
ROOT
ATOM      1  C   UNL     1    -140.366 154.551 139.071  1.00  0.00     0.180 A 
ATOM      2  C   UNL     1    -141.448 155.432 138.913  1.00  0.00     0.208 A 
ATOM      3  C   UNL     1    -142.291 155.680 140.008  1.00  0.00     0.238 A 
ATOM      4  O   UNL     1    -143.301 156.412 139.838  1.00  0.00    -0.285 OA
ATOM      5  C   UNL     1    -142.010 155.088 141.263  1.00  0.00     0.111 A 
ATOM      6  C   UNL     1    -142.769 155.304 142.452  1.00  0.00     0.134 A 
ATOM      7  C   UNL     1    -142.459 154.581 143.611  1.00  0.00     0.093 A 
ATOM      8  C   UNL     1    -141.379 153.698 143.643  1.00  0.00     0.123 A 
ATOM      9  C   UNL     1    -140.596 153.522 142.502  1.00  0.00     0.094 A 
ATOM     10  C   UNL     1    -140.903 154.199 141.320  1.00  0.00     0.146 A 
ATOM     11  O   UNL     1    -140.145 153.985 140.252  1.00  0.00    -0.452 OA
ENDROOT
BRANCH   1  12
ATOM     12  C   UNL     1    -139.442 154.228 137.960  1.00  0.00     0.021 A 
ATOM     13  C   UNL     1    -138.775 155.239 137.244  1.00  0.00     0.016 A 
ATOM     14  C   UNL     1    -137.926 154.910 136.182  1.00  0.00     0.047 A 
ATOM     15  C   UNL     1    -137.743 153.574 135.814  1.00  0.00     0.115 A 
ATOM     16  C   UNL     1    -139.270 152.889 137.571  1.00  0.00     0.016 A 
ATOM     17  C   UNL     1    -138.419 152.563 136.511  1.00  0.00     0.047 A 
BRANCH  15  18
ATOM     18  O   UNL     1    -136.893 153.261 134.756  1.00  0.00    -0.508 OA
ATOM     19  H   UNL     1    -136.321 152.423 134.766  1.00  0.00     0.293 HD
ENDBRANCH  15  18
ENDBRANCH   1  12
BRANCH   2  20
ATOM     20  O   UNL     1    -141.665 156.067 137.686  1.00  0.00    -0.502 OA
ATOM     21  H   UNL     1    -142.593 156.209 137.304  1.00  0.00     0.293 HD
ENDBRANCH   2  20
BRANCH   6  22
ATOM     22  O   UNL     1    -143.814 156.227 142.558  1.00  0.00    -0.507 OA
ATOM     23  H   UNL     1    -144.501 156.239 143.297  1.00  0.00     0.293 HD
ENDBRANCH   6  22
BRANCH   8  24
ATOM     24  O   UNL     1    -141.090 153.010 144.818  1.00  0.00    -0.508 OA
ATOM     25  H   UNL     1    -141.781 152.426 145.275  1.00  0.00     0.293 HD
ENDBRANCH   8  24
TORSDOF 5
ENDMDL
MODEL 9
REMARK VINA RESULT:    -5.111     19.171     20.402
REMARK INTER + INTRA:          -6.294
REMARK INTER:                  -6.030
REMARK INTRA:                  -0.264
REMARK UNBOUND:                -0.287
REMARK SMILES O=c1c(O)c(-c2ccc(O)cc2)oc2cc(O)cc(O)c12
REMARK SMILES IDX 5 1 3 2 2 3 1 4 21 5 19 6 18 7 16 8 15 9 14 10 13 11 6 12
REMARK SMILES IDX 7 13 8 14 9 15 12 16 11 17 10 18 4 20 20 22 17 24
REMARK H PARENT 10 19 4 21 20 23 17 25
REMARK Flexibility Score: inf
ROOT
ATOM      1  C   UNL     1    -153.178 139.492 140.620  1.00  0.00     0.180 A 
ATOM      2  C   UNL     1    -153.746 140.180 141.705  1.00  0.00     0.208 A 
ATOM      3  C   UNL     1    -153.141 140.080 142.968  1.00  0.00     0.238 A 
ATOM      4  O   UNL     1    -153.697 140.638 143.950  1.00  0.00    -0.285 OA
ATOM      5  C   UNL     1    -151.943 139.339 143.120  1.00  0.00     0.111 A 
ATOM      6  C   UNL     1    -151.219 139.207 144.343  1.00  0.00     0.134 A 
ATOM      7  C   UNL     1    -150.103 138.362 144.397  1.00  0.00     0.093 A 
ATOM      8  C   UNL     1    -149.649 137.694 143.260  1.00  0.00     0.123 A 
ATOM      9  C   UNL     1    -150.317 137.860 142.047  1.00  0.00     0.094 A 
ATOM     10  C   UNL     1    -151.454 138.666 141.969  1.00  0.00     0.146 A 
ATOM     11  O   UNL     1    -152.072 138.779 140.799  1.00  0.00    -0.452 OA
ENDROOT
BRANCH   1  12
ATOM     12  C   UNL     1    -153.766 139.536 139.262  1.00  0.00     0.021 A 
ATOM     13  C   UNL     1    -153.288 140.428 138.285  1.00  0.00     0.016 A 
ATOM     14  C   UNL     1    -153.876 140.468 137.017  1.00  0.00     0.047 A 
ATOM     15  C   UNL     1    -154.954 139.631 136.713  1.00  0.00     0.115 A 
ATOM     16  C   UNL     1    -154.863 138.713 138.957  1.00  0.00     0.016 A 
ATOM     17  C   UNL     1    -155.448 138.754 137.688  1.00  0.00     0.047 A 
BRANCH  15  18
ATOM     18  O   UNL     1    -155.529 139.681 135.445  1.00  0.00    -0.508 OA
ATOM     19  H   UNL     1    -155.024 139.369 134.623  1.00  0.00     0.293 HD
ENDBRANCH  15  18
ENDBRANCH   1  12
BRANCH   2  20
ATOM     20  O   UNL     1    -154.886 140.968 141.519  1.00  0.00    -0.502 OA
ATOM     21  H   UNL     1    -155.675 140.660 140.963  1.00  0.00     0.293 HD
ENDBRANCH   2  20
BRANCH   6  22
ATOM     22  O   UNL     1    -151.533 139.897 145.518  1.00  0.00    -0.507 OA
ATOM     23  H   UNL     1    -152.465 140.157 145.803  1.00  0.00     0.293 HD
ENDBRANCH   6  22
BRANCH   8  24
ATOM     24  O   UNL     1    -148.526 136.875 143.347  1.00  0.00    -0.508 OA
ATOM     25  H   UNL     1    -147.828 137.006 144.071  1.00  0.00     0.293 HD
ENDBRANCH   8  24
TORSDOF 5
ENDMDL
