MODEL 1
REMARK VINA RESULT:    -4.865      0.000      0.000
REMARK INTER + INTRA:          -8.527
REMARK INTER:                  -7.709
REMARK INTRA:                  -0.817
REMARK UNBOUND:                -0.817
REMARK SMILES CCCCCCCCCCCC(=O)[O-]
REMARK SMILES IDX 7 1 8 2 9 3 10 4 11 5 12 6 13 7 14 8 6 9 5 10 4 11 3 12 2 13
REMARK SMILES IDX 1 14
REMARK H PARENT
REMARK Flexibility Score: inf
ROOT
ATOM      1  C   UNL     1      43.835  50.135  11.403  1.00  0.00     0.000 C 
ENDROOT
BRANCH   1   2
ATOM      2  C   UNL     1      43.545  48.699  11.875  1.00  0.00     0.000 C 
BRANCH   2   3
ATOM      3  C   UNL     1      42.450  48.577  12.956  1.00  0.00     0.000 C 
BRANCH   3   4
ATOM      4  C   UNL     1      41.968  49.914  13.554  1.00  0.00     0.006 C 
BRANCH   4   5
ATOM      5  C   UNL     1      40.541  50.314  13.144  1.00  0.00     0.053 C 
BRANCH   5   6
ATOM      6  C   UNL     1      39.883  51.175  14.177  1.00  0.00     0.041 C 
ATOM      7  O   UNL     1      40.411  51.321  15.310  1.00  0.00    -0.550 OA
ATOM      8  O   UNL     1      38.669  51.790  13.900  1.00  0.00    -0.550 OA
ENDBRANCH   5   6
ENDBRANCH   4   5
ENDBRANCH   3   4
ENDBRANCH   2   3
ENDBRANCH   1   2
BRANCH   1   9
ATOM      9  C   UNL     1      45.181  50.671  11.914  1.00  0.00     0.000 C 
BRANCH   9  10
ATOM     10  C   UNL     1      45.970  51.342  10.784  1.00  0.00    -0.000 C 
BRANCH  10  11
ATOM     11  C   UNL     1      47.297  50.617  10.532  1.00  0.00    -0.000 C 
BRANCH  11  12
ATOM     12  C   UNL     1      47.069  49.295   9.783  1.00  0.00    -0.000 C 
BRANCH  12  13
ATOM     13  C   UNL     1      47.438  48.067  10.628  1.00  0.00    -0.003 C 
ATOM     14  C   UNL     1      46.532  46.867  10.355  1.00  0.00     0.004 C 
ENDBRANCH  12  13
ENDBRANCH  11  12
ENDBRANCH  10  11
ENDBRANCH   9  10
ENDBRANCH   1   9
TORSDOF 10
ENDMDL
MODEL 2
REMARK VINA RESULT:    -4.705      1.523      3.045
REMARK INTER + INTRA:          -8.273
REMARK INTER:                  -7.392
REMARK INTRA:                  -0.881
REMARK UNBOUND:                -0.817
REMARK SMILES CCCCCCCCCCCC(=O)[O-]
REMARK SMILES IDX 7 1 8 2 9 3 10 4 11 5 12 6 13 7 14 8 6 9 5 10 4 11 3 12 2 13
REMARK SMILES IDX 1 14
REMARK H PARENT
REMARK Flexibility Score: inf
ROOT
ATOM      1  C   UNL     1      46.547  50.825  10.215  1.00  0.00     0.000 C 
ENDROOT
BRANCH   1   2
ATOM      2  C   UNL     1      46.020  50.764  11.660  1.00  0.00     0.000 C 
BRANCH   2   3
ATOM      3  C   UNL     1      44.489  50.619  11.791  1.00  0.00     0.000 C 
BRANCH   3   4
ATOM      4  C   UNL     1      43.947  49.189  11.593  1.00  0.00     0.006 C 
BRANCH   4   5
ATOM      5  C   UNL     1      43.076  48.675  12.750  1.00  0.00     0.053 C 
BRANCH   5   6
ATOM      6  C   UNL     1      42.118  49.718  13.236  1.00  0.00     0.041 C 
ATOM      7  O   UNL     1      42.274  50.241  14.371  1.00  0.00    -0.550 OA
ATOM      8  O   UNL     1      41.035  50.090  12.451  1.00  0.00    -0.550 OA
ENDBRANCH   5   6
ENDBRANCH   4   5
ENDBRANCH   3   4
ENDBRANCH   2   3
ENDBRANCH   1   2
BRANCH   1   9
ATOM      9  C   UNL     1      47.774  49.929   9.989  1.00  0.00     0.000 C 
BRANCH   9  10
ATOM     10  C   UNL     1      47.572  48.551  10.629  1.00  0.00    -0.000 C 
BRANCH  10  11
ATOM     11  C   UNL     1      46.843  47.600   9.671  1.00  0.00    -0.000 C 
BRANCH  11  12
ATOM     12  C   UNL     1      46.375  46.334  10.404  1.00  0.00    -0.000 C 
BRANCH  12  13
ATOM     13  C   UNL     1      46.831  45.045   9.703  1.00  0.00    -0.003 C 
ATOM     14  C   UNL     1      47.499  45.309   8.355  1.00  0.00     0.004 C 
ENDBRANCH  12  13
ENDBRANCH  11  12
ENDBRANCH  10  11
ENDBRANCH   9  10
ENDBRANCH   1   9
TORSDOF 10
ENDMDL
MODEL 3
REMARK VINA RESULT:    -4.694      3.402      6.353
REMARK INTER + INTRA:          -8.255
REMARK INTER:                  -7.401
REMARK INTRA:                  -0.854
REMARK UNBOUND:                -0.817
REMARK SMILES CCCCCCCCCCCC(=O)[O-]
REMARK SMILES IDX 7 1 8 2 9 3 10 4 11 5 12 6 13 7 14 8 6 9 5 10 4 11 3 12 2 13
REMARK SMILES IDX 1 14
REMARK H PARENT
REMARK Flexibility Score: inf
ROOT
ATOM      1  C   UNL     1      46.151  50.976  10.543  1.00  0.00     0.000 C 
ENDROOT
BRANCH   1   2
ATOM      2  C   UNL     1      47.448  50.160  10.391  1.00  0.00     0.000 C 
BRANCH   2   3
ATOM      3  C   UNL     1      47.319  48.660  10.726  1.00  0.00     0.000 C 
BRANCH   3   4
ATOM      4  C   UNL     1      46.927  47.755   9.540  1.00  0.00     0.006 C 
BRANCH   4   5
ATOM      5  C   UNL     1      45.519  47.149   9.642  1.00  0.00     0.053 C 
BRANCH   5   6
ATOM      6  C   UNL     1      45.448  46.065  10.673  1.00  0.00     0.041 C 
ATOM      7  O   UNL     1      46.410  45.266  10.817  1.00  0.00    -0.550 OA
ATOM      8  O   UNL     1      44.308  45.916  11.450  1.00  0.00    -0.550 OA
ENDBRANCH   5   6
ENDBRANCH   4   5
ENDBRANCH   3   4
ENDBRANCH   2   3
ENDBRANCH   1   2
BRANCH   1   9
ATOM      9  C   UNL     1      45.341  50.582  11.787  1.00  0.00     0.000 C 
BRANCH   9  10
ATOM     10  C   UNL     1      43.931  50.123  11.400  1.00  0.00    -0.000 C 
BRANCH  10  11
ATOM     11  C   UNL     1      43.315  49.247  12.498  1.00  0.00    -0.000 C 
BRANCH  11  12
ATOM     12  C   UNL     1      42.016  49.869  13.034  1.00  0.00    -0.000 C 
BRANCH  12  13
ATOM     13  C   UNL     1      42.147  50.348  14.488  1.00  0.00    -0.003 C 
ATOM     14  C   UNL     1      40.962  51.201  14.938  1.00  0.00     0.004 C 
ENDBRANCH  12  13
ENDBRANCH  11  12
ENDBRANCH  10  11
ENDBRANCH   9  10
ENDBRANCH   1   9
TORSDOF 10
ENDMDL
MODEL 4
REMARK VINA RESULT:    -4.679      2.917      4.053
REMARK INTER + INTRA:          -8.232
REMARK INTER:                  -7.020
REMARK INTRA:                  -1.212
REMARK UNBOUND:                -0.817
REMARK SMILES CCCCCCCCCCCC(=O)[O-]
REMARK SMILES IDX 7 1 8 2 9 3 10 4 11 5 12 6 13 7 14 8 6 9 5 10 4 11 3 12 2 13
REMARK SMILES IDX 1 14
REMARK H PARENT
REMARK Flexibility Score: inf
ROOT
ATOM      1  C   UNL     1      47.162  50.355  11.036  1.00  0.00     0.000 C 
ENDROOT
BRANCH   1   2
ATOM      2  C   UNL     1      45.997  51.037  11.774  1.00  0.00     0.000 C 
BRANCH   2   3
ATOM      3  C   UNL     1      44.590  50.651  11.270  1.00  0.00     0.000 C 
BRANCH   3   4
ATOM      4  C   UNL     1      44.004  49.364  11.886  1.00  0.00     0.006 C 
BRANCH   4   5
ATOM      5  C   UNL     1      43.415  48.382  10.860  1.00  0.00     0.053 C 
BRANCH   5   6
ATOM      6  C   UNL     1      42.673  47.261  11.520  1.00  0.00     0.041 C 
ATOM      7  O   UNL     1      41.422  47.317  11.645  1.00  0.00    -0.550 OA
ATOM      8  O   UNL     1      43.367  46.171  12.028  1.00  0.00    -0.550 OA
ENDBRANCH   5   6
ENDBRANCH   4   5
ENDBRANCH   3   4
ENDBRANCH   2   3
ENDBRANCH   1   2
BRANCH   1   9
ATOM      9  C   UNL     1      46.876  50.135   9.543  1.00  0.00     0.000 C 
BRANCH   9  10
ATOM     10  C   UNL     1      46.762  48.641   9.220  1.00  0.00    -0.000 C 
BRANCH  10  11
ATOM     11  C   UNL     1      47.219  47.784  10.407  1.00  0.00    -0.000 C 
BRANCH  11  12
ATOM     12  C   UNL     1      46.604  46.378  10.340  1.00  0.00    -0.000 C 
BRANCH  12  13
ATOM     13  C   UNL     1      46.406  45.890   8.897  1.00  0.00    -0.003 C 
ATOM     14  C   UNL     1      47.598  45.091   8.374  1.00  0.00     0.004 C 
ENDBRANCH  12  13
ENDBRANCH  11  12
ENDBRANCH  10  11
ENDBRANCH   9  10
ENDBRANCH   1   9
TORSDOF 10
ENDMDL
MODEL 5
REMARK VINA RESULT:    -4.642      1.425      2.443
REMARK INTER + INTRA:          -8.173
REMARK INTER:                  -6.866
REMARK INTRA:                  -1.308
REMARK UNBOUND:                -0.817
REMARK SMILES CCCCCCCCCCCC(=O)[O-]
REMARK SMILES IDX 7 1 8 2 9 3 10 4 11 5 12 6 13 7 14 8 6 9 5 10 4 11 3 12 2 13
REMARK SMILES IDX 1 14
REMARK H PARENT
REMARK Flexibility Score: inf
ROOT
ATOM      1  C   UNL     1      45.387  50.634  11.767  1.00  0.00     0.000 C 
ENDROOT
BRANCH   1   2
ATOM      2  C   UNL     1      44.396  50.634  10.589  1.00  0.00     0.000 C 
BRANCH   2   3
ATOM      3  C   UNL     1      43.298  49.552  10.660  1.00  0.00     0.000 C 
BRANCH   3   4
ATOM      4  C   UNL     1      43.481  48.505  11.777  1.00  0.00     0.006 C 
BRANCH   4   5
ATOM      5  C   UNL     1      42.266  48.348  12.705  1.00  0.00     0.053 C 
BRANCH   5   6
ATOM      6  C   UNL     1      41.779  49.667  13.219  1.00  0.00     0.041 C 
ATOM      7  O   UNL     1      40.653  50.108  12.867  1.00  0.00    -0.550 OA
ATOM      8  O   UNL     1      42.582  50.427  14.060  1.00  0.00    -0.550 OA
ENDBRANCH   5   6
ENDBRANCH   4   5
ENDBRANCH   3   4
ENDBRANCH   2   3
ENDBRANCH   1   2
BRANCH   1   9
ATOM      9  C   UNL     1      46.830  50.927  11.333  1.00  0.00     0.000 C 
BRANCH   9  10
ATOM     10  C   UNL     1      47.249  50.019  10.171  1.00  0.00    -0.000 C 
BRANCH  10  11
ATOM     11  C   UNL     1      47.553  48.599  10.663  1.00  0.00    -0.000 C 
BRANCH  11  12
ATOM     12  C   UNL     1      46.811  47.553   9.817  1.00  0.00    -0.000 C 
BRANCH  12  13
ATOM     13  C   UNL     1      46.416  46.310  10.628  1.00  0.00    -0.003 C 
ATOM     14  C   UNL     1      45.108  45.682  10.149  1.00  0.00     0.004 C 
ENDBRANCH  12  13
ENDBRANCH  11  12
ENDBRANCH  10  11
ENDBRANCH   9  10
ENDBRANCH   1   9
TORSDOF 10
ENDMDL
MODEL 6
REMARK VINA RESULT:    -4.636      2.196      3.043
REMARK INTER + INTRA:          -8.163
REMARK INTER:                  -6.835
REMARK INTRA:                  -1.329
REMARK UNBOUND:                -0.817
REMARK SMILES CCCCCCCCCCCC(=O)[O-]
REMARK SMILES IDX 7 1 8 2 9 3 10 4 11 5 12 6 13 7 14 8 6 9 5 10 4 11 3 12 2 13
REMARK SMILES IDX 1 14
REMARK H PARENT
REMARK Flexibility Score: inf
ROOT
ATOM      1  C   UNL     1      45.724  50.759  11.764  1.00  0.00     0.000 C 
ENDROOT
BRANCH   1   2
ATOM      2  C   UNL     1      44.304  50.169  11.843  1.00  0.00     0.000 C 
BRANCH   2   3
ATOM      3  C   UNL     1      43.792  49.523  10.538  1.00  0.00     0.000 C 
BRANCH   3   4
ATOM      4  C   UNL     1      43.324  48.060  10.672  1.00  0.00     0.006 C 
BRANCH   4   5
ATOM      5  C   UNL     1      42.896  47.658  12.092  1.00  0.00     0.053 C 
BRANCH   5   6
ATOM      6  C   UNL     1      41.417  47.783  12.288  1.00  0.00     0.041 C 
ATOM      7  O   UNL     1      40.680  46.766  12.209  1.00  0.00    -0.550 OA
ATOM      8  O   UNL     1      40.849  49.028  12.525  1.00  0.00    -0.550 OA
ENDBRANCH   5   6
ENDBRANCH   4   5
ENDBRANCH   3   4
ENDBRANCH   2   3
ENDBRANCH   1   2
BRANCH   1   9
ATOM      9  C   UNL     1      46.359  50.602  10.374  1.00  0.00     0.000 C 
BRANCH   9  10
ATOM     10  C   UNL     1      47.654  49.787  10.451  1.00  0.00    -0.000 C 
BRANCH  10  11
ATOM     11  C   UNL     1      47.356  48.291  10.613  1.00  0.00    -0.000 C 
BRANCH  11  12
ATOM     12  C   UNL     1      46.769  47.705   9.320  1.00  0.00    -0.000 C 
BRANCH  12  13
ATOM     13  C   UNL     1      46.571  46.184   9.399  1.00  0.00    -0.003 C 
ATOM     14  C   UNL     1      46.443  45.678  10.836  1.00  0.00     0.004 C 
ENDBRANCH  12  13
ENDBRANCH  11  12
ENDBRANCH  10  11
ENDBRANCH   9  10
ENDBRANCH   1   9
TORSDOF 10
ENDMDL
MODEL 7
REMARK VINA RESULT:    -4.569      1.108      2.687
REMARK INTER + INTRA:          -8.057
REMARK INTER:                  -6.893
REMARK INTRA:                  -1.163
REMARK UNBOUND:                -0.817
REMARK SMILES CCCCCCCCCCCC(=O)[O-]
REMARK SMILES IDX 7 1 8 2 9 3 10 4 11 5 12 6 13 7 14 8 6 9 5 10 4 11 3 12 2 13
REMARK SMILES IDX 1 14
REMARK H PARENT
REMARK Flexibility Score: inf
ROOT
ATOM      1  C   UNL     1      44.518  46.932  10.538  1.00  0.00     0.000 C 
ENDROOT
BRANCH   1   2
ATOM      2  C   UNL     1      43.525  48.091  10.737  1.00  0.00     0.000 C 
BRANCH   2   3
ATOM      3  C   UNL     1      43.538  48.728  12.142  1.00  0.00     0.000 C 
BRANCH   3   4
ATOM      4  C   UNL     1      42.524  49.870  12.354  1.00  0.00     0.006 C 
BRANCH   4   5
ATOM      5  C   UNL     1      42.147  50.120  13.823  1.00  0.00     0.053 C 
BRANCH   5   6
ATOM      6  C   UNL     1      40.741  50.616  13.964  1.00  0.00     0.041 C 
ATOM      7  O   UNL     1      39.900  50.402  13.052  1.00  0.00    -0.550 OA
ATOM      8  O   UNL     1      40.368  51.343  15.086  1.00  0.00    -0.550 OA
ENDBRANCH   5   6
ENDBRANCH   4   5
ENDBRANCH   3   4
ENDBRANCH   2   3
ENDBRANCH   1   2
BRANCH   1   9
ATOM      9  C   UNL     1      45.624  47.261   9.525  1.00  0.00     0.000 C 
BRANCH   9  10
ATOM     10  C   UNL     1      46.993  47.332  10.210  1.00  0.00    -0.000 C 
BRANCH  10  11
ATOM     11  C   UNL     1      47.270  48.743  10.745  1.00  0.00    -0.000 C 
BRANCH  11  12
ATOM     12  C   UNL     1      46.921  49.808   9.695  1.00  0.00    -0.000 C 
BRANCH  12  13
ATOM     13  C   UNL     1      46.072  50.950  10.273  1.00  0.00    -0.003 C 
ATOM     14  C   UNL     1      46.279  51.140  11.775  1.00  0.00     0.004 C 
ENDBRANCH  12  13
ENDBRANCH  11  12
ENDBRANCH  10  11
ENDBRANCH   9  10
ENDBRANCH   1   9
TORSDOF 10
ENDMDL
MODEL 8
REMARK VINA RESULT:    -4.567      4.330      6.556
REMARK INTER + INTRA:          -8.055
REMARK INTER:                  -6.873
REMARK INTRA:                  -1.181
REMARK UNBOUND:                -0.817
REMARK SMILES CCCCCCCCCCCC(=O)[O-]
REMARK SMILES IDX 7 1 8 2 9 3 10 4 11 5 12 6 13 7 14 8 6 9 5 10 4 11 3 12 2 13
REMARK SMILES IDX 1 14
REMARK H PARENT
REMARK Flexibility Score: inf
ROOT
ATOM      1  C   UNL     1      45.787  50.528  11.664  1.00  0.00     0.000 C 
ENDROOT
BRANCH   1   2
ATOM      2  C   UNL     1      47.152  50.542  10.953  1.00  0.00     0.000 C 
BRANCH   2   3
ATOM      3  C   UNL     1      47.708  49.151  10.581  1.00  0.00     0.000 C 
BRANCH   3   4
ATOM      4  C   UNL     1      46.667  48.013  10.562  1.00  0.00     0.006 C 
BRANCH   4   5
ATOM      5  C   UNL     1      46.530  47.302   9.207  1.00  0.00     0.053 C 
BRANCH   5   6
ATOM      6  C   UNL     1      47.015  45.887   9.265  1.00  0.00     0.041 C 
ATOM      7  O   UNL     1      46.758  45.170  10.267  1.00  0.00    -0.550 OA
ATOM      8  O   UNL     1      47.780  45.369   8.227  1.00  0.00    -0.550 OA
ENDBRANCH   5   6
ENDBRANCH   4   5
ENDBRANCH   3   4
ENDBRANCH   2   3
ENDBRANCH   1   2
BRANCH   1   9
ATOM      9  C   UNL     1      44.633  50.963  10.748  1.00  0.00     0.000 C 
BRANCH   9  10
ATOM     10  C   UNL     1      43.362  50.162  11.049  1.00  0.00    -0.000 C 
BRANCH  10  11
ATOM     11  C   UNL     1      43.322  49.722  12.518  1.00  0.00    -0.000 C 
BRANCH  11  12
ATOM     12  C   UNL     1      42.775  48.293  12.650  1.00  0.00    -0.000 C 
BRANCH  12  13
ATOM     13  C   UNL     1      43.090  47.426  11.422  1.00  0.00    -0.003 C 
ATOM     14  C   UNL     1      43.703  46.076  11.792  1.00  0.00     0.004 C 
ENDBRANCH  12  13
ENDBRANCH  11  12
ENDBRANCH  10  11
ENDBRANCH   9  10
ENDBRANCH   1   9
TORSDOF 10
ENDMDL
MODEL 9
REMARK VINA RESULT:    -4.553      2.870      4.474
REMARK INTER + INTRA:          -8.031
REMARK INTER:                  -6.738
REMARK INTRA:                  -1.293
REMARK UNBOUND:                -0.817
REMARK SMILES CCCCCCCCCCCC(=O)[O-]
REMARK SMILES IDX 7 1 8 2 9 3 10 4 11 5 12 6 13 7 14 8 6 9 5 10 4 11 3 12 2 13
REMARK SMILES IDX 1 14
REMARK H PARENT
REMARK Flexibility Score: inf
ROOT
ATOM      1  C   UNL     1      47.686  48.370  10.641  1.00  0.00     0.000 C 
ENDROOT
BRANCH   1   2
ATOM      2  C   UNL     1      46.818  47.692   9.566  1.00  0.00     0.000 C 
BRANCH   2   3
ATOM      3  C   UNL     1      45.945  46.525  10.073  1.00  0.00     0.000 C 
BRANCH   3   4
ATOM      4  C   UNL     1      44.488  46.897  10.415  1.00  0.00     0.006 C 
BRANCH   4   5
ATOM      5  C   UNL     1      43.876  46.077  11.561  1.00  0.00     0.053 C 
BRANCH   5   6
ATOM      6  C   UNL     1      42.603  46.682  12.066  1.00  0.00     0.041 C 
ATOM      7  O   UNL     1      42.580  47.274  13.177  1.00  0.00    -0.550 OA
ATOM      8  O   UNL     1      41.434  46.564  11.326  1.00  0.00    -0.550 OA
ENDBRANCH   5   6
ENDBRANCH   4   5
ENDBRANCH   3   4
ENDBRANCH   2   3
ENDBRANCH   1   2
BRANCH   1   9
ATOM      9  C   UNL     1      47.687  49.902  10.528  1.00  0.00     0.000 C 
BRANCH   9  10
ATOM     10  C   UNL     1      46.647  50.377   9.507  1.00  0.00    -0.000 C 
BRANCH  10  11
ATOM     11  C   UNL     1      45.623  51.315  10.158  1.00  0.00    -0.000 C 
BRANCH  11  12
ATOM     12  C   UNL     1      45.481  51.018  11.658  1.00  0.00    -0.000 C 
BRANCH  12  13
ATOM     13  C   UNL     1      44.234  50.180  11.978  1.00  0.00    -0.003 C 
ATOM     14  C   UNL     1      43.178  50.247  10.876  1.00  0.00     0.004 C 
ENDBRANCH  12  13
ENDBRANCH  11  12
ENDBRANCH  10  11
ENDBRANCH   9  10
ENDBRANCH   1   9
TORSDOF 10
ENDMDL
