MODEL 1
REMARK VINA RESULT:    -4.789      0.000      0.000
REMARK INTER + INTRA:          -9.381
REMARK INTER:                  -8.709
REMARK INTRA:                  -0.673
REMARK UNBOUND:                -0.673
REMARK SMILES CCCCCCCCCCCCCCCC(=O)[O-]
REMARK SMILES IDX 9 1 10 2 11 3 12 4 13 5 14 6 15 7 16 8 17 9 18 10 8 11 7 12
REMARK SMILES IDX 6 13 5 14 4 15 3 16 2 17 1 18
REMARK H PARENT
REMARK Flexibility Score: inf
ROOT
ATOM      1  C   UNL     1     -10.253 -12.808   5.829  1.00  0.00     0.000 C 
ENDROOT
BRANCH   1   2
ATOM      2  C   UNL     1     -10.676 -11.588   6.666  1.00  0.00     0.000 C 
BRANCH   2   3
ATOM      3  C   UNL     1     -11.697 -10.694   5.941  1.00  0.00     0.000 C 
BRANCH   3   4
ATOM      4  C   UNL     1     -11.992  -9.349   6.635  1.00  0.00     0.000 C 
BRANCH   4   5
ATOM      5  C   UNL     1     -11.780  -9.335   8.161  1.00  0.00     0.000 C 
BRANCH   5   6
ATOM      6  C   UNL     1     -13.011  -8.923   8.992  1.00  0.00     0.006 C 
BRANCH   6   7
ATOM      7  C   UNL     1     -14.041 -10.051   9.186  1.00  0.00     0.053 C 
BRANCH   7   8
ATOM      8  C   UNL     1     -15.344  -9.767   8.503  1.00  0.00     0.041 C 
ATOM      9  O   UNL     1     -16.268  -9.172   9.119  1.00  0.00    -0.550 OA
ATOM     10  O   UNL     1     -15.552 -10.191   7.197  1.00  0.00    -0.550 OA
ENDBRANCH   7   8
ENDBRANCH   6   7
ENDBRANCH   5   6
ENDBRANCH   4   5
ENDBRANCH   3   4
ENDBRANCH   2   3
ENDBRANCH   1   2
BRANCH   1  11
ATOM     11  C   UNL     1      -8.804 -13.238   6.105  1.00  0.00     0.000 C 
BRANCH  11  12
ATOM     12  C   UNL     1      -8.088 -13.745   4.844  1.00  0.00    -0.000 C 
BRANCH  12  13
ATOM     13  C   UNL     1      -6.686 -14.265   5.180  1.00  0.00    -0.000 C 
BRANCH  13  14
ATOM     14  C   UNL     1      -6.678 -15.796   5.290  1.00  0.00    -0.000 C 
BRANCH  14  15
ATOM     15  C   UNL     1      -5.581 -16.324   6.229  1.00  0.00    -0.000 C 
BRANCH  15  16
ATOM     16  C   UNL     1      -4.162 -16.253   5.624  1.00  0.00    -0.000 C 
BRANCH  16  17
ATOM     17  C   UNL     1      -4.141 -16.661   4.144  1.00  0.00    -0.003 C 
ATOM     18  C   UNL     1      -2.716 -16.928   3.666  1.00  0.00     0.004 C 
ENDBRANCH  16  17
ENDBRANCH  15  16
ENDBRANCH  14  15
ENDBRANCH  13  14
ENDBRANCH  12  13
ENDBRANCH  11  12
ENDBRANCH   1  11
TORSDOF 14
ENDMDL
MODEL 2
REMARK VINA RESULT:    -4.691      2.212      5.080
REMARK INTER + INTRA:          -9.202
REMARK INTER:                  -8.100
REMARK INTRA:                  -1.102
REMARK UNBOUND:                -0.673
REMARK SMILES CCCCCCCCCCCCCCCC(=O)[O-]
REMARK SMILES IDX 9 1 10 2 11 3 12 4 13 5 14 6 15 7 16 8 17 9 18 10 8 11 7 12
REMARK SMILES IDX 6 13 5 14 4 15 3 16 2 17 1 18
REMARK H PARENT
REMARK Flexibility Score: inf
ROOT
ATOM      1  C   UNL     1      -5.604 -16.462   4.755  1.00  0.00     0.000 C 
ENDROOT
BRANCH   1   2
ATOM      2  C   UNL     1      -6.807 -15.938   5.558  1.00  0.00     0.000 C 
BRANCH   2   3
ATOM      3  C   UNL     1      -6.892 -14.402   5.568  1.00  0.00     0.000 C 
BRANCH   3   4
ATOM      4  C   UNL     1      -8.248 -13.823   5.116  1.00  0.00     0.000 C 
BRANCH   4   5
ATOM      5  C   UNL     1      -8.814 -12.699   6.003  1.00  0.00     0.000 C 
BRANCH   5   6
ATOM      6  C   UNL     1     -10.320 -12.422   5.834  1.00  0.00     0.006 C 
BRANCH   6   7
ATOM      7  C   UNL     1     -10.894 -11.434   6.866  1.00  0.00     0.053 C 
BRANCH   7   8
ATOM      8  C   UNL     1     -11.596 -10.274   6.228  1.00  0.00     0.041 C 
ATOM      9  O   UNL     1     -10.935  -9.303   5.773  1.00  0.00    -0.550 OA
ATOM     10  O   UNL     1     -12.984 -10.247   6.168  1.00  0.00    -0.550 OA
ENDBRANCH   7   8
ENDBRANCH   6   7
ENDBRANCH   5   6
ENDBRANCH   4   5
ENDBRANCH   3   4
ENDBRANCH   2   3
ENDBRANCH   1   2
BRANCH   1  11
ATOM     11  C   UNL     1      -5.353 -17.962   4.980  1.00  0.00     0.000 C 
BRANCH  11  12
ATOM     12  C   UNL     1      -4.058 -18.450   4.313  1.00  0.00    -0.000 C 
BRANCH  12  13
ATOM     13  C   UNL     1      -3.384 -17.318   3.530  1.00  0.00    -0.000 C 
BRANCH  13  14
ATOM     14  C   UNL     1      -1.874 -17.284   3.802  1.00  0.00    -0.000 C 
BRANCH  14  15
ATOM     15  C   UNL     1      -1.534 -16.931   5.259  1.00  0.00    -0.000 C 
BRANCH  15  16
ATOM     16  C   UNL     1      -1.920 -15.490   5.654  1.00  0.00    -0.000 C 
BRANCH  16  17
ATOM     17  C   UNL     1      -2.882 -15.454   6.850  1.00  0.00    -0.003 C 
ATOM     18  C   UNL     1      -2.741 -14.149   7.632  1.00  0.00     0.004 C 
ENDBRANCH  16  17
ENDBRANCH  15  16
ENDBRANCH  14  15
ENDBRANCH  13  14
ENDBRANCH  12  13
ENDBRANCH  11  12
ENDBRANCH   1  11
TORSDOF 14
ENDMDL
MODEL 3
REMARK VINA RESULT:    -4.683      4.194      9.583
REMARK INTER + INTRA:          -9.189
REMARK INTER:                  -8.495
REMARK INTRA:                  -0.695
REMARK UNBOUND:                -0.673
REMARK SMILES CCCCCCCCCCCCCCCC(=O)[O-]
REMARK SMILES IDX 9 1 10 2 11 3 12 4 13 5 14 6 15 7 16 8 17 9 18 10 8 11 7 12
REMARK SMILES IDX 6 13 5 14 4 15 3 16 2 17 1 18
REMARK H PARENT
REMARK Flexibility Score: inf
ROOT
ATOM      1  C   UNL     1      -6.865 -15.276   5.728  1.00  0.00     0.000 C 
ENDROOT
BRANCH   1   2
ATOM      2  C   UNL     1      -5.383 -15.626   5.508  1.00  0.00     0.000 C 
BRANCH   2   3
ATOM      3  C   UNL     1      -5.185 -16.763   4.490  1.00  0.00     0.000 C 
BRANCH   3   4
ATOM      4  C   UNL     1      -4.892 -18.145   5.107  1.00  0.00     0.000 C 
BRANCH   4   5
ATOM      5  C   UNL     1      -5.936 -19.236   4.804  1.00  0.00     0.000 C 
BRANCH   5   6
ATOM      6  C   UNL     1      -7.398 -18.750   4.744  1.00  0.00     0.006 C 
BRANCH   6   7
ATOM      7  C   UNL     1      -8.335 -19.683   3.956  1.00  0.00     0.053 C 
BRANCH   7   8
ATOM      8  C   UNL     1      -9.465 -18.949   3.301  1.00  0.00     0.041 C 
ATOM      9  O   UNL     1     -10.123 -19.491   2.374  1.00  0.00    -0.550 OA
ATOM     10  O   UNL     1      -9.771 -17.651   3.690  1.00  0.00    -0.550 OA
ENDBRANCH   7   8
ENDBRANCH   6   7
ENDBRANCH   5   6
ENDBRANCH   4   5
ENDBRANCH   3   4
ENDBRANCH   2   3
ENDBRANCH   1   2
BRANCH   1  11
ATOM     11  C   UNL     1      -7.254 -13.933   5.088  1.00  0.00     0.000 C 
BRANCH  11  12
ATOM     12  C   UNL     1      -8.772 -13.695   5.095  1.00  0.00    -0.000 C 
BRANCH  12  13
ATOM     13  C   UNL     1      -9.193 -12.883   6.325  1.00  0.00    -0.000 C 
BRANCH  13  14
ATOM     14  C   UNL     1     -10.421 -12.015   6.018  1.00  0.00    -0.000 C 
BRANCH  14  15
ATOM     15  C   UNL     1     -10.246 -10.551   6.458  1.00  0.00    -0.000 C 
BRANCH  15  16
ATOM     16  C   UNL     1     -11.551  -9.728   6.400  1.00  0.00    -0.000 C 
BRANCH  16  17
ATOM     17  C   UNL     1     -12.801 -10.612   6.511  1.00  0.00    -0.003 C 
ATOM     18  C   UNL     1     -13.843  -9.980   7.430  1.00  0.00     0.004 C 
ENDBRANCH  16  17
ENDBRANCH  15  16
ENDBRANCH  14  15
ENDBRANCH  13  14
ENDBRANCH  12  13
ENDBRANCH  11  12
ENDBRANCH   1  11
TORSDOF 14
ENDMDL
MODEL 4
REMARK VINA RESULT:    -4.634     12.949     15.901
REMARK INTER + INTRA:          -9.099
REMARK INTER:                  -7.540
REMARK INTRA:                  -1.559
REMARK UNBOUND:                -0.673
REMARK SMILES CCCCCCCCCCCCCCCC(=O)[O-]
REMARK SMILES IDX 9 1 10 2 11 3 12 4 13 5 14 6 15 7 16 8 17 9 18 10 8 11 7 12
REMARK SMILES IDX 6 13 5 14 4 15 3 16 2 17 1 18
REMARK H PARENT
REMARK Flexibility Score: inf
ROOT
ATOM      1  C   UNL     1      -7.880 -18.994  14.863  1.00  0.00     0.000 C 
ENDROOT
BRANCH   1   2
ATOM      2  C   UNL     1      -7.268 -19.474  16.191  1.00  0.00     0.000 C 
BRANCH   2   3
ATOM      3  C   UNL     1      -6.337 -20.686  16.013  1.00  0.00     0.000 C 
BRANCH   3   4
ATOM      4  C   UNL     1      -7.052 -22.051  15.950  1.00  0.00     0.000 C 
BRANCH   4   5
ATOM      5  C   UNL     1      -7.277 -22.610  14.532  1.00  0.00     0.000 C 
BRANCH   5   6
ATOM      6  C   UNL     1      -6.484 -23.888  14.196  1.00  0.00     0.006 C 
BRANCH   6   7
ATOM      7  C   UNL     1      -5.284 -24.143  15.127  1.00  0.00     0.053 C 
BRANCH   7   8
ATOM      8  C   UNL     1      -4.098 -24.700  14.401  1.00  0.00     0.041 C 
ATOM      9  O   UNL     1      -3.985 -24.547  13.156  1.00  0.00    -0.550 OA
ATOM     10  O   UNL     1      -3.134 -25.422  15.093  1.00  0.00    -0.550 OA
ENDBRANCH   7   8
ENDBRANCH   6   7
ENDBRANCH   5   6
ENDBRANCH   4   5
ENDBRANCH   3   4
ENDBRANCH   2   3
ENDBRANCH   1   2
BRANCH   1  11
ATOM     11  C   UNL     1      -9.413 -18.903  14.919  1.00  0.00     0.000 C 
BRANCH  11  12
ATOM     12  C   UNL     1     -10.099 -20.194  14.447  1.00  0.00    -0.000 C 
BRANCH  12  13
ATOM     13  C   UNL     1     -11.200 -20.620  15.424  1.00  0.00    -0.000 C 
BRANCH  13  14
ATOM     14  C   UNL     1     -10.600 -21.157  16.730  1.00  0.00    -0.000 C 
BRANCH  14  15
ATOM     15  C   UNL     1     -11.143 -20.441  17.979  1.00  0.00    -0.000 C 
BRANCH  15  16
ATOM     16  C   UNL     1     -12.281 -19.444  17.674  1.00  0.00    -0.000 C 
BRANCH  16  17
ATOM     17  C   UNL     1     -13.021 -19.003  18.945  1.00  0.00    -0.003 C 
ATOM     18  C   UNL     1     -12.886 -20.046  20.052  1.00  0.00     0.004 C 
ENDBRANCH  16  17
ENDBRANCH  15  16
ENDBRANCH  14  15
ENDBRANCH  13  14
ENDBRANCH  12  13
ENDBRANCH  11  12
ENDBRANCH   1  11
TORSDOF 14
ENDMDL
MODEL 5
REMARK VINA RESULT:    -4.569      5.380     10.558
REMARK INTER + INTRA:          -8.982
REMARK INTER:                  -8.338
REMARK INTRA:                  -0.644
REMARK UNBOUND:                -0.673
REMARK SMILES CCCCCCCCCCCCCCCC(=O)[O-]
REMARK SMILES IDX 9 1 10 2 11 3 12 4 13 5 14 6 15 7 16 8 17 9 18 10 8 11 7 12
REMARK SMILES IDX 6 13 5 14 4 15 3 16 2 17 1 18
REMARK H PARENT
REMARK Flexibility Score: inf
ROOT
ATOM      1  C   UNL     1      -9.609 -13.108   5.540  1.00  0.00     0.000 C 
ENDROOT
BRANCH   1   2
ATOM      2  C   UNL     1      -8.095 -13.381   5.494  1.00  0.00     0.000 C 
BRANCH   2   3
ATOM      3  C   UNL     1      -7.762 -14.812   5.039  1.00  0.00     0.000 C 
BRANCH   3   4
ATOM      4  C   UNL     1      -6.499 -15.421   5.681  1.00  0.00     0.000 C 
BRANCH   4   5
ATOM      5  C   UNL     1      -5.911 -16.642   4.949  1.00  0.00     0.000 C 
BRANCH   5   6
ATOM      6  C   UNL     1      -4.450 -16.489   4.482  1.00  0.00     0.006 C 
BRANCH   6   7
ATOM      7  C   UNL     1      -3.474 -16.092   5.605  1.00  0.00     0.053 C 
BRANCH   7   8
ATOM      8  C   UNL     1      -2.053 -16.023   5.136  1.00  0.00     0.041 C 
ATOM      9  O   UNL     1      -1.547 -16.983   4.497  1.00  0.00    -0.550 OA
ATOM     10  O   UNL     1      -1.273 -14.913   5.437  1.00  0.00    -0.550 OA
ENDBRANCH   7   8
ENDBRANCH   6   7
ENDBRANCH   5   6
ENDBRANCH   4   5
ENDBRANCH   3   4
ENDBRANCH   2   3
ENDBRANCH   1   2
BRANCH   1  11
ATOM     11  C   UNL     1     -10.003 -12.166   6.688  1.00  0.00     0.000 C 
BRANCH  11  12
ATOM     12  C   UNL     1      -9.160 -10.881   6.714  1.00  0.00    -0.000 C 
BRANCH  12  13
ATOM     13  C   UNL     1      -9.999  -9.684   7.176  1.00  0.00    -0.000 C 
BRANCH  13  14
ATOM     14  C   UNL     1     -11.206  -9.469   6.253  1.00  0.00    -0.000 C 
BRANCH  14  15
ATOM     15  C   UNL     1     -12.509  -9.195   7.024  1.00  0.00    -0.000 C 
BRANCH  15  16
ATOM     16  C   UNL     1     -13.434 -10.426   7.133  1.00  0.00    -0.000 C 
BRANCH  16  17
ATOM     17  C   UNL     1     -14.797 -10.075   7.747  1.00  0.00    -0.003 C 
ATOM     18  C   UNL     1     -14.720 -10.030   9.271  1.00  0.00     0.004 C 
ENDBRANCH  16  17
ENDBRANCH  15  16
ENDBRANCH  14  15
ENDBRANCH  13  14
ENDBRANCH  12  13
ENDBRANCH  11  12
ENDBRANCH   1  11
TORSDOF 14
ENDMDL
MODEL 6
REMARK VINA RESULT:    -4.517      7.747      9.943
REMARK INTER + INTRA:          -8.886
REMARK INTER:                  -7.414
REMARK INTRA:                  -1.471
REMARK UNBOUND:                -0.673
REMARK SMILES CCCCCCCCCCCCCCCC(=O)[O-]
REMARK SMILES IDX 9 1 10 2 11 3 12 4 13 5 14 6 15 7 16 8 17 9 18 10 8 11 7 12
REMARK SMILES IDX 6 13 5 14 4 15 3 16 2 17 1 18
REMARK H PARENT
REMARK Flexibility Score: inf
ROOT
ATOM      1  C   UNL     1      -7.005 -16.639   5.138  1.00  0.00     0.000 C 
ENDROOT
BRANCH   1   2
ATOM      2  C   UNL     1      -5.519 -16.503   4.762  1.00  0.00     0.000 C 
BRANCH   2   3
ATOM      3  C   UNL     1      -4.787 -17.855   4.732  1.00  0.00     0.000 C 
BRANCH   3   4
ATOM      4  C   UNL     1      -3.550 -17.904   3.811  1.00  0.00     0.000 C 
BRANCH   4   5
ATOM      5  C   UNL     1      -2.660 -16.647   3.836  1.00  0.00     0.000 C 
BRANCH   5   6
ATOM      6  C   UNL     1      -1.674 -16.563   5.018  1.00  0.00     0.006 C 
BRANCH   6   7
ATOM      7  C   UNL     1      -1.570 -15.161   5.646  1.00  0.00     0.053 C 
BRANCH   7   8
ATOM      8  C   UNL     1      -2.399 -15.021   6.886  1.00  0.00     0.041 C 
ATOM      9  O   UNL     1      -3.129 -15.972   7.273  1.00  0.00    -0.550 OA
ATOM     10  O   UNL     1      -2.395 -13.827   7.596  1.00  0.00    -0.550 OA
ENDBRANCH   7   8
ENDBRANCH   6   7
ENDBRANCH   5   6
ENDBRANCH   4   5
ENDBRANCH   3   4
ENDBRANCH   2   3
ENDBRANCH   1   2
BRANCH   1  11
ATOM     11  C   UNL     1      -7.580 -18.020   4.783  1.00  0.00     0.000 C 
BRANCH  11  12
ATOM     12  C   UNL     1      -8.912 -17.927   4.023  1.00  0.00    -0.000 C 
BRANCH  12  13
ATOM     13  C   UNL     1      -9.202 -19.227   3.264  1.00  0.00    -0.000 C 
BRANCH  13  14
ATOM     14  C   UNL     1      -8.171 -20.309   3.611  1.00  0.00    -0.000 C 
BRANCH  14  15
ATOM     15  C   UNL     1      -8.813 -21.597   4.154  1.00  0.00    -0.000 C 
BRANCH  15  16
ATOM     16  C   UNL     1      -8.166 -22.107   5.460  1.00  0.00    -0.000 C 
BRANCH  16  17
ATOM     17  C   UNL     1      -8.393 -21.144   6.634  1.00  0.00    -0.003 C 
ATOM     18  C   UNL     1      -7.066 -20.664   7.218  1.00  0.00     0.004 C 
ENDBRANCH  16  17
ENDBRANCH  15  16
ENDBRANCH  14  15
ENDBRANCH  13  14
ENDBRANCH  12  13
ENDBRANCH  11  12
ENDBRANCH   1  11
TORSDOF 14
ENDMDL
MODEL 7
REMARK VINA RESULT:    -4.479      2.524      5.001
REMARK INTER + INTRA:          -8.817
REMARK INTER:                  -7.710
REMARK INTRA:                  -1.108
REMARK UNBOUND:                -0.673
REMARK SMILES CCCCCCCCCCCCCCCC(=O)[O-]
REMARK SMILES IDX 9 1 10 2 11 3 12 4 13 5 14 6 15 7 16 8 17 9 18 10 8 11 7 12
REMARK SMILES IDX 6 13 5 14 4 15 3 16 2 17 1 18
REMARK H PARENT
REMARK Flexibility Score: inf
ROOT
ATOM      1  C   UNL     1      -5.256 -15.521   6.159  1.00  0.00     0.000 C 
ENDROOT
BRANCH   1   2
ATOM      2  C   UNL     1      -6.681 -14.959   6.299  1.00  0.00     0.000 C 
BRANCH   2   3
ATOM      3  C   UNL     1      -7.101 -14.094   5.098  1.00  0.00     0.000 C 
BRANCH   3   4
ATOM      4  C   UNL     1      -8.604 -13.757   5.034  1.00  0.00     0.000 C 
BRANCH   4   5
ATOM      5  C   UNL     1      -9.093 -12.726   6.070  1.00  0.00     0.000 C 
BRANCH   5   6
ATOM      6  C   UNL     1     -10.608 -12.445   6.053  1.00  0.00     0.006 C 
BRANCH   6   7
ATOM      7  C   UNL     1     -10.966 -10.955   5.900  1.00  0.00     0.053 C 
BRANCH   7   8
ATOM      8  C   UNL     1     -11.964 -10.493   6.917  1.00  0.00     0.041 C 
ATOM      9  O   UNL     1     -13.182 -10.392   6.612  1.00  0.00    -0.550 OA
ATOM     10  O   UNL     1     -11.546 -10.139   8.194  1.00  0.00    -0.550 OA
ENDBRANCH   7   8
ENDBRANCH   6   7
ENDBRANCH   5   6
ENDBRANCH   4   5
ENDBRANCH   3   4
ENDBRANCH   2   3
ENDBRANCH   1   2
BRANCH   1  11
ATOM     11  C   UNL     1      -4.993 -16.122   4.769  1.00  0.00     0.000 C 
BRANCH  11  12
ATOM     12  C   UNL     1      -4.170 -17.418   4.832  1.00  0.00    -0.000 C 
BRANCH  12  13
ATOM     13  C   UNL     1      -5.009 -18.622   4.388  1.00  0.00    -0.000 C 
BRANCH  13  14
ATOM     14  C   UNL     1      -5.512 -19.419   5.599  1.00  0.00    -0.000 C 
BRANCH  14  15
ATOM     15  C   UNL     1      -7.045 -19.421   5.721  1.00  0.00    -0.000 C 
BRANCH  15  16
ATOM     16  C   UNL     1      -7.749 -18.505   4.697  1.00  0.00    -0.000 C 
BRANCH  16  17
ATOM     17  C   UNL     1      -8.613 -19.299   3.706  1.00  0.00    -0.003 C 
ATOM     18  C   UNL     1      -9.143 -20.582   4.342  1.00  0.00     0.004 C 
ENDBRANCH  16  17
ENDBRANCH  15  16
ENDBRANCH  14  15
ENDBRANCH  13  14
ENDBRANCH  12  13
ENDBRANCH  11  12
ENDBRANCH   1  11
TORSDOF 14
ENDMDL
MODEL 8
REMARK VINA RESULT:    -4.471      7.261      9.419
REMARK INTER + INTRA:          -8.804
REMARK INTER:                  -6.529
REMARK INTRA:                  -2.275
REMARK UNBOUND:                -0.673
REMARK SMILES CCCCCCCCCCCCCCCC(=O)[O-]
REMARK SMILES IDX 9 1 10 2 11 3 12 4 13 5 14 6 15 7 16 8 17 9 18 10 8 11 7 12
REMARK SMILES IDX 6 13 5 14 4 15 3 16 2 17 1 18
REMARK H PARENT
REMARK Flexibility Score: inf
ROOT
ATOM      1  C   UNL     1      -2.083 -18.980   4.181  1.00  0.00     0.000 C 
ENDROOT
BRANCH   1   2
ATOM      2  C   UNL     1      -3.031 -19.845   5.031  1.00  0.00     0.000 C 
BRANCH   2   3
ATOM      3  C   UNL     1      -4.502 -19.415   4.906  1.00  0.00     0.000 C 
BRANCH   3   4
ATOM      4  C   UNL     1      -5.389 -19.772   6.116  1.00  0.00     0.000 C 
BRANCH   4   5
ATOM      5  C   UNL     1      -6.897 -19.880   5.818  1.00  0.00     0.000 C 
BRANCH   5   6
ATOM      6  C   UNL     1      -7.325 -19.414   4.413  1.00  0.00     0.006 C 
BRANCH   6   7
ATOM      7  C   UNL     1      -8.638 -20.047   3.917  1.00  0.00     0.053 C 
BRANCH   7   8
ATOM      8  C   UNL     1      -9.530 -19.061   3.226  1.00  0.00     0.041 C 
ATOM      9  O   UNL     1      -9.627 -17.881   3.657  1.00  0.00    -0.550 OA
ATOM     10  O   UNL     1     -10.282 -19.454   2.126  1.00  0.00    -0.550 OA
ENDBRANCH   7   8
ENDBRANCH   6   7
ENDBRANCH   5   6
ENDBRANCH   4   5
ENDBRANCH   3   4
ENDBRANCH   2   3
ENDBRANCH   1   2
BRANCH   1  11
ATOM     11  C   UNL     1      -2.832 -17.923   3.354  1.00  0.00     0.000 C 
BRANCH  11  12
ATOM     12  C   UNL     1      -2.500 -16.488   3.791  1.00  0.00    -0.000 C 
BRANCH  12  13
ATOM     13  C   UNL     1      -1.790 -16.479   5.149  1.00  0.00    -0.000 C 
BRANCH  13  14
ATOM     14  C   UNL     1      -2.615 -15.720   6.197  1.00  0.00    -0.000 C 
BRANCH  14  15
ATOM     15  C   UNL     1      -3.375 -16.653   7.153  1.00  0.00    -0.000 C 
BRANCH  15  16
ATOM     16  C   UNL     1      -4.900 -16.412   7.171  1.00  0.00    -0.000 C 
BRANCH  16  17
ATOM     17  C   UNL     1      -5.335 -15.373   6.128  1.00  0.00    -0.003 C 
ATOM     18  C   UNL     1      -6.053 -16.035   4.955  1.00  0.00     0.004 C 
ENDBRANCH  16  17
ENDBRANCH  15  16
ENDBRANCH  14  15
ENDBRANCH  13  14
ENDBRANCH  12  13
ENDBRANCH  11  12
ENDBRANCH   1  11
TORSDOF 14
ENDMDL
MODEL 9
REMARK VINA RESULT:    -4.458      2.056      3.817
REMARK INTER + INTRA:          -8.779
REMARK INTER:                  -7.508
REMARK INTRA:                  -1.270
REMARK UNBOUND:                -0.673
REMARK SMILES CCCCCCCCCCCCCCCC(=O)[O-]
REMARK SMILES IDX 9 1 10 2 11 3 12 4 13 5 14 6 15 7 16 8 17 9 18 10 8 11 7 12
REMARK SMILES IDX 6 13 5 14 4 15 3 16 2 17 1 18
REMARK H PARENT
REMARK Flexibility Score: inf
ROOT
ATOM      1  C   UNL     1      -6.508 -14.899   4.868  1.00  0.00     0.000 C 
ENDROOT
BRANCH   1   2
ATOM      2  C   UNL     1      -7.319 -13.676   5.331  1.00  0.00     0.000 C 
BRANCH   2   3
ATOM      3  C   UNL     1      -8.832 -13.849   5.115  1.00  0.00     0.000 C 
BRANCH   3   4
ATOM      4  C   UNL     1      -9.716 -12.822   5.851  1.00  0.00     0.000 C 
BRANCH   4   5
ATOM      5  C   UNL     1      -9.067 -12.155   7.079  1.00  0.00     0.000 C 
BRANCH   5   6
ATOM      6  C   UNL     1      -9.535 -10.716   7.370  1.00  0.00     0.006 C 
BRANCH   6   7
ATOM      7  C   UNL     1     -10.448 -10.123   6.282  1.00  0.00     0.053 C 
BRANCH   7   8
ATOM      8  C   UNL     1     -11.853  -9.910   6.759  1.00  0.00     0.041 C 
ATOM      9  O   UNL     1     -12.827 -10.266   6.044  1.00  0.00    -0.550 OA
ATOM     10  O   UNL     1     -12.087  -9.286   7.977  1.00  0.00    -0.550 OA
ENDBRANCH   7   8
ENDBRANCH   6   7
ENDBRANCH   5   6
ENDBRANCH   4   5
ENDBRANCH   3   4
ENDBRANCH   2   3
ENDBRANCH   1   2
BRANCH   1  11
ATOM     11  C   UNL     1      -6.607 -16.078   5.849  1.00  0.00     0.000 C 
BRANCH  11  12
ATOM     12  C   UNL     1      -6.932 -17.405   5.147  1.00  0.00    -0.000 C 
BRANCH  12  13
ATOM     13  C   UNL     1      -6.474 -18.599   5.991  1.00  0.00    -0.000 C 
BRANCH  13  14
ATOM     14  C   UNL     1      -4.972 -18.856   5.813  1.00  0.00    -0.000 C 
BRANCH  14  15
ATOM     15  C   UNL     1      -4.557 -18.994   4.339  1.00  0.00    -0.000 C 
BRANCH  15  16
ATOM     16  C   UNL     1      -3.234 -18.274   3.998  1.00  0.00    -0.000 C 
BRANCH  16  17
ATOM     17  C   UNL     1      -3.420 -16.757   3.852  1.00  0.00    -0.003 C 
ATOM     18  C   UNL     1      -2.473 -15.994   4.776  1.00  0.00     0.004 C 
ENDBRANCH  16  17
ENDBRANCH  15  16
ENDBRANCH  14  15
ENDBRANCH  13  14
ENDBRANCH  12  13
ENDBRANCH  11  12
ENDBRANCH   1  11
TORSDOF 14
ENDMDL
