MODEL 1
REMARK VINA RESULT:    -6.124      0.000      0.000
REMARK INTER + INTRA:          -7.599
REMARK INTER:                  -7.377
REMARK INTRA:                  -0.223
REMARK UNBOUND:                -0.223
REMARK SMILES O=c1c(O)c(-c2ccc(O)c(O)c2)oc2cc(O)cc(O)c12
REMARK SMILES IDX 5 1 3 2 2 3 1 4 22 5 20 6 19 7 17 8 16 9 15 10 14 11 6 12
REMARK SMILES IDX 7 13 8 14 9 15 13 16 11 17 10 18 12 20 4 22 21 24 18 26
REMARK H PARENT 10 19 12 21 4 23 21 25 18 27
REMARK Flexibility Score: inf
ROOT
ATOM      1  C   UNL     1     129.733 -41.476  33.605  1.00  0.00     0.180 A 
ATOM      2  C   UNL     1     128.462 -42.043  33.407  1.00  0.00     0.208 A 
ATOM      3  C   UNL     1     127.692 -41.622  32.310  1.00  0.00     0.238 A 
ATOM      4  O   UNL     1     126.579 -42.170  32.107  1.00  0.00    -0.285 OA
ATOM      5  C   UNL     1     128.197 -40.629  31.436  1.00  0.00     0.111 A 
ATOM      6  C   UNL     1     127.488 -40.099  30.316  1.00  0.00     0.134 A 
ATOM      7  C   UNL     1     128.136 -39.215  29.444  1.00  0.00     0.093 A 
ATOM      8  C   UNL     1     129.445 -38.792  29.687  1.00  0.00     0.123 A 
ATOM      9  C   UNL     1     130.125 -39.259  30.810  1.00  0.00     0.094 A 
ATOM     10  C   UNL     1     129.518 -40.169  31.678  1.00  0.00     0.146 A 
ATOM     11  O   UNL     1     130.206 -40.597  32.731  1.00  0.00    -0.452 OA
ENDROOT
BRANCH   1  12
ATOM     12  C   UNL     1     130.592 -41.852  34.752  1.00  0.00     0.025 A 
ATOM     13  C   UNL     1     131.813 -42.504  34.517  1.00  0.00     0.016 A 
ATOM     14  C   UNL     1     132.648 -42.848  35.583  1.00  0.00     0.051 A 
ATOM     15  C   UNL     1     132.283 -42.530  36.897  1.00  0.00     0.157 A 
ATOM     16  C   UNL     1     130.239 -41.516  36.072  1.00  0.00     0.062 A 
ATOM     17  C   UNL     1     131.078 -41.860  37.142  1.00  0.00     0.158 A 
BRANCH  15  18
ATOM     18  O   UNL     1     133.112 -42.873  37.964  1.00  0.00    -0.504 OA
ATOM     19  H   UNL     1     132.796 -43.490  38.703  1.00  0.00     0.293 HD
ENDBRANCH  15  18
BRANCH  17  20
ATOM     20  O   UNL     1     130.723 -41.532  38.450  1.00  0.00    -0.504 OA
ATOM     21  H   UNL     1     131.405 -41.527  39.199  1.00  0.00     0.293 HD
ENDBRANCH  17  20
ENDBRANCH   1  12
BRANCH   2  22
ATOM     22  O   UNL     1     127.992 -43.037  34.270  1.00  0.00    -0.502 OA
ATOM     23  H   UNL     1     127.666 -43.936  33.937  1.00  0.00     0.293 HD
ENDBRANCH   2  22
BRANCH   6  24
ATOM     24  O   UNL     1     126.149 -40.383  30.035  1.00  0.00    -0.507 OA
ATOM     25  H   UNL     1     125.831 -41.161  29.476  1.00  0.00     0.293 HD
ENDBRANCH   6  24
BRANCH   8  26
ATOM     26  O   UNL     1     130.076 -37.901  28.822  1.00  0.00    -0.508 OA
ATOM     27  H   UNL     1     129.593 -37.094  28.448  1.00  0.00     0.293 HD
ENDBRANCH   8  26
TORSDOF 6
ENDMDL
MODEL 2
REMARK VINA RESULT:    -5.888      1.494      7.152
REMARK INTER + INTRA:          -7.315
REMARK INTER:                  -7.101
REMARK INTRA:                  -0.214
REMARK UNBOUND:                -0.223
REMARK SMILES O=c1c(O)c(-c2ccc(O)c(O)c2)oc2cc(O)cc(O)c12
REMARK SMILES IDX 5 1 3 2 2 3 1 4 22 5 20 6 19 7 17 8 16 9 15 10 14 11 6 12
REMARK SMILES IDX 7 13 8 14 9 15 13 16 11 17 10 18 12 20 4 22 21 24 18 26
REMARK H PARENT 10 19 12 21 4 23 21 25 18 27
REMARK Flexibility Score: inf
ROOT
ATOM      1  C   UNL     1     130.310 -41.110  32.452  1.00  0.00     0.180 A 
ATOM      2  C   UNL     1     131.513 -41.761  32.129  1.00  0.00     0.208 A 
ATOM      3  C   UNL     1     132.301 -42.289  33.165  1.00  0.00     0.238 A 
ATOM      4  O   UNL     1     133.348 -42.918  32.868  1.00  0.00    -0.285 OA
ATOM      5  C   UNL     1     131.883 -42.145  34.511  1.00  0.00     0.111 A 
ATOM      6  C   UNL     1     132.622 -42.605  35.642  1.00  0.00     0.134 A 
ATOM      7  C   UNL     1     132.051 -42.524  36.919  1.00  0.00     0.093 A 
ATOM      8  C   UNL     1     130.797 -41.941  37.111  1.00  0.00     0.123 A 
ATOM      9  C   UNL     1     130.094 -41.436  36.021  1.00  0.00     0.094 A 
ATOM     10  C   UNL     1     130.621 -41.534  34.730  1.00  0.00     0.146 A 
ATOM     11  O   UNL     1     129.913 -41.049  33.717  1.00  0.00    -0.452 OA
ENDROOT
BRANCH   1  12
ATOM     12  C   UNL     1     129.439 -40.507  31.416  1.00  0.00     0.025 A 
ATOM     13  C   UNL     1     129.877 -39.368  30.723  1.00  0.00     0.016 A 
ATOM     14  C   UNL     1     129.081 -38.796  29.728  1.00  0.00     0.051 A 
ATOM     15  C   UNL     1     127.844 -39.364  29.399  1.00  0.00     0.157 A 
ATOM     16  C   UNL     1     128.205 -41.087  31.069  1.00  0.00     0.062 A 
ATOM     17  C   UNL     1     127.406 -40.514  30.068  1.00  0.00     0.158 A 
BRANCH  15  18
ATOM     18  O   UNL     1     127.045 -38.795  28.408  1.00  0.00    -0.504 OA
ATOM     19  H   UNL     1     127.451 -38.324  27.607  1.00  0.00     0.293 HD
ENDBRANCH  15  18
BRANCH  17  20
ATOM     20  O   UNL     1     126.181 -41.086  29.730  1.00  0.00    -0.504 OA
ATOM     21  H   UNL     1     126.090 -42.080  29.555  1.00  0.00     0.293 HD
ENDBRANCH  17  20
ENDBRANCH   1  12
BRANCH   2  22
ATOM     22  O   UNL     1     131.895 -41.912  30.794  1.00  0.00    -0.502 OA
ATOM     23  H   UNL     1     131.264 -42.263  30.083  1.00  0.00     0.293 HD
ENDBRANCH   2  22
BRANCH   6  24
ATOM     24  O   UNL     1     133.920 -43.119  35.570  1.00  0.00    -0.507 OA
ATOM     25  H   UNL     1     134.561 -43.170  36.348  1.00  0.00     0.293 HD
ENDBRANCH   6  24
BRANCH   8  26
ATOM     26  O   UNL     1     130.243 -41.852  38.387  1.00  0.00    -0.508 OA
ATOM     27  H   UNL     1     130.806 -41.981  39.219  1.00  0.00     0.293 HD
ENDBRANCH   8  26
TORSDOF 6
ENDMDL
MODEL 3
REMARK VINA RESULT:    -5.680      1.773      2.499
REMARK INTER + INTRA:          -7.064
REMARK INTER:                  -7.605
REMARK INTRA:                   0.541
REMARK UNBOUND:                -0.223
REMARK SMILES O=c1c(O)c(-c2ccc(O)c(O)c2)oc2cc(O)cc(O)c12
REMARK SMILES IDX 5 1 3 2 2 3 1 4 22 5 20 6 19 7 17 8 16 9 15 10 14 11 6 12
REMARK SMILES IDX 7 13 8 14 9 15 13 16 11 17 10 18 12 20 4 22 21 24 18 26
REMARK H PARENT 10 19 12 21 4 23 21 25 18 27
REMARK Flexibility Score: inf
ROOT
ATOM      1  C   UNL     1     130.393 -41.507  32.565  1.00  0.00     0.180 A 
ATOM      2  C   UNL     1     130.968 -41.980  31.372  1.00  0.00     0.208 A 
ATOM      3  C   UNL     1     130.356 -41.664  30.148  1.00  0.00     0.238 A 
ATOM      4  O   UNL     1     130.904 -42.044  29.082  1.00  0.00    -0.285 OA
ATOM      5  C   UNL     1     129.169 -40.893  30.134  1.00  0.00     0.111 A 
ATOM      6  C   UNL     1     128.442 -40.546  28.956  1.00  0.00     0.134 A 
ATOM      7  C   UNL     1     127.353 -39.669  29.048  1.00  0.00     0.093 A 
ATOM      8  C   UNL     1     126.926 -39.179  30.285  1.00  0.00     0.123 A 
ATOM      9  C   UNL     1     127.593 -39.558  31.447  1.00  0.00     0.094 A 
ATOM     10  C   UNL     1     128.705 -40.403  31.383  1.00  0.00     0.146 A 
ATOM     11  O   UNL     1     129.318 -40.731  32.514  1.00  0.00    -0.452 OA
ENDROOT
BRANCH   1  12
ATOM     12  C   UNL     1     130.968 -41.820  33.894  1.00  0.00     0.025 A 
ATOM     13  C   UNL     1     132.191 -42.504  33.973  1.00  0.00     0.016 A 
ATOM     14  C   UNL     1     132.762 -42.790  35.216  1.00  0.00     0.051 A 
ATOM     15  C   UNL     1     132.127 -42.382  36.396  1.00  0.00     0.157 A 
ATOM     16  C   UNL     1     130.344 -41.394  35.080  1.00  0.00     0.062 A 
ATOM     17  C   UNL     1     130.917 -41.680  36.328  1.00  0.00     0.158 A 
BRANCH  15  18
ATOM     18  O   UNL     1     132.691 -42.668  37.638  1.00  0.00    -0.504 OA
ATOM     19  H   UNL     1     132.813 -41.949  38.342  1.00  0.00     0.293 HD
ENDBRANCH  15  18
BRANCH  17  20
ATOM     20  O   UNL     1     130.293 -41.263  37.502  1.00  0.00    -0.504 OA
ATOM     21  H   UNL     1     129.711 -40.434  37.529  1.00  0.00     0.293 HD
ENDBRANCH  17  20
ENDBRANCH   1  12
BRANCH   2  22
ATOM     22  O   UNL     1     132.152 -42.722  31.408  1.00  0.00    -0.502 OA
ATOM     23  H   UNL     1     132.771 -42.721  32.210  1.00  0.00     0.293 HD
ENDBRANCH   2  22
BRANCH   6  24
ATOM     24  O   UNL     1     128.727 -41.054  27.685  1.00  0.00    -0.507 OA
ATOM     25  H   UNL     1     128.037 -41.403  27.037  1.00  0.00     0.293 HD
ENDBRANCH   6  24
BRANCH   8  26
ATOM     26  O   UNL     1     125.834 -38.319  30.369  1.00  0.00    -0.508 OA
ATOM     27  H   UNL     1     125.113 -38.307  29.657  1.00  0.00     0.293 HD
ENDBRANCH   8  26
TORSDOF 6
ENDMDL
MODEL 4
REMARK VINA RESULT:    -5.108      3.246      4.925
REMARK INTER + INTRA:          -6.375
REMARK INTER:                  -6.205
REMARK INTRA:                  -0.170
REMARK UNBOUND:                -0.223
REMARK SMILES O=c1c(O)c(-c2ccc(O)c(O)c2)oc2cc(O)cc(O)c12
REMARK SMILES IDX 5 1 3 2 2 3 1 4 22 5 20 6 19 7 17 8 16 9 15 10 14 11 6 12
REMARK SMILES IDX 7 13 8 14 9 15 13 16 11 17 10 18 12 20 4 22 21 24 18 26
REMARK H PARENT 10 19 12 21 4 23 21 25 18 27
REMARK Flexibility Score: inf
ROOT
ATOM      1  C   UNL     1     128.750 -40.780  32.013  1.00  0.00     0.180 A 
ATOM      2  C   UNL     1     129.548 -39.728  32.494  1.00  0.00     0.208 A 
ATOM      3  C   UNL     1     130.613 -39.264  31.703  1.00  0.00     0.238 A 
ATOM      4  O   UNL     1     131.290 -38.287  32.115  1.00  0.00    -0.285 OA
ATOM      5  C   UNL     1     130.874 -39.868  30.450  1.00  0.00     0.111 A 
ATOM      6  C   UNL     1     131.949 -39.506  29.584  1.00  0.00     0.134 A 
ATOM      7  C   UNL     1     132.034 -40.082  28.310  1.00  0.00     0.093 A 
ATOM      8  C   UNL     1     131.120 -41.054  27.896  1.00  0.00     0.123 A 
ATOM      9  C   UNL     1     130.102 -41.457  28.757  1.00  0.00     0.094 A 
ATOM     10  C   UNL     1     129.970 -40.874  30.020  1.00  0.00     0.146 A 
ATOM     11  O   UNL     1     128.978 -41.281  30.805  1.00  0.00    -0.452 OA
ENDROOT
BRANCH   1  12
ATOM     12  C   UNL     1     127.626 -41.338  32.800  1.00  0.00     0.025 A 
ATOM     13  C   UNL     1     126.325 -41.295  32.273  1.00  0.00     0.016 A 
ATOM     14  C   UNL     1     125.254 -41.835  32.988  1.00  0.00     0.051 A 
ATOM     15  C   UNL     1     125.469 -42.441  34.233  1.00  0.00     0.157 A 
ATOM     16  C   UNL     1     127.841 -41.966  34.039  1.00  0.00     0.062 A 
ATOM     17  C   UNL     1     126.766 -42.510  34.758  1.00  0.00     0.158 A 
BRANCH  15  18
ATOM     18  O   UNL     1     124.403 -42.979  34.952  1.00  0.00    -0.504 OA
ATOM     19  H   UNL     1     123.672 -42.391  35.335  1.00  0.00     0.293 HD
ENDBRANCH  15  18
BRANCH  17  20
ATOM     20  O   UNL     1     126.980 -43.125  35.990  1.00  0.00    -0.504 OA
ATOM     21  H   UNL     1     126.655 -42.709  36.855  1.00  0.00     0.293 HD
ENDBRANCH  17  20
ENDBRANCH   1  12
BRANCH   2  22
ATOM     22  O   UNL     1     129.260 -39.131  33.724  1.00  0.00    -0.502 OA
ATOM     23  H   UNL     1     128.726 -39.601  34.445  1.00  0.00     0.293 HD
ENDBRANCH   2  22
BRANCH   6  24
ATOM     24  O   UNL     1     132.967 -38.615  29.935  1.00  0.00    -0.507 OA
ATOM     25  H   UNL     1     133.883 -38.888  30.258  1.00  0.00     0.293 HD
ENDBRANCH   6  24
BRANCH   8  26
ATOM     26  O   UNL     1     131.220 -41.632  26.633  1.00  0.00    -0.508 OA
ATOM     27  H   UNL     1     131.978 -41.398  26.002  1.00  0.00     0.293 HD
ENDBRANCH   8  26
TORSDOF 6
ENDMDL
MODEL 5
REMARK VINA RESULT:    -5.064      1.534      1.545
REMARK INTER + INTRA:          -6.323
REMARK INTER:                  -6.514
REMARK INTRA:                   0.191
REMARK UNBOUND:                -0.223
REMARK SMILES O=c1c(O)c(-c2ccc(O)c(O)c2)oc2cc(O)cc(O)c12
REMARK SMILES IDX 5 1 3 2 2 3 1 4 22 5 20 6 19 7 17 8 16 9 15 10 14 11 6 12
REMARK SMILES IDX 7 13 8 14 9 15 13 16 11 17 10 18 12 20 4 22 21 24 18 26
REMARK H PARENT 10 19 12 21 4 23 21 25 18 27
REMARK Flexibility Score: inf
ROOT
ATOM      1  C   UNL     1     130.250 -41.647  33.094  1.00  0.00     0.180 A 
ATOM      2  C   UNL     1     128.854 -41.518  32.989  1.00  0.00     0.208 A 
ATOM      3  C   UNL     1     128.291 -41.216  31.738  1.00  0.00     0.238 A 
ATOM      4  O   UNL     1     127.038 -41.156  31.638  1.00  0.00    -0.285 OA
ATOM      5  C   UNL     1     129.130 -41.031  30.613  1.00  0.00     0.111 A 
ATOM      6  C   UNL     1     128.671 -40.683  29.308  1.00  0.00     0.134 A 
ATOM      7  C   UNL     1     129.579 -40.654  28.241  1.00  0.00     0.093 A 
ATOM      8  C   UNL     1     130.939 -40.896  28.446  1.00  0.00     0.123 A 
ATOM      9  C   UNL     1     131.406 -41.179  29.727  1.00  0.00     0.094 A 
ATOM     10  C   UNL     1     130.519 -41.250  30.805  1.00  0.00     0.146 A 
ATOM     11  O   UNL     1     131.005 -41.533  32.008  1.00  0.00    -0.452 OA
ENDROOT
BRANCH   1  12
ATOM     12  C   UNL     1     130.919 -41.940  34.383  1.00  0.00     0.025 A 
ATOM     13  C   UNL     1     132.108 -42.685  34.390  1.00  0.00     0.016 A 
ATOM     14  C   UNL     1     132.767 -42.954  35.592  1.00  0.00     0.051 A 
ATOM     15  C   UNL     1     132.255 -42.468  36.803  1.00  0.00     0.157 A 
ATOM     16  C   UNL     1     130.419 -41.436  35.597  1.00  0.00     0.062 A 
ATOM     17  C   UNL     1     131.081 -41.704  36.805  1.00  0.00     0.158 A 
BRANCH  15  18
ATOM     18  O   UNL     1     132.908 -42.736  38.005  1.00  0.00    -0.504 OA
ATOM     19  H   UNL     1     132.830 -43.639  38.460  1.00  0.00     0.293 HD
ENDBRANCH  15  18
BRANCH  17  20
ATOM     20  O   UNL     1     130.581 -41.211  38.008  1.00  0.00    -0.504 OA
ATOM     21  H   UNL     1     129.600 -40.979  38.120  1.00  0.00     0.293 HD
ENDBRANCH  17  20
ENDBRANCH   1  12
BRANCH   2  22
ATOM     22  O   UNL     1     128.042 -41.726  34.106  1.00  0.00    -0.502 OA
ATOM     23  H   UNL     1     127.288 -41.098  34.356  1.00  0.00     0.293 HD
ENDBRANCH   2  22
BRANCH   6  24
ATOM     24  O   UNL     1     127.350 -40.333  29.012  1.00  0.00    -0.507 OA
ATOM     25  H   UNL     1     127.052 -39.885  28.159  1.00  0.00     0.293 HD
ENDBRANCH   6  24
BRANCH   8  26
ATOM     26  O   UNL     1     131.837 -40.851  27.382  1.00  0.00    -0.508 OA
ATOM     27  H   UNL     1     131.520 -40.873  26.420  1.00  0.00     0.293 HD
ENDBRANCH   8  26
TORSDOF 6
ENDMDL
MODEL 6
REMARK VINA RESULT:    -5.010      5.677      7.676
REMARK INTER + INTRA:          -6.258
REMARK INTER:                  -5.946
REMARK INTRA:                  -0.312
REMARK UNBOUND:                -0.223
REMARK SMILES O=c1c(O)c(-c2ccc(O)c(O)c2)oc2cc(O)cc(O)c12
REMARK SMILES IDX 5 1 3 2 2 3 1 4 22 5 20 6 19 7 17 8 16 9 15 10 14 11 6 12
REMARK SMILES IDX 7 13 8 14 9 15 13 16 11 17 10 18 12 20 4 22 21 24 18 26
REMARK H PARENT 10 19 12 21 4 23 21 25 18 27
REMARK Flexibility Score: inf
ROOT
ATOM      1  C   UNL     1     133.436 -41.118  27.646  1.00  0.00     0.180 A 
ATOM      2  C   UNL     1     132.450 -41.823  26.934  1.00  0.00     0.208 A 
ATOM      3  C   UNL     1     131.100 -41.641  27.277  1.00  0.00     0.238 A 
ATOM      4  O   UNL     1     130.220 -42.232  26.601  1.00  0.00    -0.285 OA
ATOM      5  C   UNL     1     130.755 -40.770  28.338  1.00  0.00     0.111 A 
ATOM      6  C   UNL     1     129.424 -40.540  28.798  1.00  0.00     0.134 A 
ATOM      7  C   UNL     1     129.188 -39.558  29.768  1.00  0.00     0.093 A 
ATOM      8  C   UNL     1     130.242 -38.844  30.342  1.00  0.00     0.123 A 
ATOM      9  C   UNL     1     131.551 -39.103  29.943  1.00  0.00     0.094 A 
ATOM     10  C   UNL     1     131.815 -40.051  28.950  1.00  0.00     0.146 A 
ATOM     11  O   UNL     1     133.076 -40.259  28.592  1.00  0.00    -0.452 OA
ENDROOT
BRANCH   1  12
ATOM     12  C   UNL     1     134.880 -41.277  27.358  1.00  0.00     0.025 A 
ATOM     13  C   UNL     1     135.471 -40.505  26.346  1.00  0.00     0.016 A 
ATOM     14  C   UNL     1     136.836 -40.623  26.072  1.00  0.00     0.051 A 
ATOM     15  C   UNL     1     137.633 -41.502  26.817  1.00  0.00     0.157 A 
ATOM     16  C   UNL     1     135.687 -42.143  28.118  1.00  0.00     0.062 A 
ATOM     17  C   UNL     1     137.058 -42.261  27.844  1.00  0.00     0.158 A 
BRANCH  15  18
ATOM     18  O   UNL     1     138.994 -41.624  26.545  1.00  0.00    -0.504 OA
ATOM     19  H   UNL     1     139.597 -42.209  27.114  1.00  0.00     0.293 HD
ENDBRANCH  15  18
BRANCH  17  20
ATOM     20  O   UNL     1     137.855 -43.124  28.593  1.00  0.00    -0.504 OA
ATOM     21  H   UNL     1     137.688 -43.279  29.581  1.00  0.00     0.293 HD
ENDBRANCH  17  20
ENDBRANCH   1  12
BRANCH   2  22
ATOM     22  O   UNL     1     132.811 -42.661  25.875  1.00  0.00    -0.502 OA
ATOM     23  H   UNL     1     133.582 -42.451  25.253  1.00  0.00     0.293 HD
ENDBRANCH   2  22
BRANCH   6  24
ATOM     24  O   UNL     1     128.311 -41.262  28.358  1.00  0.00    -0.507 OA
ATOM     25  H   UNL     1     127.485 -41.440  28.911  1.00  0.00     0.293 HD
ENDBRANCH   6  24
BRANCH   8  26
ATOM     26  O   UNL     1     130.000 -37.880  31.318  1.00  0.00    -0.508 OA
ATOM     27  H   UNL     1     129.268 -37.997  32.008  1.00  0.00     0.293 HD
ENDBRANCH   8  26
TORSDOF 6
ENDMDL
MODEL 7
REMARK VINA RESULT:    -4.796      4.000      6.459
REMARK INTER + INTRA:          -6.000
REMARK INTER:                  -5.717
REMARK INTRA:                  -0.282
REMARK UNBOUND:                -0.223
REMARK SMILES O=c1c(O)c(-c2ccc(O)c(O)c2)oc2cc(O)cc(O)c12
REMARK SMILES IDX 5 1 3 2 2 3 1 4 22 5 20 6 19 7 17 8 16 9 15 10 14 11 6 12
REMARK SMILES IDX 7 13 8 14 9 15 13 16 11 17 10 18 12 20 4 22 21 24 18 26
REMARK H PARENT 10 19 12 21 4 23 21 25 18 27
REMARK Flexibility Score: inf
ROOT
ATOM      1  C   UNL     1     131.102 -41.327  29.228  1.00  0.00     0.180 A 
ATOM      2  C   UNL     1     129.893 -41.954  28.876  1.00  0.00     0.208 A 
ATOM      3  C   UNL     1     128.739 -41.677  29.627  1.00  0.00     0.238 A 
ATOM      4  O   UNL     1     127.650 -42.198  29.275  1.00  0.00    -0.285 OA
ATOM      5  C   UNL     1     128.811 -40.791  30.729  1.00  0.00     0.111 A 
ATOM      6  C   UNL     1     127.715 -40.469  31.583  1.00  0.00     0.134 A 
ATOM      7  C   UNL     1     127.869 -39.480  32.563  1.00  0.00     0.093 A 
ATOM      8  C   UNL     1     129.099 -38.848  32.761  1.00  0.00     0.123 A 
ATOM      9  C   UNL     1     130.192 -39.197  31.971  1.00  0.00     0.094 A 
ATOM     10  C   UNL     1     130.059 -40.155  30.961  1.00  0.00     0.146 A 
ATOM     11  O   UNL     1     131.123 -40.450  30.224  1.00  0.00    -0.452 OA
ENDROOT
BRANCH   1  12
ATOM     12  C   UNL     1     132.364 -41.587  28.498  1.00  0.00     0.025 A 
ATOM     13  C   UNL     1     133.065 -42.781  28.735  1.00  0.00     0.016 A 
ATOM     14  C   UNL     1     134.246 -43.057  28.042  1.00  0.00     0.051 A 
ATOM     15  C   UNL     1     134.736 -42.152  27.092  1.00  0.00     0.157 A 
ATOM     16  C   UNL     1     132.847 -40.691  27.528  1.00  0.00     0.062 A 
ATOM     17  C   UNL     1     134.033 -40.968  26.831  1.00  0.00     0.158 A 
BRANCH  15  18
ATOM     18  O   UNL     1     135.915 -42.422  26.400  1.00  0.00    -0.504 OA
ATOM     19  H   UNL     1     136.779 -41.938  26.618  1.00  0.00     0.293 HD
ENDBRANCH  15  18
BRANCH  17  20
ATOM     20  O   UNL     1     134.514 -40.076  25.875  1.00  0.00    -0.504 OA
ATOM     21  H   UNL     1     135.463 -39.722  25.909  1.00  0.00     0.293 HD
ENDBRANCH  17  20
ENDBRANCH   1  12
BRANCH   2  22
ATOM     22  O   UNL     1     129.839 -42.808  27.772  1.00  0.00    -0.502 OA
ATOM     23  H   UNL     1     129.991 -42.483  26.825  1.00  0.00     0.293 HD
ENDBRANCH   2  22
BRANCH   6  24
ATOM     24  O   UNL     1     126.472 -41.106  31.531  1.00  0.00    -0.507 OA
ATOM     25  H   UNL     1     126.146 -41.787  32.201  1.00  0.00     0.293 HD
ENDBRANCH   6  24
BRANCH   8  26
ATOM     26  O   UNL     1     129.248 -37.875  33.747  1.00  0.00    -0.508 OA
ATOM     27  H   UNL     1     129.605 -38.105  34.667  1.00  0.00     0.293 HD
ENDBRANCH   8  26
TORSDOF 6
ENDMDL
MODEL 8
REMARK VINA RESULT:    -3.263      1.180      2.819
REMARK INTER + INTRA:          -4.153
REMARK INTER:                  -3.854
REMARK INTRA:                  -0.299
REMARK UNBOUND:                -0.223
REMARK SMILES O=c1c(O)c(-c2ccc(O)c(O)c2)oc2cc(O)cc(O)c12
REMARK SMILES IDX 5 1 3 2 2 3 1 4 22 5 20 6 19 7 17 8 16 9 15 10 14 11 6 12
REMARK SMILES IDX 7 13 8 14 9 15 13 16 11 17 10 18 12 20 4 22 21 24 18 26
REMARK H PARENT 10 19 12 21 4 23 21 25 18 27
REMARK Flexibility Score: inf
ROOT
ATOM      1  C   UNL     1     130.238 -40.855  33.379  1.00  0.00     0.180 A 
ATOM      2  C   UNL     1     130.678 -39.651  32.801  1.00  0.00     0.208 A 
ATOM      3  C   UNL     1     130.004 -39.150  31.675  1.00  0.00     0.238 A 
ATOM      4  O   UNL     1     130.368 -38.046  31.195  1.00  0.00    -0.285 OA
ATOM      5  C   UNL     1     128.910 -39.867  31.132  1.00  0.00     0.111 A 
ATOM      6  C   UNL     1     128.180 -39.474  29.971  1.00  0.00     0.134 A 
ATOM      7  C   UNL     1     127.034 -40.189  29.600  1.00  0.00     0.093 A 
ATOM      8  C   UNL     1     126.631 -41.322  30.312  1.00  0.00     0.123 A 
ATOM      9  C   UNL     1     127.371 -41.748  31.412  1.00  0.00     0.094 A 
ATOM     10  C   UNL     1     128.498 -41.033  31.827  1.00  0.00     0.146 A 
ATOM     11  O   UNL     1     129.168 -41.468  32.888  1.00  0.00    -0.452 OA
ENDROOT
BRANCH   1  12
ATOM     12  C   UNL     1     130.912 -41.457  34.552  1.00  0.00     0.025 A 
ATOM     13  C   UNL     1     132.095 -42.190  34.368  1.00  0.00     0.016 A 
ATOM     14  C   UNL     1     132.760 -42.748  35.463  1.00  0.00     0.051 A 
ATOM     15  C   UNL     1     132.260 -42.568  36.759  1.00  0.00     0.157 A 
ATOM     16  C   UNL     1     130.426 -41.260  35.857  1.00  0.00     0.062 A 
ATOM     17  C   UNL     1     131.093 -41.819  36.958  1.00  0.00     0.158 A 
BRANCH  15  18
ATOM     18  O   UNL     1     132.919 -43.125  37.854  1.00  0.00    -0.504 OA
ATOM     19  H   UNL     1     133.673 -42.637  38.323  1.00  0.00     0.293 HD
ENDBRANCH  15  18
BRANCH  17  20
ATOM     20  O   UNL     1     130.606 -41.630  38.249  1.00  0.00    -0.504 OA
ATOM     21  H   UNL     1     131.024 -40.957  38.881  1.00  0.00     0.293 HD
ENDBRANCH  17  20
ENDBRANCH   1  12
BRANCH   2  22
ATOM     22  O   UNL     1     131.746 -38.948  33.366  1.00  0.00    -0.502 OA
ATOM     23  H   UNL     1     132.000 -39.037  34.342  1.00  0.00     0.293 HD
ENDBRANCH   2  22
BRANCH   6  24
ATOM     24  O   UNL     1     128.551 -38.415  29.137  1.00  0.00    -0.507 OA
ATOM     25  H   UNL     1     128.487 -37.439  29.385  1.00  0.00     0.293 HD
ENDBRANCH   6  24
BRANCH   8  26
ATOM     26  O   UNL     1     125.498 -42.036  29.928  1.00  0.00    -0.508 OA
ATOM     27  H   UNL     1     124.927 -41.742  29.144  1.00  0.00     0.293 HD
ENDBRANCH   8  26
TORSDOF 6
ENDMDL
