MODEL 1
REMARK VINA RESULT:    -3.345      0.000      0.000
REMARK INTER + INTRA:         -10.949
REMARK INTER:                  -7.646
REMARK INTRA:                  -3.303
REMARK UNBOUND:                -3.303
REMARK SMILES CCCCCCCCCCCCCCCCCCCCCCCC(=O)[O-]
REMARK SMILES IDX 13 1 14 2 15 3 16 4 17 5 18 6 19 7 20 8 21 9 22 10 23 11
REMARK SMILES IDX 24 12 25 13 26 14 12 15 11 16 10 17 9 18 8 19 7 20 6 21 5 22
REMARK SMILES IDX 4 23 3 24 2 25 1 26
REMARK H PARENT
REMARK Flexibility Score: inf
ROOT
ATOM      1  C   UNL     1     -99.241 -38.970  90.615  1.00  0.00     0.000 C 
ENDROOT
BRANCH   1   2
ATOM      2  C   UNL     1     -98.528 -40.128  89.898  1.00  0.00     0.000 C 
BRANCH   2   3
ATOM      3  C   UNL     1     -97.231 -39.679  89.204  1.00  0.00     0.000 C 
BRANCH   3   4
ATOM      4  C   UNL     1     -97.183 -40.095  87.722  1.00  0.00     0.000 C 
BRANCH   4   5
ATOM      5  C   UNL     1     -97.474 -41.590  87.521  1.00  0.00     0.000 C 
BRANCH   5   6
ATOM      6  C   UNL     1     -96.228 -42.465  87.730  1.00  0.00     0.000 C 
BRANCH   6   7
ATOM      7  C   UNL     1     -96.601 -43.817  88.348  1.00  0.00     0.000 C 
BRANCH   7   8
ATOM      8  C   UNL     1     -97.104 -43.643  89.788  1.00  0.00     0.000 C 
BRANCH   8   9
ATOM      9  C   UNL     1     -96.097 -42.910  90.693  1.00  0.00     0.000 C 
BRANCH   9  10
ATOM     10  C   UNL     1     -96.618 -42.561  92.099  1.00  0.00     0.006 C 
BRANCH  10  11
ATOM     11  C   UNL     1     -96.110 -41.206  92.608  1.00  0.00     0.053 C 
BRANCH  11  12
ATOM     12  C   UNL     1     -95.870 -41.249  94.085  1.00  0.00     0.041 C 
ATOM     13  O   UNL     1     -95.332 -40.272  94.669  1.00  0.00    -0.550 OA
ATOM     14  O   UNL     1     -96.239 -42.371  94.818  1.00  0.00    -0.550 OA
ENDBRANCH  11  12
ENDBRANCH  10  11
ENDBRANCH   9  10
ENDBRANCH   8   9
ENDBRANCH   7   8
ENDBRANCH   6   7
ENDBRANCH   5   6
ENDBRANCH   4   5
ENDBRANCH   3   4
ENDBRANCH   2   3
ENDBRANCH   1   2
BRANCH   1  15
ATOM     15  C   UNL     1     -99.650 -39.325  92.063  1.00  0.00     0.000 C 
BRANCH  15  16
ATOM     16  C   UNL     1     -99.837 -40.835  92.299  1.00  0.00     0.000 C 
BRANCH  16  17
ATOM     17  C   UNL     1     -99.787 -41.264  93.776  1.00  0.00     0.000 C 
BRANCH  17  18
ATOM     18  C   UNL     1     -99.308 -40.147  94.731  1.00  0.00    -0.000 C 
BRANCH  18  19
ATOM     19  C   UNL     1    -100.320 -39.842  95.849  1.00  0.00    -0.000 C 
BRANCH  19  20
ATOM     20  C   UNL     1    -101.103 -38.542  95.600  1.00  0.00    -0.000 C 
BRANCH  20  21
ATOM     21  C   UNL     1    -100.268 -37.284  95.898  1.00  0.00    -0.000 C 
BRANCH  21  22
ATOM     22  C   UNL     1    -100.877 -36.016  95.278  1.00  0.00    -0.000 C 
BRANCH  22  23
ATOM     23  C   UNL     1    -100.366 -35.758  93.851  1.00  0.00    -0.000 C 
BRANCH  23  24
ATOM     24  C   UNL     1    -101.413 -36.093  92.776  1.00  0.00    -0.000 C 
BRANCH  24  25
ATOM     25  C   UNL     1    -102.744 -35.333  92.955  1.00  0.00    -0.003 C 
ATOM     26  C   UNL     1    -102.536 -33.828  93.122  1.00  0.00     0.004 C 
ENDBRANCH  24  25
ENDBRANCH  23  24
ENDBRANCH  22  23
ENDBRANCH  21  22
ENDBRANCH  20  21
ENDBRANCH  19  20
ENDBRANCH  18  19
ENDBRANCH  17  18
ENDBRANCH  16  17
ENDBRANCH  15  16
ENDBRANCH   1  15
TORSDOF 22
ENDMDL
MODEL 2
REMARK VINA RESULT:    -3.309     13.577     17.179
REMARK INTER + INTRA:         -10.869
REMARK INTER:                  -6.154
REMARK INTRA:                  -4.715
REMARK UNBOUND:                -3.303
REMARK SMILES CCCCCCCCCCCCCCCCCCCCCCCC(=O)[O-]
REMARK SMILES IDX 13 1 14 2 15 3 16 4 17 5 18 6 19 7 20 8 21 9 22 10 23 11
REMARK SMILES IDX 24 12 25 13 26 14 12 15 11 16 10 17 9 18 8 19 7 20 6 21 5 22
REMARK SMILES IDX 4 23 3 24 2 25 1 26
REMARK H PARENT
REMARK Flexibility Score: inf
ROOT
ATOM      1  C   UNL     1    -100.719 -27.262  80.289  1.00  0.00     0.000 C 
ENDROOT
BRANCH   1   2
ATOM      2  C   UNL     1    -101.227 -25.843  80.592  1.00  0.00     0.000 C 
BRANCH   2   3
ATOM      3  C   UNL     1    -100.079 -24.844  80.814  1.00  0.00     0.000 C 
BRANCH   3   4
ATOM      4  C   UNL     1    -100.212 -24.080  82.145  1.00  0.00     0.000 C 
BRANCH   4   5
ATOM      5  C   UNL     1     -98.931 -24.144  82.990  1.00  0.00     0.000 C 
BRANCH   5   6
ATOM      6  C   UNL     1     -99.191 -24.665  84.412  1.00  0.00     0.000 C 
BRANCH   6   7
ATOM      7  C   UNL     1     -99.746 -26.093  84.382  1.00  0.00     0.000 C 
BRANCH   7   8
ATOM      8  C   UNL     1    -101.089 -26.177  85.122  1.00  0.00     0.000 C 
BRANCH   8   9
ATOM      9  C   UNL     1    -102.292 -26.312  84.171  1.00  0.00     0.000 C 
BRANCH   9  10
ATOM     10  C   UNL     1    -102.614 -27.750  83.727  1.00  0.00     0.006 C 
BRANCH  10  11
ATOM     11  C   UNL     1    -102.150 -28.808  84.737  1.00  0.00     0.053 C 
BRANCH  11  12
ATOM     12  C   UNL     1    -101.224 -29.790  84.090  1.00  0.00     0.041 C 
ATOM     13  O   UNL     1    -100.088 -30.012  84.585  1.00  0.00    -0.550 OA
ATOM     14  O   UNL     1    -101.616 -30.462  82.937  1.00  0.00    -0.550 OA
ENDBRANCH  11  12
ENDBRANCH  10  11
ENDBRANCH   9  10
ENDBRANCH   8   9
ENDBRANCH   7   8
ENDBRANCH   6   7
ENDBRANCH   5   6
ENDBRANCH   4   5
ENDBRANCH   3   4
ENDBRANCH   2   3
ENDBRANCH   1   2
BRANCH   1  15
ATOM     15  C   UNL     1     -99.709 -27.773  81.342  1.00  0.00     0.000 C 
BRANCH  15  16
ATOM     16  C   UNL     1     -98.971 -29.056  80.918  1.00  0.00     0.000 C 
BRANCH  16  17
ATOM     17  C   UNL     1     -98.847 -29.253  79.397  1.00  0.00     0.000 C 
BRANCH  17  18
ATOM     18  C   UNL     1     -97.390 -29.427  78.910  1.00  0.00    -0.000 C 
BRANCH  18  19
ATOM     19  C   UNL     1     -96.431 -28.386  79.511  1.00  0.00    -0.000 C 
BRANCH  19  20
ATOM     20  C   UNL     1     -96.793 -26.947  79.109  1.00  0.00    -0.000 C 
BRANCH  20  21
ATOM     21  C   UNL     1     -96.704 -25.963  80.290  1.00  0.00    -0.000 C 
BRANCH  21  22
ATOM     22  C   UNL     1     -95.694 -26.417  81.356  1.00  0.00    -0.000 C 
BRANCH  22  23
ATOM     23  C   UNL     1     -96.359 -26.680  82.717  1.00  0.00    -0.000 C 
BRANCH  23  24
ATOM     24  C   UNL     1     -96.167 -28.126  83.202  1.00  0.00    -0.000 C 
BRANCH  24  25
ATOM     25  C   UNL     1     -96.890 -28.430  84.531  1.00  0.00    -0.003 C 
ATOM     26  C   UNL     1     -96.104 -29.401  85.412  1.00  0.00     0.004 C 
ENDBRANCH  24  25
ENDBRANCH  23  24
ENDBRANCH  22  23
ENDBRANCH  21  22
ENDBRANCH  20  21
ENDBRANCH  19  20
ENDBRANCH  18  19
ENDBRANCH  17  18
ENDBRANCH  16  17
ENDBRANCH  15  16
ENDBRANCH   1  15
TORSDOF 22
ENDMDL
MODEL 3
REMARK VINA RESULT:    -3.265     14.089     17.578
REMARK INTER + INTRA:         -10.766
REMARK INTER:                  -6.008
REMARK INTRA:                  -4.759
REMARK UNBOUND:                -3.303
REMARK SMILES CCCCCCCCCCCCCCCCCCCCCCCC(=O)[O-]
REMARK SMILES IDX 13 1 14 2 15 3 16 4 17 5 18 6 19 7 20 8 21 9 22 10 23 11
REMARK SMILES IDX 24 12 25 13 26 14 12 15 11 16 10 17 9 18 8 19 7 20 6 21 5 22
REMARK SMILES IDX 4 23 3 24 2 25 1 26
REMARK H PARENT
REMARK Flexibility Score: inf
ROOT
ATOM      1  C   UNL     1     -96.925 -27.875  83.529  1.00  0.00     0.000 C 
ENDROOT
BRANCH   1   2
ATOM      2  C   UNL     1     -97.345 -26.566  84.218  1.00  0.00     0.000 C 
BRANCH   2   3
ATOM      3  C   UNL     1     -98.774 -26.632  84.783  1.00  0.00     0.000 C 
BRANCH   3   4
ATOM      4  C   UNL     1     -99.756 -25.736  84.006  1.00  0.00     0.000 C 
BRANCH   4   5
ATOM      5  C   UNL     1     -99.038 -24.712  83.113  1.00  0.00     0.000 C 
BRANCH   5   6
ATOM      6  C   UNL     1     -99.370 -24.895  81.624  1.00  0.00     0.000 C 
BRANCH   6   7
ATOM      7  C   UNL     1    -100.236 -26.141  81.402  1.00  0.00     0.000 C 
BRANCH   7   8
ATOM      8  C   UNL     1     -99.418 -27.272  80.764  1.00  0.00     0.000 C 
BRANCH   8   9
ATOM      9  C   UNL     1     -99.660 -28.640  81.428  1.00  0.00     0.000 C 
BRANCH   9  10
ATOM     10  C   UNL     1    -101.133 -28.964  81.733  1.00  0.00     0.006 C 
BRANCH  10  11
ATOM     11  C   UNL     1    -101.299 -30.106  82.746  1.00  0.00     0.053 C 
BRANCH  11  12
ATOM     12  C   UNL     1    -100.958 -29.644  84.128  1.00  0.00     0.041 C 
ATOM     13  O   UNL     1     -99.963 -30.126  84.731  1.00  0.00    -0.550 OA
ATOM     14  O   UNL     1    -101.741 -28.680  84.753  1.00  0.00    -0.550 OA
ENDBRANCH  11  12
ENDBRANCH  10  11
ENDBRANCH   9  10
ENDBRANCH   8   9
ENDBRANCH   7   8
ENDBRANCH   6   7
ENDBRANCH   5   6
ENDBRANCH   4   5
ENDBRANCH   3   4
ENDBRANCH   2   3
ENDBRANCH   1   2
BRANCH   1  15
ATOM     15  C   UNL     1     -96.085 -27.635  82.254  1.00  0.00     0.000 C 
BRANCH  15  16
ATOM     16  C   UNL     1     -95.914 -26.147  81.897  1.00  0.00     0.000 C 
BRANCH  16  17
ATOM     17  C   UNL     1     -94.636 -25.820  81.105  1.00  0.00     0.000 C 
BRANCH  17  18
ATOM     18  C   UNL     1     -94.863 -25.710  79.580  1.00  0.00    -0.000 C 
BRANCH  18  19
ATOM     19  C   UNL     1     -96.350 -25.593  79.204  1.00  0.00    -0.000 C 
BRANCH  19  20
ATOM     20  C   UNL     1     -96.810 -26.714  78.257  1.00  0.00    -0.000 C 
BRANCH  20  21
ATOM     21  C   UNL     1     -95.972 -27.996  78.406  1.00  0.00    -0.000 C 
BRANCH  21  22
ATOM     22  C   UNL     1     -96.779 -29.158  79.007  1.00  0.00    -0.000 C 
BRANCH  22  23
ATOM     23  C   UNL     1     -97.599 -29.911  77.946  1.00  0.00    -0.000 C 
BRANCH  23  24
ATOM     24  C   UNL     1     -98.736 -30.746  78.557  1.00  0.00    -0.000 C 
BRANCH  24  25
ATOM     25  C   UNL     1    -100.144 -30.237  78.182  1.00  0.00    -0.003 C 
ATOM     26  C   UNL     1    -101.250 -31.164  78.684  1.00  0.00     0.004 C 
ENDBRANCH  24  25
ENDBRANCH  23  24
ENDBRANCH  22  23
ENDBRANCH  21  22
ENDBRANCH  20  21
ENDBRANCH  19  20
ENDBRANCH  18  19
ENDBRANCH  17  18
ENDBRANCH  16  17
ENDBRANCH  15  16
ENDBRANCH   1  15
TORSDOF 22
ENDMDL
MODEL 4
REMARK VINA RESULT:    -3.228      1.535      2.264
REMARK INTER + INTRA:         -10.683
REMARK INTER:                  -7.311
REMARK INTRA:                  -3.372
REMARK UNBOUND:                -3.303
REMARK SMILES CCCCCCCCCCCCCCCCCCCCCCCC(=O)[O-]
REMARK SMILES IDX 13 1 14 2 15 3 16 4 17 5 18 6 19 7 20 8 21 9 22 10 23 11
REMARK SMILES IDX 24 12 25 13 26 14 12 15 11 16 10 17 9 18 8 19 7 20 6 21 5 22
REMARK SMILES IDX 4 23 3 24 2 25 1 26
REMARK H PARENT
REMARK Flexibility Score: inf
ROOT
ATOM      1  C   UNL     1     -99.123 -39.112  90.549  1.00  0.00     0.000 C 
ENDROOT
BRANCH   1   2
ATOM      2  C   UNL     1     -98.535 -40.259  89.711  1.00  0.00     0.000 C 
BRANCH   2   3
ATOM      3  C   UNL     1     -97.417 -39.783  88.768  1.00  0.00     0.000 C 
BRANCH   3   4
ATOM      4  C   UNL     1     -97.243 -40.707  87.548  1.00  0.00     0.000 C 
BRANCH   4   5
ATOM      5  C   UNL     1     -96.206 -41.814  87.792  1.00  0.00     0.000 C 
BRANCH   5   6
ATOM      6  C   UNL     1     -96.836 -43.215  87.810  1.00  0.00     0.000 C 
BRANCH   6   7
ATOM      7  C   UNL     1     -97.063 -43.699  89.246  1.00  0.00     0.000 C 
BRANCH   7   8
ATOM      8  C   UNL     1     -96.072 -43.036  90.213  1.00  0.00     0.000 C 
BRANCH   8   9
ATOM      9  C   UNL     1     -96.705 -42.674  91.570  1.00  0.00     0.000 C 
BRANCH   9  10
ATOM     10  C   UNL     1     -96.174 -41.381  92.213  1.00  0.00     0.006 C 
BRANCH  10  11
ATOM     11  C   UNL     1     -96.655 -41.187  93.657  1.00  0.00     0.053 C 
BRANCH  11  12
ATOM     12  C   UNL     1     -95.546 -41.452  94.627  1.00  0.00     0.041 C 
ATOM     13  O   UNL     1     -94.675 -42.324  94.372  1.00  0.00    -0.550 OA
ATOM     14  O   UNL     1     -95.475 -40.735  95.816  1.00  0.00    -0.550 OA
ENDBRANCH  11  12
ENDBRANCH  10  11
ENDBRANCH   9  10
ENDBRANCH   8   9
ENDBRANCH   7   8
ENDBRANCH   6   7
ENDBRANCH   5   6
ENDBRANCH   4   5
ENDBRANCH   3   4
ENDBRANCH   2   3
ENDBRANCH   1   2
BRANCH   1  15
ATOM     15  C   UNL     1     -99.476 -39.547  91.990  1.00  0.00     0.000 C 
BRANCH  15  16
ATOM     16  C   UNL     1    -100.989 -39.697  92.236  1.00  0.00     0.000 C 
BRANCH  16  17
ATOM     17  C   UNL     1    -101.426 -39.480  93.696  1.00  0.00     0.000 C 
BRANCH  17  18
ATOM     18  C   UNL     1    -100.385 -38.719  94.549  1.00  0.00    -0.000 C 
BRANCH  18  19
ATOM     19  C   UNL     1    -100.824 -37.284  94.886  1.00  0.00    -0.000 C 
BRANCH  19  20
ATOM     20  C   UNL     1    -100.347 -36.259  93.844  1.00  0.00    -0.000 C 
BRANCH  20  21
ATOM     21  C   UNL     1    -101.513 -35.507  93.177  1.00  0.00    -0.000 C 
BRANCH  21  22
ATOM     22  C   UNL     1    -102.885 -36.012  93.651  1.00  0.00    -0.000 C 
BRANCH  22  23
ATOM     23  C   UNL     1    -103.644 -36.766  92.547  1.00  0.00    -0.000 C 
BRANCH  23  24
ATOM     24  C   UNL     1    -102.942 -36.686  91.182  1.00  0.00    -0.000 C 
BRANCH  24  25
ATOM     25  C   UNL     1    -103.618 -37.543  90.091  1.00  0.00    -0.003 C 
ATOM     26  C   UNL     1    -104.239 -38.820  90.656  1.00  0.00     0.004 C 
ENDBRANCH  24  25
ENDBRANCH  23  24
ENDBRANCH  22  23
ENDBRANCH  21  22
ENDBRANCH  20  21
ENDBRANCH  19  20
ENDBRANCH  18  19
ENDBRANCH  17  18
ENDBRANCH  16  17
ENDBRANCH  15  16
ENDBRANCH   1  15
TORSDOF 22
ENDMDL
MODEL 5
REMARK VINA RESULT:    -3.164      3.724      9.420
REMARK INTER + INTRA:         -10.536
REMARK INTER:                  -8.121
REMARK INTRA:                  -2.416
REMARK UNBOUND:                -3.303
REMARK SMILES CCCCCCCCCCCCCCCCCCCCCCCC(=O)[O-]
REMARK SMILES IDX 13 1 14 2 15 3 16 4 17 5 18 6 19 7 20 8 21 9 22 10 23 11
REMARK SMILES IDX 24 12 25 13 26 14 12 15 11 16 10 17 9 18 8 19 7 20 6 21 5 22
REMARK SMILES IDX 4 23 3 24 2 25 1 26
REMARK H PARENT
REMARK Flexibility Score: inf
ROOT
ATOM      1  C   UNL     1     -99.879 -38.955  93.990  1.00  0.00     0.000 C 
ENDROOT
BRANCH   1   2
ATOM      2  C   UNL     1    -100.459 -38.678  92.593  1.00  0.00     0.000 C 
BRANCH   2   3
ATOM      3  C   UNL     1    -100.872 -37.208  92.410  1.00  0.00     0.000 C 
BRANCH   3   4
ATOM      4  C   UNL     1    -100.333 -36.301  93.532  1.00  0.00     0.000 C 
BRANCH   4   5
ATOM      5  C   UNL     1    -101.232 -35.081  93.785  1.00  0.00     0.000 C 
BRANCH   5   6
ATOM      6  C   UNL     1    -101.686 -34.979  95.250  1.00  0.00     0.000 C 
BRANCH   6   7
ATOM      7  C   UNL     1    -103.134 -34.486  95.344  1.00  0.00     0.000 C 
BRANCH   7   8
ATOM      8  C   UNL     1    -103.271 -33.382  96.402  1.00  0.00     0.000 C 
BRANCH   8   9
ATOM      9  C   UNL     1    -101.914 -32.834  96.881  1.00  0.00     0.000 C 
BRANCH   9  10
ATOM     10  C   UNL     1    -101.563 -31.425  96.372  1.00  0.00     0.006 C 
BRANCH  10  11
ATOM     11  C   UNL     1    -102.585 -30.879  95.365  1.00  0.00     0.053 C 
BRANCH  11  12
ATOM     12  C   UNL     1    -102.031 -30.913  93.975  1.00  0.00     0.041 C 
ATOM     13  O   UNL     1    -102.428 -31.783  93.155  1.00  0.00    -0.550 OA
ATOM     14  O   UNL     1    -101.074 -29.984  93.583  1.00  0.00    -0.550 OA
ENDBRANCH  11  12
ENDBRANCH  10  11
ENDBRANCH   9  10
ENDBRANCH   8   9
ENDBRANCH   7   8
ENDBRANCH   6   7
ENDBRANCH   5   6
ENDBRANCH   4   5
ENDBRANCH   3   4
ENDBRANCH   2   3
ENDBRANCH   1   2
BRANCH   1  15
ATOM     15  C   UNL     1     -99.628 -40.458  94.245  1.00  0.00     0.000 C 
BRANCH  15  16
ATOM     16  C   UNL     1     -98.149 -40.802  94.502  1.00  0.00     0.000 C 
BRANCH  16  17
ATOM     17  C   UNL     1     -97.539 -41.800  93.501  1.00  0.00     0.000 C 
BRANCH  17  18
ATOM     18  C   UNL     1     -96.344 -41.227  92.705  1.00  0.00    -0.000 C 
BRANCH  18  19
ATOM     19  C   UNL     1     -96.575 -41.250  91.184  1.00  0.00    -0.000 C 
BRANCH  19  20
ATOM     20  C   UNL     1     -98.066 -41.216  90.811  1.00  0.00    -0.000 C 
BRANCH  20  21
ATOM     21  C   UNL     1     -98.372 -40.214  89.684  1.00  0.00    -0.000 C 
BRANCH  21  22
ATOM     22  C   UNL     1     -97.121 -39.849  88.869  1.00  0.00    -0.000 C 
BRANCH  22  23
ATOM     23  C   UNL     1     -97.083 -40.558  87.505  1.00  0.00    -0.000 C 
BRANCH  23  24
ATOM     24  C   UNL     1     -96.350 -41.908  87.558  1.00  0.00    -0.000 C 
BRANCH  24  25
ATOM     25  C   UNL     1     -97.293 -43.125  87.452  1.00  0.00    -0.003 C 
ATOM     26  C   UNL     1     -98.660 -42.753  86.877  1.00  0.00     0.004 C 
ENDBRANCH  24  25
ENDBRANCH  23  24
ENDBRANCH  22  23
ENDBRANCH  21  22
ENDBRANCH  20  21
ENDBRANCH  19  20
ENDBRANCH  18  19
ENDBRANCH  17  18
ENDBRANCH  16  17
ENDBRANCH  15  16
ENDBRANCH   1  15
TORSDOF 22
ENDMDL
MODEL 6
REMARK VINA RESULT:    -3.156     14.245     17.142
REMARK INTER + INTRA:         -10.519
REMARK INTER:                  -6.280
REMARK INTRA:                  -4.240
REMARK UNBOUND:                -3.303
REMARK SMILES CCCCCCCCCCCCCCCCCCCCCCCC(=O)[O-]
REMARK SMILES IDX 13 1 14 2 15 3 16 4 17 5 18 6 19 7 20 8 21 9 22 10 23 11
REMARK SMILES IDX 24 12 25 13 26 14 12 15 11 16 10 17 9 18 8 19 7 20 6 21 5 22
REMARK SMILES IDX 4 23 3 24 2 25 1 26
REMARK H PARENT
REMARK Flexibility Score: inf
ROOT
ATOM      1  C   UNL     1     -96.143 -28.364  83.795  1.00  0.00     0.000 C 
ENDROOT
BRANCH   1   2
ATOM      2  C   UNL     1     -97.487 -28.270  84.535  1.00  0.00     0.000 C 
BRANCH   2   3
ATOM      3  C   UNL     1     -97.846 -26.825  84.921  1.00  0.00     0.000 C 
BRANCH   3   4
ATOM      4  C   UNL     1     -99.148 -26.344  84.253  1.00  0.00     0.000 C 
BRANCH   4   5
ATOM      5  C   UNL     1     -99.805 -27.433  83.391  1.00  0.00     0.000 C 
BRANCH   5   6
ATOM      6  C   UNL     1    -101.240 -27.750  83.837  1.00  0.00     0.000 C 
BRANCH   6   7
ATOM      7  C   UNL     1    -101.394 -29.236  84.181  1.00  0.00     0.000 C 
BRANCH   7   8
ATOM      8  C   UNL     1    -101.089 -30.117  82.961  1.00  0.00     0.000 C 
BRANCH   8   9
ATOM      9  C   UNL     1    -102.324 -30.368  82.076  1.00  0.00     0.000 C 
BRANCH   9  10
ATOM     10  C   UNL     1    -102.454 -31.801  81.531  1.00  0.00     0.006 C 
BRANCH  10  11
ATOM     11  C   UNL     1    -101.275 -32.214  80.640  1.00  0.00     0.053 C 
BRANCH  11  12
ATOM     12  C   UNL     1    -101.620 -32.051  79.192  1.00  0.00     0.041 C 
ATOM     13  O   UNL     1    -100.724 -31.765  78.355  1.00  0.00    -0.550 OA
ATOM     14  O   UNL     1    -102.933 -32.215  78.767  1.00  0.00    -0.550 OA
ENDBRANCH  11  12
ENDBRANCH  10  11
ENDBRANCH   9  10
ENDBRANCH   8   9
ENDBRANCH   7   8
ENDBRANCH   6   7
ENDBRANCH   5   6
ENDBRANCH   4   5
ENDBRANCH   3   4
ENDBRANCH   2   3
ENDBRANCH   1   2
BRANCH   1  15
ATOM     15  C   UNL     1     -96.261 -28.014  82.295  1.00  0.00     0.000 C 
BRANCH  15  16
ATOM     16  C   UNL     1     -95.838 -26.571  81.962  1.00  0.00     0.000 C 
BRANCH  16  17
ATOM     17  C   UNL     1     -96.911 -25.740  81.235  1.00  0.00     0.000 C 
BRANCH  17  18
ATOM     18  C   UNL     1     -96.625 -25.538  79.729  1.00  0.00    -0.000 C 
BRANCH  18  19
ATOM     19  C   UNL     1     -95.246 -26.073  79.306  1.00  0.00    -0.000 C 
BRANCH  19  20
ATOM     20  C   UNL     1     -95.337 -27.125  78.189  1.00  0.00    -0.000 C 
BRANCH  20  21
ATOM     21  C   UNL     1     -96.660 -27.911  78.223  1.00  0.00    -0.000 C 
BRANCH  21  22
ATOM     22  C   UNL     1     -96.535 -29.238  78.988  1.00  0.00    -0.000 C 
BRANCH  22  23
ATOM     23  C   UNL     1     -97.894 -29.928  79.190  1.00  0.00    -0.000 C 
BRANCH  23  24
ATOM     24  C   UNL     1     -98.756 -29.239  80.261  1.00  0.00    -0.000 C 
BRANCH  24  25
ATOM     25  C   UNL     1    -100.054 -28.619  79.701  1.00  0.00    -0.003 C 
ATOM     26  C   UNL     1    -100.008 -27.092  79.682  1.00  0.00     0.004 C 
ENDBRANCH  24  25
ENDBRANCH  23  24
ENDBRANCH  22  23
ENDBRANCH  21  22
ENDBRANCH  20  21
ENDBRANCH  19  20
ENDBRANCH  18  19
ENDBRANCH  17  18
ENDBRANCH  16  17
ENDBRANCH  15  16
ENDBRANCH   1  15
TORSDOF 22
ENDMDL
MODEL 7
REMARK VINA RESULT:    -3.143      3.233      8.230
REMARK INTER + INTRA:         -10.489
REMARK INTER:                  -7.131
REMARK INTRA:                  -3.358
REMARK UNBOUND:                -3.303
REMARK SMILES CCCCCCCCCCCCCCCCCCCCCCCC(=O)[O-]
REMARK SMILES IDX 13 1 14 2 15 3 16 4 17 5 18 6 19 7 20 8 21 9 22 10 23 11
REMARK SMILES IDX 24 12 25 13 26 14 12 15 11 16 10 17 9 18 8 19 7 20 6 21 5 22
REMARK SMILES IDX 4 23 3 24 2 25 1 26
REMARK H PARENT
REMARK Flexibility Score: inf
ROOT
ATOM      1  C   UNL     1    -100.701 -42.018  91.147  1.00  0.00     0.000 C 
ENDROOT
BRANCH   1   2
ATOM      2  C   UNL     1     -99.952 -41.095  92.122  1.00  0.00     0.000 C 
BRANCH   2   3
ATOM      3  C   UNL     1     -99.426 -39.822  91.438  1.00  0.00     0.000 C 
BRANCH   3   4
ATOM      4  C   UNL     1    -100.017 -38.538  92.051  1.00  0.00     0.000 C 
BRANCH   4   5
ATOM      5  C   UNL     1    -100.538 -38.754  93.480  1.00  0.00     0.000 C 
BRANCH   5   6
ATOM      6  C   UNL     1    -100.984 -37.443  94.147  1.00  0.00     0.000 C 
BRANCH   6   7
ATOM      7  C   UNL     1    -100.523 -36.228  93.335  1.00  0.00     0.000 C 
BRANCH   7   8
ATOM      8  C   UNL     1    -101.585 -35.119  93.354  1.00  0.00     0.000 C 
BRANCH   8   9
ATOM      9  C   UNL     1    -102.929 -35.582  93.945  1.00  0.00     0.000 C 
BRANCH   9  10
ATOM     10  C   UNL     1    -104.080 -35.705  92.931  1.00  0.00     0.006 C 
BRANCH  10  11
ATOM     11  C   UNL     1    -103.693 -35.229  91.524  1.00  0.00     0.053 C 
BRANCH  11  12
ATOM     12  C   UNL     1    -103.722 -36.368  90.552  1.00  0.00     0.041 C 
ATOM     13  O   UNL     1    -102.895 -37.311  90.656  1.00  0.00    -0.550 OA
ATOM     14  O   UNL     1    -104.663 -36.387  89.529  1.00  0.00    -0.550 OA
ENDBRANCH  11  12
ENDBRANCH  10  11
ENDBRANCH   9  10
ENDBRANCH   8   9
ENDBRANCH   7   8
ENDBRANCH   6   7
ENDBRANCH   5   6
ENDBRANCH   4   5
ENDBRANCH   3   4
ENDBRANCH   2   3
ENDBRANCH   1   2
BRANCH   1  15
ATOM     15  C   UNL     1     -99.764 -43.018  90.433  1.00  0.00     0.000 C 
BRANCH  15  16
ATOM     16  C   UNL     1    -100.153 -43.290  88.967  1.00  0.00     0.000 C 
BRANCH  16  17
ATOM     17  C   UNL     1     -98.973 -43.643  88.045  1.00  0.00     0.000 C 
BRANCH  17  18
ATOM     18  C   UNL     1     -98.647 -42.546  87.007  1.00  0.00    -0.000 C 
BRANCH  18  19
ATOM     19  C   UNL     1     -97.357 -41.775  87.336  1.00  0.00    -0.000 C 
BRANCH  19  20
ATOM     20  C   UNL     1     -97.603 -40.585  88.278  1.00  0.00    -0.000 C 
BRANCH  20  21
ATOM     21  C   UNL     1     -96.831 -40.711  89.604  1.00  0.00    -0.000 C 
BRANCH  21  22
ATOM     22  C   UNL     1     -96.167 -42.088  89.767  1.00  0.00    -0.000 C 
BRANCH  22  23
ATOM     23  C   UNL     1     -96.259 -42.615  91.208  1.00  0.00    -0.000 C 
BRANCH  23  24
ATOM     24  C   UNL     1     -96.239 -41.489  92.255  1.00  0.00    -0.000 C 
BRANCH  24  25
ATOM     25  C   UNL     1     -96.669 -41.951  93.664  1.00  0.00    -0.003 C 
ATOM     26  C   UNL     1     -97.197 -40.798  94.517  1.00  0.00     0.004 C 
ENDBRANCH  24  25
ENDBRANCH  23  24
ENDBRANCH  22  23
ENDBRANCH  21  22
ENDBRANCH  20  21
ENDBRANCH  19  20
ENDBRANCH  18  19
ENDBRANCH  17  18
ENDBRANCH  16  17
ENDBRANCH  15  16
ENDBRANCH   1  15
TORSDOF 22
ENDMDL
MODEL 8
REMARK VINA RESULT:    -3.124      1.867      3.565
REMARK INTER + INTRA:         -10.446
REMARK INTER:                  -5.880
REMARK INTRA:                  -4.566
REMARK UNBOUND:                -3.303
REMARK SMILES CCCCCCCCCCCCCCCCCCCCCCCC(=O)[O-]
REMARK SMILES IDX 13 1 14 2 15 3 16 4 17 5 18 6 19 7 20 8 21 9 22 10 23 11
REMARK SMILES IDX 24 12 25 13 26 14 12 15 11 16 10 17 9 18 8 19 7 20 6 21 5 22
REMARK SMILES IDX 4 23 3 24 2 25 1 26
REMARK H PARENT
REMARK Flexibility Score: inf
ROOT
ATOM      1  C   UNL     1    -100.119 -39.177  91.693  1.00  0.00     0.000 C 
ENDROOT
BRANCH   1   2
ATOM      2  C   UNL     1     -99.439 -39.991  92.806  1.00  0.00     0.000 C 
BRANCH   2   3
ATOM      3  C   UNL     1     -99.849 -41.473  92.784  1.00  0.00     0.000 C 
BRANCH   3   4
ATOM      4  C   UNL     1    -100.421 -41.905  91.421  1.00  0.00     0.000 C 
BRANCH   4   5
ATOM      5  C   UNL     1     -99.413 -42.710  90.588  1.00  0.00     0.000 C 
BRANCH   5   6
ATOM      6  C   UNL     1     -98.755 -41.867  89.485  1.00  0.00     0.000 C 
BRANCH   6   7
ATOM      7  C   UNL     1     -97.230 -42.020  89.511  1.00  0.00     0.000 C 
BRANCH   7   8
ATOM      8  C   UNL     1     -96.609 -41.155  90.618  1.00  0.00     0.000 C 
BRANCH   8   9
ATOM      9  C   UNL     1     -96.171 -41.973  91.846  1.00  0.00     0.000 C 
BRANCH   9  10
ATOM     10  C   UNL     1     -95.998 -41.161  93.142  1.00  0.00     0.006 C 
BRANCH  10  11
ATOM     11  C   UNL     1     -96.611 -41.849  94.368  1.00  0.00     0.053 C 
BRANCH  11  12
ATOM     12  C   UNL     1     -96.501 -40.975  95.579  1.00  0.00     0.041 C 
ATOM     13  O   UNL     1     -97.515 -40.374  96.022  1.00  0.00    -0.550 OA
ATOM     14  O   UNL     1     -95.276 -40.822  96.218  1.00  0.00    -0.550 OA
ENDBRANCH  11  12
ENDBRANCH  10  11
ENDBRANCH   9  10
ENDBRANCH   8   9
ENDBRANCH   7   8
ENDBRANCH   6   7
ENDBRANCH   5   6
ENDBRANCH   4   5
ENDBRANCH   3   4
ENDBRANCH   2   3
ENDBRANCH   1   2
BRANCH   1  15
ATOM     15  C   UNL     1    -100.209 -37.670  92.025  1.00  0.00     0.000 C 
BRANCH  15  16
ATOM     16  C   UNL     1    -101.649 -37.125  92.036  1.00  0.00     0.000 C 
BRANCH  16  17
ATOM     17  C   UNL     1    -101.839 -35.831  92.847  1.00  0.00     0.000 C 
BRANCH  17  18
ATOM     18  C   UNL     1    -100.660 -35.514  93.796  1.00  0.00    -0.000 C 
BRANCH  18  19
ATOM     19  C   UNL     1    -100.958 -35.875  95.261  1.00  0.00    -0.000 C 
BRANCH  19  20
ATOM     20  C   UNL     1    -100.291 -37.191  95.694  1.00  0.00    -0.000 C 
BRANCH  20  21
ATOM     21  C   UNL     1    -101.257 -38.388  95.647  1.00  0.00    -0.000 C 
BRANCH  21  22
ATOM     22  C   UNL     1    -102.729 -37.958  95.759  1.00  0.00    -0.000 C 
BRANCH  22  23
ATOM     23  C   UNL     1    -103.648 -38.773  94.834  1.00  0.00    -0.000 C 
BRANCH  23  24
ATOM     24  C   UNL     1    -102.930 -39.966  94.183  1.00  0.00    -0.000 C 
BRANCH  24  25
ATOM     25  C   UNL     1    -103.491 -40.339  92.795  1.00  0.00    -0.003 C 
ATOM     26  C   UNL     1    -104.551 -39.350  92.311  1.00  0.00     0.004 C 
ENDBRANCH  24  25
ENDBRANCH  23  24
ENDBRANCH  22  23
ENDBRANCH  21  22
ENDBRANCH  20  21
ENDBRANCH  19  20
ENDBRANCH  18  19
ENDBRANCH  17  18
ENDBRANCH  16  17
ENDBRANCH  15  16
ENDBRANCH   1  15
TORSDOF 22
ENDMDL
MODEL 9
REMARK VINA RESULT:    -3.111     14.439     17.217
REMARK INTER + INTRA:         -10.415
REMARK INTER:                  -5.417
REMARK INTRA:                  -4.997
REMARK UNBOUND:                -3.303
REMARK SMILES CCCCCCCCCCCCCCCCCCCCCCCC(=O)[O-]
REMARK SMILES IDX 13 1 14 2 15 3 16 4 17 5 18 6 19 7 20 8 21 9 22 10 23 11
REMARK SMILES IDX 24 12 25 13 26 14 12 15 11 16 10 17 9 18 8 19 7 20 6 21 5 22
REMARK SMILES IDX 4 23 3 24 2 25 1 26
REMARK H PARENT
REMARK Flexibility Score: inf
ROOT
ATOM      1  C   UNL     1     -97.250 -27.991  84.553  1.00  0.00     0.000 C 
ENDROOT
BRANCH   1   2
ATOM      2  C   UNL     1     -96.362 -28.358  83.352  1.00  0.00     0.000 C 
BRANCH   2   3
ATOM      3  C   UNL     1     -97.023 -28.015  82.007  1.00  0.00     0.000 C 
BRANCH   3   4
ATOM      4  C   UNL     1     -96.048 -27.331  81.030  1.00  0.00     0.000 C 
BRANCH   4   5
ATOM      5  C   UNL     1     -95.762 -25.870  81.410  1.00  0.00     0.000 C 
BRANCH   5   6
ATOM      6  C   UNL     1     -96.034 -24.898  80.252  1.00  0.00     0.000 C 
BRANCH   6   7
ATOM      7  C   UNL     1     -96.306 -25.656  78.948  1.00  0.00     0.000 C 
BRANCH   7   8
ATOM      8  C   UNL     1     -97.627 -25.199  78.312  1.00  0.00     0.000 C 
BRANCH   8   9
ATOM      9  C   UNL     1     -98.635 -26.347  78.127  1.00  0.00     0.000 C 
BRANCH   9  10
ATOM     10  C   UNL     1     -98.010 -27.743  77.952  1.00  0.00     0.006 C 
BRANCH  10  11
ATOM     11  C   UNL     1     -99.055 -28.861  77.852  1.00  0.00     0.053 C 
BRANCH  11  12
ATOM     12  C   UNL     1     -98.471 -30.174  78.271  1.00  0.00     0.041 C 
ATOM     13  O   UNL     1     -98.369 -31.117  77.443  1.00  0.00    -0.550 OA
ATOM     14  O   UNL     1     -98.040 -30.358  79.580  1.00  0.00    -0.550 OA
ENDBRANCH  11  12
ENDBRANCH  10  11
ENDBRANCH   9  10
ENDBRANCH   8   9
ENDBRANCH   7   8
ENDBRANCH   6   7
ENDBRANCH   5   6
ENDBRANCH   4   5
ENDBRANCH   3   4
ENDBRANCH   2   3
ENDBRANCH   1   2
BRANCH   1  15
ATOM     15  C   UNL     1     -97.514 -26.472  84.657  1.00  0.00     0.000 C 
BRANCH  15  16
ATOM     16  C   UNL     1     -98.944 -26.123  85.110  1.00  0.00     0.000 C 
BRANCH  16  17
ATOM     17  C   UNL     1     -99.707 -25.184  84.159  1.00  0.00     0.000 C 
BRANCH  17  18
ATOM     18  C   UNL     1     -98.922 -24.830  82.875  1.00  0.00    -0.000 C 
BRANCH  18  19
ATOM     19  C   UNL     1     -99.544 -25.441  81.608  1.00  0.00    -0.000 C 
BRANCH  19  20
ATOM     20  C   UNL     1    -100.611 -26.502  81.925  1.00  0.00    -0.000 C 
BRANCH  20  21
ATOM     21  C   UNL     1    -100.593 -27.675  80.929  1.00  0.00    -0.000 C 
BRANCH  21  22
ATOM     22  C   UNL     1    -100.610 -29.042  81.632  1.00  0.00    -0.000 C 
BRANCH  22  23
ATOM     23  C   UNL     1    -100.355 -28.926  83.143  1.00  0.00    -0.000 C 
BRANCH  23  24
ATOM     24  C   UNL     1    -101.565 -29.362  83.985  1.00  0.00    -0.000 C 
BRANCH  24  25
ATOM     25  C   UNL     1    -102.086 -28.258  84.931  1.00  0.00    -0.003 C 
ATOM     26  C   UNL     1    -103.227 -27.452  84.311  1.00  0.00     0.004 C 
ENDBRANCH  24  25
ENDBRANCH  23  24
ENDBRANCH  22  23
ENDBRANCH  21  22
ENDBRANCH  20  21
ENDBRANCH  19  20
ENDBRANCH  18  19
ENDBRANCH  17  18
ENDBRANCH  16  17
ENDBRANCH  15  16
ENDBRANCH   1  15
TORSDOF 22
ENDMDL
