MODEL 1
REMARK VINA RESULT:    -6.222      0.000      0.000
REMARK INTER + INTRA:         -10.435
REMARK INTER:                  -9.132
REMARK INTRA:                  -1.304
REMARK UNBOUND:                -1.304
REMARK SMILES O=c1c(O[C@@H]2O[C@@H](CO)[C@H](O)[C@@H](O)[C@H]2O)c(-c2ccc(O)c(O)c2)oc2cc(O)cc(O)c12
REMARK SMILES IDX 4 1 3 2 16 3 25 4 2 5 26 6 1 7 33 8 27 9 31 10 28 11 30 12
REMARK SMILES IDX 17 13 18 14 19 15 20 16 24 17 22 18 21 19 23 21 32 23 29 25
REMARK SMILES IDX 5 27 14 28 6 29 12 30 7 31 10 32 15 33 13 35 8 37 9 38 11 40
REMARK H PARENT 21 20 23 22 32 24 29 26 15 34 13 36 9 39 11 41
REMARK Flexibility Score: inf
ROOT
ATOM      1  O   UNL     1      -9.015  32.092   7.046  1.00  0.00    -0.454 OA
ENDROOT
BRANCH   1   2
ATOM      2  C   UNL     1      -9.445  33.420   7.211  1.00  0.00     0.214 A 
ATOM      3  C   UNL     1     -10.427  33.719   8.170  1.00  0.00     0.180 A 
ATOM      4  O   UNL     1     -10.915  34.951   8.256  1.00  0.00    -0.452 OA
ATOM      5  C   UNL     1      -8.913  34.468   6.438  1.00  0.00     0.239 A 
ATOM      6  C   UNL     1     -10.481  35.963   7.512  1.00  0.00     0.146 A 
ATOM      7  O   UNL     1      -7.984  34.212   5.628  1.00  0.00    -0.285 OA
ATOM      8  C   UNL     1      -9.419  35.783   6.585  1.00  0.00     0.111 A 
ATOM      9  C   UNL     1     -11.090  37.210   7.665  1.00  0.00     0.094 A 
ATOM     10  C   UNL     1      -8.956  36.922   5.854  1.00  0.00     0.134 A 
ATOM     11  C   UNL     1     -10.662  38.302   6.908  1.00  0.00     0.123 A 
ATOM     12  C   UNL     1      -9.605  38.153   6.012  1.00  0.00     0.093 A 
BRANCH   3  13
ATOM     13  C   UNL     1     -10.971  32.686   9.074  1.00  0.00     0.025 A 
ATOM     14  C   UNL     1     -10.693  32.752  10.448  1.00  0.00     0.016 A 
ATOM     15  C   UNL     1     -11.242  31.812  11.323  1.00  0.00     0.051 A 
ATOM     16  C   UNL     1     -12.060  30.784  10.835  1.00  0.00     0.157 A 
ATOM     17  C   UNL     1     -11.771  31.641   8.582  1.00  0.00     0.062 A 
ATOM     18  C   UNL     1     -12.322  30.697   9.456  1.00  0.00     0.158 A 
BRANCH  16  19
ATOM     19  O   UNL     1     -12.611  29.851  11.711  1.00  0.00    -0.504 OA
ATOM     20  H   UNL     1     -12.061  29.424  12.447  1.00  0.00     0.293 HD
ENDBRANCH  16  19
BRANCH  18  21
ATOM     21  O   UNL     1     -13.125  29.683   8.938  1.00  0.00    -0.504 OA
ATOM     22  H   UNL     1     -13.997  29.408   9.374  1.00  0.00     0.293 HD
ENDBRANCH  18  21
ENDBRANCH   3  13
BRANCH  10  23
ATOM     23  O   UNL     1      -7.862  36.909   4.983  1.00  0.00    -0.507 OA
ATOM     24  H   UNL     1      -6.931  36.607   5.221  1.00  0.00     0.293 HD
ENDBRANCH  10  23
BRANCH  11  25
ATOM     25  O   UNL     1     -11.275  39.545   7.049  1.00  0.00    -0.508 OA
ATOM     26  H   UNL     1     -11.362  39.995   7.952  1.00  0.00     0.293 HD
ENDBRANCH  11  25
ENDBRANCH   1   2
BRANCH   1  27
ATOM     27  C   UNL     1      -9.167  31.357   5.825  1.00  0.00     0.339 C 
ATOM     28  C   UNL     1      -7.788  30.923   5.278  1.00  0.00     0.214 C 
ATOM     29  O   UNL     1     -10.042  30.251   5.998  1.00  0.00    -0.332 OA
ATOM     30  C   UNL     1      -7.181  29.788   6.126  1.00  0.00     0.180 C 
ATOM     31  C   UNL     1      -9.516  29.290   6.902  1.00  0.00     0.179 C 
ATOM     32  C   UNL     1      -8.207  28.671   6.360  1.00  0.00     0.177 C 
BRANCH  28  33
ATOM     33  O   UNL     1      -7.872  30.557   3.922  1.00  0.00    -0.384 OA
ATOM     34  H   UNL     1      -8.793  30.230   3.745  1.00  0.00     0.211 HD
ENDBRANCH  28  33
BRANCH  30  35
ATOM     35  O   UNL     1      -6.046  29.256   5.493  1.00  0.00    -0.387 OA
ATOM     36  H   UNL     1      -6.045  29.610   4.566  1.00  0.00     0.211 HD
ENDBRANCH  30  35
BRANCH  31  37
ATOM     37  C   UNL     1     -10.591  28.226   7.160  1.00  0.00     0.191 C 
BRANCH  37  38
ATOM     38  O   UNL     1     -10.587  27.842   8.509  1.00  0.00    -0.394 OA
ATOM     39  H   UNL     1     -11.005  26.941   8.540  1.00  0.00     0.210 HD
ENDBRANCH  37  38
ENDBRANCH  31  37
BRANCH  32  40
ATOM     40  O   UNL     1      -7.677  27.763   7.293  1.00  0.00    -0.387 OA
ATOM     41  H   UNL     1      -6.965  28.239   7.799  1.00  0.00     0.211 HD
ENDBRANCH  32  40
ENDBRANCH   1  27
TORSDOF 12
ENDMDL
MODEL 2
REMARK VINA RESULT:    -6.130      1.567      4.718
REMARK INTER + INTRA:         -10.300
REMARK INTER:                  -9.342
REMARK INTRA:                  -0.958
REMARK UNBOUND:                -1.304
REMARK SMILES O=c1c(O[C@@H]2O[C@@H](CO)[C@H](O)[C@@H](O)[C@H]2O)c(-c2ccc(O)c(O)c2)oc2cc(O)cc(O)c12
REMARK SMILES IDX 4 1 3 2 16 3 25 4 2 5 26 6 1 7 33 8 27 9 31 10 28 11 30 12
REMARK SMILES IDX 17 13 18 14 19 15 20 16 24 17 22 18 21 19 23 21 32 23 29 25
REMARK SMILES IDX 5 27 14 28 6 29 12 30 7 31 10 32 15 33 13 35 8 37 9 38 11 40
REMARK H PARENT 21 20 23 22 32 24 29 26 15 34 13 36 9 39 11 41
REMARK Flexibility Score: inf
ROOT
ATOM      1  O   UNL     1     -10.130  31.855   7.911  1.00  0.00    -0.454 OA
ENDROOT
BRANCH   1   2
ATOM      2  C   UNL     1      -9.839  33.130   7.393  1.00  0.00     0.214 A 
ATOM      3  C   UNL     1      -8.660  33.329   6.656  1.00  0.00     0.180 A 
ATOM      4  O   UNL     1      -8.327  34.551   6.257  1.00  0.00    -0.452 OA
ATOM      5  C   UNL     1     -10.706  34.220   7.591  1.00  0.00     0.239 A 
ATOM      6  C   UNL     1      -9.088  35.620   6.466  1.00  0.00     0.146 A 
ATOM      7  O   UNL     1     -11.795  34.026   8.192  1.00  0.00    -0.285 OA
ATOM      8  C   UNL     1     -10.348  35.504   7.113  1.00  0.00     0.111 A 
ATOM      9  C   UNL     1      -8.623  36.863   6.030  1.00  0.00     0.094 A 
ATOM     10  C   UNL     1     -11.148  36.681   7.257  1.00  0.00     0.134 A 
ATOM     11  C   UNL     1      -9.391  38.012   6.223  1.00  0.00     0.123 A 
ATOM     12  C   UNL     1     -10.641  37.916   6.833  1.00  0.00     0.093 A 
BRANCH   3  13
ATOM     13  C   UNL     1      -7.745  32.215   6.336  1.00  0.00     0.025 A 
ATOM     14  C   UNL     1      -8.149  31.225   5.429  1.00  0.00     0.016 A 
ATOM     15  C   UNL     1      -7.277  30.193   5.078  1.00  0.00     0.051 A 
ATOM     16  C   UNL     1      -5.995  30.127   5.642  1.00  0.00     0.157 A 
ATOM     17  C   UNL     1      -6.470  32.135   6.921  1.00  0.00     0.062 A 
ATOM     18  C   UNL     1      -5.592  31.102   6.571  1.00  0.00     0.158 A 
BRANCH  16  19
ATOM     19  O   UNL     1      -5.124  29.099   5.285  1.00  0.00    -0.504 OA
ATOM     20  H   UNL     1      -4.693  28.503   5.982  1.00  0.00     0.293 HD
ENDBRANCH  16  19
BRANCH  18  21
ATOM     21  O   UNL     1      -4.328  31.061   7.157  1.00  0.00    -0.504 OA
ATOM     22  H   UNL     1      -4.187  30.772   8.117  1.00  0.00     0.293 HD
ENDBRANCH  18  21
ENDBRANCH   3  13
BRANCH  10  23
ATOM     23  O   UNL     1     -12.442  36.695   7.787  1.00  0.00    -0.507 OA
ATOM     24  H   UNL     1     -12.711  37.123   8.659  1.00  0.00     0.293 HD
ENDBRANCH  10  23
BRANCH  11  25
ATOM     25  O   UNL     1      -8.925  39.255   5.802  1.00  0.00    -0.508 OA
ATOM     26  H   UNL     1      -9.561  40.000   5.544  1.00  0.00     0.293 HD
ENDBRANCH  11  25
ENDBRANCH   1   2
BRANCH   1  27
ATOM     27  C   UNL     1     -11.290  31.098   7.545  1.00  0.00     0.339 C 
ATOM     28  C   UNL     1     -10.881  29.717   6.984  1.00  0.00     0.214 C 
ATOM     29  O   UNL     1     -12.193  30.983   8.636  1.00  0.00    -0.332 OA
ATOM     30  C   UNL     1     -10.374  28.786   8.103  1.00  0.00     0.180 C 
ATOM     31  C   UNL     1     -11.637  30.241   9.713  1.00  0.00     0.179 C 
ATOM     32  C   UNL     1     -11.343  28.782   9.293  1.00  0.00     0.177 C 
BRANCH  28  33
ATOM     33  O   UNL     1     -11.939  29.126   6.269  1.00  0.00    -0.384 OA
ATOM     34  H   UNL     1     -11.589  28.817   5.393  1.00  0.00     0.211 HD
ENDBRANCH  28  33
BRANCH  30  35
ATOM     35  O   UNL     1     -10.221  27.476   7.620  1.00  0.00    -0.387 OA
ATOM     36  H   UNL     1      -9.328  27.433   7.191  1.00  0.00     0.211 HD
ENDBRANCH  30  35
BRANCH  31  37
ATOM     37  C   UNL     1     -12.604  30.313  10.903  1.00  0.00     0.191 C 
BRANCH  37  38
ATOM     38  O   UNL     1     -11.903  30.188  12.111  1.00  0.00    -0.394 OA
ATOM     39  H   UNL     1     -12.119  29.283  12.461  1.00  0.00     0.210 HD
ENDBRANCH  37  38
ENDBRANCH  31  37
BRANCH  32  40
ATOM     40  O   UNL     1     -10.746  28.083  10.356  1.00  0.00    -0.387 OA
ATOM     41  H   UNL     1     -11.371  28.127  11.128  1.00  0.00     0.211 HD
ENDBRANCH  32  40
ENDBRANCH   1  27
TORSDOF 12
ENDMDL
MODEL 3
REMARK VINA RESULT:    -6.121      1.512      2.187
REMARK INTER + INTRA:         -10.287
REMARK INTER:                 -10.005
REMARK INTRA:                  -0.281
REMARK UNBOUND:                -1.304
REMARK SMILES O=c1c(O[C@@H]2O[C@@H](CO)[C@H](O)[C@@H](O)[C@H]2O)c(-c2ccc(O)c(O)c2)oc2cc(O)cc(O)c12
REMARK SMILES IDX 4 1 3 2 16 3 25 4 2 5 26 6 1 7 33 8 27 9 31 10 28 11 30 12
REMARK SMILES IDX 17 13 18 14 19 15 20 16 24 17 22 18 21 19 23 21 32 23 29 25
REMARK SMILES IDX 5 27 14 28 6 29 12 30 7 31 10 32 15 33 13 35 8 37 9 38 11 40
REMARK H PARENT 21 20 23 22 32 24 29 26 15 34 13 36 9 39 11 41
REMARK Flexibility Score: inf
ROOT
ATOM      1  O   UNL     1      -9.137  33.450   6.873  1.00  0.00    -0.454 OA
ENDROOT
BRANCH   1   2
ATOM      2  C   UNL     1      -9.868  34.600   7.219  1.00  0.00     0.214 A 
ATOM      3  C   UNL     1     -10.853  34.525   8.217  1.00  0.00     0.180 A 
ATOM      4  O   UNL     1     -11.619  35.579   8.472  1.00  0.00    -0.452 OA
ATOM      5  C   UNL     1      -9.634  35.836   6.589  1.00  0.00     0.239 A 
ATOM      6  C   UNL     1     -11.471  36.753   7.867  1.00  0.00     0.146 A 
ATOM      7  O   UNL     1      -8.705  35.920   5.745  1.00  0.00    -0.285 OA
ATOM      8  C   UNL     1     -10.436  36.958   6.916  1.00  0.00     0.111 A 
ATOM      9  C   UNL     1     -12.356  37.784   8.192  1.00  0.00     0.094 A 
ATOM     10  C   UNL     1     -10.291  38.260   6.341  1.00  0.00     0.134 A 
ATOM     11  C   UNL     1     -12.234  39.035   7.585  1.00  0.00     0.123 A 
ATOM     12  C   UNL     1     -11.210  39.265   6.668  1.00  0.00     0.093 A 
BRANCH   3  13
ATOM     13  C   UNL     1     -11.095  33.283   8.979  1.00  0.00     0.025 A 
ATOM     14  C   UNL     1     -10.881  33.267  10.365  1.00  0.00     0.016 A 
ATOM     15  C   UNL     1     -11.153  32.116  11.107  1.00  0.00     0.051 A 
ATOM     16  C   UNL     1     -11.628  30.960  10.471  1.00  0.00     0.157 A 
ATOM     17  C   UNL     1     -11.546  32.117   8.338  1.00  0.00     0.062 A 
ATOM     18  C   UNL     1     -11.821  30.961   9.078  1.00  0.00     0.158 A 
BRANCH  16  19
ATOM     19  O   UNL     1     -11.905  29.815  11.214  1.00  0.00    -0.504 OA
ATOM     20  H   UNL     1     -11.325  28.986  11.150  1.00  0.00     0.293 HD
ENDBRANCH  16  19
BRANCH  18  21
ATOM     21  O   UNL     1     -12.283  29.826   8.414  1.00  0.00    -0.504 OA
ATOM     22  H   UNL     1     -11.698  29.295   7.780  1.00  0.00     0.293 HD
ENDBRANCH  18  21
ENDBRANCH   3  13
BRANCH  10  23
ATOM     23  O   UNL     1      -9.262  38.626   5.467  1.00  0.00    -0.507 OA
ATOM     24  H   UNL     1      -8.542  38.011   5.124  1.00  0.00     0.293 HD
ENDBRANCH  10  23
BRANCH  11  25
ATOM     25  O   UNL     1     -13.122  40.063   7.896  1.00  0.00    -0.508 OA
ATOM     26  H   UNL     1     -13.011  40.624   8.732  1.00  0.00     0.293 HD
ENDBRANCH  11  25
ENDBRANCH   1   2
BRANCH   1  27
ATOM     27  C   UNL     1      -8.189  33.408   5.799  1.00  0.00     0.339 C 
ATOM     28  C   UNL     1      -6.751  33.280   6.350  1.00  0.00     0.214 C 
ATOM     29  O   UNL     1      -8.500  32.370   4.880  1.00  0.00    -0.332 OA
ATOM     30  C   UNL     1      -6.489  31.868   6.910  1.00  0.00     0.180 C 
ATOM     31  C   UNL     1      -8.392  31.083   5.471  1.00  0.00     0.179 C 
ATOM     32  C   UNL     1      -6.938  30.791   5.911  1.00  0.00     0.177 C 
BRANCH  28  33
ATOM     33  O   UNL     1      -5.800  33.625   5.372  1.00  0.00    -0.384 OA
ATOM     34  H   UNL     1      -5.049  34.096   5.820  1.00  0.00     0.211 HD
ENDBRANCH  28  33
BRANCH  30  35
ATOM     35  O   UNL     1      -5.125  31.699   7.197  1.00  0.00    -0.387 OA
ATOM     36  H   UNL     1      -5.047  31.638   8.184  1.00  0.00     0.211 HD
ENDBRANCH  30  35
BRANCH  31  37
ATOM     37  C   UNL     1      -8.908  30.041   4.469  1.00  0.00     0.191 C 
BRANCH  37  38
ATOM     38  O   UNL     1      -7.841  29.483   3.750  1.00  0.00    -0.394 OA
ATOM     39  H   UNL     1      -7.940  28.497   3.834  1.00  0.00     0.210 HD
ENDBRANCH  37  38
ENDBRANCH  31  37
BRANCH  32  40
ATOM     40  O   UNL     1      -6.864  29.537   6.540  1.00  0.00    -0.387 OA
ATOM     41  H   UNL     1      -7.795  29.208   6.658  1.00  0.00     0.211 HD
ENDBRANCH  32  40
ENDBRANCH   1  27
TORSDOF 12
ENDMDL
MODEL 4
REMARK VINA RESULT:    -5.582     15.790     19.329
REMARK INTER + INTRA:          -9.496
REMARK INTER:                  -8.960
REMARK INTRA:                  -0.536
REMARK UNBOUND:                -1.304
REMARK SMILES O=c1c(O[C@@H]2O[C@@H](CO)[C@H](O)[C@@H](O)[C@H]2O)c(-c2ccc(O)c(O)c2)oc2cc(O)cc(O)c12
REMARK SMILES IDX 4 1 3 2 16 3 25 4 2 5 26 6 1 7 33 8 27 9 31 10 28 11 30 12
REMARK SMILES IDX 17 13 18 14 19 15 20 16 24 17 22 18 21 19 23 21 32 23 29 25
REMARK SMILES IDX 5 27 14 28 6 29 12 30 7 31 10 32 15 33 13 35 8 37 9 38 11 40
REMARK H PARENT 21 20 23 22 32 24 29 26 15 34 13 36 9 39 11 41
REMARK Flexibility Score: inf
ROOT
ATOM      1  O   UNL     1       1.294  45.531   1.448  1.00  0.00    -0.454 OA
ENDROOT
BRANCH   1   2
ATOM      2  C   UNL     1       1.890  45.805   2.691  1.00  0.00     0.214 A 
ATOM      3  C   UNL     1       3.280  45.991   2.771  1.00  0.00     0.180 A 
ATOM      4  O   UNL     1       3.861  46.143   3.955  1.00  0.00    -0.452 OA
ATOM      5  C   UNL     1       1.125  45.905   3.867  1.00  0.00     0.239 A 
ATOM      6  C   UNL     1       3.186  46.191   5.099  1.00  0.00     0.146 A 
ATOM      7  O   UNL     1      -0.127  45.807   3.786  1.00  0.00    -0.285 OA
ATOM      8  C   UNL     1       1.767  46.116   5.112  1.00  0.00     0.111 A 
ATOM      9  C   UNL     1       3.904  46.322   6.289  1.00  0.00     0.094 A 
ATOM     10  C   UNL     1       1.094  46.231   6.369  1.00  0.00     0.134 A 
ATOM     11  C   UNL     1       3.237  46.383   7.513  1.00  0.00     0.123 A 
ATOM     12  C   UNL     1       1.844  46.336   7.547  1.00  0.00     0.093 A 
BRANCH   3  13
ATOM     13  C   UNL     1       4.135  45.985   1.567  1.00  0.00     0.025 A 
ATOM     14  C   UNL     1       4.130  47.094   0.708  1.00  0.00     0.016 A 
ATOM     15  C   UNL     1       4.971  47.125  -0.407  1.00  0.00     0.051 A 
ATOM     16  C   UNL     1       5.815  46.041  -0.687  1.00  0.00     0.157 A 
ATOM     17  C   UNL     1       4.963  44.888   1.272  1.00  0.00     0.062 A 
ATOM     18  C   UNL     1       5.806  44.916   0.155  1.00  0.00     0.158 A 
BRANCH  16  19
ATOM     19  O   UNL     1       6.657  46.077  -1.797  1.00  0.00    -0.504 OA
ATOM     20  H   UNL     1       6.304  45.942  -2.737  1.00  0.00     0.293 HD
ENDBRANCH  16  19
BRANCH  18  21
ATOM     21  O   UNL     1       6.627  43.818  -0.100  1.00  0.00    -0.504 OA
ATOM     22  H   UNL     1       6.787  43.092   0.589  1.00  0.00     0.293 HD
ENDBRANCH  18  21
ENDBRANCH   3  13
BRANCH  10  23
ATOM     23  O   UNL     1      -0.296  46.268   6.519  1.00  0.00    -0.507 OA
ATOM     24  H   UNL     1      -0.838  45.638   7.089  1.00  0.00     0.293 HD
ENDBRANCH  10  23
BRANCH  11  25
ATOM     25  O   UNL     1       3.950  46.501   8.704  1.00  0.00    -0.508 OA
ATOM     26  H   UNL     1       4.833  46.025   8.843  1.00  0.00     0.293 HD
ENDBRANCH  11  25
ENDBRANCH   1   2
BRANCH   1  27
ATOM     27  C   UNL     1       1.795  44.551   0.528  1.00  0.00     0.339 C 
ATOM     28  C   UNL     1       1.378  43.130   0.970  1.00  0.00     0.214 C 
ATOM     29  O   UNL     1       1.384  44.838  -0.801  1.00  0.00    -0.332 OA
ATOM     30  C   UNL     1      -0.125  42.887   0.728  1.00  0.00     0.180 C 
ATOM     31  C   UNL     1      -0.026  44.749  -0.955  1.00  0.00     0.179 C 
ATOM     32  C   UNL     1      -0.526  43.309  -0.693  1.00  0.00     0.177 C 
BRANCH  28  33
ATOM     33  O   UNL     1       2.162  42.151   0.332  1.00  0.00    -0.384 OA
ATOM     34  H   UNL     1       2.761  41.742   1.010  1.00  0.00     0.211 HD
ENDBRANCH  28  33
BRANCH  30  35
ATOM     35  O   UNL     1      -0.440  41.533   0.919  1.00  0.00    -0.387 OA
ATOM     36  H   UNL     1      -0.563  41.404   1.895  1.00  0.00     0.211 HD
ENDBRANCH  30  35
BRANCH  31  37
ATOM     37  C   UNL     1      -0.393  45.237  -2.363  1.00  0.00     0.191 C 
BRANCH  37  38
ATOM     38  O   UNL     1      -1.785  45.344  -2.496  1.00  0.00    -0.394 OA
ATOM     39  H   UNL     1      -2.037  46.203  -2.063  1.00  0.00     0.210 HD
ENDBRANCH  37  38
ENDBRANCH  31  37
BRANCH  32  40
ATOM     40  O   UNL     1      -1.926  43.256  -0.799  1.00  0.00    -0.387 OA
ATOM     41  H   UNL     1      -2.300  43.851  -0.095  1.00  0.00     0.211 HD
ENDBRANCH  32  40
ENDBRANCH   1  27
TORSDOF 12
ENDMDL
MODEL 5
REMARK VINA RESULT:    -5.550      1.423      2.223
REMARK INTER + INTRA:          -9.449
REMARK INTER:                  -8.394
REMARK INTRA:                  -1.055
REMARK UNBOUND:                -1.304
REMARK SMILES O=c1c(O[C@@H]2O[C@@H](CO)[C@H](O)[C@@H](O)[C@H]2O)c(-c2ccc(O)c(O)c2)oc2cc(O)cc(O)c12
REMARK SMILES IDX 4 1 3 2 16 3 25 4 2 5 26 6 1 7 33 8 27 9 31 10 28 11 30 12
REMARK SMILES IDX 17 13 18 14 19 15 20 16 24 17 22 18 21 19 23 21 32 23 29 25
REMARK SMILES IDX 5 27 14 28 6 29 12 30 7 31 10 32 15 33 13 35 8 37 9 38 11 40
REMARK H PARENT 21 20 23 22 32 24 29 26 15 34 13 36 9 39 11 41
REMARK Flexibility Score: inf
ROOT
ATOM      1  O   UNL     1      -8.882  30.744   7.153  1.00  0.00    -0.454 OA
ENDROOT
BRANCH   1   2
ATOM      2  C   UNL     1      -9.303  32.084   7.102  1.00  0.00     0.214 A 
ATOM      3  C   UNL     1     -10.430  32.488   7.837  1.00  0.00     0.180 A 
ATOM      4  O   UNL     1     -10.896  33.725   7.708  1.00  0.00    -0.452 OA
ATOM      5  C   UNL     1      -8.618  33.042   6.333  1.00  0.00     0.239 A 
ATOM      6  C   UNL     1     -10.314  34.650   6.953  1.00  0.00     0.146 A 
ATOM      7  O   UNL     1      -7.568  32.697   5.730  1.00  0.00    -0.285 OA
ATOM      8  C   UNL     1      -9.110  34.368   6.252  1.00  0.00     0.111 A 
ATOM      9  C   UNL     1     -10.910  35.910   6.868  1.00  0.00     0.094 A 
ATOM     10  C   UNL     1      -8.499  35.422   5.502  1.00  0.00     0.134 A 
ATOM     11  C   UNL     1     -10.330  36.914   6.091  1.00  0.00     0.123 A 
ATOM     12  C   UNL     1      -9.136  36.666   5.415  1.00  0.00     0.093 A 
BRANCH   3  13
ATOM     13  C   UNL     1     -11.149  31.559   8.731  1.00  0.00     0.025 A 
ATOM     14  C   UNL     1     -12.098  30.676   8.195  1.00  0.00     0.016 A 
ATOM     15  C   UNL     1     -12.750  29.756   9.019  1.00  0.00     0.051 A 
ATOM     16  C   UNL     1     -12.474  29.718  10.393  1.00  0.00     0.157 A 
ATOM     17  C   UNL     1     -10.891  31.537  10.112  1.00  0.00     0.062 A 
ATOM     18  C   UNL     1     -11.542  30.617  10.942  1.00  0.00     0.158 A 
BRANCH  16  19
ATOM     19  O   UNL     1     -13.120  28.794  11.213  1.00  0.00    -0.504 OA
ATOM     20  H   UNL     1     -13.911  29.058  11.790  1.00  0.00     0.293 HD
ENDBRANCH  16  19
BRANCH  18  21
ATOM     21  O   UNL     1     -11.251  30.610  12.305  1.00  0.00    -0.504 OA
ATOM     22  H   UNL     1     -11.973  30.533  13.011  1.00  0.00     0.293 HD
ENDBRANCH  18  21
ENDBRANCH   3  13
BRANCH  10  23
ATOM     23  O   UNL     1      -7.270  35.311   4.844  1.00  0.00    -0.507 OA
ATOM     24  H   UNL     1      -6.998  34.551   4.241  1.00  0.00     0.293 HD
ENDBRANCH  10  23
BRANCH  11  25
ATOM     25  O   UNL     1     -10.928  38.169   5.992  1.00  0.00    -0.508 OA
ATOM     26  H   UNL     1     -10.690  38.921   6.627  1.00  0.00     0.293 HD
ENDBRANCH  11  25
ENDBRANCH   1   2
BRANCH   1  27
ATOM     27  C   UNL     1      -9.520  29.686   6.426  1.00  0.00     0.339 C 
ATOM     28  C   UNL     1      -9.275  29.846   4.909  1.00  0.00     0.214 C 
ATOM     29  O   UNL     1      -9.103  28.413   6.901  1.00  0.00    -0.332 OA
ATOM     30  C   UNL     1      -7.820  29.501   4.536  1.00  0.00     0.180 C 
ATOM     31  C   UNL     1      -7.719  28.186   6.674  1.00  0.00     0.179 C 
ATOM     32  C   UNL     1      -7.397  28.163   5.161  1.00  0.00     0.177 C 
BRANCH  28  33
ATOM     33  O   UNL     1     -10.188  29.077   4.163  1.00  0.00    -0.384 OA
ATOM     34  H   UNL     1     -10.156  28.143   4.500  1.00  0.00     0.211 HD
ENDBRANCH  28  33
BRANCH  30  35
ATOM     35  O   UNL     1      -7.672  29.432   3.142  1.00  0.00    -0.387 OA
ATOM     36  H   UNL     1      -7.161  28.604   2.950  1.00  0.00     0.211 HD
ENDBRANCH  30  35
BRANCH  31  37
ATOM     37  C   UNL     1      -7.321  26.875   7.365  1.00  0.00     0.191 C 
BRANCH  37  38
ATOM     38  O   UNL     1      -5.964  26.900   7.719  1.00  0.00    -0.394 OA
ATOM     39  H   UNL     1      -5.940  26.983   8.709  1.00  0.00     0.210 HD
ENDBRANCH  37  38
ENDBRANCH  31  37
BRANCH  32  40
ATOM     40  O   UNL     1      -6.017  27.991   4.962  1.00  0.00    -0.387 OA
ATOM     41  H   UNL     1      -5.903  27.388   4.178  1.00  0.00     0.211 HD
ENDBRANCH  32  40
ENDBRANCH   1  27
TORSDOF 12
ENDMDL
MODEL 6
REMARK VINA RESULT:    -5.433      1.851      3.383
REMARK INTER + INTRA:          -9.278
REMARK INTER:                  -8.563
REMARK INTRA:                  -0.715
REMARK UNBOUND:                -1.304
REMARK SMILES O=c1c(O[C@@H]2O[C@@H](CO)[C@H](O)[C@@H](O)[C@H]2O)c(-c2ccc(O)c(O)c2)oc2cc(O)cc(O)c12
REMARK SMILES IDX 4 1 3 2 16 3 25 4 2 5 26 6 1 7 33 8 27 9 31 10 28 11 30 12
REMARK SMILES IDX 17 13 18 14 19 15 20 16 24 17 22 18 21 19 23 21 32 23 29 25
REMARK SMILES IDX 5 27 14 28 6 29 12 30 7 31 10 32 15 33 13 35 8 37 9 38 11 40
REMARK H PARENT 21 20 23 22 32 24 29 26 15 34 13 36 9 39 11 41
REMARK Flexibility Score: inf
ROOT
ATOM      1  O   UNL     1     -10.762  32.571   7.570  1.00  0.00    -0.454 OA
ENDROOT
BRANCH   1   2
ATOM      2  C   UNL     1     -10.916  33.858   8.114  1.00  0.00     0.214 A 
ATOM      3  C   UNL     1     -11.138  34.009   9.493  1.00  0.00     0.180 A 
ATOM      4  O   UNL     1     -11.392  35.211   9.996  1.00  0.00    -0.452 OA
ATOM      5  C   UNL     1     -10.851  35.009   7.309  1.00  0.00     0.239 A 
ATOM      6  C   UNL     1     -11.393  36.322   9.266  1.00  0.00     0.146 A 
ATOM      7  O   UNL     1     -10.584  34.879   6.086  1.00  0.00    -0.285 OA
ATOM      8  C   UNL     1     -11.079  36.286   7.881  1.00  0.00     0.111 A 
ATOM      9  C   UNL     1     -11.706  37.529   9.895  1.00  0.00     0.094 A 
ATOM     10  C   UNL     1     -11.039  37.521   7.162  1.00  0.00     0.134 A 
ATOM     11  C   UNL     1     -11.713  38.722   9.169  1.00  0.00     0.123 A 
ATOM     12  C   UNL     1     -11.383  38.711   7.815  1.00  0.00     0.093 A 
BRANCH   3  13
ATOM     13  C   UNL     1     -11.135  32.853  10.412  1.00  0.00     0.025 A 
ATOM     14  C   UNL     1     -12.139  31.879  10.303  1.00  0.00     0.016 A 
ATOM     15  C   UNL     1     -12.122  30.754  11.130  1.00  0.00     0.051 A 
ATOM     16  C   UNL     1     -11.111  30.596  12.089  1.00  0.00     0.157 A 
ATOM     17  C   UNL     1     -10.136  32.707  11.390  1.00  0.00     0.062 A 
ATOM     18  C   UNL     1     -10.116  31.580  12.221  1.00  0.00     0.158 A 
BRANCH  16  19
ATOM     19  O   UNL     1     -11.093  29.469  12.909  1.00  0.00    -0.504 OA
ATOM     20  H   UNL     1     -11.537  29.468  13.820  1.00  0.00     0.293 HD
ENDBRANCH  16  19
BRANCH  18  21
ATOM     21  O   UNL     1      -9.102  31.458  13.169  1.00  0.00    -0.504 OA
ATOM     22  H   UNL     1      -8.965  30.610  13.707  1.00  0.00     0.293 HD
ENDBRANCH  18  21
ENDBRANCH   3  13
BRANCH  10  23
ATOM     23  O   UNL     1     -10.655  37.642   5.822  1.00  0.00    -0.507 OA
ATOM     24  H   UNL     1     -11.179  37.302   5.032  1.00  0.00     0.293 HD
ENDBRANCH  10  23
BRANCH  11  25
ATOM     25  O   UNL     1     -12.037  39.927   9.789  1.00  0.00    -0.508 OA
ATOM     26  H   UNL     1     -12.451  40.693   9.273  1.00  0.00     0.293 HD
ENDBRANCH  11  25
ENDBRANCH   1   2
BRANCH   1  27
ATOM     27  C   UNL     1      -9.578  31.778   7.735  1.00  0.00     0.339 C 
ATOM     28  C   UNL     1      -9.664  30.493   6.882  1.00  0.00     0.214 C 
ATOM     29  O   UNL     1      -8.410  32.533   7.445  1.00  0.00    -0.332 OA
ATOM     30  C   UNL     1      -9.493  30.803   5.383  1.00  0.00     0.180 C 
ATOM     31  C   UNL     1      -8.358  32.931   6.082  1.00  0.00     0.179 C 
ATOM     32  C   UNL     1      -8.273  31.704   5.145  1.00  0.00     0.177 C 
BRANCH  28  33
ATOM     33  O   UNL     1      -8.727  29.535   7.314  1.00  0.00    -0.384 OA
ATOM     34  H   UNL     1      -7.835  29.969   7.359  1.00  0.00     0.211 HD
ENDBRANCH  28  33
BRANCH  30  35
ATOM     35  O   UNL     1      -9.348  29.615   4.649  1.00  0.00    -0.387 OA
ATOM     36  H   UNL     1      -8.987  29.871   3.761  1.00  0.00     0.211 HD
ENDBRANCH  30  35
BRANCH  31  37
ATOM     37  C   UNL     1      -7.164  33.878   5.897  1.00  0.00     0.191 C 
BRANCH  37  38
ATOM     38  O   UNL     1      -7.498  34.921   5.022  1.00  0.00    -0.394 OA
ATOM     39  H   UNL     1      -8.085  34.520   4.327  1.00  0.00     0.210 HD
ENDBRANCH  37  38
ENDBRANCH  31  37
BRANCH  32  40
ATOM     40  O   UNL     1      -8.275  32.117   3.802  1.00  0.00    -0.387 OA
ATOM     41  H   UNL     1      -8.155  33.104   3.795  1.00  0.00     0.211 HD
ENDBRANCH  32  40
ENDBRANCH   1  27
TORSDOF 12
ENDMDL
MODEL 7
REMARK VINA RESULT:    -5.359     16.104     19.410
REMARK INTER + INTRA:          -9.169
REMARK INTER:                  -7.783
REMARK INTRA:                  -1.386
REMARK UNBOUND:                -1.304
REMARK SMILES O=c1c(O[C@@H]2O[C@@H](CO)[C@H](O)[C@@H](O)[C@H]2O)c(-c2ccc(O)c(O)c2)oc2cc(O)cc(O)c12
REMARK SMILES IDX 4 1 3 2 16 3 25 4 2 5 26 6 1 7 33 8 27 9 31 10 28 11 30 12
REMARK SMILES IDX 17 13 18 14 19 15 20 16 24 17 22 18 21 19 23 21 32 23 29 25
REMARK SMILES IDX 5 27 14 28 6 29 12 30 7 31 10 32 15 33 13 35 8 37 9 38 11 40
REMARK H PARENT 21 20 23 22 32 24 29 26 15 34 13 36 9 39 11 41
REMARK Flexibility Score: inf
ROOT
ATOM      1  O   UNL     1       4.391  45.680   2.465  1.00  0.00    -0.454 OA
ENDROOT
BRANCH   1   2
ATOM      2  C   UNL     1       3.718  45.812   3.692  1.00  0.00     0.214 A 
ATOM      3  C   UNL     1       2.344  45.531   3.766  1.00  0.00     0.180 A 
ATOM      4  O   UNL     1       1.681  45.758   4.894  1.00  0.00    -0.452 OA
ATOM      5  C   UNL     1       4.389  46.219   4.859  1.00  0.00     0.239 A 
ATOM      6  C   UNL     1       2.262  46.192   6.008  1.00  0.00     0.146 A 
ATOM      7  O   UNL     1       5.633  46.404   4.810  1.00  0.00    -0.285 OA
ATOM      8  C   UNL     1       3.665  46.407   6.063  1.00  0.00     0.111 A 
ATOM      9  C   UNL     1       1.460  46.427   7.127  1.00  0.00     0.094 A 
ATOM     10  C   UNL     1       4.241  46.818   7.306  1.00  0.00     0.134 A 
ATOM     11  C   UNL     1       2.028  46.877   8.320  1.00  0.00     0.123 A 
ATOM     12  C   UNL     1       3.406  47.070   8.402  1.00  0.00     0.093 A 
BRANCH   3  13
ATOM     13  C   UNL     1       1.591  45.020   2.603  1.00  0.00     0.025 A 
ATOM     14  C   UNL     1       1.315  45.875   1.526  1.00  0.00     0.016 A 
ATOM     15  C   UNL     1       0.649  45.394   0.397  1.00  0.00     0.051 A 
ATOM     16  C   UNL     1       0.235  44.056   0.336  1.00  0.00     0.157 A 
ATOM     17  C   UNL     1       1.154  43.685   2.553  1.00  0.00     0.062 A 
ATOM     18  C   UNL     1       0.486  43.199   1.422  1.00  0.00     0.158 A 
BRANCH  16  19
ATOM     19  O   UNL     1      -0.424  43.576  -0.795  1.00  0.00    -0.504 OA
ATOM     20  H   UNL     1      -0.472  42.585  -1.001  1.00  0.00     0.293 HD
ENDBRANCH  16  19
BRANCH  18  21
ATOM     21  O   UNL     1       0.081  41.866   1.398  1.00  0.00    -0.504 OA
ATOM     22  H   UNL     1       0.712  41.114   1.147  1.00  0.00     0.293 HD
ENDBRANCH  18  21
ENDBRANCH   3  13
BRANCH  10  23
ATOM     23  O   UNL     1       5.612  46.975   7.526  1.00  0.00    -0.507 OA
ATOM     24  H   UNL     1       6.074  47.847   7.734  1.00  0.00     0.293 HD
ENDBRANCH  10  23
BRANCH  11  25
ATOM     25  O   UNL     1       1.231  47.124   9.435  1.00  0.00    -0.508 OA
ATOM     26  H   UNL     1       1.385  47.931  10.028  1.00  0.00     0.293 HD
ENDBRANCH  11  25
ENDBRANCH   1   2
BRANCH   1  27
ATOM     27  C   UNL     1       5.401  44.692   2.219  1.00  0.00     0.339 C 
ATOM     28  C   UNL     1       4.756  43.349   1.810  1.00  0.00     0.214 C 
ATOM     29  O   UNL     1       6.339  45.147   1.254  1.00  0.00    -0.332 OA
ATOM     30  C   UNL     1       4.182  43.415   0.381  1.00  0.00     0.180 C 
ATOM     31  C   UNL     1       5.743  45.340  -0.021  1.00  0.00     0.179 C 
ATOM     32  C   UNL     1       5.208  44.007  -0.595  1.00  0.00     0.177 C 
BRANCH  28  33
ATOM     33  O   UNL     1       5.669  42.286   1.944  1.00  0.00    -0.384 OA
ATOM     34  H   UNL     1       5.605  41.717   1.132  1.00  0.00     0.211 HD
ENDBRANCH  28  33
BRANCH  30  35
ATOM     35  O   UNL     1       3.805  42.135  -0.056  1.00  0.00    -0.387 OA
ATOM     36  H   UNL     1       3.275  41.728   0.677  1.00  0.00     0.211 HD
ENDBRANCH  30  35
BRANCH  31  37
ATOM     37  C   UNL     1       6.778  45.990  -0.949  1.00  0.00     0.191 C 
BRANCH  37  38
ATOM     38  O   UNL     1       6.141  46.636  -2.018  1.00  0.00    -0.394 OA
ATOM     39  H   UNL     1       6.304  47.608  -1.888  1.00  0.00     0.210 HD
ENDBRANCH  37  38
ENDBRANCH  31  37
BRANCH  32  40
ATOM     40  O   UNL     1       4.577  44.229  -1.830  1.00  0.00    -0.387 OA
ATOM     41  H   UNL     1       3.950  44.992  -1.710  1.00  0.00     0.211 HD
ENDBRANCH  32  40
ENDBRANCH   1  27
TORSDOF 12
ENDMDL
MODEL 8
REMARK VINA RESULT:    -5.251      1.483      4.776
REMARK INTER + INTRA:          -9.010
REMARK INTER:                  -7.794
REMARK INTRA:                  -1.216
REMARK UNBOUND:                -1.304
REMARK SMILES O=c1c(O[C@@H]2O[C@@H](CO)[C@H](O)[C@@H](O)[C@H]2O)c(-c2ccc(O)c(O)c2)oc2cc(O)cc(O)c12
REMARK SMILES IDX 4 1 3 2 16 3 25 4 2 5 26 6 1 7 33 8 27 9 31 10 28 11 30 12
REMARK SMILES IDX 17 13 18 14 19 15 20 16 24 17 22 18 21 19 23 21 32 23 29 25
REMARK SMILES IDX 5 27 14 28 6 29 12 30 7 31 10 32 15 33 13 35 8 37 9 38 11 40
REMARK H PARENT 21 20 23 22 32 24 29 26 15 34 13 36 9 39 11 41
REMARK Flexibility Score: inf
ROOT
ATOM      1  O   UNL     1     -10.458  32.680   7.199  1.00  0.00    -0.454 OA
ENDROOT
BRANCH   1   2
ATOM      2  C   UNL     1      -9.909  33.932   6.874  1.00  0.00     0.214 A 
ATOM      3  C   UNL     1      -8.613  34.005   6.335  1.00  0.00     0.180 A 
ATOM      4  O   UNL     1      -8.048  35.189   6.128  1.00  0.00    -0.452 OA
ATOM      5  C   UNL     1     -10.628  35.125   7.071  1.00  0.00     0.239 A 
ATOM      6  C   UNL     1      -8.669  36.343   6.349  1.00  0.00     0.146 A 
ATOM      7  O   UNL     1     -11.813  35.055   7.488  1.00  0.00    -0.285 OA
ATOM      8  C   UNL     1     -10.017  36.373   6.796  1.00  0.00     0.111 A 
ATOM      9  C   UNL     1      -7.965  37.529   6.125  1.00  0.00     0.094 A 
ATOM     10  C   UNL     1     -10.650  37.646   6.959  1.00  0.00     0.134 A 
ATOM     11  C   UNL     1      -8.579  38.765   6.338  1.00  0.00     0.123 A 
ATOM     12  C   UNL     1      -9.909  38.816   6.753  1.00  0.00     0.093 A 
BRANCH   3  13
ATOM     13  C   UNL     1      -7.832  32.792   6.023  1.00  0.00     0.025 A 
ATOM     14  C   UNL     1      -6.582  32.598   6.630  1.00  0.00     0.016 A 
ATOM     15  C   UNL     1      -5.854  31.432   6.385  1.00  0.00     0.051 A 
ATOM     16  C   UNL     1      -6.356  30.453   5.515  1.00  0.00     0.157 A 
ATOM     17  C   UNL     1      -8.323  31.823   5.132  1.00  0.00     0.062 A 
ATOM     18  C   UNL     1      -7.596  30.654   4.883  1.00  0.00     0.158 A 
BRANCH  16  19
ATOM     19  O   UNL     1      -5.630  29.288   5.277  1.00  0.00    -0.504 OA
ATOM     20  H   UNL     1      -6.082  28.432   4.977  1.00  0.00     0.293 HD
ENDBRANCH  16  19
BRANCH  18  21
ATOM     21  O   UNL     1      -8.119  29.704   4.007  1.00  0.00    -0.504 OA
ATOM     22  H   UNL     1      -7.528  29.117   3.431  1.00  0.00     0.293 HD
ENDBRANCH  18  21
ENDBRANCH   3  13
BRANCH  10  23
ATOM     23  O   UNL     1     -11.994  37.819   7.302  1.00  0.00    -0.507 OA
ATOM     24  H   UNL     1     -12.764  37.281   6.936  1.00  0.00     0.293 HD
ENDBRANCH  10  23
BRANCH  11  25
ATOM     25  O   UNL     1      -7.878  39.950   6.129  1.00  0.00    -0.508 OA
ATOM     26  H   UNL     1      -6.867  39.962   6.058  1.00  0.00     0.293 HD
ENDBRANCH  11  25
ENDBRANCH   1   2
BRANCH   1  27
ATOM     27  C   UNL     1     -10.014  31.883   8.304  1.00  0.00     0.339 C 
ATOM     28  C   UNL     1     -11.035  31.945   9.462  1.00  0.00     0.214 C 
ATOM     29  O   UNL     1      -9.749  30.547   7.899  1.00  0.00    -0.332 OA
ATOM     30  C   UNL     1     -12.308  31.142   9.131  1.00  0.00     0.180 C 
ATOM     31  C   UNL     1     -10.923  29.880   7.458  1.00  0.00     0.179 C 
ATOM     32  C   UNL     1     -11.952  29.744   8.605  1.00  0.00     0.177 C 
BRANCH  28  33
ATOM     33  O   UNL     1     -10.458  31.510  10.671  1.00  0.00    -0.384 OA
ATOM     34  H   UNL     1     -10.948  30.702  10.976  1.00  0.00     0.211 HD
ENDBRANCH  28  33
BRANCH  30  35
ATOM     35  O   UNL     1     -13.122  31.021  10.268  1.00  0.00    -0.387 OA
ATOM     36  H   UNL     1     -13.487  30.098  10.260  1.00  0.00     0.211 HD
ENDBRANCH  30  35
BRANCH  31  37
ATOM     37  C   UNL     1     -10.521  28.515   6.883  1.00  0.00     0.191 C 
BRANCH  37  38
ATOM     38  O   UNL     1     -10.374  28.594   5.491  1.00  0.00    -0.394 OA
ATOM     39  H   UNL     1     -11.050  27.972   5.108  1.00  0.00     0.210 HD
ENDBRANCH  37  38
ENDBRANCH  31  37
BRANCH  32  40
ATOM     40  O   UNL     1     -13.125  29.130   8.134  1.00  0.00    -0.387 OA
ATOM     41  H   UNL     1     -13.108  29.178   7.141  1.00  0.00     0.211 HD
ENDBRANCH  32  40
ENDBRANCH   1  27
TORSDOF 12
ENDMDL
