MODEL 1
REMARK VINA RESULT:    -2.507      0.000      0.000
REMARK INTER + INTRA:          -9.317
REMARK INTER:                  -5.439
REMARK INTRA:                  -3.878
REMARK UNBOUND:                -3.878
REMARK SMILES CCCCCCCCCCCCCCCCCCCCCC(=O)[O-]
REMARK SMILES IDX 12 1 11 2 10 3 9 4 8 5 7 6 6 7 5 8 4 9 3 10 2 11 1 12 13 13
REMARK SMILES IDX 14 14 15 15 16 16 17 17 18 18 19 19 20 20 21 21 22 22 23 23
REMARK SMILES IDX 24 24
REMARK H PARENT
REMARK Flexibility Score: inf
ROOT
ATOM      1  C   UNL     1     147.379 148.647 143.000  1.00  0.00     0.000 C 
ENDROOT
BRANCH   1   2
ATOM      2  C   UNL     1     146.912 149.823 142.127  1.00  0.00     0.000 C 
BRANCH   2   3
ATOM      3  C   UNL     1     145.867 149.398 141.081  1.00  0.00     0.000 C 
BRANCH   3   4
ATOM      4  C   UNL     1     144.618 150.303 141.094  1.00  0.00    -0.000 C 
BRANCH   4   5
ATOM      5  C   UNL     1     143.472 149.799 140.200  1.00  0.00    -0.000 C 
BRANCH   5   6
ATOM      6  C   UNL     1     143.561 150.316 138.756  1.00  0.00    -0.000 C 
BRANCH   6   7
ATOM      7  C   UNL     1     143.272 149.227 137.708  1.00  0.00    -0.000 C 
BRANCH   7   8
ATOM      8  C   UNL     1     144.436 148.987 136.724  1.00  0.00    -0.000 C 
BRANCH   8   9
ATOM      9  C   UNL     1     145.227 147.706 137.047  1.00  0.00    -0.000 C 
BRANCH   9  10
ATOM     10  C   UNL     1     144.516 146.822 138.083  1.00  0.00    -0.000 C 
BRANCH  10  11
ATOM     11  C   UNL     1     145.470 146.303 139.171  1.00  0.00    -0.003 C 
ATOM     12  C   UNL     1     146.926 146.563 138.791  1.00  0.00     0.004 C 
ENDBRANCH  10  11
ENDBRANCH   9  10
ENDBRANCH   8   9
ENDBRANCH   7   8
ENDBRANCH   6   7
ENDBRANCH   5   6
ENDBRANCH   4   5
ENDBRANCH   3   4
ENDBRANCH   2   3
ENDBRANCH   1   2
BRANCH   1  13
ATOM     13  C   UNL     1     147.023 147.284 142.387  1.00  0.00     0.000 C 
BRANCH  13  14
ATOM     14  C   UNL     1     146.593 146.290 143.477  1.00  0.00     0.000 C 
BRANCH  14  15
ATOM     15  C   UNL     1     145.172 145.742 143.260  1.00  0.00     0.000 C 
BRANCH  15  16
ATOM     16  C   UNL     1     144.189 146.720 142.583  1.00  0.00     0.000 C 
BRANCH  16  17
ATOM     17  C   UNL     1     142.979 147.104 143.461  1.00  0.00     0.000 C 
BRANCH  17  18
ATOM     18  C   UNL     1     143.024 148.577 143.901  1.00  0.00     0.000 C 
BRANCH  18  19
ATOM     19  C   UNL     1     144.089 148.803 144.980  1.00  0.00     0.000 C 
BRANCH  19  20
ATOM     20  C   UNL     1     144.634 150.238 144.916  1.00  0.00     0.006 C 
BRANCH  20  21
ATOM     21  C   UNL     1     143.521 151.288 145.025  1.00  0.00     0.053 C 
BRANCH  21  22
ATOM     22  C   UNL     1     143.874 152.376 145.993  1.00  0.00     0.041 C 
ATOM     23  O   UNL     1     144.163 152.094 147.186  1.00  0.00    -0.550 OA
ATOM     24  O   UNL     1     143.888 153.702 145.577  1.00  0.00    -0.550 OA
ENDBRANCH  21  22
ENDBRANCH  20  21
ENDBRANCH  19  20
ENDBRANCH  18  19
ENDBRANCH  17  18
ENDBRANCH  16  17
ENDBRANCH  15  16
ENDBRANCH  14  15
ENDBRANCH  13  14
ENDBRANCH   1  13
TORSDOF 20
ENDMDL
MODEL 2
REMARK VINA RESULT:    -2.447      1.984      4.048
REMARK INTER + INTRA:          -9.187
REMARK INTER:                  -5.195
REMARK INTRA:                  -3.992
REMARK UNBOUND:                -3.878
REMARK SMILES CCCCCCCCCCCCCCCCCCCCCC(=O)[O-]
REMARK SMILES IDX 12 1 11 2 10 3 9 4 8 5 7 6 6 7 5 8 4 9 3 10 2 11 1 12 13 13
REMARK SMILES IDX 14 14 15 15 16 16 17 17 18 18 19 19 20 20 21 21 22 22 23 23
REMARK SMILES IDX 24 24
REMARK H PARENT
REMARK Flexibility Score: inf
ROOT
ATOM      1  C   UNL     1     147.008 149.575 142.195  1.00  0.00     0.000 C 
ENDROOT
BRANCH   1   2
ATOM      2  C   UNL     1     146.741 148.285 142.988  1.00  0.00     0.000 C 
BRANCH   2   3
ATOM      3  C   UNL     1     147.819 147.214 142.746  1.00  0.00     0.000 C 
BRANCH   3   4
ATOM      4  C   UNL     1     147.421 145.837 143.318  1.00  0.00    -0.000 C 
BRANCH   4   5
ATOM      5  C   UNL     1     146.035 145.815 143.985  1.00  0.00    -0.000 C 
BRANCH   5   6
ATOM      6  C   UNL     1     145.327 144.457 143.861  1.00  0.00    -0.000 C 
BRANCH   6   7
ATOM      7  C   UNL     1     143.961 144.552 143.161  1.00  0.00    -0.000 C 
BRANCH   7   8
ATOM      8  C   UNL     1     143.938 145.536 141.972  1.00  0.00    -0.000 C 
BRANCH   8   9
ATOM      9  C   UNL     1     144.588 144.947 140.706  1.00  0.00    -0.000 C 
BRANCH   9  10
ATOM     10  C   UNL     1     145.114 146.035 139.756  1.00  0.00    -0.000 C 
BRANCH  10  11
ATOM     11  C   UNL     1     146.642 145.989 139.598  1.00  0.00    -0.003 C 
ATOM     12  C   UNL     1     147.164 147.266 138.945  1.00  0.00     0.004 C 
ENDBRANCH  10  11
ENDBRANCH   9  10
ENDBRANCH   8   9
ENDBRANCH   7   8
ENDBRANCH   6   7
ENDBRANCH   5   6
ENDBRANCH   4   5
ENDBRANCH   3   4
ENDBRANCH   2   3
ENDBRANCH   1   2
BRANCH   1  13
ATOM     13  C   UNL     1     145.715 150.225 141.680  1.00  0.00     0.000 C 
BRANCH  13  14
ATOM     14  C   UNL     1     144.777 149.170 141.073  1.00  0.00     0.000 C 
BRANCH  14  15
ATOM     15  C   UNL     1     143.347 149.244 141.636  1.00  0.00     0.000 C 
BRANCH  15  16
ATOM     16  C   UNL     1     143.249 149.665 143.117  1.00  0.00     0.000 C 
BRANCH  16  17
ATOM     17  C   UNL     1     143.268 148.482 144.110  1.00  0.00     0.000 C 
BRANCH  17  18
ATOM     18  C   UNL     1     143.929 148.855 145.447  1.00  0.00     0.000 C 
BRANCH  18  19
ATOM     19  C   UNL     1     144.706 150.172 145.337  1.00  0.00     0.000 C 
BRANCH  19  20
ATOM     20  C   UNL     1     144.340 151.118 146.490  1.00  0.00     0.006 C 
BRANCH  20  21
ATOM     21  C   UNL     1     144.226 150.383 147.832  1.00  0.00     0.053 C 
BRANCH  21  22
ATOM     22  C   UNL     1     145.535 150.347 148.561  1.00  0.00     0.041 C 
ATOM     23  O   UNL     1     145.821 149.370 149.302  1.00  0.00    -0.550 OA
ATOM     24  O   UNL     1     146.441 151.390 148.417  1.00  0.00    -0.550 OA
ENDBRANCH  21  22
ENDBRANCH  20  21
ENDBRANCH  19  20
ENDBRANCH  18  19
ENDBRANCH  17  18
ENDBRANCH  16  17
ENDBRANCH  15  16
ENDBRANCH  14  15
ENDBRANCH  13  14
ENDBRANCH   1  13
TORSDOF 20
ENDMDL
MODEL 3
REMARK VINA RESULT:    -2.418      1.310      3.598
REMARK INTER + INTRA:          -9.123
REMARK INTER:                  -4.920
REMARK INTRA:                  -4.203
REMARK UNBOUND:                -3.878
REMARK SMILES CCCCCCCCCCCCCCCCCCCCCC(=O)[O-]
REMARK SMILES IDX 12 1 11 2 10 3 9 4 8 5 7 6 6 7 5 8 4 9 3 10 2 11 1 12 13 13
REMARK SMILES IDX 14 14 15 15 16 16 17 17 18 18 19 19 20 20 21 21 22 22 23 23
REMARK SMILES IDX 24 24
REMARK H PARENT
REMARK Flexibility Score: inf
ROOT
ATOM      1  C   UNL     1     147.382 148.697 142.999  1.00  0.00     0.000 C 
ENDROOT
BRANCH   1   2
ATOM      2  C   UNL     1     147.187 147.383 142.224  1.00  0.00     0.000 C 
BRANCH   2   3
ATOM      3  C   UNL     1     148.063 146.244 142.771  1.00  0.00     0.000 C 
BRANCH   3   4
ATOM      4  C   UNL     1     147.432 144.854 142.547  1.00  0.00    -0.000 C 
BRANCH   4   5
ATOM      5  C   UNL     1     145.893 144.857 142.569  1.00  0.00    -0.000 C 
BRANCH   5   6
ATOM      6  C   UNL     1     145.269 144.469 141.220  1.00  0.00    -0.000 C 
BRANCH   6   7
ATOM      7  C   UNL     1     146.319 144.187 140.130  1.00  0.00    -0.000 C 
BRANCH   7   8
ATOM      8  C   UNL     1     146.287 145.195 138.962  1.00  0.00    -0.000 C 
BRANCH   8   9
ATOM      9  C   UNL     1     145.318 146.364 139.216  1.00  0.00    -0.000 C 
BRANCH   9  10
ATOM     10  C   UNL     1     144.136 146.371 138.235  1.00  0.00    -0.000 C 
BRANCH  10  11
ATOM     11  C   UNL     1     143.346 147.689 138.274  1.00  0.00    -0.003 C 
ATOM     12  C   UNL     1     144.237 148.873 137.911  1.00  0.00     0.004 C 
ENDBRANCH  10  11
ENDBRANCH   9  10
ENDBRANCH   8   9
ENDBRANCH   7   8
ENDBRANCH   6   7
ENDBRANCH   5   6
ENDBRANCH   4   5
ENDBRANCH   3   4
ENDBRANCH   2   3
ENDBRANCH   1   2
BRANCH   1  13
ATOM     13  C   UNL     1     146.700 149.890 142.311  1.00  0.00     0.000 C 
BRANCH  13  14
ATOM     14  C   UNL     1     145.627 149.411 141.321  1.00  0.00     0.000 C 
BRANCH  14  15
ATOM     15  C   UNL     1     144.265 150.093 141.538  1.00  0.00     0.000 C 
BRANCH  15  16
ATOM     16  C   UNL     1     143.067 149.131 141.683  1.00  0.00     0.000 C 
BRANCH  16  17
ATOM     17  C   UNL     1     143.462 147.687 142.060  1.00  0.00     0.000 C 
BRANCH  17  18
ATOM     18  C   UNL     1     143.093 147.344 143.512  1.00  0.00     0.000 C 
BRANCH  18  19
ATOM     19  C   UNL     1     144.249 147.656 144.470  1.00  0.00     0.000 C 
BRANCH  19  20
ATOM     20  C   UNL     1     143.806 148.652 145.552  1.00  0.00     0.006 C 
BRANCH  20  21
ATOM     21  C   UNL     1     144.453 150.032 145.373  1.00  0.00     0.053 C 
BRANCH  21  22
ATOM     22  C   UNL     1     144.608 150.750 146.680  1.00  0.00     0.041 C 
ATOM     23  O   UNL     1     144.895 150.108 147.725  1.00  0.00    -0.550 OA
ATOM     24  O   UNL     1     144.440 152.127 146.741  1.00  0.00    -0.550 OA
ENDBRANCH  21  22
ENDBRANCH  20  21
ENDBRANCH  19  20
ENDBRANCH  18  19
ENDBRANCH  17  18
ENDBRANCH  16  17
ENDBRANCH  15  16
ENDBRANCH  14  15
ENDBRANCH  13  14
ENDBRANCH   1  13
TORSDOF 20
ENDMDL
MODEL 4
REMARK VINA RESULT:    -2.382      3.550      7.024
REMARK INTER + INTRA:          -9.044
REMARK INTER:                  -5.014
REMARK INTRA:                  -4.030
REMARK UNBOUND:                -3.878
REMARK SMILES CCCCCCCCCCCCCCCCCCCCCC(=O)[O-]
REMARK SMILES IDX 12 1 11 2 10 3 9 4 8 5 7 6 6 7 5 8 4 9 3 10 2 11 1 12 13 13
REMARK SMILES IDX 14 14 15 15 16 16 17 17 18 18 19 19 20 20 21 21 22 22 23 23
REMARK SMILES IDX 24 24
REMARK H PARENT
REMARK Flexibility Score: inf
ROOT
ATOM      1  C   UNL     1     147.360 148.550 143.007  1.00  0.00     0.000 C 
ENDROOT
BRANCH   1   2
ATOM      2  C   UNL     1     147.361 147.307 142.102  1.00  0.00     0.000 C 
BRANCH   2   3
ATOM      3  C   UNL     1     148.142 146.133 142.717  1.00  0.00     0.000 C 
BRANCH   3   4
ATOM      4  C   UNL     1     147.339 144.815 142.696  1.00  0.00    -0.000 C 
BRANCH   4   5
ATOM      5  C   UNL     1     145.844 144.989 143.018  1.00  0.00    -0.000 C 
BRANCH   5   6
ATOM      6  C   UNL     1     145.562 145.122 144.521  1.00  0.00    -0.000 C 
BRANCH   6   7
ATOM      7  C   UNL     1     144.481 146.169 144.841  1.00  0.00    -0.000 C 
BRANCH   7   8
ATOM      8  C   UNL     1     144.020 146.983 143.614  1.00  0.00    -0.000 C 
BRANCH   8   9
ATOM      9  C   UNL     1     143.360 148.318 144.004  1.00  0.00    -0.000 C 
BRANCH   9  10
ATOM     10  C   UNL     1     144.071 149.002 145.183  1.00  0.00    -0.000 C 
BRANCH  10  11
ATOM     11  C   UNL     1     144.349 150.490 144.920  1.00  0.00    -0.003 C 
ATOM     12  C   UNL     1     143.178 151.147 144.194  1.00  0.00     0.004 C 
ENDBRANCH  10  11
ENDBRANCH   9  10
ENDBRANCH   8   9
ENDBRANCH   7   8
ENDBRANCH   6   7
ENDBRANCH   5   6
ENDBRANCH   4   5
ENDBRANCH   3   4
ENDBRANCH   2   3
ENDBRANCH   1   2
BRANCH   1  13
ATOM     13  C   UNL     1     146.717 149.769 142.328  1.00  0.00     0.000 C 
BRANCH  13  14
ATOM     14  C   UNL     1     145.746 149.330 141.221  1.00  0.00     0.000 C 
BRANCH  14  15
ATOM     15  C   UNL     1     144.641 150.365 140.949  1.00  0.00     0.000 C 
BRANCH  15  16
ATOM     16  C   UNL     1     143.308 149.780 140.438  1.00  0.00     0.000 C 
BRANCH  16  17
ATOM     17  C   UNL     1     143.330 148.249 140.233  1.00  0.00     0.000 C 
BRANCH  17  18
ATOM     18  C   UNL     1     143.129 147.857 138.761  1.00  0.00     0.000 C 
BRANCH  18  19
ATOM     19  C   UNL     1     144.214 146.880 138.291  1.00  0.00     0.000 C 
BRANCH  19  20
ATOM     20  C   UNL     1     145.460 147.639 137.811  1.00  0.00     0.006 C 
BRANCH  20  21
ATOM     21  C   UNL     1     146.734 147.180 138.532  1.00  0.00     0.053 C 
BRANCH  21  22
ATOM     22  C   UNL     1     147.085 145.762 138.196  1.00  0.00     0.041 C 
ATOM     23  O   UNL     1     147.339 145.437 137.006  1.00  0.00    -0.550 OA
ATOM     24  O   UNL     1     147.138 144.802 139.198  1.00  0.00    -0.550 OA
ENDBRANCH  21  22
ENDBRANCH  20  21
ENDBRANCH  19  20
ENDBRANCH  18  19
ENDBRANCH  17  18
ENDBRANCH  16  17
ENDBRANCH  15  16
ENDBRANCH  14  15
ENDBRANCH  13  14
ENDBRANCH   1  13
TORSDOF 20
ENDMDL
MODEL 5
REMARK VINA RESULT:    -2.349      1.359      2.927
REMARK INTER + INTRA:          -8.972
REMARK INTER:                  -5.486
REMARK INTRA:                  -3.486
REMARK UNBOUND:                -3.878
REMARK SMILES CCCCCCCCCCCCCCCCCCCCCC(=O)[O-]
REMARK SMILES IDX 12 1 11 2 10 3 9 4 8 5 7 6 6 7 5 8 4 9 3 10 2 11 1 12 13 13
REMARK SMILES IDX 14 14 15 15 16 16 17 17 18 18 19 19 20 20 21 21 22 22 23 23
REMARK SMILES IDX 24 24
REMARK H PARENT
REMARK Flexibility Score: inf
ROOT
ATOM      1  C   UNL     1     146.227 145.664 143.746  1.00  0.00     0.000 C 
ENDROOT
BRANCH   1   2
ATOM      2  C   UNL     1     147.549 146.203 143.176  1.00  0.00     0.000 C 
BRANCH   2   3
ATOM      3  C   UNL     1     147.338 147.413 142.250  1.00  0.00     0.000 C 
BRANCH   3   4
ATOM      4  C   UNL     1     147.338 148.751 143.019  1.00  0.00    -0.000 C 
BRANCH   4   5
ATOM      5  C   UNL     1     146.568 149.879 142.310  1.00  0.00    -0.000 C 
BRANCH   5   6
ATOM      6  C   UNL     1     145.292 149.391 141.610  1.00  0.00    -0.000 C 
BRANCH   6   7
ATOM      7  C   UNL     1     144.646 150.465 140.718  1.00  0.00    -0.000 C 
BRANCH   7   8
ATOM      8  C   UNL     1     143.830 149.889 139.541  1.00  0.00    -0.000 C 
BRANCH   8   9
ATOM      9  C   UNL     1     143.994 148.364 139.401  1.00  0.00    -0.000 C 
BRANCH   9  10
ATOM     10  C   UNL     1     144.958 147.978 138.268  1.00  0.00    -0.000 C 
BRANCH  10  11
ATOM     11  C   UNL     1     146.239 147.306 138.787  1.00  0.00    -0.003 C 
ATOM     12  C   UNL     1     146.081 145.789 138.834  1.00  0.00     0.004 C 
ENDBRANCH  10  11
ENDBRANCH   9  10
ENDBRANCH   8   9
ENDBRANCH   7   8
ENDBRANCH   6   7
ENDBRANCH   5   6
ENDBRANCH   4   5
ENDBRANCH   3   4
ENDBRANCH   2   3
ENDBRANCH   1   2
BRANCH   1  13
ATOM     13  C   UNL     1     145.057 145.819 142.762  1.00  0.00     0.000 C 
BRANCH  13  14
ATOM     14  C   UNL     1     143.903 146.604 143.405  1.00  0.00     0.000 C 
BRANCH  14  15
ATOM     15  C   UNL     1     144.242 147.120 144.814  1.00  0.00     0.000 C 
BRANCH  15  16
ATOM     16  C   UNL     1     143.416 148.337 145.282  1.00  0.00     0.000 C 
BRANCH  16  17
ATOM     17  C   UNL     1     142.875 149.210 144.129  1.00  0.00     0.000 C 
BRANCH  17  18
ATOM     18  C   UNL     1     143.121 150.708 144.369  1.00  0.00     0.000 C 
BRANCH  18  19
ATOM     19  C   UNL     1     144.270 150.933 145.358  1.00  0.00     0.000 C 
BRANCH  19  20
ATOM     20  C   UNL     1     143.931 152.064 146.341  1.00  0.00     0.006 C 
BRANCH  20  21
ATOM     21  C   UNL     1     143.878 151.576 147.794  1.00  0.00     0.053 C 
BRANCH  21  22
ATOM     22  C   UNL     1     145.138 150.869 148.191  1.00  0.00     0.041 C 
ATOM     23  O   UNL     1     146.240 151.478 148.170  1.00  0.00    -0.550 OA
ATOM     24  O   UNL     1     145.094 149.539 148.591  1.00  0.00    -0.550 OA
ENDBRANCH  21  22
ENDBRANCH  20  21
ENDBRANCH  19  20
ENDBRANCH  18  19
ENDBRANCH  17  18
ENDBRANCH  16  17
ENDBRANCH  15  16
ENDBRANCH  14  15
ENDBRANCH  13  14
ENDBRANCH   1  13
TORSDOF 20
ENDMDL
MODEL 6
REMARK VINA RESULT:    -2.305      3.541      7.421
REMARK INTER + INTRA:          -8.877
REMARK INTER:                  -5.391
REMARK INTRA:                  -3.486
REMARK UNBOUND:                -3.878
REMARK SMILES CCCCCCCCCCCCCCCCCCCCCC(=O)[O-]
REMARK SMILES IDX 12 1 11 2 10 3 9 4 8 5 7 6 6 7 5 8 4 9 3 10 2 11 1 12 13 13
REMARK SMILES IDX 14 14 15 15 16 16 17 17 18 18 19 19 20 20 21 21 22 22 23 23
REMARK SMILES IDX 24 24
REMARK H PARENT
REMARK Flexibility Score: inf
ROOT
ATOM      1  C   UNL     1     147.106 146.218 143.489  1.00  0.00     0.000 C 
ENDROOT
BRANCH   1   2
ATOM      2  C   UNL     1     145.621 145.893 143.261  1.00  0.00     0.000 C 
BRANCH   2   3
ATOM      3  C   UNL     1     144.801 145.953 144.562  1.00  0.00     0.000 C 
BRANCH   3   4
ATOM      4  C   UNL     1     143.669 146.999 144.497  1.00  0.00    -0.000 C 
BRANCH   4   5
ATOM      5  C   UNL     1     143.730 148.055 145.615  1.00  0.00    -0.000 C 
BRANCH   5   6
ATOM      6  C   UNL     1     143.306 149.455 145.146  1.00  0.00    -0.000 C 
BRANCH   6   7
ATOM      7  C   UNL     1     144.450 150.482 145.207  1.00  0.00    -0.000 C 
BRANCH   7   8
ATOM      8  C   UNL     1     144.049 151.821 145.864  1.00  0.00    -0.000 C 
BRANCH   8   9
ATOM      9  C   UNL     1     144.242 151.809 147.392  1.00  0.00    -0.000 C 
BRANCH   9  10
ATOM     10  C   UNL     1     145.669 151.414 147.801  1.00  0.00    -0.000 C 
BRANCH  10  11
ATOM     11  C   UNL     1     145.701 150.565 149.081  1.00  0.00    -0.003 C 
ATOM     12  C   UNL     1     144.923 149.266 148.897  1.00  0.00     0.004 C 
ENDBRANCH  10  11
ENDBRANCH   9  10
ENDBRANCH   8   9
ENDBRANCH   7   8
ENDBRANCH   6   7
ENDBRANCH   5   6
ENDBRANCH   4   5
ENDBRANCH   3   4
ENDBRANCH   2   3
ENDBRANCH   1   2
BRANCH   1  13
ATOM     13  C   UNL     1     147.586 147.402 142.636  1.00  0.00     0.000 C 
BRANCH  13  14
ATOM     14  C   UNL     1     146.841 148.690 143.021  1.00  0.00     0.000 C 
BRANCH  14  15
ATOM     15  C   UNL     1     146.822 149.731 141.888  1.00  0.00     0.000 C 
BRANCH  15  16
ATOM     16  C   UNL     1     145.418 150.122 141.382  1.00  0.00     0.000 C 
BRANCH  16  17
ATOM     17  C   UNL     1     144.330 149.063 141.666  1.00  0.00     0.000 C 
BRANCH  17  18
ATOM     18  C   UNL     1     144.232 148.014 140.547  1.00  0.00     0.000 C 
BRANCH  18  19
ATOM     19  C   UNL     1     144.635 148.607 139.192  1.00  0.00     0.000 C 
BRANCH  19  20
ATOM     20  C   UNL     1     145.475 147.603 138.386  1.00  0.00     0.006 C 
BRANCH  20  21
ATOM     21  C   UNL     1     146.593 146.974 139.228  1.00  0.00     0.053 C 
BRANCH  21  22
ATOM     22  C   UNL     1     146.417 145.492 139.369  1.00  0.00     0.041 C 
ATOM     23  O   UNL     1     145.499 144.900 138.743  1.00  0.00    -0.550 OA
ATOM     24  O   UNL     1     147.272 144.765 140.188  1.00  0.00    -0.550 OA
ENDBRANCH  21  22
ENDBRANCH  20  21
ENDBRANCH  19  20
ENDBRANCH  18  19
ENDBRANCH  17  18
ENDBRANCH  16  17
ENDBRANCH  15  16
ENDBRANCH  14  15
ENDBRANCH  13  14
ENDBRANCH   1  13
TORSDOF 20
ENDMDL
MODEL 7
REMARK VINA RESULT:    -2.302      5.720     10.788
REMARK INTER + INTRA:          -8.871
REMARK INTER:                  -6.046
REMARK INTRA:                  -2.825
REMARK UNBOUND:                -3.878
REMARK SMILES CCCCCCCCCCCCCCCCCCCCCC(=O)[O-]
REMARK SMILES IDX 12 1 11 2 10 3 9 4 8 5 7 6 6 7 5 8 4 9 3 10 2 11 1 12 13 13
REMARK SMILES IDX 14 14 15 15 16 16 17 17 18 18 19 19 20 20 21 21 22 22 23 23
REMARK SMILES IDX 24 24
REMARK H PARENT
REMARK Flexibility Score: inf
ROOT
ATOM      1  C   UNL     1     145.931 151.127 149.412  1.00  0.00     0.000 C 
ENDROOT
BRANCH   1   2
ATOM      2  C   UNL     1     145.867 149.639 149.796  1.00  0.00     0.000 C 
BRANCH   2   3
ATOM      3  C   UNL     1     145.192 149.414 151.160  1.00  0.00     0.000 C 
BRANCH   3   4
ATOM      4  C   UNL     1     143.655 149.332 151.051  1.00  0.00    -0.000 C 
BRANCH   4   5
ATOM      5  C   UNL     1     142.921 149.565 152.383  1.00  0.00    -0.000 C 
BRANCH   5   6
ATOM      6  C   UNL     1     143.738 149.123 153.607  1.00  0.00    -0.000 C 
BRANCH   6   7
ATOM      7  C   UNL     1     143.751 150.172 154.732  1.00  0.00    -0.000 C 
BRANCH   7   8
ATOM      8  C   UNL     1     145.160 150.477 155.283  1.00  0.00    -0.000 C 
BRANCH   8   9
ATOM      9  C   UNL     1     145.719 151.815 154.766  1.00  0.00    -0.000 C 
BRANCH   9  10
ATOM     10  C   UNL     1     144.660 152.647 154.024  1.00  0.00    -0.000 C 
BRANCH  10  11
ATOM     11  C   UNL     1     145.020 152.877 152.548  1.00  0.00    -0.003 C 
ATOM     12  C   UNL     1     143.765 153.072 151.702  1.00  0.00     0.004 C 
ENDBRANCH  10  11
ENDBRANCH   9  10
ENDBRANCH   8   9
ENDBRANCH   7   8
ENDBRANCH   6   7
ENDBRANCH   5   6
ENDBRANCH   4   5
ENDBRANCH   3   4
ENDBRANCH   2   3
ENDBRANCH   1   2
BRANCH   1  13
ATOM     13  C   UNL     1     145.339 151.400 148.021  1.00  0.00     0.000 C 
BRANCH  13  14
ATOM     14  C   UNL     1     143.823 151.636 148.109  1.00  0.00     0.000 C 
BRANCH  14  15
ATOM     15  C   UNL     1     143.029 150.807 147.084  1.00  0.00     0.000 C 
BRANCH  15  16
ATOM     16  C   UNL     1     143.482 149.340 146.937  1.00  0.00     0.000 C 
BRANCH  16  17
ATOM     17  C   UNL     1     143.822 148.930 145.487  1.00  0.00     0.000 C 
BRANCH  17  18
ATOM     18  C   UNL     1     144.742 149.948 144.795  1.00  0.00     0.000 C 
BRANCH  18  19
ATOM     19  C   UNL     1     145.071 149.516 143.361  1.00  0.00     0.000 C 
BRANCH  19  20
ATOM     20  C   UNL     1     146.562 149.730 143.056  1.00  0.00     0.006 C 
BRANCH  20  21
ATOM     21  C   UNL     1     147.292 148.411 142.771  1.00  0.00     0.053 C 
BRANCH  21  22
ATOM     22  C   UNL     1     146.687 147.678 141.612  1.00  0.00     0.041 C 
ATOM     23  O   UNL     1     146.213 146.522 141.771  1.00  0.00    -0.550 OA
ATOM     24  O   UNL     1     146.644 148.274 140.358  1.00  0.00    -0.550 OA
ENDBRANCH  21  22
ENDBRANCH  20  21
ENDBRANCH  19  20
ENDBRANCH  18  19
ENDBRANCH  17  18
ENDBRANCH  16  17
ENDBRANCH  15  16
ENDBRANCH  14  15
ENDBRANCH  13  14
ENDBRANCH   1  13
TORSDOF 20
ENDMDL
MODEL 8
REMARK VINA RESULT:    -2.298      6.219     11.653
REMARK INTER + INTRA:          -8.863
REMARK INTER:                  -6.305
REMARK INTRA:                  -2.558
REMARK UNBOUND:                -3.878
REMARK SMILES CCCCCCCCCCCCCCCCCCCCCC(=O)[O-]
REMARK SMILES IDX 12 1 11 2 10 3 9 4 8 5 7 6 6 7 5 8 4 9 3 10 2 11 1 12 13 13
REMARK SMILES IDX 14 14 15 15 16 16 17 17 18 18 19 19 20 20 21 21 22 22 23 23
REMARK SMILES IDX 24 24
REMARK H PARENT
REMARK Flexibility Score: inf
ROOT
ATOM      1  C   UNL     1     145.164 151.525 150.812  1.00  0.00     0.000 C 
ENDROOT
BRANCH   1   2
ATOM      2  C   UNL     1     144.387 151.499 152.138  1.00  0.00     0.000 C 
BRANCH   2   3
ATOM      3  C   UNL     1     144.619 150.200 152.929  1.00  0.00     0.000 C 
BRANCH   3   4
ATOM      4  C   UNL     1     144.697 150.442 154.451  1.00  0.00    -0.000 C 
BRANCH   4   5
ATOM      5  C   UNL     1     145.733 151.502 154.863  1.00  0.00    -0.000 C 
BRANCH   5   6
ATOM      6  C   UNL     1     145.133 152.637 155.706  1.00  0.00    -0.000 C 
BRANCH   6   7
ATOM      7  C   UNL     1     143.601 152.730 155.587  1.00  0.00    -0.000 C 
BRANCH   7   8
ATOM      8  C   UNL     1     143.112 153.945 154.771  1.00  0.00    -0.000 C 
BRANCH   8   9
ATOM      9  C   UNL     1     144.230 154.972 154.516  1.00  0.00    -0.000 C 
BRANCH   9  10
ATOM     10  C   UNL     1     144.558 155.126 153.022  1.00  0.00    -0.000 C 
BRANCH  10  11
ATOM     11  C   UNL     1     146.011 155.563 152.779  1.00  0.00    -0.003 C 
ATOM     12  C   UNL     1     146.952 154.362 152.776  1.00  0.00     0.004 C 
ENDBRANCH  10  11
ENDBRANCH   9  10
ENDBRANCH   8   9
ENDBRANCH   7   8
ENDBRANCH   6   7
ENDBRANCH   5   6
ENDBRANCH   4   5
ENDBRANCH   3   4
ENDBRANCH   2   3
ENDBRANCH   1   2
BRANCH   1  13
ATOM     13  C   UNL     1     145.427 150.117 150.258  1.00  0.00     0.000 C 
BRANCH  13  14
ATOM     14  C   UNL     1     145.142 150.060 148.749  1.00  0.00     0.000 C 
BRANCH  14  15
ATOM     15  C   UNL     1     145.060 151.454 148.103  1.00  0.00     0.000 C 
BRANCH  15  16
ATOM     16  C   UNL     1     143.717 151.779 147.415  1.00  0.00     0.000 C 
BRANCH  16  17
ATOM     17  C   UNL     1     143.865 152.500 146.058  1.00  0.00     0.000 C 
BRANCH  17  18
ATOM     18  C   UNL     1     143.328 151.658 144.890  1.00  0.00     0.000 C 
BRANCH  18  19
ATOM     19  C   UNL     1     143.280 150.169 145.252  1.00  0.00     0.000 C 
BRANCH  19  20
ATOM     20  C   UNL     1     144.552 149.451 144.774  1.00  0.00     0.006 C 
BRANCH  20  21
ATOM     21  C   UNL     1     145.111 150.058 143.482  1.00  0.00     0.053 C 
BRANCH  21  22
ATOM     22  C   UNL     1     146.408 149.422 143.082  1.00  0.00     0.041 C 
ATOM     23  O   UNL     1     146.566 148.178 143.198  1.00  0.00    -0.550 OA
ATOM     24  O   UNL     1     147.440 150.203 142.576  1.00  0.00    -0.550 OA
ENDBRANCH  21  22
ENDBRANCH  20  21
ENDBRANCH  19  20
ENDBRANCH  18  19
ENDBRANCH  17  18
ENDBRANCH  16  17
ENDBRANCH  15  16
ENDBRANCH  14  15
ENDBRANCH  13  14
ENDBRANCH   1  13
TORSDOF 20
ENDMDL
MODEL 9
REMARK VINA RESULT:    -2.258      3.634      7.438
REMARK INTER + INTRA:          -8.777
REMARK INTER:                  -5.546
REMARK INTRA:                  -3.231
REMARK UNBOUND:                -3.878
REMARK SMILES CCCCCCCCCCCCCCCCCCCCCC(=O)[O-]
REMARK SMILES IDX 12 1 11 2 10 3 9 4 8 5 7 6 6 7 5 8 4 9 3 10 2 11 1 12 13 13
REMARK SMILES IDX 14 14 15 15 16 16 17 17 18 18 19 19 20 20 21 21 22 22 23 23
REMARK SMILES IDX 24 24
REMARK H PARENT
REMARK Flexibility Score: inf
ROOT
ATOM      1  C   UNL     1     147.745 147.256 143.005  1.00  0.00     0.000 C 
ENDROOT
BRANCH   1   2
ATOM      2  C   UNL     1     146.940 145.994 143.357  1.00  0.00     0.000 C 
BRANCH   2   3
ATOM      3  C   UNL     1     145.596 145.929 142.612  1.00  0.00     0.000 C 
BRANCH   3   4
ATOM      4  C   UNL     1     144.430 145.515 143.535  1.00  0.00    -0.000 C 
BRANCH   4   5
ATOM      5  C   UNL     1     144.033 146.591 144.560  1.00  0.00    -0.000 C 
BRANCH   5   6
ATOM      6  C   UNL     1     144.071 146.087 146.010  1.00  0.00    -0.000 C 
BRANCH   6   7
ATOM      7  C   UNL     1     143.722 147.179 147.037  1.00  0.00    -0.000 C 
BRANCH   7   8
ATOM      8  C   UNL     1     143.559 148.584 146.420  1.00  0.00    -0.000 C 
BRANCH   8   9
ATOM      9  C   UNL     1     144.183 149.688 147.294  1.00  0.00    -0.000 C 
BRANCH   9  10
ATOM     10  C   UNL     1     144.624 149.168 148.671  1.00  0.00    -0.000 C 
BRANCH  10  11
ATOM     11  C   UNL     1     145.804 149.964 149.251  1.00  0.00    -0.003 C 
ATOM     12  C   UNL     1     146.050 151.240 148.451  1.00  0.00     0.004 C 
ENDBRANCH  10  11
ENDBRANCH   9  10
ENDBRANCH   8   9
ENDBRANCH   7   8
ENDBRANCH   6   7
ENDBRANCH   5   6
ENDBRANCH   4   5
ENDBRANCH   3   4
ENDBRANCH   2   3
ENDBRANCH   1   2
BRANCH   1  13
ATOM     13  C   UNL     1     146.975 148.200 142.068  1.00  0.00     0.000 C 
BRANCH  13  14
ATOM     14  C   UNL     1     146.884 149.612 142.668  1.00  0.00     0.000 C 
BRANCH  14  15
ATOM     15  C   UNL     1     145.612 149.824 143.507  1.00  0.00     0.000 C 
BRANCH  15  16
ATOM     16  C   UNL     1     144.285 149.666 142.735  1.00  0.00     0.000 C 
BRANCH  16  17
ATOM     17  C   UNL     1     144.188 150.540 141.466  1.00  0.00     0.000 C 
BRANCH  17  18
ATOM     18  C   UNL     1     143.823 149.718 140.220  1.00  0.00     0.000 C 
BRANCH  18  19
ATOM     19  C   UNL     1     143.539 148.256 140.580  1.00  0.00     0.000 C 
BRANCH  19  20
ATOM     20  C   UNL     1     143.733 147.345 139.358  1.00  0.00     0.006 C 
BRANCH  20  21
ATOM     21  C   UNL     1     145.215 147.110 139.038  1.00  0.00     0.053 C 
BRANCH  21  22
ATOM     22  C   UNL     1     145.552 147.508 137.633  1.00  0.00     0.041 C 
ATOM     23  O   UNL     1     146.529 146.977 137.041  1.00  0.00    -0.550 OA
ATOM     24  O   UNL     1     144.782 148.459 136.975  1.00  0.00    -0.550 OA
ENDBRANCH  21  22
ENDBRANCH  20  21
ENDBRANCH  19  20
ENDBRANCH  18  19
ENDBRANCH  17  18
ENDBRANCH  16  17
ENDBRANCH  15  16
ENDBRANCH  14  15
ENDBRANCH  13  14
ENDBRANCH   1  13
TORSDOF 20
ENDMDL
