MODEL 1
REMARK VINA RESULT:    -4.548      0.000      0.000
REMARK INTER + INTRA:         -15.398
REMARK INTER:                 -11.461
REMARK INTRA:                  -3.937
REMARK UNBOUND:                -3.937
REMARK SMILES CCCCCCCCCCCCCCCCCCCCCCCCCCCC(=O)[O-]
REMARK SMILES IDX 15 1 16 2 17 3 18 4 19 5 20 6 21 7 22 8 23 9 24 10 25 11
REMARK SMILES IDX 26 12 27 13 28 14 29 15 30 16 14 17 13 18 12 19 11 20 10 21
REMARK SMILES IDX 9 22 8 23 7 24 6 25 5 26 4 27 3 28 2 29 1 30
REMARK H PARENT
REMARK Flexibility Score: inf
ROOT
ATOM      1  C   UNL     1      53.710  23.906  48.372  1.00  0.00     0.000 C 
ENDROOT
BRANCH   1   2
ATOM      2  C   UNL     1      54.908  24.073  47.422  1.00  0.00     0.000 C 
BRANCH   2   3
ATOM      3  C   UNL     1      56.257  23.752  48.096  1.00  0.00     0.000 C 
BRANCH   3   4
ATOM      4  C   UNL     1      56.897  22.411  47.684  1.00  0.00     0.000 C 
BRANCH   4   5
ATOM      5  C   UNL     1      56.054  21.152  47.971  1.00  0.00     0.000 C 
BRANCH   5   6
ATOM      6  C   UNL     1      56.245  20.571  49.387  1.00  0.00     0.000 C 
BRANCH   6   7
ATOM      7  C   UNL     1      55.246  21.146  50.408  1.00  0.00     0.000 C 
BRANCH   7   8
ATOM      8  C   UNL     1      55.940  21.989  51.491  1.00  0.00     0.000 C 
BRANCH   8   9
ATOM      9  C   UNL     1      56.409  21.141  52.685  1.00  0.00     0.000 C 
BRANCH   9  10
ATOM     10  C   UNL     1      56.582  21.970  53.971  1.00  0.00     0.000 C 
BRANCH  10  11
ATOM     11  C   UNL     1      56.775  21.142  55.258  1.00  0.00     0.000 C 
BRANCH  11  12
ATOM     12  C   UNL     1      56.837  21.963  56.559  1.00  0.00     0.006 C 
BRANCH  12  13
ATOM     13  C   UNL     1      57.374  23.385  56.341  1.00  0.00     0.053 C 
BRANCH  13  14
ATOM     14  C   UNL     1      58.720  23.545  56.975  1.00  0.00     0.041 C 
ATOM     15  O   UNL     1      59.428  24.556  56.717  1.00  0.00    -0.550 OA
ATOM     16  O   UNL     1      59.194  22.583  57.859  1.00  0.00    -0.550 OA
ENDBRANCH  13  14
ENDBRANCH  12  13
ENDBRANCH  11  12
ENDBRANCH  10  11
ENDBRANCH   9  10
ENDBRANCH   8   9
ENDBRANCH   7   8
ENDBRANCH   6   7
ENDBRANCH   5   6
ENDBRANCH   4   5
ENDBRANCH   3   4
ENDBRANCH   2   3
ENDBRANCH   1   2
BRANCH   1  17
ATOM     17  C   UNL     1      53.659  24.990  49.463  1.00  0.00     0.000 C 
BRANCH  17  18
ATOM     18  C   UNL     1      53.259  24.489  50.865  1.00  0.00     0.000 C 
BRANCH  18  19
ATOM     19  C   UNL     1      54.120  25.031  52.024  1.00  0.00     0.000 C 
BRANCH  19  20
ATOM     20  C   UNL     1      53.759  24.485  53.417  1.00  0.00     0.000 C 
BRANCH  20  21
ATOM     21  C   UNL     1      53.103  23.091  53.425  1.00  0.00     0.000 C 
BRANCH  21  22
ATOM     22  C   UNL     1      52.985  22.458  54.831  1.00  0.00    -0.000 C 
BRANCH  22  23
ATOM     23  C   UNL     1      53.449  23.361  55.995  1.00  0.00    -0.000 C 
BRANCH  23  24
ATOM     24  C   UNL     1      52.374  24.308  56.567  1.00  0.00    -0.000 C 
BRANCH  24  25
ATOM     25  C   UNL     1      50.995  23.670  56.822  1.00  0.00    -0.000 C 
BRANCH  25  26
ATOM     26  C   UNL     1      49.881  24.185  55.887  1.00  0.00    -0.000 C 
BRANCH  26  27
ATOM     27  C   UNL     1      48.621  23.304  55.918  1.00  0.00    -0.000 C 
BRANCH  27  28
ATOM     28  C   UNL     1      48.286  22.690  54.547  1.00  0.00    -0.000 C 
BRANCH  28  29
ATOM     29  C   UNL     1      49.504  22.417  53.647  1.00  0.00    -0.003 C 
ATOM     30  C   UNL     1      49.207  22.620  52.160  1.00  0.00     0.004 C 
ENDBRANCH  28  29
ENDBRANCH  27  28
ENDBRANCH  26  27
ENDBRANCH  25  26
ENDBRANCH  24  25
ENDBRANCH  23  24
ENDBRANCH  22  23
ENDBRANCH  21  22
ENDBRANCH  20  21
ENDBRANCH  19  20
ENDBRANCH  18  19
ENDBRANCH  17  18
ENDBRANCH   1  17
TORSDOF 26
ENDMDL
MODEL 2
REMARK VINA RESULT:    -4.464      3.797      7.628
REMARK INTER + INTRA:         -15.185
REMARK INTER:                 -12.283
REMARK INTRA:                  -2.902
REMARK UNBOUND:                -3.937
REMARK SMILES CCCCCCCCCCCCCCCCCCCCCCCCCCCC(=O)[O-]
REMARK SMILES IDX 15 1 16 2 17 3 18 4 19 5 20 6 21 7 22 8 23 9 24 10 25 11
REMARK SMILES IDX 26 12 27 13 28 14 29 15 30 16 14 17 13 18 12 19 11 20 10 21
REMARK SMILES IDX 9 22 8 23 7 24 6 25 5 26 4 27 3 28 2 29 1 30
REMARK H PARENT
REMARK Flexibility Score: inf
ROOT
ATOM      1  C   UNL     1      54.637  24.900  46.864  1.00  0.00     0.000 C 
ENDROOT
BRANCH   1   2
ATOM      2  C   UNL     1      53.749  24.198  47.906  1.00  0.00     0.000 C 
BRANCH   2   3
ATOM      3  C   UNL     1      53.397  25.105  49.103  1.00  0.00     0.000 C 
BRANCH   3   4
ATOM      4  C   UNL     1      53.145  24.371  50.435  1.00  0.00     0.000 C 
BRANCH   4   5
ATOM      5  C   UNL     1      53.936  24.899  51.649  1.00  0.00     0.000 C 
BRANCH   5   6
ATOM      6  C   UNL     1      53.682  24.122  52.957  1.00  0.00     0.000 C 
BRANCH   6   7
ATOM      7  C   UNL     1      52.956  22.784  52.726  1.00  0.00     0.000 C 
BRANCH   7   8
ATOM      8  C   UNL     1      52.560  22.100  54.046  1.00  0.00     0.000 C 
BRANCH   8   9
ATOM      9  C   UNL     1      51.505  22.902  54.828  1.00  0.00     0.000 C 
BRANCH   9  10
ATOM     10  C   UNL     1      50.100  22.800  54.208  1.00  0.00     0.000 C 
BRANCH  10  11
ATOM     11  C   UNL     1      48.951  23.275  55.119  1.00  0.00     0.000 C 
BRANCH  11  12
ATOM     12  C   UNL     1      47.766  22.297  55.240  1.00  0.00     0.006 C 
BRANCH  12  13
ATOM     13  C   UNL     1      46.504  22.958  55.812  1.00  0.00     0.053 C 
BRANCH  13  14
ATOM     14  C   UNL     1      45.643  21.947  56.502  1.00  0.00     0.041 C 
ATOM     15  O   UNL     1      44.387  22.048  56.459  1.00  0.00    -0.550 OA
ATOM     16  O   UNL     1      46.225  20.886  57.185  1.00  0.00    -0.550 OA
ENDBRANCH  13  14
ENDBRANCH  12  13
ENDBRANCH  11  12
ENDBRANCH  10  11
ENDBRANCH   9  10
ENDBRANCH   8   9
ENDBRANCH   7   8
ENDBRANCH   6   7
ENDBRANCH   5   6
ENDBRANCH   4   5
ENDBRANCH   3   4
ENDBRANCH   2   3
ENDBRANCH   1   2
BRANCH   1  17
ATOM     17  C   UNL     1      56.138  24.764  47.173  1.00  0.00     0.000 C 
BRANCH  17  18
ATOM     18  C   UNL     1      56.491  23.737  48.266  1.00  0.00     0.000 C 
BRANCH  18  19
ATOM     19  C   UNL     1      56.707  22.295  47.765  1.00  0.00     0.000 C 
BRANCH  19  20
ATOM     20  C   UNL     1      56.275  21.190  48.745  1.00  0.00     0.000 C 
BRANCH  20  21
ATOM     21  C   UNL     1      55.253  21.624  49.813  1.00  0.00     0.000 C 
BRANCH  21  22
ATOM     22  C   UNL     1      55.496  21.000  51.207  1.00  0.00    -0.000 C 
BRANCH  22  23
ATOM     23  C   UNL     1      56.346  21.857  52.169  1.00  0.00    -0.000 C 
BRANCH  23  24
ATOM     24  C   UNL     1      57.101  21.074  53.263  1.00  0.00    -0.000 C 
BRANCH  24  25
ATOM     25  C   UNL     1      56.402  21.008  54.634  1.00  0.00    -0.000 C 
BRANCH  25  26
ATOM     26  C   UNL     1      56.061  22.390  55.232  1.00  0.00    -0.000 C 
BRANCH  26  27
ATOM     27  C   UNL     1      56.569  22.556  56.674  1.00  0.00    -0.000 C 
BRANCH  27  28
ATOM     28  C   UNL     1      57.476  21.396  57.127  1.00  0.00    -0.000 C 
BRANCH  28  29
ATOM     29  C   UNL     1      58.580  21.792  58.124  1.00  0.00    -0.003 C 
ATOM     30  C   UNL     1      59.313  23.075  57.726  1.00  0.00     0.004 C 
ENDBRANCH  28  29
ENDBRANCH  27  28
ENDBRANCH  26  27
ENDBRANCH  25  26
ENDBRANCH  24  25
ENDBRANCH  23  24
ENDBRANCH  22  23
ENDBRANCH  21  22
ENDBRANCH  20  21
ENDBRANCH  19  20
ENDBRANCH  18  19
ENDBRANCH  17  18
ENDBRANCH   1  17
TORSDOF 26
ENDMDL
MODEL 3
REMARK VINA RESULT:    -4.253      1.783      3.087
REMARK INTER + INTRA:         -14.654
REMARK INTER:                 -10.860
REMARK INTRA:                  -3.794
REMARK UNBOUND:                -3.937
REMARK SMILES CCCCCCCCCCCCCCCCCCCCCCCCCCCC(=O)[O-]
REMARK SMILES IDX 15 1 16 2 17 3 18 4 19 5 20 6 21 7 22 8 23 9 24 10 25 11
REMARK SMILES IDX 26 12 27 13 28 14 29 15 30 16 14 17 13 18 12 19 11 20 10 21
REMARK SMILES IDX 9 22 8 23 7 24 6 25 5 26 4 27 3 28 2 29 1 30
REMARK H PARENT
REMARK Flexibility Score: inf
ROOT
ATOM      1  C   UNL     1      53.232  24.360  50.381  1.00  0.00     0.000 C 
ENDROOT
BRANCH   1   2
ATOM      2  C   UNL     1      54.102  24.711  49.162  1.00  0.00     0.000 C 
BRANCH   2   3
ATOM      3  C   UNL     1      55.575  24.975  49.531  1.00  0.00     0.000 C 
BRANCH   3   4
ATOM      4  C   UNL     1      56.617  24.294  48.621  1.00  0.00     0.000 C 
BRANCH   4   5
ATOM      5  C   UNL     1      56.076  23.178  47.705  1.00  0.00     0.000 C 
BRANCH   5   6
ATOM      6  C   UNL     1      56.916  21.884  47.721  1.00  0.00     0.000 C 
BRANCH   6   7
ATOM      7  C   UNL     1      56.359  20.821  48.686  1.00  0.00     0.000 C 
BRANCH   7   8
ATOM      8  C   UNL     1      55.002  21.230  49.283  1.00  0.00     0.000 C 
BRANCH   8   9
ATOM      9  C   UNL     1      54.933  20.992  50.801  1.00  0.00     0.000 C 
BRANCH   9  10
ATOM     10  C   UNL     1      56.024  21.756  51.573  1.00  0.00     0.000 C 
BRANCH  10  11
ATOM     11  C   UNL     1      55.847  21.771  53.105  1.00  0.00     0.000 C 
BRANCH  11  12
ATOM     12  C   UNL     1      56.910  20.982  53.893  1.00  0.00     0.006 C 
BRANCH  12  13
ATOM     13  C   UNL     1      56.702  21.057  55.413  1.00  0.00     0.053 C 
BRANCH  13  14
ATOM     14  C   UNL     1      56.539  22.477  55.854  1.00  0.00     0.041 C 
ATOM     15  O   UNL     1      57.506  23.283  55.771  1.00  0.00    -0.550 OA
ATOM     16  O   UNL     1      55.318  22.919  56.349  1.00  0.00    -0.550 OA
ENDBRANCH  13  14
ENDBRANCH  12  13
ENDBRANCH  11  12
ENDBRANCH  10  11
ENDBRANCH   9  10
ENDBRANCH   8   9
ENDBRANCH   7   8
ENDBRANCH   6   7
ENDBRANCH   5   6
ENDBRANCH   4   5
ENDBRANCH   3   4
ENDBRANCH   2   3
ENDBRANCH   1   2
BRANCH   1  17
ATOM     17  C   UNL     1      53.887  24.761  51.715  1.00  0.00     0.000 C 
BRANCH  17  18
ATOM     18  C   UNL     1      53.255  24.129  52.970  1.00  0.00     0.000 C 
BRANCH  18  19
ATOM     19  C   UNL     1      52.383  22.884  52.708  1.00  0.00     0.000 C 
BRANCH  19  20
ATOM     20  C   UNL     1      52.157  21.975  53.929  1.00  0.00     0.000 C 
BRANCH  20  21
ATOM     21  C   UNL     1      50.731  21.410  54.070  1.00  0.00     0.000 C 
BRANCH  21  22
ATOM     22  C   UNL     1      49.665  22.179  53.254  1.00  0.00    -0.000 C 
BRANCH  22  23
ATOM     23  C   UNL     1      48.911  23.277  54.034  1.00  0.00    -0.000 C 
BRANCH  23  24
ATOM     24  C   UNL     1      49.177  23.312  55.553  1.00  0.00    -0.000 C 
BRANCH  24  25
ATOM     25  C   UNL     1      48.035  23.887  56.413  1.00  0.00    -0.000 C 
BRANCH  25  26
ATOM     26  C   UNL     1      47.459  22.892  57.441  1.00  0.00    -0.000 C 
BRANCH  26  27
ATOM     27  C   UNL     1      47.031  21.558  56.805  1.00  0.00    -0.000 C 
BRANCH  27  28
ATOM     28  C   UNL     1      45.868  21.717  55.809  1.00  0.00    -0.000 C 
BRANCH  28  29
ATOM     29  C   UNL     1      44.685  22.555  56.326  1.00  0.00    -0.003 C 
ATOM     30  C   UNL     1      44.377  23.764  55.442  1.00  0.00     0.004 C 
ENDBRANCH  28  29
ENDBRANCH  27  28
ENDBRANCH  26  27
ENDBRANCH  25  26
ENDBRANCH  24  25
ENDBRANCH  23  24
ENDBRANCH  22  23
ENDBRANCH  21  22
ENDBRANCH  20  21
ENDBRANCH  19  20
ENDBRANCH  18  19
ENDBRANCH  17  18
ENDBRANCH   1  17
TORSDOF 26
ENDMDL
MODEL 4
REMARK VINA RESULT:    -4.243      1.468      2.106
REMARK INTER + INTRA:         -14.628
REMARK INTER:                 -11.337
REMARK INTRA:                  -3.290
REMARK UNBOUND:                -3.937
REMARK SMILES CCCCCCCCCCCCCCCCCCCCCCCCCCCC(=O)[O-]
REMARK SMILES IDX 15 1 16 2 17 3 18 4 19 5 20 6 21 7 22 8 23 9 24 10 25 11
REMARK SMILES IDX 26 12 27 13 28 14 29 15 30 16 14 17 13 18 12 19 11 20 10 21
REMARK SMILES IDX 9 22 8 23 7 24 6 25 5 26 4 27 3 28 2 29 1 30
REMARK H PARENT
REMARK Flexibility Score: inf
ROOT
ATOM      1  C   UNL     1      53.768  23.714  48.455  1.00  0.00     0.000 C 
ENDROOT
BRANCH   1   2
ATOM      2  C   UNL     1      54.938  24.054  47.517  1.00  0.00     0.000 C 
BRANCH   2   3
ATOM      3  C   UNL     1      56.315  23.749  48.140  1.00  0.00     0.000 C 
BRANCH   3   4
ATOM      4  C   UNL     1      57.064  22.547  47.530  1.00  0.00     0.000 C 
BRANCH   4   5
ATOM      5  C   UNL     1      56.341  21.188  47.629  1.00  0.00     0.000 C 
BRANCH   5   6
ATOM      6  C   UNL     1      56.580  20.439  48.957  1.00  0.00     0.000 C 
BRANCH   6   7
ATOM      7  C   UNL     1      55.446  20.651  49.976  1.00  0.00     0.000 C 
BRANCH   7   8
ATOM      8  C   UNL     1      55.762  21.778  50.974  1.00  0.00     0.000 C 
BRANCH   8   9
ATOM      9  C   UNL     1      55.834  21.273  52.425  1.00  0.00     0.000 C 
BRANCH   9  10
ATOM     10  C   UNL     1      57.031  21.857  53.198  1.00  0.00     0.000 C 
BRANCH  10  11
ATOM     11  C   UNL     1      57.126  23.396  53.184  1.00  0.00     0.000 C 
BRANCH  11  12
ATOM     12  C   UNL     1      57.435  24.044  54.548  1.00  0.00     0.006 C 
BRANCH  12  13
ATOM     13  C   UNL     1      56.541  23.510  55.676  1.00  0.00     0.053 C 
BRANCH  13  14
ATOM     14  C   UNL     1      57.361  22.806  56.712  1.00  0.00     0.041 C 
ATOM     15  O   UNL     1      56.913  21.774  57.283  1.00  0.00    -0.550 OA
ATOM     16  O   UNL     1      58.624  23.281  57.043  1.00  0.00    -0.550 OA
ENDBRANCH  13  14
ENDBRANCH  12  13
ENDBRANCH  11  12
ENDBRANCH  10  11
ENDBRANCH   9  10
ENDBRANCH   8   9
ENDBRANCH   7   8
ENDBRANCH   6   7
ENDBRANCH   5   6
ENDBRANCH   4   5
ENDBRANCH   3   4
ENDBRANCH   2   3
ENDBRANCH   1   2
BRANCH   1  17
ATOM     17  C   UNL     1      53.678  24.663  49.663  1.00  0.00     0.000 C 
BRANCH  17  18
ATOM     18  C   UNL     1      53.035  24.057  50.925  1.00  0.00     0.000 C 
BRANCH  18  19
ATOM     19  C   UNL     1      53.736  24.411  52.252  1.00  0.00     0.000 C 
BRANCH  19  20
ATOM     20  C   UNL     1      53.248  23.623  53.481  1.00  0.00     0.000 C 
BRANCH  20  21
ATOM     21  C   UNL     1      52.465  22.335  53.164  1.00  0.00     0.000 C 
BRANCH  21  22
ATOM     22  C   UNL     1      51.297  22.052  54.138  1.00  0.00    -0.000 C 
BRANCH  22  23
ATOM     23  C   UNL     1      50.931  23.221  55.077  1.00  0.00    -0.000 C 
BRANCH  23  24
ATOM     24  C   UNL     1      49.422  23.512  55.214  1.00  0.00    -0.000 C 
BRANCH  24  25
ATOM     25  C   UNL     1      48.980  24.096  56.570  1.00  0.00    -0.000 C 
BRANCH  25  26
ATOM     26  C   UNL     1      47.459  24.024  56.819  1.00  0.00    -0.000 C 
BRANCH  26  27
ATOM     27  C   UNL     1      46.673  23.565  55.580  1.00  0.00    -0.000 C 
BRANCH  27  28
ATOM     28  C   UNL     1      45.418  22.746  55.936  1.00  0.00    -0.000 C 
BRANCH  28  29
ATOM     29  C   UNL     1      45.680  21.257  56.223  1.00  0.00    -0.003 C 
ATOM     30  C   UNL     1      46.878  20.701  55.451  1.00  0.00     0.004 C 
ENDBRANCH  28  29
ENDBRANCH  27  28
ENDBRANCH  26  27
ENDBRANCH  25  26
ENDBRANCH  24  25
ENDBRANCH  23  24
ENDBRANCH  22  23
ENDBRANCH  21  22
ENDBRANCH  20  21
ENDBRANCH  19  20
ENDBRANCH  18  19
ENDBRANCH  17  18
ENDBRANCH   1  17
TORSDOF 26
ENDMDL
MODEL 5
REMARK VINA RESULT:    -4.228      1.497      2.800
REMARK INTER + INTRA:         -14.592
REMARK INTER:                 -10.720
REMARK INTRA:                  -3.872
REMARK UNBOUND:                -3.937
REMARK SMILES CCCCCCCCCCCCCCCCCCCCCCCCCCCC(=O)[O-]
REMARK SMILES IDX 15 1 16 2 17 3 18 4 19 5 20 6 21 7 22 8 23 9 24 10 25 11
REMARK SMILES IDX 26 12 27 13 28 14 29 15 30 16 14 17 13 18 12 19 11 20 10 21
REMARK SMILES IDX 9 22 8 23 7 24 6 25 5 26 4 27 3 28 2 29 1 30
REMARK H PARENT
REMARK Flexibility Score: inf
ROOT
ATOM      1  C   UNL     1      55.634  20.224  49.070  1.00  0.00     0.000 C 
ENDROOT
BRANCH   1   2
ATOM      2  C   UNL     1      56.992  20.099  48.359  1.00  0.00     0.000 C 
BRANCH   2   3
ATOM      3  C   UNL     1      57.253  21.244  47.359  1.00  0.00     0.000 C 
BRANCH   3   4
ATOM      4  C   UNL     1      56.468  22.544  47.624  1.00  0.00     0.000 C 
BRANCH   4   5
ATOM      5  C   UNL     1      57.200  23.852  47.263  1.00  0.00     0.000 C 
BRANCH   5   6
ATOM      6  C   UNL     1      56.755  25.076  48.089  1.00  0.00     0.000 C 
BRANCH   6   7
ATOM      7  C   UNL     1      55.474  24.815  48.902  1.00  0.00     0.000 C 
BRANCH   7   8
ATOM      8  C   UNL     1      55.659  25.124  50.397  1.00  0.00     0.000 C 
BRANCH   8   9
ATOM      9  C   UNL     1      56.828  24.342  51.018  1.00  0.00     0.000 C 
BRANCH   9  10
ATOM     10  C   UNL     1      56.854  24.431  52.555  1.00  0.00     0.000 C 
BRANCH  10  11
ATOM     11  C   UNL     1      57.132  23.098  53.279  1.00  0.00     0.000 C 
BRANCH  11  12
ATOM     12  C   UNL     1      56.867  23.112  54.797  1.00  0.00     0.006 C 
BRANCH  12  13
ATOM     13  C   UNL     1      56.892  21.708  55.418  1.00  0.00     0.053 C 
BRANCH  13  14
ATOM     14  C   UNL     1      57.029  21.791  56.906  1.00  0.00     0.041 C 
ATOM     15  O   UNL     1      57.997  21.228  57.487  1.00  0.00    -0.550 OA
ATOM     16  O   UNL     1      56.095  22.496  57.654  1.00  0.00    -0.550 OA
ENDBRANCH  13  14
ENDBRANCH  12  13
ENDBRANCH  11  12
ENDBRANCH  10  11
ENDBRANCH   9  10
ENDBRANCH   8   9
ENDBRANCH   7   8
ENDBRANCH   6   7
ENDBRANCH   5   6
ENDBRANCH   4   5
ENDBRANCH   3   4
ENDBRANCH   2   3
ENDBRANCH   1   2
BRANCH   1  17
ATOM     17  C   UNL     1      55.744  20.908  50.445  1.00  0.00     0.000 C 
BRANCH  17  18
ATOM     18  C   UNL     1      54.418  21.450  51.013  1.00  0.00     0.000 C 
BRANCH  18  19
ATOM     19  C   UNL     1      54.297  21.404  52.550  1.00  0.00     0.000 C 
BRANCH  19  20
ATOM     20  C   UNL     1      53.159  22.253  53.143  1.00  0.00     0.000 C 
BRANCH  20  21
ATOM     21  C   UNL     1      53.430  23.769  53.194  1.00  0.00     0.000 C 
BRANCH  21  22
ATOM     22  C   UNL     1      53.199  24.404  54.585  1.00  0.00    -0.000 C 
BRANCH  22  23
ATOM     23  C   UNL     1      52.526  23.479  55.622  1.00  0.00    -0.000 C 
BRANCH  23  24
ATOM     24  C   UNL     1      51.485  24.156  56.536  1.00  0.00    -0.000 C 
BRANCH  24  25
ATOM     25  C   UNL     1      50.170  24.571  55.849  1.00  0.00    -0.000 C 
BRANCH  25  26
ATOM     26  C   UNL     1      48.935  23.775  56.322  1.00  0.00    -0.000 C 
BRANCH  26  27
ATOM     27  C   UNL     1      47.992  23.397  55.167  1.00  0.00    -0.000 C 
BRANCH  27  28
ATOM     28  C   UNL     1      48.255  21.982  54.619  1.00  0.00    -0.000 C 
BRANCH  28  29
ATOM     29  C   UNL     1      49.483  21.864  53.699  1.00  0.00    -0.003 C 
ATOM     30  C   UNL     1      49.373  22.728  52.441  1.00  0.00     0.004 C 
ENDBRANCH  28  29
ENDBRANCH  27  28
ENDBRANCH  26  27
ENDBRANCH  25  26
ENDBRANCH  24  25
ENDBRANCH  23  24
ENDBRANCH  22  23
ENDBRANCH  21  22
ENDBRANCH  20  21
ENDBRANCH  19  20
ENDBRANCH  18  19
ENDBRANCH  17  18
ENDBRANCH   1  17
TORSDOF 26
ENDMDL
MODEL 6
REMARK VINA RESULT:    -4.156      1.705      4.163
REMARK INTER + INTRA:         -14.409
REMARK INTER:                 -10.487
REMARK INTRA:                  -3.922
REMARK UNBOUND:                -3.937
REMARK SMILES CCCCCCCCCCCCCCCCCCCCCCCCCCCC(=O)[O-]
REMARK SMILES IDX 15 1 16 2 17 3 18 4 19 5 20 6 21 7 22 8 23 9 24 10 25 11
REMARK SMILES IDX 26 12 27 13 28 14 29 15 30 16 14 17 13 18 12 19 11 20 10 21
REMARK SMILES IDX 9 22 8 23 7 24 6 25 5 26 4 27 3 28 2 29 1 30
REMARK H PARENT
REMARK Flexibility Score: inf
ROOT
ATOM      1  C   UNL     1      52.555  22.389  52.965  1.00  0.00     0.000 C 
ENDROOT
BRANCH   1   2
ATOM      2  C   UNL     1      53.201  23.688  52.455  1.00  0.00     0.000 C 
BRANCH   2   3
ATOM      3  C   UNL     1      52.880  23.977  50.975  1.00  0.00     0.000 C 
BRANCH   3   4
ATOM      4  C   UNL     1      53.915  24.844  50.231  1.00  0.00     0.000 C 
BRANCH   4   5
ATOM      5  C   UNL     1      53.778  24.880  48.696  1.00  0.00     0.000 C 
BRANCH   5   6
ATOM      6  C   UNL     1      54.435  23.685  47.973  1.00  0.00     0.000 C 
BRANCH   6   7
ATOM      7  C   UNL     1      55.791  23.288  48.585  1.00  0.00     0.000 C 
BRANCH   7   8
ATOM      8  C   UNL     1      55.911  21.771  48.801  1.00  0.00     0.000 C 
BRANCH   8   9
ATOM      9  C   UNL     1      55.174  21.298  50.066  1.00  0.00     0.000 C 
BRANCH   9  10
ATOM     10  C   UNL     1      56.134  20.951  51.218  1.00  0.00     0.000 C 
BRANCH  10  11
ATOM     11  C   UNL     1      56.207  22.003  52.344  1.00  0.00     0.000 C 
BRANCH  11  12
ATOM     12  C   UNL     1      56.599  21.452  53.728  1.00  0.00     0.006 C 
BRANCH  12  13
ATOM     13  C   UNL     1      56.076  22.318  54.883  1.00  0.00     0.053 C 
BRANCH  13  14
ATOM     14  C   UNL     1      57.050  22.328  56.019  1.00  0.00     0.041 C 
ATOM     15  O   UNL     1      57.159  21.321  56.771  1.00  0.00    -0.550 OA
ATOM     16  O   UNL     1      57.846  23.444  56.246  1.00  0.00    -0.550 OA
ENDBRANCH  13  14
ENDBRANCH  12  13
ENDBRANCH  11  12
ENDBRANCH  10  11
ENDBRANCH   9  10
ENDBRANCH   8   9
ENDBRANCH   7   8
ENDBRANCH   6   7
ENDBRANCH   5   6
ENDBRANCH   4   5
ENDBRANCH   3   4
ENDBRANCH   2   3
ENDBRANCH   1   2
BRANCH   1  17
ATOM     17  C   UNL     1      52.467  22.331  54.501  1.00  0.00     0.000 C 
BRANCH  17  18
ATOM     18  C   UNL     1      52.554  23.695  55.212  1.00  0.00     0.000 C 
BRANCH  18  19
ATOM     19  C   UNL     1      52.518  23.634  56.753  1.00  0.00     0.000 C 
BRANCH  19  20
ATOM     20  C   UNL     1      51.170  24.015  57.391  1.00  0.00     0.000 C 
BRANCH  20  21
ATOM     21  C   UNL     1      50.256  24.895  56.516  1.00  0.00     0.000 C 
BRANCH  21  22
ATOM     22  C   UNL     1      48.869  24.274  56.231  1.00  0.00    -0.000 C 
BRANCH  22  23
ATOM     23  C   UNL     1      48.500  24.154  54.737  1.00  0.00    -0.000 C 
BRANCH  23  24
ATOM     24  C   UNL     1      48.920  22.835  54.055  1.00  0.00    -0.000 C 
BRANCH  24  25
ATOM     25  C   UNL     1      48.795  21.570  54.926  1.00  0.00    -0.000 C 
BRANCH  25  26
ATOM     26  C   UNL     1      47.351  21.044  55.067  1.00  0.00    -0.000 C 
BRANCH  26  27
ATOM     27  C   UNL     1      46.824  21.128  56.510  1.00  0.00    -0.000 C 
BRANCH  27  28
ATOM     28  C   UNL     1      45.448  21.811  56.606  1.00  0.00    -0.000 C 
BRANCH  28  29
ATOM     29  C   UNL     1      45.205  22.921  55.567  1.00  0.00    -0.003 C 
ATOM     30  C   UNL     1      44.117  23.909  55.992  1.00  0.00     0.004 C 
ENDBRANCH  28  29
ENDBRANCH  27  28
ENDBRANCH  26  27
ENDBRANCH  25  26
ENDBRANCH  24  25
ENDBRANCH  23  24
ENDBRANCH  22  23
ENDBRANCH  21  22
ENDBRANCH  20  21
ENDBRANCH  19  20
ENDBRANCH  18  19
ENDBRANCH  17  18
ENDBRANCH   1  17
TORSDOF 26
ENDMDL
MODEL 7
REMARK VINA RESULT:    -4.155      3.150      5.955
REMARK INTER + INTRA:         -14.408
REMARK INTER:                 -10.961
REMARK INTRA:                  -3.447
REMARK UNBOUND:                -3.937
REMARK SMILES CCCCCCCCCCCCCCCCCCCCCCCCCCCC(=O)[O-]
REMARK SMILES IDX 15 1 16 2 17 3 18 4 19 5 20 6 21 7 22 8 23 9 24 10 25 11
REMARK SMILES IDX 26 12 27 13 28 14 29 15 30 16 14 17 13 18 12 19 11 20 10 21
REMARK SMILES IDX 9 22 8 23 7 24 6 25 5 26 4 27 3 28 2 29 1 30
REMARK H PARENT
REMARK Flexibility Score: inf
ROOT
ATOM      1  C   UNL     1      54.612  21.426  52.268  1.00  0.00     0.000 C 
ENDROOT
BRANCH   1   2
ATOM      2  C   UNL     1      56.095  21.780  52.465  1.00  0.00     0.000 C 
BRANCH   2   3
ATOM      3  C   UNL     1      56.348  23.300  52.511  1.00  0.00     0.000 C 
BRANCH   3   4
ATOM      4  C   UNL     1      55.880  24.086  51.270  1.00  0.00     0.000 C 
BRANCH   4   5
ATOM      5  C   UNL     1      54.635  24.974  51.471  1.00  0.00     0.000 C 
BRANCH   5   6
ATOM      6  C   UNL     1      53.375  24.475  50.733  1.00  0.00     0.000 C 
BRANCH   6   7
ATOM      7  C   UNL     1      53.699  23.795  49.389  1.00  0.00     0.000 C 
BRANCH   7   8
ATOM      8  C   UNL     1      53.800  24.805  48.234  1.00  0.00     0.000 C 
BRANCH   8   9
ATOM      9  C   UNL     1      54.875  24.416  47.206  1.00  0.00     0.000 C 
BRANCH   9  10
ATOM     10  C   UNL     1      56.267  24.240  47.839  1.00  0.00     0.000 C 
BRANCH  10  11
ATOM     11  C   UNL     1      57.284  23.470  46.972  1.00  0.00     0.000 C 
BRANCH  11  12
ATOM     12  C   UNL     1      57.219  21.936  47.097  1.00  0.00     0.006 C 
BRANCH  12  13
ATOM     13  C   UNL     1      56.456  21.472  48.346  1.00  0.00     0.053 C 
BRANCH  13  14
ATOM     14  C   UNL     1      56.611  19.996  48.542  1.00  0.00     0.041 C 
ATOM     15  O   UNL     1      57.690  19.526  48.994  1.00  0.00    -0.550 OA
ATOM     16  O   UNL     1      55.562  19.138  48.234  1.00  0.00    -0.550 OA
ENDBRANCH  13  14
ENDBRANCH  12  13
ENDBRANCH  11  12
ENDBRANCH  10  11
ENDBRANCH   9  10
ENDBRANCH   8   9
ENDBRANCH   7   8
ENDBRANCH   6   7
ENDBRANCH   5   6
ENDBRANCH   4   5
ENDBRANCH   3   4
ENDBRANCH   2   3
ENDBRANCH   1   2
BRANCH   1  17
ATOM     17  C   UNL     1      53.839  21.338  53.596  1.00  0.00     0.000 C 
BRANCH  17  18
ATOM     18  C   UNL     1      53.113  22.630  54.017  1.00  0.00     0.000 C 
BRANCH  18  19
ATOM     19  C   UNL     1      51.575  22.529  54.070  1.00  0.00     0.000 C 
BRANCH  19  20
ATOM     20  C   UNL     1      50.860  22.720  52.721  1.00  0.00     0.000 C 
BRANCH  20  21
ATOM     21  C   UNL     1      49.328  22.560  52.763  1.00  0.00     0.000 C 
BRANCH  21  22
ATOM     22  C   UNL     1      48.823  21.622  53.885  1.00  0.00    -0.000 C 
BRANCH  22  23
ATOM     23  C   UNL     1      47.849  22.273  54.891  1.00  0.00    -0.000 C 
BRANCH  23  24
ATOM     24  C   UNL     1      48.323  23.607  55.503  1.00  0.00    -0.000 C 
BRANCH  24  25
ATOM     25  C   UNL     1      48.810  23.531  56.963  1.00  0.00    -0.000 C 
BRANCH  25  26
ATOM     26  C   UNL     1      47.677  23.349  57.995  1.00  0.00    -0.000 C 
BRANCH  26  27
ATOM     27  C   UNL     1      46.630  24.475  57.935  1.00  0.00    -0.000 C 
BRANCH  27  28
ATOM     28  C   UNL     1      45.184  23.952  58.010  1.00  0.00    -0.000 C 
BRANCH  28  29
ATOM     29  C   UNL     1      44.785  22.992  56.875  1.00  0.00    -0.003 C 
ATOM     30  C   UNL     1      44.559  23.706  55.541  1.00  0.00     0.004 C 
ENDBRANCH  28  29
ENDBRANCH  27  28
ENDBRANCH  26  27
ENDBRANCH  25  26
ENDBRANCH  24  25
ENDBRANCH  23  24
ENDBRANCH  22  23
ENDBRANCH  21  22
ENDBRANCH  20  21
ENDBRANCH  19  20
ENDBRANCH  18  19
ENDBRANCH  17  18
ENDBRANCH   1  17
TORSDOF 26
ENDMDL
MODEL 8
REMARK VINA RESULT:    -4.058      3.587      7.326
REMARK INTER + INTRA:         -14.162
REMARK INTER:                 -10.311
REMARK INTRA:                  -3.851
REMARK UNBOUND:                -3.937
REMARK SMILES CCCCCCCCCCCCCCCCCCCCCCCCCCCC(=O)[O-]
REMARK SMILES IDX 15 1 16 2 17 3 18 4 19 5 20 6 21 7 22 8 23 9 24 10 25 11
REMARK SMILES IDX 26 12 27 13 28 14 29 15 30 16 14 17 13 18 12 19 11 20 10 21
REMARK SMILES IDX 9 22 8 23 7 24 6 25 5 26 4 27 3 28 2 29 1 30
REMARK H PARENT
REMARK Flexibility Score: inf
ROOT
ATOM      1  C   UNL     1      54.101  24.546  47.745  1.00  0.00     0.000 C 
ENDROOT
BRANCH   1   2
ATOM      2  C   UNL     1      54.147  24.807  49.260  1.00  0.00     0.000 C 
BRANCH   2   3
ATOM      3  C   UNL     1      53.076  24.018  50.038  1.00  0.00     0.000 C 
BRANCH   3   4
ATOM      4  C   UNL     1      53.187  24.091  51.574  1.00  0.00     0.000 C 
BRANCH   4   5
ATOM      5  C   UNL     1      52.518  22.937  52.348  1.00  0.00     0.000 C 
BRANCH   5   6
ATOM      6  C   UNL     1      52.894  22.877  53.844  1.00  0.00     0.000 C 
BRANCH   6   7
ATOM      7  C   UNL     1      53.503  24.193  54.361  1.00  0.00     0.000 C 
BRANCH   7   8
ATOM      8  C   UNL     1      52.633  24.852  55.444  1.00  0.00     0.000 C 
BRANCH   8   9
ATOM      9  C   UNL     1      51.930  23.820  56.341  1.00  0.00     0.000 C 
BRANCH   9  10
ATOM     10  C   UNL     1      50.576  24.320  56.876  1.00  0.00     0.000 C 
BRANCH  10  11
ATOM     11  C   UNL     1      49.415  23.312  56.753  1.00  0.00     0.000 C 
BRANCH  11  12
ATOM     12  C   UNL     1      48.605  23.406  55.446  1.00  0.00     0.006 C 
BRANCH  12  13
ATOM     13  C   UNL     1      48.248  22.029  54.867  1.00  0.00     0.053 C 
BRANCH  13  14
ATOM     14  C   UNL     1      46.962  21.528  55.447  1.00  0.00     0.041 C 
ATOM     15  O   UNL     1      46.546  20.372  55.165  1.00  0.00    -0.550 OA
ATOM     16  O   UNL     1      46.225  22.333  56.308  1.00  0.00    -0.550 OA
ENDBRANCH  13  14
ENDBRANCH  12  13
ENDBRANCH  11  12
ENDBRANCH  10  11
ENDBRANCH   9  10
ENDBRANCH   8   9
ENDBRANCH   7   8
ENDBRANCH   6   7
ENDBRANCH   5   6
ENDBRANCH   4   5
ENDBRANCH   3   4
ENDBRANCH   2   3
ENDBRANCH   1   2
BRANCH   1  17
ATOM     17  C   UNL     1      55.497  24.560  47.096  1.00  0.00     0.000 C 
BRANCH  17  18
ATOM     18  C   UNL     1      56.627  23.971  47.963  1.00  0.00     0.000 C 
BRANCH  18  19
ATOM     19  C   UNL     1      57.019  22.518  47.629  1.00  0.00     0.000 C 
BRANCH  19  20
ATOM     20  C   UNL     1      55.966  21.456  47.992  1.00  0.00     0.000 C 
BRANCH  20  21
ATOM     21  C   UNL     1      56.214  20.713  49.319  1.00  0.00     0.000 C 
BRANCH  21  22
ATOM     22  C   UNL     1      55.265  21.135  50.465  1.00  0.00    -0.000 C 
BRANCH  22  23
ATOM     23  C   UNL     1      55.966  21.671  51.731  1.00  0.00    -0.000 C 
BRANCH  23  24
ATOM     24  C   UNL     1      56.396  23.151  51.674  1.00  0.00    -0.000 C 
BRANCH  24  25
ATOM     25  C   UNL     1      57.450  23.576  52.714  1.00  0.00    -0.000 C 
BRANCH  25  26
ATOM     26  C   UNL     1      56.875  24.373  53.903  1.00  0.00    -0.000 C 
BRANCH  26  27
ATOM     27  C   UNL     1      57.514  23.982  55.247  1.00  0.00    -0.000 C 
BRANCH  27  28
ATOM     28  C   UNL     1      56.618  23.055  56.089  1.00  0.00    -0.000 C 
BRANCH  28  29
ATOM     29  C   UNL     1      56.898  21.552  55.909  1.00  0.00    -0.003 C 
ATOM     30  C   UNL     1      55.913  20.870  54.959  1.00  0.00     0.004 C 
ENDBRANCH  28  29
ENDBRANCH  27  28
ENDBRANCH  26  27
ENDBRANCH  25  26
ENDBRANCH  24  25
ENDBRANCH  23  24
ENDBRANCH  22  23
ENDBRANCH  21  22
ENDBRANCH  20  21
ENDBRANCH  19  20
ENDBRANCH  18  19
ENDBRANCH  17  18
ENDBRANCH   1  17
TORSDOF 26
ENDMDL
