MODEL 1
REMARK VINA RESULT:    -4.366      0.000      0.000
REMARK INTER + INTRA:          -5.255
REMARK INTER:                  -5.132
REMARK INTRA:                  -0.124
REMARK UNBOUND:                -0.124
REMARK SMILES O=C([O-])C=Cc1ccc(O)c(O)c1
REMARK SMILES IDX 6 1 13 2 7 3 11 4 8 5 9 6 5 7 4 8 2 9 1 10 3 11 12 12 10 14
REMARK H PARENT 12 13 10 15
REMARK Flexibility Score: inf
ROOT
ATOM      1  C   UNL     1      53.921   7.737 -46.952  1.00  0.00    -0.022 A 
ATOM      2  C   UNL     1      55.108   8.159 -46.331  1.00  0.00     0.058 A 
ATOM      3  C   UNL     1      52.821   7.383 -46.145  1.00  0.00     0.012 A 
ATOM      4  C   UNL     1      55.209   8.204 -44.932  1.00  0.00     0.157 A 
ATOM      5  C   UNL     1      52.922   7.430 -44.753  1.00  0.00     0.051 A 
ATOM      6  C   UNL     1      54.114   7.837 -44.142  1.00  0.00     0.157 A 
ENDROOT
BRANCH   1   7
ATOM      7  C   UNL     1      53.864   7.717 -48.435  1.00  0.00     0.010 C 
ATOM      8  C   UNL     1      53.489   8.766 -49.179  1.00  0.00     0.025 C 
BRANCH   8   9
ATOM      9  C   UNL     1      53.436   8.697 -50.648  1.00  0.00     0.064 C 
ATOM     10  O   UNL     1      54.276   9.340 -51.331  1.00  0.00    -0.545 OA
ATOM     11  O   UNL     1      52.474   7.932 -51.297  1.00  0.00    -0.545 OA
ENDBRANCH   8   9
ENDBRANCH   1   7
BRANCH   4  12
ATOM     12  O   UNL     1      56.394   8.615 -44.323  1.00  0.00    -0.504 OA
ATOM     13  H   UNL     1      56.449   9.482 -43.801  1.00  0.00     0.293 HD
ENDBRANCH   4  12
BRANCH   6  14
ATOM     14  O   UNL     1      54.217   7.881 -42.753  1.00  0.00    -0.504 OA
ATOM     15  H   UNL     1      55.054   8.222 -42.294  1.00  0.00     0.293 HD
ENDBRANCH   6  14
TORSDOF 4
ENDMDL
MODEL 2
REMARK VINA RESULT:    -4.272     11.625     12.310
REMARK INTER + INTRA:          -5.145
REMARK INTER:                  -5.009
REMARK INTRA:                  -0.136
REMARK UNBOUND:                -0.124
REMARK SMILES O=C([O-])C=Cc1ccc(O)c(O)c1
REMARK SMILES IDX 6 1 13 2 7 3 11 4 8 5 9 6 5 7 4 8 2 9 1 10 3 11 12 12 10 14
REMARK H PARENT 12 13 10 15
REMARK Flexibility Score: inf
ROOT
ATOM      1  C   UNL     1      59.278  -1.844 -50.034  1.00  0.00    -0.022 A 
ATOM      2  C   UNL     1      59.249  -2.945 -50.908  1.00  0.00     0.058 A 
ATOM      3  C   UNL     1      60.287  -1.783 -49.052  1.00  0.00     0.012 A 
ATOM      4  C   UNL     1      60.191  -3.978 -50.789  1.00  0.00     0.157 A 
ATOM      5  C   UNL     1      61.224  -2.812 -48.936  1.00  0.00     0.051 A 
ATOM      6  C   UNL     1      61.179  -3.912 -49.801  1.00  0.00     0.157 A 
ENDROOT
BRANCH   1   7
ATOM      7  C   UNL     1      58.265  -0.773 -50.208  1.00  0.00     0.010 C 
ATOM      8  C   UNL     1      58.560   0.534 -50.224  1.00  0.00     0.025 C 
BRANCH   8   9
ATOM      9  C   UNL     1      57.521   1.562 -50.388  1.00  0.00     0.064 C 
ATOM     10  O   UNL     1      56.422   1.437 -49.787  1.00  0.00    -0.545 OA
ATOM     11  O   UNL     1      57.732   2.675 -51.194  1.00  0.00    -0.545 OA
ENDBRANCH   8   9
ENDBRANCH   1   7
BRANCH   4  12
ATOM     12  O   UNL     1      60.150  -5.071 -51.654  1.00  0.00    -0.504 OA
ATOM     13  H   UNL     1      59.288  -5.570 -51.837  1.00  0.00     0.293 HD
ENDBRANCH   4  12
BRANCH   6  14
ATOM     14  O   UNL     1      62.111  -4.941 -49.685  1.00  0.00    -0.504 OA
ATOM     15  H   UNL     1      61.827  -5.912 -49.637  1.00  0.00     0.293 HD
ENDBRANCH   6  14
TORSDOF 4
ENDMDL
MODEL 3
REMARK VINA RESULT:    -4.156      1.270      5.927
REMARK INTER + INTRA:          -5.008
REMARK INTER:                  -4.880
REMARK INTRA:                  -0.128
REMARK UNBOUND:                -0.124
REMARK SMILES O=C([O-])C=Cc1ccc(O)c(O)c1
REMARK SMILES IDX 6 1 13 2 7 3 11 4 8 5 9 6 5 7 4 8 2 9 1 10 3 11 12 12 10 14
REMARK H PARENT 12 13 10 15
REMARK Flexibility Score: inf
ROOT
ATOM      1  C   UNL     1      54.392   7.528 -47.754  1.00  0.00    -0.022 A 
ATOM      2  C   UNL     1      53.634   8.500 -48.430  1.00  0.00     0.058 A 
ATOM      3  C   UNL     1      55.138   6.602 -48.510  1.00  0.00     0.012 A 
ATOM      4  C   UNL     1      53.598   8.533 -49.832  1.00  0.00     0.157 A 
ATOM      5  C   UNL     1      55.102   6.637 -49.906  1.00  0.00     0.051 A 
ATOM      6  C   UNL     1      54.332   7.598 -50.571  1.00  0.00     0.157 A 
ENDROOT
BRANCH   1   7
ATOM      7  C   UNL     1      54.404   7.543 -46.270  1.00  0.00     0.010 C 
ATOM      8  C   UNL     1      55.278   8.249 -45.540  1.00  0.00     0.025 C 
BRANCH   8   9
ATOM      9  C   UNL     1      55.260   8.225 -44.069  1.00  0.00     0.064 C 
ATOM     10  O   UNL     1      56.198   8.766 -43.427  1.00  0.00    -0.545 OA
ATOM     11  O   UNL     1      54.223   7.615 -43.373  1.00  0.00    -0.545 OA
ENDBRANCH   8   9
ENDBRANCH   1   7
BRANCH   4  12
ATOM     12  O   UNL     1      52.835   9.493 -50.496  1.00  0.00    -0.504 OA
ATOM     13  H   UNL     1      53.090  10.474 -50.482  1.00  0.00     0.293 HD
ENDBRANCH   4  12
BRANCH   6  14
ATOM     14  O   UNL     1      54.293   7.633 -51.963  1.00  0.00    -0.504 OA
ATOM     15  H   UNL     1      53.535   7.206 -52.484  1.00  0.00     0.293 HD
ENDBRANCH   6  14
TORSDOF 4
ENDMDL
MODEL 4
REMARK VINA RESULT:    -4.024     15.868     17.105
REMARK INTER + INTRA:          -4.853
REMARK INTER:                  -4.720
REMARK INTRA:                  -0.133
REMARK UNBOUND:                -0.124
REMARK SMILES O=C([O-])C=Cc1ccc(O)c(O)c1
REMARK SMILES IDX 6 1 13 2 7 3 11 4 8 5 9 6 5 7 4 8 2 9 1 10 3 11 12 12 10 14
REMARK H PARENT 12 13 10 15
REMARK Flexibility Score: inf
ROOT
ATOM      1  C   UNL     1      61.243  -6.191 -45.628  1.00  0.00    -0.022 A 
ATOM      2  C   UNL     1      59.870  -6.239 -45.922  1.00  0.00     0.058 A 
ATOM      3  C   UNL     1      62.097  -5.472 -46.489  1.00  0.00     0.012 A 
ATOM      4  C   UNL     1      59.359  -5.606 -47.065  1.00  0.00     0.157 A 
ATOM      5  C   UNL     1      61.586  -4.841 -47.625  1.00  0.00     0.051 A 
ATOM      6  C   UNL     1      60.219  -4.908 -47.919  1.00  0.00     0.157 A 
ENDROOT
BRANCH   1   7
ATOM      7  C   UNL     1      61.731  -6.869 -44.401  1.00  0.00     0.010 C 
ATOM      8  C   UNL     1      60.951  -7.604 -43.597  1.00  0.00     0.025 C 
BRANCH   8   9
ATOM      9  C   UNL     1      61.476  -8.249 -42.383  1.00  0.00     0.064 C 
ATOM     10  O   UNL     1      61.802  -7.541 -41.394  1.00  0.00    -0.545 OA
ATOM     11  O   UNL     1      61.618  -9.630 -42.308  1.00  0.00    -0.545 OA
ENDBRANCH   8   9
ENDBRANCH   1   7
BRANCH   4  12
ATOM     12  O   UNL     1      57.996  -5.667 -47.354  1.00  0.00    -0.504 OA
ATOM     13  H   UNL     1      57.541  -6.543 -47.580  1.00  0.00     0.293 HD
ENDBRANCH   4  12
BRANCH   6  14
ATOM     14  O   UNL     1      59.708  -4.281 -49.054  1.00  0.00    -0.504 OA
ATOM     15  H   UNL     1      59.750  -3.275 -49.168  1.00  0.00     0.293 HD
ENDBRANCH   6  14
TORSDOF 4
ENDMDL
MODEL 5
REMARK VINA RESULT:    -3.987      0.928      1.922
REMARK INTER + INTRA:          -4.810
REMARK INTER:                  -4.685
REMARK INTRA:                  -0.125
REMARK UNBOUND:                -0.124
REMARK SMILES O=C([O-])C=Cc1ccc(O)c(O)c1
REMARK SMILES IDX 6 1 13 2 7 3 11 4 8 5 9 6 5 7 4 8 2 9 1 10 3 11 12 12 10 14
REMARK H PARENT 12 13 10 15
REMARK Flexibility Score: inf
ROOT
ATOM      1  C   UNL     1      54.291   7.709 -46.633  1.00  0.00    -0.022 A 
ATOM      2  C   UNL     1      53.177   7.285 -45.890  1.00  0.00     0.058 A 
ATOM      3  C   UNL     1      55.427   8.181 -45.945  1.00  0.00     0.012 A 
ATOM      4  C   UNL     1      53.182   7.354 -44.488  1.00  0.00     0.157 A 
ATOM      5  C   UNL     1      55.431   8.248 -44.550  1.00  0.00     0.051 A 
ATOM      6  C   UNL     1      54.310   7.838 -43.818  1.00  0.00     0.157 A 
ENDROOT
BRANCH   1   7
ATOM      7  C   UNL     1      54.239   7.606 -48.113  1.00  0.00     0.010 C 
ATOM      8  C   UNL     1      53.553   8.452 -48.894  1.00  0.00     0.025 C 
BRANCH   8   9
ATOM      9  C   UNL     1      53.520   8.305 -50.357  1.00  0.00     0.064 C 
ATOM     10  O   UNL     1      54.537   8.605 -51.036  1.00  0.00    -0.545 OA
ATOM     11  O   UNL     1      52.383   7.837 -51.007  1.00  0.00    -0.545 OA
ENDBRANCH   8   9
ENDBRANCH   1   7
BRANCH   4  12
ATOM     12  O   UNL     1      52.068   6.940 -43.758  1.00  0.00    -0.504 OA
ATOM     13  H   UNL     1      51.856   5.959 -43.626  1.00  0.00     0.293 HD
ENDBRANCH   4  12
BRANCH   6  14
ATOM     14  O   UNL     1      54.311   7.906 -42.426  1.00  0.00    -0.504 OA
ATOM     15  H   UNL     1      55.121   8.235 -41.912  1.00  0.00     0.293 HD
ENDBRANCH   6  14
TORSDOF 4
ENDMDL
MODEL 6
REMARK VINA RESULT:    -3.916     12.246     13.027
REMARK INTER + INTRA:          -4.726
REMARK INTER:                  -4.593
REMARK INTRA:                  -0.132
REMARK UNBOUND:                -0.124
REMARK SMILES O=C([O-])C=Cc1ccc(O)c(O)c1
REMARK SMILES IDX 6 1 13 2 7 3 11 4 8 5 9 6 5 7 4 8 2 9 1 10 3 11 12 12 10 14
REMARK H PARENT 12 13 10 15
REMARK Flexibility Score: inf
ROOT
ATOM      1  C   UNL     1      58.068  -2.661 -51.095  1.00  0.00    -0.022 A 
ATOM      2  C   UNL     1      58.719  -3.406 -52.093  1.00  0.00     0.058 A 
ATOM      3  C   UNL     1      58.639  -2.606 -49.808  1.00  0.00     0.012 A 
ATOM      4  C   UNL     1      59.901  -4.106 -51.808  1.00  0.00     0.157 A 
ATOM      5  C   UNL     1      59.816  -3.302 -49.526  1.00  0.00     0.051 A 
ATOM      6  C   UNL     1      60.449  -4.055 -50.522  1.00  0.00     0.157 A 
ENDROOT
BRANCH   1   7
ATOM      7  C   UNL     1      56.826  -1.930 -51.451  1.00  0.00     0.010 C 
ATOM      8  C   UNL     1      55.929  -2.377 -52.340  1.00  0.00     0.025 C 
BRANCH   8   9
ATOM      9  C   UNL     1      54.716  -1.613 -52.670  1.00  0.00     0.064 C 
ATOM     10  O   UNL     1      54.720  -0.359 -52.556  1.00  0.00    -0.545 OA
ATOM     11  O   UNL     1      53.562  -2.252 -53.110  1.00  0.00    -0.545 OA
ENDBRANCH   8   9
ENDBRANCH   1   7
BRANCH   4  12
ATOM     12  O   UNL     1      60.535  -4.852 -52.801  1.00  0.00    -0.504 OA
ATOM     13  H   UNL     1      61.466  -5.228 -52.668  1.00  0.00     0.293 HD
ENDBRANCH   4  12
BRANCH   6  14
ATOM     14  O   UNL     1      61.623  -4.753 -50.243  1.00  0.00    -0.504 OA
ATOM     15  H   UNL     1      61.763  -5.220 -49.355  1.00  0.00     0.293 HD
ENDBRANCH   6  14
TORSDOF 4
ENDMDL
MODEL 7
REMARK VINA RESULT:    -3.882     13.976     14.985
REMARK INTER + INTRA:          -4.687
REMARK INTER:                  -4.557
REMARK INTRA:                  -0.129
REMARK UNBOUND:                -0.124
REMARK SMILES O=C([O-])C=Cc1ccc(O)c(O)c1
REMARK SMILES IDX 6 1 13 2 7 3 11 4 8 5 9 6 5 7 4 8 2 9 1 10 3 11 12 12 10 14
REMARK H PARENT 12 13 10 15
REMARK Flexibility Score: inf
ROOT
ATOM      1  C   UNL     1      53.119  -5.226 -51.904  1.00  0.00    -0.022 A 
ATOM      2  C   UNL     1      52.406  -6.275 -52.511  1.00  0.00     0.058 A 
ATOM      3  C   UNL     1      53.465  -5.339 -50.543  1.00  0.00     0.012 A 
ATOM      4  C   UNL     1      52.023  -7.403 -51.770  1.00  0.00     0.157 A 
ATOM      5  C   UNL     1      53.084  -6.463 -49.807  1.00  0.00     0.051 A 
ATOM      6  C   UNL     1      52.360  -7.496 -50.415  1.00  0.00     0.157 A 
ENDROOT
BRANCH   1   7
ATOM      7  C   UNL     1      53.509  -4.060 -52.734  1.00  0.00     0.010 C 
ATOM      8  C   UNL     1      53.862  -4.149 -54.024  1.00  0.00     0.025 C 
BRANCH   8   9
ATOM      9  C   UNL     1      54.253  -2.966 -54.806  1.00  0.00     0.064 C 
ATOM     10  O   UNL     1      53.456  -2.491 -55.657  1.00  0.00    -0.545 OA
ATOM     11  O   UNL     1      55.491  -2.360 -54.621  1.00  0.00    -0.545 OA
ENDBRANCH   8   9
ENDBRANCH   1   7
BRANCH   4  12
ATOM     12  O   UNL     1      51.307  -8.435 -52.377  1.00  0.00    -0.504 OA
ATOM     13  H   UNL     1      51.770  -9.149 -52.925  1.00  0.00     0.293 HD
ENDBRANCH   4  12
BRANCH   6  14
ATOM     14  O   UNL     1      51.977  -8.617 -49.682  1.00  0.00    -0.504 OA
ATOM     15  H   UNL     1      52.382  -8.823 -48.777  1.00  0.00     0.293 HD
ENDBRANCH   6  14
TORSDOF 4
ENDMDL
MODEL 8
REMARK VINA RESULT:    -3.865     11.547     12.749
REMARK INTER + INTRA:          -4.666
REMARK INTER:                  -4.534
REMARK INTRA:                  -0.132
REMARK UNBOUND:                -0.124
REMARK SMILES O=C([O-])C=Cc1ccc(O)c(O)c1
REMARK SMILES IDX 6 1 13 2 7 3 11 4 8 5 9 6 5 7 4 8 2 9 1 10 3 11 12 12 10 14
REMARK H PARENT 12 13 10 15
REMARK Flexibility Score: inf
ROOT
ATOM      1  C   UNL     1      59.329  -1.669 -49.226  1.00  0.00    -0.022 A 
ATOM      2  C   UNL     1      60.564  -2.336 -49.171  1.00  0.00     0.058 A 
ATOM      3  C   UNL     1      58.413  -2.019 -50.238  1.00  0.00     0.012 A 
ATOM      4  C   UNL     1      60.892  -3.316 -50.120  1.00  0.00     0.157 A 
ATOM      5  C   UNL     1      58.740  -2.995 -51.181  1.00  0.00     0.051 A 
ATOM      6  C   UNL     1      59.980  -3.644 -51.128  1.00  0.00     0.157 A 
ENDROOT
BRANCH   1   7
ATOM      7  C   UNL     1      59.027  -0.648 -48.192  1.00  0.00     0.010 C 
ATOM      8  C   UNL     1      59.510  -0.688 -46.943  1.00  0.00     0.025 C 
BRANCH   8   9
ATOM      9  C   UNL     1      59.173   0.341 -45.947  1.00  0.00     0.064 C 
ATOM     10  O   UNL     1      59.252   0.068 -44.720  1.00  0.00    -0.545 OA
ATOM     11  O   UNL     1      58.771   1.613 -46.336  1.00  0.00    -0.545 OA
ENDBRANCH   8   9
ENDBRANCH   1   7
BRANCH   4  12
ATOM     12  O   UNL     1      62.124  -3.967 -50.064  1.00  0.00    -0.504 OA
ATOM     13  H   UNL     1      62.917  -3.561 -49.582  1.00  0.00     0.293 HD
ENDBRANCH   4  12
BRANCH   6  14
ATOM     14  O   UNL     1      60.309  -4.616 -52.070  1.00  0.00    -0.504 OA
ATOM     15  H   UNL     1      60.819  -4.385 -52.915  1.00  0.00     0.293 HD
ENDBRANCH   6  14
TORSDOF 4
ENDMDL
MODEL 9
REMARK VINA RESULT:    -3.857     13.843     14.624
REMARK INTER + INTRA:          -4.657
REMARK INTER:                  -4.523
REMARK INTRA:                  -0.134
REMARK UNBOUND:                -0.124
REMARK SMILES O=C([O-])C=Cc1ccc(O)c(O)c1
REMARK SMILES IDX 6 1 13 2 7 3 11 4 8 5 9 6 5 7 4 8 2 9 1 10 3 11 12 12 10 14
REMARK H PARENT 12 13 10 15
REMARK Flexibility Score: inf
ROOT
ATOM      1  C   UNL     1      53.127  -5.309 -51.909  1.00  0.00    -0.022 A 
ATOM      2  C   UNL     1      53.484  -5.371 -50.552  1.00  0.00     0.058 A 
ATOM      3  C   UNL     1      52.356  -6.353 -52.458  1.00  0.00     0.012 A 
ATOM      4  C   UNL     1      53.105  -6.466 -49.761  1.00  0.00     0.157 A 
ATOM      5  C   UNL     1      51.978  -7.442 -51.668  1.00  0.00     0.051 A 
ATOM      6  C   UNL     1      52.352  -7.504 -50.321  1.00  0.00     0.157 A 
ENDROOT
BRANCH   1   7
ATOM      7  C   UNL     1      53.544  -4.124 -52.700  1.00  0.00     0.010 C 
ATOM      8  C   UNL     1      53.817  -4.162 -54.011  1.00  0.00     0.025 C 
BRANCH   8   9
ATOM      9  C   UNL     1      54.240  -2.964 -54.752  1.00  0.00     0.064 C 
ATOM     10  O   UNL     1      53.557  -2.567 -55.733  1.00  0.00    -0.545 OA
ATOM     11  O   UNL     1      55.381  -2.259 -54.388  1.00  0.00    -0.545 OA
ENDBRANCH   8   9
ENDBRANCH   1   7
BRANCH   4  12
ATOM     12  O   UNL     1      53.473  -6.526 -48.417  1.00  0.00    -0.504 OA
ATOM     13  H   UNL     1      54.154  -7.197 -48.083  1.00  0.00     0.293 HD
ENDBRANCH   4  12
BRANCH   6  14
ATOM     14  O   UNL     1      51.978  -8.591 -49.533  1.00  0.00    -0.504 OA
ATOM     15  H   UNL     1      52.346  -9.520 -49.701  1.00  0.00     0.293 HD
ENDBRANCH   6  14
TORSDOF 4
ENDMDL
