MODEL 1
REMARK VINA RESULT:    -5.491      0.000      0.000
REMARK INTER + INTRA:         -18.449
REMARK INTER:                 -14.480
REMARK INTRA:                  -3.968
REMARK UNBOUND:                -3.968
REMARK SMILES CCCCCCCCCCCCCCCCCCCCCCCCCCCCCC(=O)[O-]
REMARK SMILES IDX 16 1 17 2 18 3 19 4 20 5 21 6 22 7 23 8 24 9 25 10 26 11
REMARK SMILES IDX 27 12 28 13 29 14 30 15 31 16 32 17 15 18 14 19 13 20 12 21
REMARK SMILES IDX 11 22 10 23 9 24 8 25 7 26 6 27 5 28 4 29 3 30 2 31 1 32
REMARK H PARENT
REMARK Flexibility Score: inf
ROOT
ATOM      1  C   UNL     1      22.799 -12.234  20.953  1.00  0.00     0.000 C 
ENDROOT
BRANCH   1   2
ATOM      2  C   UNL     1      22.719 -13.266  19.813  1.00  0.00     0.000 C 
BRANCH   2   3
ATOM      3  C   UNL     1      22.762 -12.614  18.419  1.00  0.00     0.000 C 
BRANCH   3   4
ATOM      4  C   UNL     1      24.008 -12.959  17.578  1.00  0.00     0.000 C 
BRANCH   4   5
ATOM      5  C   UNL     1      24.035 -12.271  16.197  1.00  0.00     0.000 C 
BRANCH   5   6
ATOM      6  C   UNL     1      25.002 -11.072  16.161  1.00  0.00     0.000 C 
BRANCH   6   7
ATOM      7  C   UNL     1      25.898 -11.076  14.913  1.00  0.00     0.000 C 
BRANCH   7   8
ATOM      8  C   UNL     1      27.162 -10.223  15.088  1.00  0.00     0.000 C 
BRANCH   8   9
ATOM      9  C   UNL     1      28.425 -11.079  14.944  1.00  0.00     0.000 C 
BRANCH   9  10
ATOM     10  C   UNL     1      29.686 -10.257  15.251  1.00  0.00     0.000 C 
BRANCH  10  11
ATOM     11  C   UNL     1      30.536 -10.861  16.383  1.00  0.00     0.000 C 
BRANCH  11  12
ATOM     12  C   UNL     1      31.637  -9.936  16.937  1.00  0.00     0.000 C 
BRANCH  12  13
ATOM     13  C   UNL     1      32.691  -9.482  15.906  1.00  0.00     0.006 C 
BRANCH  13  14
ATOM     14  C   UNL     1      33.810  -8.601  16.486  1.00  0.00     0.053 C 
BRANCH  14  15
ATOM     15  C   UNL     1      34.920  -9.412  17.081  1.00  0.00     0.041 C 
ATOM     16  O   UNL     1      35.753  -9.990  16.335  1.00  0.00    -0.550 OA
ATOM     17  O   UNL     1      35.036  -9.531  18.461  1.00  0.00    -0.550 OA
ENDBRANCH  14  15
ENDBRANCH  13  14
ENDBRANCH  12  13
ENDBRANCH  11  12
ENDBRANCH  10  11
ENDBRANCH   9  10
ENDBRANCH   8   9
ENDBRANCH   7   8
ENDBRANCH   6   7
ENDBRANCH   5   6
ENDBRANCH   4   5
ENDBRANCH   3   4
ENDBRANCH   2   3
ENDBRANCH   1   2
BRANCH   1  18
ATOM     18  C   UNL     1      22.767 -10.778  20.442  1.00  0.00     0.000 C 
BRANCH  18  19
ATOM     19  C   UNL     1      24.079 -10.004  20.673  1.00  0.00     0.000 C 
BRANCH  19  20
ATOM     20  C   UNL     1      25.017  -9.921  19.453  1.00  0.00     0.000 C 
BRANCH  20  21
ATOM     21  C   UNL     1      26.380  -9.254  19.717  1.00  0.00     0.000 C 
BRANCH  21  22
ATOM     22  C   UNL     1      27.516  -9.854  18.872  1.00  0.00     0.000 C 
BRANCH  22  23
ATOM     23  C   UNL     1      28.261  -8.797  18.036  1.00  0.00     0.000 C 
BRANCH  23  24
ATOM     24  C   UNL     1      27.748  -7.350  18.190  1.00  0.00    -0.000 C 
BRANCH  24  25
ATOM     25  C   UNL     1      28.277  -6.347  17.148  1.00  0.00    -0.000 C 
BRANCH  25  26
ATOM     26  C   UNL     1      29.704  -5.863  17.456  1.00  0.00    -0.000 C 
BRANCH  26  27
ATOM     27  C   UNL     1      30.762  -6.459  16.508  1.00  0.00    -0.000 C 
BRANCH  27  28
ATOM     28  C   UNL     1      30.297  -6.679  15.057  1.00  0.00    -0.000 C 
BRANCH  28  29
ATOM     29  C   UNL     1      31.172  -5.942  14.029  1.00  0.00    -0.000 C 
BRANCH  29  30
ATOM     30  C   UNL     1      32.559  -5.586  14.588  1.00  0.00    -0.000 C 
BRANCH  30  31
ATOM     31  C   UNL     1      33.701  -6.094  13.694  1.00  0.00    -0.003 C 
ATOM     32  C   UNL     1      34.906  -5.159  13.759  1.00  0.00     0.004 C 
ENDBRANCH  30  31
ENDBRANCH  29  30
ENDBRANCH  28  29
ENDBRANCH  27  28
ENDBRANCH  26  27
ENDBRANCH  25  26
ENDBRANCH  24  25
ENDBRANCH  23  24
ENDBRANCH  22  23
ENDBRANCH  21  22
ENDBRANCH  20  21
ENDBRANCH  19  20
ENDBRANCH  18  19
ENDBRANCH   1  18
TORSDOF 28
ENDMDL
MODEL 2
REMARK VINA RESULT:    -5.256      1.911      4.867
REMARK INTER + INTRA:         -17.828
REMARK INTER:                 -14.032
REMARK INTRA:                  -3.795
REMARK UNBOUND:                -3.968
REMARK SMILES CCCCCCCCCCCCCCCCCCCCCCCCCCCCCC(=O)[O-]
REMARK SMILES IDX 16 1 17 2 18 3 19 4 20 5 21 6 22 7 23 8 24 9 25 10 26 11
REMARK SMILES IDX 27 12 28 13 29 14 30 15 31 16 32 17 15 18 14 19 13 20 12 21
REMARK SMILES IDX 11 22 10 23 9 24 8 25 7 26 6 27 5 28 4 29 3 30 2 31 1 32
REMARK H PARENT
REMARK Flexibility Score: inf
ROOT
ATOM      1  C   UNL     1      23.581 -10.254  21.598  1.00  0.00     0.000 C 
ENDROOT
BRANCH   1   2
ATOM      2  C   UNL     1      24.088  -9.846  20.203  1.00  0.00     0.000 C 
BRANCH   2   3
ATOM      3  C   UNL     1      25.608  -9.609  20.170  1.00  0.00     0.000 C 
BRANCH   3   4
ATOM      4  C   UNL     1      26.315 -10.107  18.893  1.00  0.00     0.000 C 
BRANCH   4   5
ATOM      5  C   UNL     1      27.672  -9.420  18.627  1.00  0.00     0.000 C 
BRANCH   5   6
ATOM      6  C   UNL     1      27.509  -7.941  18.227  1.00  0.00     0.000 C 
BRANCH   6   7
ATOM      7  C   UNL     1      28.857  -7.242  17.997  1.00  0.00     0.000 C 
BRANCH   7   8
ATOM      8  C   UNL     1      28.706  -5.868  17.330  1.00  0.00     0.000 C 
BRANCH   8   9
ATOM      9  C   UNL     1      28.375  -6.015  15.841  1.00  0.00     0.000 C 
BRANCH   9  10
ATOM     10  C   UNL     1      29.309  -7.030  15.166  1.00  0.00     0.000 C 
BRANCH  10  11
ATOM     11  C   UNL     1      30.485  -6.365  14.427  1.00  0.00     0.000 C 
BRANCH  11  12
ATOM     12  C   UNL     1      31.824  -6.375  15.191  1.00  0.00     0.000 C 
BRANCH  12  13
ATOM     13  C   UNL     1      32.284  -5.002  15.724  1.00  0.00     0.006 C 
BRANCH  13  14
ATOM     14  C   UNL     1      32.496  -3.936  14.636  1.00  0.00     0.053 C 
BRANCH  14  15
ATOM     15  C   UNL     1      33.513  -4.357  13.620  1.00  0.00     0.041 C 
ATOM     16  O   UNL     1      33.144  -4.784  12.494  1.00  0.00    -0.550 OA
ATOM     17  O   UNL     1      34.869  -4.279  13.914  1.00  0.00    -0.550 OA
ENDBRANCH  14  15
ENDBRANCH  13  14
ENDBRANCH  12  13
ENDBRANCH  11  12
ENDBRANCH  10  11
ENDBRANCH   9  10
ENDBRANCH   8   9
ENDBRANCH   7   8
ENDBRANCH   6   7
ENDBRANCH   5   6
ENDBRANCH   4   5
ENDBRANCH   3   4
ENDBRANCH   2   3
ENDBRANCH   1   2
BRANCH   1  18
ATOM     18  C   UNL     1      22.991 -11.680  21.624  1.00  0.00     0.000 C 
BRANCH  18  19
ATOM     19  C   UNL     1      22.169 -12.041  20.372  1.00  0.00     0.000 C 
BRANCH  19  20
ATOM     20  C   UNL     1      22.861 -12.999  19.384  1.00  0.00     0.000 C 
BRANCH  20  21
ATOM     21  C   UNL     1      22.856 -12.542  17.913  1.00  0.00     0.000 C 
BRANCH  21  22
ATOM     22  C   UNL     1      24.216 -12.728  17.222  1.00  0.00     0.000 C 
BRANCH  22  23
ATOM     23  C   UNL     1      24.208 -12.268  15.752  1.00  0.00     0.000 C 
BRANCH  23  24
ATOM     24  C   UNL     1      24.941 -10.940  15.469  1.00  0.00    -0.000 C 
BRANCH  24  25
ATOM     25  C   UNL     1      26.294 -11.073  14.747  1.00  0.00    -0.000 C 
BRANCH  25  26
ATOM     26  C   UNL     1      27.488 -11.105  15.716  1.00  0.00    -0.000 C 
BRANCH  26  27
ATOM     27  C   UNL     1      28.833 -10.804  15.027  1.00  0.00    -0.000 C 
BRANCH  27  28
ATOM     28  C   UNL     1      30.087 -11.137  15.855  1.00  0.00    -0.000 C 
BRANCH  28  29
ATOM     29  C   UNL     1      31.121  -9.998  15.861  1.00  0.00    -0.000 C 
BRANCH  29  30
ATOM     30  C   UNL     1      31.794  -9.825  17.232  1.00  0.00    -0.000 C 
BRANCH  30  31
ATOM     31  C   UNL     1      33.085  -8.996  17.153  1.00  0.00    -0.003 C 
ATOM     32  C   UNL     1      33.877  -9.331  15.892  1.00  0.00     0.004 C 
ENDBRANCH  30  31
ENDBRANCH  29  30
ENDBRANCH  28  29
ENDBRANCH  27  28
ENDBRANCH  26  27
ENDBRANCH  25  26
ENDBRANCH  24  25
ENDBRANCH  23  24
ENDBRANCH  22  23
ENDBRANCH  21  22
ENDBRANCH  20  21
ENDBRANCH  19  20
ENDBRANCH  18  19
ENDBRANCH   1  18
TORSDOF 28
ENDMDL
MODEL 3
REMARK VINA RESULT:    -5.236      1.585      2.353
REMARK INTER + INTRA:         -17.774
REMARK INTER:                 -13.963
REMARK INTRA:                  -3.812
REMARK UNBOUND:                -3.968
REMARK SMILES CCCCCCCCCCCCCCCCCCCCCCCCCCCCCC(=O)[O-]
REMARK SMILES IDX 16 1 17 2 18 3 19 4 20 5 21 6 22 7 23 8 24 9 25 10 26 11
REMARK SMILES IDX 27 12 28 13 29 14 30 15 31 16 32 17 15 18 14 19 13 20 12 21
REMARK SMILES IDX 11 22 10 23 9 24 8 25 7 26 6 27 5 28 4 29 3 30 2 31 1 32
REMARK H PARENT
REMARK Flexibility Score: inf
ROOT
ATOM      1  C   UNL     1      22.256 -12.256  20.334  1.00  0.00     0.000 C 
ENDROOT
BRANCH   1   2
ATOM      2  C   UNL     1      22.843 -13.651  20.054  1.00  0.00     0.000 C 
BRANCH   2   3
ATOM      3  C   UNL     1      23.747 -13.676  18.809  1.00  0.00     0.000 C 
BRANCH   3   4
ATOM      4  C   UNL     1      23.438 -12.588  17.760  1.00  0.00     0.000 C 
BRANCH   4   5
ATOM      5  C   UNL     1      24.142 -12.814  16.405  1.00  0.00     0.000 C 
BRANCH   5   6
ATOM      6  C   UNL     1      24.337 -11.501  15.623  1.00  0.00     0.000 C 
BRANCH   6   7
ATOM      7  C   UNL     1      25.734 -10.895  15.829  1.00  0.00     0.000 C 
BRANCH   7   8
ATOM      8  C   UNL     1      26.635 -11.054  14.597  1.00  0.00     0.000 C 
BRANCH   8   9
ATOM      9  C   UNL     1      28.108 -10.840  14.964  1.00  0.00     0.000 C 
BRANCH   9  10
ATOM     10  C   UNL     1      28.437 -11.482  16.320  1.00  0.00     0.000 C 
BRANCH  10  11
ATOM     11  C   UNL     1      29.944 -11.725  16.520  1.00  0.00     0.000 C 
BRANCH  11  12
ATOM     12  C   UNL     1      30.765 -10.469  16.872  1.00  0.00     0.000 C 
BRANCH  12  13
ATOM     13  C   UNL     1      31.701  -9.963  15.755  1.00  0.00     0.006 C 
BRANCH  13  14
ATOM     14  C   UNL     1      32.532  -8.725  16.132  1.00  0.00     0.053 C 
BRANCH  14  15
ATOM     15  C   UNL     1      33.975  -9.058  16.359  1.00  0.00     0.041 C 
ATOM     16  O   UNL     1      34.713  -9.371  15.387  1.00  0.00    -0.550 OA
ATOM     17  O   UNL     1      34.508  -9.022  17.642  1.00  0.00    -0.550 OA
ENDBRANCH  14  15
ENDBRANCH  13  14
ENDBRANCH  12  13
ENDBRANCH  11  12
ENDBRANCH  10  11
ENDBRANCH   9  10
ENDBRANCH   8   9
ENDBRANCH   7   8
ENDBRANCH   6   7
ENDBRANCH   5   6
ENDBRANCH   4   5
ENDBRANCH   3   4
ENDBRANCH   2   3
ENDBRANCH   1   2
BRANCH   1  18
ATOM     18  C   UNL     1      22.640 -11.717  21.728  1.00  0.00     0.000 C 
BRANCH  18  19
ATOM     19  C   UNL     1      23.446 -10.405  21.693  1.00  0.00     0.000 C 
BRANCH  19  20
ATOM     20  C   UNL     1      24.020 -10.022  20.315  1.00  0.00     0.000 C 
BRANCH  20  21
ATOM     21  C   UNL     1      25.512  -9.638  20.308  1.00  0.00     0.000 C 
BRANCH  21  22
ATOM     22  C   UNL     1      26.166  -9.797  18.926  1.00  0.00     0.000 C 
BRANCH  22  23
ATOM     23  C   UNL     1      27.591  -9.217  18.870  1.00  0.00     0.000 C 
BRANCH  23  24
ATOM     24  C   UNL     1      27.749  -7.928  18.036  1.00  0.00    -0.000 C 
BRANCH  24  25
ATOM     25  C   UNL     1      28.969  -7.892  17.099  1.00  0.00    -0.000 C 
BRANCH  25  26
ATOM     26  C   UNL     1      28.637  -7.332  15.705  1.00  0.00    -0.000 C 
BRANCH  26  27
ATOM     27  C   UNL     1      29.789  -6.513  15.093  1.00  0.00    -0.000 C 
BRANCH  27  28
ATOM     28  C   UNL     1      29.413  -5.096  14.624  1.00  0.00    -0.000 C 
BRANCH  28  29
ATOM     29  C   UNL     1      30.114  -3.991  15.434  1.00  0.00    -0.000 C 
BRANCH  29  30
ATOM     30  C   UNL     1      29.130  -2.927  15.948  1.00  0.00    -0.000 C 
BRANCH  30  31
ATOM     31  C   UNL     1      28.254  -3.444  17.100  1.00  0.00    -0.003 C 
ATOM     32  C   UNL     1      29.067  -4.302  18.066  1.00  0.00     0.004 C 
ENDBRANCH  30  31
ENDBRANCH  29  30
ENDBRANCH  28  29
ENDBRANCH  27  28
ENDBRANCH  26  27
ENDBRANCH  25  26
ENDBRANCH  24  25
ENDBRANCH  23  24
ENDBRANCH  22  23
ENDBRANCH  21  22
ENDBRANCH  20  21
ENDBRANCH  19  20
ENDBRANCH  18  19
ENDBRANCH   1  18
TORSDOF 28
ENDMDL
MODEL 4
REMARK VINA RESULT:    -5.108      3.650      7.675
REMARK INTER + INTRA:         -17.436
REMARK INTER:                 -13.263
REMARK INTRA:                  -4.173
REMARK UNBOUND:                -3.968
REMARK SMILES CCCCCCCCCCCCCCCCCCCCCCCCCCCCCC(=O)[O-]
REMARK SMILES IDX 16 1 17 2 18 3 19 4 20 5 21 6 22 7 23 8 24 9 25 10 26 11
REMARK SMILES IDX 27 12 28 13 29 14 30 15 31 16 32 17 15 18 14 19 13 20 12 21
REMARK SMILES IDX 11 22 10 23 9 24 8 25 7 26 6 27 5 28 4 29 3 30 2 31 1 32
REMARK H PARENT
REMARK Flexibility Score: inf
ROOT
ATOM      1  C   UNL     1      30.065  -7.775  16.730  1.00  0.00     0.000 C 
ENDROOT
BRANCH   1   2
ATOM      2  C   UNL     1      28.694  -7.109  16.515  1.00  0.00     0.000 C 
BRANCH   2   3
ATOM      3  C   UNL     1      27.773  -7.237  17.742  1.00  0.00     0.000 C 
BRANCH   3   4
ATOM      4  C   UNL     1      27.889  -8.573  18.504  1.00  0.00     0.000 C 
BRANCH   4   5
ATOM      5  C   UNL     1      26.935  -9.669  17.983  1.00  0.00     0.000 C 
BRANCH   5   6
ATOM      6  C   UNL     1      27.676 -10.979  17.651  1.00  0.00     0.000 C 
BRANCH   6   7
ATOM      7  C   UNL     1      27.843 -11.193  16.140  1.00  0.00     0.000 C 
BRANCH   7   8
ATOM      8  C   UNL     1      26.806 -10.420  15.314  1.00  0.00     0.000 C 
BRANCH   8   9
ATOM      9  C   UNL     1      25.673 -11.344  14.852  1.00  0.00     0.000 C 
BRANCH   9  10
ATOM     10  C   UNL     1      24.507 -11.329  15.853  1.00  0.00     0.000 C 
BRANCH  10  11
ATOM     11  C   UNL     1      24.053 -12.741  16.266  1.00  0.00     0.000 C 
BRANCH  11  12
ATOM     12  C   UNL     1      24.016 -12.995  17.786  1.00  0.00     0.000 C 
BRANCH  12  13
ATOM     13  C   UNL     1      22.752 -12.483  18.505  1.00  0.00     0.006 C 
BRANCH  13  14
ATOM     14  C   UNL     1      22.749 -12.711  20.026  1.00  0.00     0.053 C 
BRANCH  14  15
ATOM     15  C   UNL     1      22.986 -11.444  20.791  1.00  0.00     0.041 C 
ATOM     16  O   UNL     1      22.646 -11.362  22.000  1.00  0.00    -0.550 OA
ATOM     17  O   UNL     1      23.583 -10.354  20.168  1.00  0.00    -0.550 OA
ENDBRANCH  14  15
ENDBRANCH  13  14
ENDBRANCH  12  13
ENDBRANCH  11  12
ENDBRANCH  10  11
ENDBRANCH   9  10
ENDBRANCH   8   9
ENDBRANCH   7   8
ENDBRANCH   6   7
ENDBRANCH   5   6
ENDBRANCH   4   5
ENDBRANCH   3   4
ENDBRANCH   2   3
ENDBRANCH   1   2
BRANCH   1  18
ATOM     18  C   UNL     1      30.374  -8.856  15.673  1.00  0.00     0.000 C 
BRANCH  18  19
ATOM     19  C   UNL     1      31.388  -9.918  16.140  1.00  0.00     0.000 C 
BRANCH  19  20
ATOM     20  C   UNL     1      32.659  -9.364  16.812  1.00  0.00     0.000 C 
BRANCH  20  21
ATOM     21  C   UNL     1      33.524  -8.447  15.927  1.00  0.00     0.000 C 
BRANCH  21  22
ATOM     22  C   UNL     1      33.717  -7.043  16.524  1.00  0.00     0.000 C 
BRANCH  22  23
ATOM     23  C   UNL     1      33.433  -5.919  15.511  1.00  0.00     0.000 C 
BRANCH  23  24
ATOM     24  C   UNL     1      32.611  -6.336  14.273  1.00  0.00    -0.000 C 
BRANCH  24  25
ATOM     25  C   UNL     1      31.341  -5.506  14.013  1.00  0.00    -0.000 C 
BRANCH  25  26
ATOM     26  C   UNL     1      31.055  -4.485  15.128  1.00  0.00    -0.000 C 
BRANCH  26  27
ATOM     27  C   UNL     1      30.685  -3.091  14.588  1.00  0.00    -0.000 C 
BRANCH  27  28
ATOM     28  C   UNL     1      29.748  -3.084  13.366  1.00  0.00    -0.000 C 
BRANCH  28  29
ATOM     29  C   UNL     1      28.327  -2.604  13.702  1.00  0.00    -0.000 C 
BRANCH  29  30
ATOM     30  C   UNL     1      27.268  -3.196  12.758  1.00  0.00    -0.000 C 
BRANCH  30  31
ATOM     31  C   UNL     1      26.363  -4.221  13.458  1.00  0.00    -0.003 C 
ATOM     32  C   UNL     1      26.520  -4.147  14.975  1.00  0.00     0.004 C 
ENDBRANCH  30  31
ENDBRANCH  29  30
ENDBRANCH  28  29
ENDBRANCH  27  28
ENDBRANCH  26  27
ENDBRANCH  25  26
ENDBRANCH  24  25
ENDBRANCH  23  24
ENDBRANCH  22  23
ENDBRANCH  21  22
ENDBRANCH  20  21
ENDBRANCH  19  20
ENDBRANCH  18  19
ENDBRANCH   1  18
TORSDOF 28
ENDMDL
MODEL 5
REMARK VINA RESULT:    -5.101      3.197      8.291
REMARK INTER + INTRA:         -17.418
REMARK INTER:                 -13.699
REMARK INTRA:                  -3.719
REMARK UNBOUND:                -3.968
REMARK SMILES CCCCCCCCCCCCCCCCCCCCCCCCCCCCCC(=O)[O-]
REMARK SMILES IDX 16 1 17 2 18 3 19 4 20 5 21 6 22 7 23 8 24 9 25 10 26 11
REMARK SMILES IDX 27 12 28 13 29 14 30 15 31 16 32 17 15 18 14 19 13 20 12 21
REMARK SMILES IDX 11 22 10 23 9 24 8 25 7 26 6 27 5 28 4 29 3 30 2 31 1 32
REMARK H PARENT
REMARK Flexibility Score: inf
ROOT
ATOM      1  C   UNL     1      31.908  -9.609  17.215  1.00  0.00     0.000 C 
ENDROOT
BRANCH   1   2
ATOM      2  C   UNL     1      31.442 -10.049  15.816  1.00  0.00     0.000 C 
BRANCH   2   3
ATOM      3  C   UNL     1      29.909 -10.090  15.686  1.00  0.00     0.000 C 
BRANCH   3   4
ATOM      4  C   UNL     1      29.143 -10.091  17.025  1.00  0.00     0.000 C 
BRANCH   4   5
ATOM      5  C   UNL     1      27.609 -10.042  16.863  1.00  0.00     0.000 C 
BRANCH   5   6
ATOM      6  C   UNL     1      27.177 -10.062  15.383  1.00  0.00     0.000 C 
BRANCH   6   7
ATOM      7  C   UNL     1      26.171 -11.183  15.080  1.00  0.00     0.000 C 
BRANCH   7   8
ATOM      8  C   UNL     1      24.842 -11.004  15.826  1.00  0.00     0.000 C 
BRANCH   8   9
ATOM      9  C   UNL     1      24.017 -12.295  15.795  1.00  0.00     0.000 C 
BRANCH   9  10
ATOM     10  C   UNL     1      24.533 -13.304  16.833  1.00  0.00     0.000 C 
BRANCH  10  11
ATOM     11  C   UNL     1      24.005 -13.027  18.253  1.00  0.00     0.000 C 
BRANCH  11  12
ATOM     12  C   UNL     1      22.524 -12.606  18.327  1.00  0.00     0.000 C 
BRANCH  12  13
ATOM     13  C   UNL     1      22.181 -11.609  19.453  1.00  0.00     0.006 C 
BRANCH  13  14
ATOM     14  C   UNL     1      22.839 -11.927  20.806  1.00  0.00     0.053 C 
BRANCH  14  15
ATOM     15  C   UNL     1      23.337 -10.694  21.498  1.00  0.00     0.041 C 
ATOM     16  O   UNL     1      22.983 -10.446  22.681  1.00  0.00    -0.550 OA
ATOM     17  O   UNL     1      24.191  -9.819  20.837  1.00  0.00    -0.550 OA
ENDBRANCH  14  15
ENDBRANCH  13  14
ENDBRANCH  12  13
ENDBRANCH  11  12
ENDBRANCH  10  11
ENDBRANCH   9  10
ENDBRANCH   8   9
ENDBRANCH   7   8
ENDBRANCH   6   7
ENDBRANCH   5   6
ENDBRANCH   4   5
ENDBRANCH   3   4
ENDBRANCH   2   3
ENDBRANCH   1   2
BRANCH   1  18
ATOM     18  C   UNL     1      33.374  -9.130  17.231  1.00  0.00     0.000 C 
BRANCH  18  19
ATOM     19  C   UNL     1      34.102  -9.295  15.884  1.00  0.00     0.000 C 
BRANCH  19  20
ATOM     20  C   UNL     1      34.518  -7.981  15.195  1.00  0.00     0.000 C 
BRANCH  20  21
ATOM     21  C   UNL     1      35.127  -6.916  16.126  1.00  0.00     0.000 C 
BRANCH  21  22
ATOM     22  C   UNL     1      35.631  -5.675  15.371  1.00  0.00     0.000 C 
BRANCH  22  23
ATOM     23  C   UNL     1      35.225  -5.674  13.886  1.00  0.00     0.000 C 
BRANCH  23  24
ATOM     24  C   UNL     1      34.508  -4.398  13.396  1.00  0.00    -0.000 C 
BRANCH  24  25
ATOM     25  C   UNL     1      33.138  -4.624  12.732  1.00  0.00    -0.000 C 
BRANCH  25  26
ATOM     26  C   UNL     1      31.962  -4.437  13.707  1.00  0.00    -0.000 C 
BRANCH  26  27
ATOM     27  C   UNL     1      31.872  -5.552  14.765  1.00  0.00    -0.000 C 
BRANCH  27  28
ATOM     28  C   UNL     1      30.783  -6.611  14.514  1.00  0.00    -0.000 C 
BRANCH  28  29
ATOM     29  C   UNL     1      29.733  -6.668  15.637  1.00  0.00    -0.000 C 
BRANCH  29  30
ATOM     30  C   UNL     1      30.345  -6.426  17.026  1.00  0.00    -0.000 C 
BRANCH  30  31
ATOM     31  C   UNL     1      29.377  -5.708  17.979  1.00  0.00    -0.003 C 
ATOM     32  C   UNL     1      28.113  -6.534  18.203  1.00  0.00     0.004 C 
ENDBRANCH  30  31
ENDBRANCH  29  30
ENDBRANCH  28  29
ENDBRANCH  27  28
ENDBRANCH  26  27
ENDBRANCH  25  26
ENDBRANCH  24  25
ENDBRANCH  23  24
ENDBRANCH  22  23
ENDBRANCH  21  22
ENDBRANCH  20  21
ENDBRANCH  19  20
ENDBRANCH  18  19
ENDBRANCH   1  18
TORSDOF 28
ENDMDL
MODEL 6
REMARK VINA RESULT:    -5.099      1.278      3.476
REMARK INTER + INTRA:         -17.414
REMARK INTER:                 -13.492
REMARK INTRA:                  -3.922
REMARK UNBOUND:                -3.968
REMARK SMILES CCCCCCCCCCCCCCCCCCCCCCCCCCCCCC(=O)[O-]
REMARK SMILES IDX 16 1 17 2 18 3 19 4 20 5 21 6 22 7 23 8 24 9 25 10 26 11
REMARK SMILES IDX 27 12 28 13 29 14 30 15 31 16 32 17 15 18 14 19 13 20 12 21
REMARK SMILES IDX 11 22 10 23 9 24 8 25 7 26 6 27 5 28 4 29 3 30 2 31 1 32
REMARK H PARENT
REMARK Flexibility Score: inf
ROOT
ATOM      1  C   UNL     1      24.991  -9.972  19.523  1.00  0.00     0.000 C 
ENDROOT
BRANCH   1   2
ATOM      2  C   UNL     1      24.048 -10.058  20.737  1.00  0.00     0.000 C 
BRANCH   2   3
ATOM      3  C   UNL     1      22.740 -10.807  20.421  1.00  0.00     0.000 C 
BRANCH   3   4
ATOM      4  C   UNL     1      22.690 -12.265  20.920  1.00  0.00     0.000 C 
BRANCH   4   5
ATOM      5  C   UNL     1      22.968 -13.309  19.817  1.00  0.00     0.000 C 
BRANCH   5   6
ATOM      6  C   UNL     1      22.841 -12.711  18.402  1.00  0.00     0.000 C 
BRANCH   6   7
ATOM      7  C   UNL     1      24.072 -12.997  17.530  1.00  0.00     0.000 C 
BRANCH   7   8
ATOM      8  C   UNL     1      23.978 -12.350  16.141  1.00  0.00     0.000 C 
BRANCH   8   9
ATOM      9  C   UNL     1      24.861 -11.100  16.057  1.00  0.00     0.000 C 
BRANCH   9  10
ATOM     10  C   UNL     1      25.768 -11.149  14.818  1.00  0.00     0.000 C 
BRANCH  10  11
ATOM     11  C   UNL     1      27.064 -10.337  14.992  1.00  0.00     0.000 C 
BRANCH  11  12
ATOM     12  C   UNL     1      28.320 -11.172  15.308  1.00  0.00     0.000 C 
BRANCH  12  13
ATOM     13  C   UNL     1      29.639 -10.375  15.372  1.00  0.00     0.006 C 
BRANCH  13  14
ATOM     14  C   UNL     1      30.511 -10.684  16.600  1.00  0.00     0.053 C 
BRANCH  14  15
ATOM     15  C   UNL     1      31.655  -9.727  16.740  1.00  0.00     0.041 C 
ATOM     16  O   UNL     1      31.777  -9.035  17.785  1.00  0.00    -0.550 OA
ATOM     17  O   UNL     1      32.586  -9.596  15.716  1.00  0.00    -0.550 OA
ENDBRANCH  14  15
ENDBRANCH  13  14
ENDBRANCH  12  13
ENDBRANCH  11  12
ENDBRANCH  10  11
ENDBRANCH   9  10
ENDBRANCH   8   9
ENDBRANCH   7   8
ENDBRANCH   6   7
ENDBRANCH   5   6
ENDBRANCH   4   5
ENDBRANCH   3   4
ENDBRANCH   2   3
ENDBRANCH   1   2
BRANCH   1  18
ATOM     18  C   UNL     1      26.426  -9.560  19.912  1.00  0.00     0.000 C 
BRANCH  18  19
ATOM     19  C   UNL     1      27.446  -9.681  18.764  1.00  0.00     0.000 C 
BRANCH  19  20
ATOM     20  C   UNL     1      27.412  -8.540  17.730  1.00  0.00     0.000 C 
BRANCH  20  21
ATOM     21  C   UNL     1      28.439  -7.415  17.959  1.00  0.00     0.000 C 
BRANCH  21  22
ATOM     22  C   UNL     1      27.884  -6.019  17.632  1.00  0.00     0.000 C 
BRANCH  22  23
ATOM     23  C   UNL     1      28.532  -5.396  16.382  1.00  0.00     0.000 C 
BRANCH  23  24
ATOM     24  C   UNL     1      28.839  -6.382  15.234  1.00  0.00    -0.000 C 
BRANCH  24  25
ATOM     25  C   UNL     1      30.325  -6.741  15.051  1.00  0.00    -0.000 C 
BRANCH  25  26
ATOM     26  C   UNL     1      30.966  -6.034  13.844  1.00  0.00    -0.000 C 
BRANCH  26  27
ATOM     27  C   UNL     1      31.490  -4.625  14.178  1.00  0.00    -0.000 C 
BRANCH  27  28
ATOM     28  C   UNL     1      31.999  -4.436  15.619  1.00  0.00    -0.000 C 
BRANCH  28  29
ATOM     29  C   UNL     1      33.512  -4.676  15.756  1.00  0.00    -0.000 C 
BRANCH  29  30
ATOM     30  C   UNL     1      33.838  -6.103  16.227  1.00  0.00    -0.000 C 
BRANCH  30  31
ATOM     31  C   UNL     1      34.884  -6.791  15.335  1.00  0.00    -0.003 C 
ATOM     32  C   UNL     1      34.674  -6.434  13.866  1.00  0.00     0.004 C 
ENDBRANCH  30  31
ENDBRANCH  29  30
ENDBRANCH  28  29
ENDBRANCH  27  28
ENDBRANCH  26  27
ENDBRANCH  25  26
ENDBRANCH  24  25
ENDBRANCH  23  24
ENDBRANCH  22  23
ENDBRANCH  21  22
ENDBRANCH  20  21
ENDBRANCH  19  20
ENDBRANCH  18  19
ENDBRANCH   1  18
TORSDOF 28
ENDMDL
MODEL 7
REMARK VINA RESULT:    -5.048      3.192      8.811
REMARK INTER + INTRA:         -17.279
REMARK INTER:                 -13.398
REMARK INTRA:                  -3.881
REMARK UNBOUND:                -3.968
REMARK SMILES CCCCCCCCCCCCCCCCCCCCCCCCCCCCCC(=O)[O-]
REMARK SMILES IDX 16 1 17 2 18 3 19 4 20 5 21 6 22 7 23 8 24 9 25 10 26 11
REMARK SMILES IDX 27 12 28 13 29 14 30 15 31 16 32 17 15 18 14 19 13 20 12 21
REMARK SMILES IDX 11 22 10 23 9 24 8 25 7 26 6 27 5 28 4 29 3 30 2 31 1 32
REMARK H PARENT
REMARK Flexibility Score: inf
ROOT
ATOM      1  C   UNL     1      30.970 -10.254  15.818  1.00  0.00     0.000 C 
ENDROOT
BRANCH   1   2
ATOM      2  C   UNL     1      31.395  -9.631  17.160  1.00  0.00     0.000 C 
BRANCH   2   3
ATOM      3  C   UNL     1      32.889  -9.266  17.198  1.00  0.00     0.000 C 
BRANCH   3   4
ATOM      4  C   UNL     1      33.596  -9.276  15.827  1.00  0.00     0.000 C 
BRANCH   4   5
ATOM      5  C   UNL     1      34.019  -7.875  15.336  1.00  0.00     0.000 C 
BRANCH   5   6
ATOM      6  C   UNL     1      33.687  -6.773  16.361  1.00  0.00     0.000 C 
BRANCH   6   7
ATOM      7  C   UNL     1      32.767  -5.688  15.780  1.00  0.00     0.000 C 
BRANCH   7   8
ATOM      8  C   UNL     1      31.980  -6.174  14.555  1.00  0.00     0.000 C 
BRANCH   8   9
ATOM      9  C   UNL     1      30.491  -5.841  14.693  1.00  0.00     0.000 C 
BRANCH   9  10
ATOM     10  C   UNL     1      29.671  -7.103  15.005  1.00  0.00     0.000 C 
BRANCH  10  11
ATOM     11  C   UNL     1      28.340  -6.793  15.714  1.00  0.00     0.000 C 
BRANCH  11  12
ATOM     12  C   UNL     1      28.388  -5.614  16.706  1.00  0.00     0.000 C 
BRANCH  12  13
ATOM     13  C   UNL     1      27.401  -4.467  16.409  1.00  0.00     0.006 C 
BRANCH  13  14
ATOM     14  C   UNL     1      27.911  -3.437  15.388  1.00  0.00     0.053 C 
BRANCH  14  15
ATOM     15  C   UNL     1      27.083  -3.416  14.139  1.00  0.00     0.041 C 
ATOM     16  O   UNL     1      26.503  -4.463  13.747  1.00  0.00    -0.550 OA
ATOM     17  O   UNL     1      26.950  -2.241  13.408  1.00  0.00    -0.550 OA
ENDBRANCH  14  15
ENDBRANCH  13  14
ENDBRANCH  12  13
ENDBRANCH  11  12
ENDBRANCH  10  11
ENDBRANCH   9  10
ENDBRANCH   8   9
ENDBRANCH   7   8
ENDBRANCH   6   7
ENDBRANCH   5   6
ENDBRANCH   4   5
ENDBRANCH   3   4
ENDBRANCH   2   3
ENDBRANCH   1   2
BRANCH   1  18
ATOM     18  C   UNL     1      29.837 -11.290  15.974  1.00  0.00     0.000 C 
BRANCH  18  19
ATOM     19  C   UNL     1      28.606 -11.010  15.090  1.00  0.00     0.000 C 
BRANCH  19  20
ATOM     20  C   UNL     1      27.529 -10.113  15.728  1.00  0.00     0.000 C 
BRANCH  20  21
ATOM     21  C   UNL     1      27.097 -10.514  17.151  1.00  0.00     0.000 C 
BRANCH  21  22
ATOM     22  C   UNL     1      27.681  -9.596  18.238  1.00  0.00     0.000 C 
BRANCH  22  23
ATOM     23  C   UNL     1      26.624  -9.123  19.252  1.00  0.00     0.000 C 
BRANCH  23  24
ATOM     24  C   UNL     1      25.338  -9.974  19.313  1.00  0.00    -0.000 C 
BRANCH  24  25
ATOM     25  C   UNL     1      24.556  -9.894  20.638  1.00  0.00    -0.000 C 
BRANCH  25  26
ATOM     26  C   UNL     1      23.103 -10.382  20.505  1.00  0.00    -0.000 C 
BRANCH  26  27
ATOM     27  C   UNL     1      22.804 -11.627  21.360  1.00  0.00    -0.000 C 
BRANCH  27  28
ATOM     28  C   UNL     1      22.611 -12.937  20.573  1.00  0.00    -0.000 C 
BRANCH  28  29
ATOM     29  C   UNL     1      22.708 -12.740  19.051  1.00  0.00    -0.000 C 
BRANCH  29  30
ATOM     30  C   UNL     1      23.889 -13.508  18.435  1.00  0.00    -0.000 C 
BRANCH  30  31
ATOM     31  C   UNL     1      24.479 -12.794  17.209  1.00  0.00    -0.003 C 
ATOM     32  C   UNL     1      23.412 -12.561  16.143  1.00  0.00     0.004 C 
ENDBRANCH  30  31
ENDBRANCH  29  30
ENDBRANCH  28  29
ENDBRANCH  27  28
ENDBRANCH  26  27
ENDBRANCH  25  26
ENDBRANCH  24  25
ENDBRANCH  23  24
ENDBRANCH  22  23
ENDBRANCH  21  22
ENDBRANCH  20  21
ENDBRANCH  19  20
ENDBRANCH  18  19
ENDBRANCH   1  18
TORSDOF 28
ENDMDL
MODEL 8
REMARK VINA RESULT:    -5.043      1.570      3.246
REMARK INTER + INTRA:         -17.266
REMARK INTER:                 -13.409
REMARK INTRA:                  -3.857
REMARK UNBOUND:                -3.968
REMARK SMILES CCCCCCCCCCCCCCCCCCCCCCCCCCCCCC(=O)[O-]
REMARK SMILES IDX 16 1 17 2 18 3 19 4 20 5 21 6 22 7 23 8 24 9 25 10 26 11
REMARK SMILES IDX 27 12 28 13 29 14 30 15 31 16 32 17 15 18 14 19 13 20 12 21
REMARK SMILES IDX 11 22 10 23 9 24 8 25 7 26 6 27 5 28 4 29 3 30 2 31 1 32
REMARK H PARENT
REMARK Flexibility Score: inf
ROOT
ATOM      1  C   UNL     1      24.625 -10.022  19.518  1.00  0.00     0.000 C 
ENDROOT
BRANCH   1   2
ATOM      2  C   UNL     1      23.857 -10.035  20.852  1.00  0.00     0.000 C 
BRANCH   2   3
ATOM      3  C   UNL     1      23.004 -11.303  21.034  1.00  0.00     0.000 C 
BRANCH   3   4
ATOM      4  C   UNL     1      22.543 -11.969  19.721  1.00  0.00     0.000 C 
BRANCH   4   5
ATOM      5  C   UNL     1      23.249 -13.310  19.425  1.00  0.00     0.000 C 
BRANCH   5   6
ATOM      6  C   UNL     1      23.992 -13.292  18.075  1.00  0.00     0.000 C 
BRANCH   6   7
ATOM      7  C   UNL     1      23.221 -12.527  16.989  1.00  0.00     0.000 C 
BRANCH   7   8
ATOM      8  C   UNL     1      24.068 -12.259  15.738  1.00  0.00     0.000 C 
BRANCH   8   9
ATOM      9  C   UNL     1      25.143 -11.204  16.019  1.00  0.00     0.000 C 
BRANCH   9  10
ATOM     10  C   UNL     1      26.157 -11.130  14.867  1.00  0.00     0.000 C 
BRANCH  10  11
ATOM     11  C   UNL     1      27.486 -10.470  15.279  1.00  0.00     0.000 C 
BRANCH  11  12
ATOM     12  C   UNL     1      28.752 -11.158  14.732  1.00  0.00     0.000 C 
BRANCH  12  13
ATOM     13  C   UNL     1      30.011 -11.009  15.611  1.00  0.00     0.006 C 
BRANCH  13  14
ATOM     14  C   UNL     1      30.789  -9.701  15.392  1.00  0.00     0.053 C 
BRANCH  14  15
ATOM     15  C   UNL     1      31.978  -9.589  16.296  1.00  0.00     0.041 C 
ATOM     16  O   UNL     1      33.138  -9.517  15.811  1.00  0.00    -0.550 OA
ATOM     17  O   UNL     1      31.808  -9.565  17.675  1.00  0.00    -0.550 OA
ENDBRANCH  14  15
ENDBRANCH  13  14
ENDBRANCH  12  13
ENDBRANCH  11  12
ENDBRANCH  10  11
ENDBRANCH   9  10
ENDBRANCH   8   9
ENDBRANCH   7   8
ENDBRANCH   6   7
ENDBRANCH   5   6
ENDBRANCH   4   5
ENDBRANCH   3   4
ENDBRANCH   2   3
ENDBRANCH   1   2
BRANCH   1  18
ATOM     18  C   UNL     1      25.987  -9.304  19.621  1.00  0.00     0.000 C 
BRANCH  18  19
ATOM     19  C   UNL     1      27.177 -10.141  19.114  1.00  0.00     0.000 C 
BRANCH  19  20
ATOM     20  C   UNL     1      28.238  -9.359  18.316  1.00  0.00     0.000 C 
BRANCH  20  21
ATOM     21  C   UNL     1      27.844  -7.919  17.934  1.00  0.00     0.000 C 
BRANCH  21  22
ATOM     22  C   UNL     1      29.037  -7.079  17.450  1.00  0.00     0.000 C 
BRANCH  22  23
ATOM     23  C   UNL     1      29.186  -5.754  18.219  1.00  0.00     0.000 C 
BRANCH  23  24
ATOM     24  C   UNL     1      28.536  -4.523  17.551  1.00  0.00    -0.000 C 
BRANCH  24  25
ATOM     25  C   UNL     1      29.421  -3.265  17.484  1.00  0.00    -0.000 C 
BRANCH  25  26
ATOM     26  C   UNL     1      29.719  -2.819  16.042  1.00  0.00    -0.000 C 
BRANCH  26  27
ATOM     27  C   UNL     1      28.829  -3.519  14.998  1.00  0.00    -0.000 C 
BRANCH  27  28
ATOM     28  C   UNL     1      29.405  -3.574  13.571  1.00  0.00    -0.000 C 
BRANCH  28  29
ATOM     29  C   UNL     1      30.903  -3.924  13.543  1.00  0.00    -0.000 C 
BRANCH  29  30
ATOM     30  C   UNL     1      31.150  -5.442  13.528  1.00  0.00    -0.000 C 
BRANCH  30  31
ATOM     31  C   UNL     1      31.242  -6.036  14.942  1.00  0.00    -0.003 C 
ATOM     32  C   UNL     1      32.654  -5.899  15.505  1.00  0.00     0.004 C 
ENDBRANCH  30  31
ENDBRANCH  29  30
ENDBRANCH  28  29
ENDBRANCH  27  28
ENDBRANCH  26  27
ENDBRANCH  25  26
ENDBRANCH  24  25
ENDBRANCH  23  24
ENDBRANCH  22  23
ENDBRANCH  21  22
ENDBRANCH  20  21
ENDBRANCH  19  20
ENDBRANCH  18  19
ENDBRANCH   1  18
TORSDOF 28
ENDMDL
MODEL 9
REMARK VINA RESULT:    -4.997      3.573      7.457
REMARK INTER + INTRA:         -17.145
REMARK INTER:                 -13.063
REMARK INTRA:                  -4.082
REMARK UNBOUND:                -3.968
REMARK SMILES CCCCCCCCCCCCCCCCCCCCCCCCCCCCCC(=O)[O-]
REMARK SMILES IDX 16 1 17 2 18 3 19 4 20 5 21 6 22 7 23 8 24 9 25 10 26 11
REMARK SMILES IDX 27 12 28 13 29 14 30 15 31 16 32 17 15 18 14 19 13 20 12 21
REMARK SMILES IDX 11 22 10 23 9 24 8 25 7 26 6 27 5 28 4 29 3 30 2 31 1 32
REMARK H PARENT
REMARK Flexibility Score: inf
ROOT
ATOM      1  C   UNL     1      30.055  -7.811  16.766  1.00  0.00     0.000 C 
ENDROOT
BRANCH   1   2
ATOM      2  C   UNL     1      28.660  -7.162  16.699  1.00  0.00     0.000 C 
BRANCH   2   3
ATOM      3  C   UNL     1      27.823  -7.423  17.964  1.00  0.00     0.000 C 
BRANCH   3   4
ATOM      4  C   UNL     1      28.022  -8.815  18.598  1.00  0.00     0.000 C 
BRANCH   4   5
ATOM      5  C   UNL     1      27.087  -9.899  18.021  1.00  0.00     0.000 C 
BRANCH   5   6
ATOM      6  C   UNL     1      27.862 -11.138  17.532  1.00  0.00     0.000 C 
BRANCH   6   7
ATOM      7  C   UNL     1      27.928 -11.223  16.000  1.00  0.00     0.000 C 
BRANCH   7   8
ATOM      8  C   UNL     1      26.802 -10.436  15.315  1.00  0.00     0.000 C 
BRANCH   8   9
ATOM      9  C   UNL     1      25.648 -11.362  14.916  1.00  0.00     0.000 C 
BRANCH   9  10
ATOM     10  C   UNL     1      24.539 -11.348  15.979  1.00  0.00     0.000 C 
BRANCH  10  11
ATOM     11  C   UNL     1      24.068 -12.760  16.373  1.00  0.00     0.000 C 
BRANCH  11  12
ATOM     12  C   UNL     1      23.981 -13.019  17.889  1.00  0.00     0.000 C 
BRANCH  12  13
ATOM     13  C   UNL     1      22.735 -12.434  18.584  1.00  0.00     0.006 C 
BRANCH  13  14
ATOM     14  C   UNL     1      22.707 -12.626  20.109  1.00  0.00     0.053 C 
BRANCH  14  15
ATOM     15  C   UNL     1      23.025 -11.361  20.847  1.00  0.00     0.041 C 
ATOM     16  O   UNL     1      22.661 -11.217  22.044  1.00  0.00    -0.550 OA
ATOM     17  O   UNL     1      23.723 -10.339  20.213  1.00  0.00    -0.550 OA
ENDBRANCH  14  15
ENDBRANCH  13  14
ENDBRANCH  12  13
ENDBRANCH  11  12
ENDBRANCH  10  11
ENDBRANCH   9  10
ENDBRANCH   8   9
ENDBRANCH   7   8
ENDBRANCH   6   7
ENDBRANCH   5   6
ENDBRANCH   4   5
ENDBRANCH   3   4
ENDBRANCH   2   3
ENDBRANCH   1   2
BRANCH   1  18
ATOM     18  C   UNL     1      30.302  -8.812  15.618  1.00  0.00     0.000 C 
BRANCH  18  19
ATOM     19  C   UNL     1      31.513  -9.737  15.842  1.00  0.00     0.000 C 
BRANCH  19  20
ATOM     20  C   UNL     1      32.673  -9.119  16.646  1.00  0.00     0.000 C 
BRANCH  20  21
ATOM     21  C   UNL     1      33.562  -8.133  15.865  1.00  0.00     0.000 C 
BRANCH  21  22
ATOM     22  C   UNL     1      33.561  -6.718  16.465  1.00  0.00     0.000 C 
BRANCH  22  23
ATOM     23  C   UNL     1      33.193  -5.633  15.436  1.00  0.00     0.000 C 
BRANCH  23  24
ATOM     24  C   UNL     1      32.715  -6.156  14.065  1.00  0.00    -0.000 C 
BRANCH  24  25
ATOM     25  C   UNL     1      31.212  -5.983  13.779  1.00  0.00    -0.000 C 
BRANCH  25  26
ATOM     26  C   UNL     1      30.594  -4.793  14.532  1.00  0.00    -0.000 C 
BRANCH  26  27
ATOM     27  C   UNL     1      29.823  -3.829  13.610  1.00  0.00    -0.000 C 
BRANCH  27  28
ATOM     28  C   UNL     1      30.481  -2.454  13.395  1.00  0.00    -0.000 C 
BRANCH  28  29
ATOM     29  C   UNL     1      31.305  -2.379  12.099  1.00  0.00    -0.000 C 
BRANCH  29  30
ATOM     30  C   UNL     1      32.306  -1.212  12.106  1.00  0.00    -0.000 C 
BRANCH  30  31
ATOM     31  C   UNL     1      33.750  -1.677  12.352  1.00  0.00    -0.003 C 
ATOM     32  C   UNL     1      33.862  -3.196  12.255  1.00  0.00     0.004 C 
ENDBRANCH  30  31
ENDBRANCH  29  30
ENDBRANCH  28  29
ENDBRANCH  27  28
ENDBRANCH  26  27
ENDBRANCH  25  26
ENDBRANCH  24  25
ENDBRANCH  23  24
ENDBRANCH  22  23
ENDBRANCH  21  22
ENDBRANCH  20  21
ENDBRANCH  19  20
ENDBRANCH  18  19
ENDBRANCH   1  18
TORSDOF 28
ENDMDL
