MODEL 1
REMARK VINA RESULT:    -4.774      0.000      0.000
REMARK INTER + INTRA:          -6.274
REMARK INTER:                  -5.890
REMARK INTRA:                  -0.383
REMARK UNBOUND:                -0.383
REMARK SMILES Oc1cc(O)c2cc(O)c(-c3cc(O)c(O)c(O)c3)[o+]c2c1
REMARK SMILES IDX 10 1 20 2 21 3 22 4 2 5 3 6 4 7 6 8 7 9 8 10 11 11 12 12
REMARK SMILES IDX 13 13 19 14 15 15 17 16 14 17 16 19 18 21 9 23 1 25 5 27
REMARK H PARENT 14 18 16 20 18 22 9 24 1 26 5 28
REMARK Flexibility Score: inf
ROOT
ATOM      1  C   UNL     1      13.247  21.968   7.516  1.00  0.00     0.402 A 
ATOM      2  O   UNL     1      12.060  21.494   7.882  1.00  0.00    -0.202 OA
ATOM      3  C   UNL     1      11.533  21.695   9.085  1.00  0.00     0.368 A 
ATOM      4  C   UNL     1      10.278  21.154   9.377  1.00  0.00     0.162 A 
ATOM      5  C   UNL     1       9.702  21.346  10.632  1.00  0.00     0.128 A 
ATOM      6  C   UNL     1      10.382  22.085  11.606  1.00  0.00     0.093 A 
ATOM      7  C   UNL     1      11.642  22.638  11.338  1.00  0.00     0.136 A 
ATOM      8  C   UNL     1      12.229  22.447  10.061  1.00  0.00     0.125 A 
ATOM      9  C   UNL     1      13.480  22.975   9.700  1.00  0.00     0.078 A 
ATOM     10  C   UNL     1      13.993  22.748   8.419  1.00  0.00     0.223 A 
ENDROOT
BRANCH   1  11
ATOM     11  C   UNL     1      13.732  21.667   6.149  1.00  0.00     0.091 A 
ATOM     12  C   UNL     1      14.557  20.562   5.892  1.00  0.00     0.068 A 
ATOM     13  C   UNL     1      14.990  20.273   4.592  1.00  0.00     0.162 A 
ATOM     14  C   UNL     1      13.313  22.468   5.078  1.00  0.00     0.068 A 
ATOM     15  C   UNL     1      14.585  21.103   3.519  1.00  0.00     0.200 A 
ATOM     16  C   UNL     1      13.739  22.198   3.775  1.00  0.00     0.162 A 
BRANCH  13  17
ATOM     17  O   UNL     1      15.810  19.156   4.416  1.00  0.00    -0.504 OA
ATOM     18  H   UNL     1      16.802  19.204   4.234  1.00  0.00     0.293 HD
ENDBRANCH  13  17
BRANCH  15  19
ATOM     19  O   UNL     1      14.996  20.872   2.203  1.00  0.00    -0.502 OA
ATOM     20  H   UNL     1      15.259  19.967   1.841  1.00  0.00     0.293 HD
ENDBRANCH  15  19
BRANCH  16  21
ATOM     21  O   UNL     1      13.310  23.033   2.742  1.00  0.00    -0.504 OA
ATOM     22  H   UNL     1      12.445  22.872   2.241  1.00  0.00     0.293 HD
ENDBRANCH  16  21
ENDBRANCH   1  11
BRANCH  10  23
ATOM     23  O   UNL     1      15.212  23.314   8.043  1.00  0.00    -0.500 OA
ATOM     24  H   UNL     1      15.971  22.750   7.679  1.00  0.00     0.294 HD
ENDBRANCH  10  23
BRANCH   5  25
ATOM     25  O   UNL     1       8.450  20.798  10.904  1.00  0.00    -0.507 OA
ATOM     26  H   UNL     1       8.272  19.805  10.802  1.00  0.00     0.293 HD
ENDBRANCH   5  25
BRANCH   7  27
ATOM     27  O   UNL     1      12.258  23.361  12.364  1.00  0.00    -0.507 OA
ATOM     28  H   UNL     1      11.777  23.725  13.173  1.00  0.00     0.293 HD
ENDBRANCH   7  27
TORSDOF 7
ENDMDL
MODEL 2
REMARK VINA RESULT:    -4.767      0.065      1.806
REMARK INTER + INTRA:          -6.265
REMARK INTER:                  -5.888
REMARK INTRA:                  -0.377
REMARK UNBOUND:                -0.383
REMARK SMILES Oc1cc(O)c2cc(O)c(-c3cc(O)c(O)c(O)c3)[o+]c2c1
REMARK SMILES IDX 10 1 20 2 21 3 22 4 2 5 3 6 4 7 6 8 7 9 8 10 11 11 12 12
REMARK SMILES IDX 13 13 19 14 15 15 17 16 14 17 16 19 18 21 9 23 1 25 5 27
REMARK H PARENT 14 18 16 20 18 22 9 24 1 26 5 28
REMARK Flexibility Score: inf
ROOT
ATOM      1  C   UNL     1      13.207  21.970   7.484  1.00  0.00     0.402 A 
ATOM      2  O   UNL     1      12.031  21.488   7.873  1.00  0.00    -0.202 OA
ATOM      3  C   UNL     1      11.523  21.694   9.084  1.00  0.00     0.368 A 
ATOM      4  C   UNL     1      10.279  21.143   9.402  1.00  0.00     0.162 A 
ATOM      5  C   UNL     1       9.722  21.340  10.665  1.00  0.00     0.128 A 
ATOM      6  C   UNL     1      10.413  22.092  11.622  1.00  0.00     0.093 A 
ATOM      7  C   UNL     1      11.662  22.654  11.328  1.00  0.00     0.136 A 
ATOM      8  C   UNL     1      12.229  22.458  10.043  1.00  0.00     0.125 A 
ATOM      9  C   UNL     1      13.469  22.995   9.656  1.00  0.00     0.078 A 
ATOM     10  C   UNL     1      13.962  22.763   8.368  1.00  0.00     0.223 A 
ENDROOT
BRANCH   1  11
ATOM     11  C   UNL     1      13.671  21.663   6.111  1.00  0.00     0.091 A 
ATOM     12  C   UNL     1      13.313  22.470   5.020  1.00  0.00     0.068 A 
ATOM     13  C   UNL     1      13.776  22.184   3.730  1.00  0.00     0.162 A 
ATOM     14  C   UNL     1      14.531  20.578   5.901  1.00  0.00     0.068 A 
ATOM     15  C   UNL     1      14.624  21.070   3.521  1.00  0.00     0.200 A 
ATOM     16  C   UNL     1      14.999  20.274   4.620  1.00  0.00     0.162 A 
BRANCH  13  17
ATOM     17  O   UNL     1      13.377  23.034   2.695  1.00  0.00    -0.504 OA
ATOM     18  H   UNL     1      12.804  23.855   2.826  1.00  0.00     0.293 HD
ENDBRANCH  13  17
BRANCH  15  19
ATOM     19  O   UNL     1      15.106  20.727   2.255  1.00  0.00    -0.502 OA
ATOM     20  H   UNL     1      15.248  21.387   1.504  1.00  0.00     0.293 HD
ENDBRANCH  15  19
BRANCH  16  21
ATOM     21  O   UNL     1      15.842  19.173   4.457  1.00  0.00    -0.504 OA
ATOM     22  H   UNL     1      16.525  18.907   5.155  1.00  0.00     0.293 HD
ENDBRANCH  16  21
ENDBRANCH   1  11
BRANCH  10  23
ATOM     23  O   UNL     1      15.169  23.337   7.967  1.00  0.00    -0.500 OA
ATOM     24  H   UNL     1      16.049  23.082   8.399  1.00  0.00     0.294 HD
ENDBRANCH  10  23
BRANCH   5  25
ATOM     25  O   UNL     1       8.480  20.782  10.963  1.00  0.00    -0.507 OA
ATOM     26  H   UNL     1       7.864  21.198  11.652  1.00  0.00     0.293 HD
ENDBRANCH   5  25
BRANCH   7  27
ATOM     27  O   UNL     1      12.290  23.390  12.338  1.00  0.00    -0.507 OA
ATOM     28  H   UNL     1      12.110  24.365  12.528  1.00  0.00     0.293 HD
ENDBRANCH   7  27
TORSDOF 7
ENDMDL
MODEL 3
REMARK VINA RESULT:    -4.736      1.190      7.220
REMARK INTER + INTRA:          -6.226
REMARK INTER:                  -5.842
REMARK INTRA:                  -0.384
REMARK UNBOUND:                -0.383
REMARK SMILES Oc1cc(O)c2cc(O)c(-c3cc(O)c(O)c(O)c3)[o+]c2c1
REMARK SMILES IDX 10 1 20 2 21 3 22 4 2 5 3 6 4 7 6 8 7 9 8 10 11 11 12 12
REMARK SMILES IDX 13 13 19 14 15 15 17 16 14 17 16 19 18 21 9 23 1 25 5 27
REMARK H PARENT 14 18 16 20 18 22 9 24 1 26 5 28
REMARK Flexibility Score: inf
ROOT
ATOM      1  C   UNL     1      12.038  22.088   8.030  1.00  0.00     0.402 A 
ATOM      2  O   UNL     1      12.912  21.175   7.616  1.00  0.00    -0.202 OA
ATOM      3  C   UNL     1      13.432  21.165   6.393  1.00  0.00     0.368 A 
ATOM      4  C   UNL     1      14.342  20.162   6.050  1.00  0.00     0.162 A 
ATOM      5  C   UNL     1      14.902  20.124   4.773  1.00  0.00     0.128 A 
ATOM      6  C   UNL     1      14.550  21.095   3.829  1.00  0.00     0.093 A 
ATOM      7  C   UNL     1      13.639  22.111   4.148  1.00  0.00     0.136 A 
ATOM      8  C   UNL     1      13.071  22.154   5.447  1.00  0.00     0.125 A 
ATOM      9  C   UNL     1      12.161  23.142   5.860  1.00  0.00     0.078 A 
ATOM     10  C   UNL     1      11.646  23.121   7.159  1.00  0.00     0.223 A 
ENDROOT
BRANCH   1  11
ATOM     11  C   UNL     1      11.522  21.986   9.415  1.00  0.00     0.091 A 
ATOM     12  C   UNL     1      10.318  21.323   9.701  1.00  0.00     0.068 A 
ATOM     13  C   UNL     1       9.851  21.213  11.016  1.00  0.00     0.162 A 
ATOM     14  C   UNL     1      12.275  22.514  10.472  1.00  0.00     0.068 A 
ATOM     15  C   UNL     1      10.606  21.772  12.076  1.00  0.00     0.200 A 
ATOM     16  C   UNL     1      11.823  22.418  11.790  1.00  0.00     0.162 A 
BRANCH  13  17
ATOM     17  O   UNL     1       8.646  20.537  11.221  1.00  0.00    -0.504 OA
ATOM     18  H   UNL     1       7.750  20.863  10.887  1.00  0.00     0.293 HD
ENDBRANCH  13  17
BRANCH  15  19
ATOM     19  O   UNL     1      10.184  21.705  13.406  1.00  0.00    -0.502 OA
ATOM     20  H   UNL     1      10.603  22.227  14.162  1.00  0.00     0.293 HD
ENDBRANCH  15  19
BRANCH  16  21
ATOM     21  O   UNL     1      12.600  22.972  12.808  1.00  0.00    -0.504 OA
ATOM     22  H   UNL     1      12.322  23.809  13.306  1.00  0.00     0.293 HD
ENDBRANCH  16  21
ENDBRANCH   1  11
BRANCH  10  23
ATOM     23  O   UNL     1      10.781  24.130   7.586  1.00  0.00    -0.500 OA
ATOM     24  H   UNL     1      10.326  24.094   8.490  1.00  0.00     0.294 HD
ENDBRANCH  10  23
BRANCH   5  25
ATOM     25  O   UNL     1      15.807  19.116   4.449  1.00  0.00    -0.507 OA
ATOM     26  H   UNL     1      15.572  18.137   4.559  1.00  0.00     0.293 HD
ENDBRANCH   5  25
BRANCH   7  27
ATOM     27  O   UNL     1      13.338  23.042   3.150  1.00  0.00    -0.507 OA
ATOM     28  H   UNL     1      14.000  23.380   2.467  1.00  0.00     0.293 HD
ENDBRANCH   7  27
TORSDOF 7
ENDMDL
MODEL 4
REMARK VINA RESULT:    -4.733     12.063     14.966
REMARK INTER + INTRA:          -6.224
REMARK INTER:                  -5.875
REMARK INTRA:                  -0.349
REMARK UNBOUND:                -0.383
REMARK SMILES Oc1cc(O)c2cc(O)c(-c3cc(O)c(O)c(O)c3)[o+]c2c1
REMARK SMILES IDX 10 1 20 2 21 3 22 4 2 5 3 6 4 7 6 8 7 9 8 10 11 11 12 12
REMARK SMILES IDX 13 13 19 14 15 15 17 16 14 17 16 19 18 21 9 23 1 25 5 27
REMARK H PARENT 14 18 16 20 18 22 9 24 1 26 5 28
REMARK Flexibility Score: inf
ROOT
ATOM      1  C   UNL     1       7.230   9.871  11.100  1.00  0.00     0.402 A 
ATOM      2  O   UNL     1       8.233   9.846  10.228  1.00  0.00    -0.202 OA
ATOM      3  C   UNL     1       8.953  10.918   9.912  1.00  0.00     0.368 A 
ATOM      4  C   UNL     1       9.987  10.793   8.982  1.00  0.00     0.162 A 
ATOM      5  C   UNL     1      10.757  11.901   8.629  1.00  0.00     0.128 A 
ATOM      6  C   UNL     1      10.492  13.147   9.208  1.00  0.00     0.093 A 
ATOM      7  C   UNL     1       9.460  13.299  10.143  1.00  0.00     0.136 A 
ATOM      8  C   UNL     1       8.678  12.172  10.507  1.00  0.00     0.125 A 
ATOM      9  C   UNL     1       7.633  12.228  11.445  1.00  0.00     0.078 A 
ATOM     10  C   UNL     1       6.907  11.074  11.755  1.00  0.00     0.223 A 
ENDROOT
BRANCH   1  11
ATOM     11  C   UNL     1       6.496   8.611  11.361  1.00  0.00     0.091 A 
ATOM     12  C   UNL     1       5.513   8.140  10.477  1.00  0.00     0.068 A 
ATOM     13  C   UNL     1       4.842   6.936  10.721  1.00  0.00     0.162 A 
ATOM     14  C   UNL     1       6.828   7.841  12.483  1.00  0.00     0.068 A 
ATOM     15  C   UNL     1       5.163   6.177  11.872  1.00  0.00     0.200 A 
ATOM     16  C   UNL     1       6.165   6.639  12.745  1.00  0.00     0.162 A 
BRANCH  13  17
ATOM     17  O   UNL     1       3.876   6.534   9.795  1.00  0.00    -0.504 OA
ATOM     18  H   UNL     1       3.338   5.682   9.872  1.00  0.00     0.293 HD
ENDBRANCH  13  17
BRANCH  15  19
ATOM     19  O   UNL     1       4.519   4.974  12.174  1.00  0.00    -0.502 OA
ATOM     20  H   UNL     1       3.600   4.911  12.588  1.00  0.00     0.293 HD
ENDBRANCH  15  19
BRANCH  16  21
ATOM     21  O   UNL     1       6.518   5.913  13.884  1.00  0.00    -0.504 OA
ATOM     22  H   UNL     1       5.845   5.367  14.408  1.00  0.00     0.293 HD
ENDBRANCH  16  21
ENDBRANCH   1  11
BRANCH  10  23
ATOM     23  O   UNL     1       5.903  11.117  12.723  1.00  0.00    -0.500 OA
ATOM     24  H   UNL     1       6.113  11.281  13.701  1.00  0.00     0.294 HD
ENDBRANCH  10  23
BRANCH   5  25
ATOM     25  O   UNL     1      11.784  11.756   7.698  1.00  0.00    -0.507 OA
ATOM     26  H   UNL     1      11.925  12.430   6.955  1.00  0.00     0.293 HD
ENDBRANCH   5  25
BRANCH   7  27
ATOM     27  O   UNL     1       9.256  14.576  10.675  1.00  0.00    -0.507 OA
ATOM     28  H   UNL     1       8.412  15.116  10.555  1.00  0.00     0.293 HD
ENDBRANCH   7  27
TORSDOF 7
ENDMDL
MODEL 5
REMARK VINA RESULT:    -4.695     11.906     14.729
REMARK INTER + INTRA:          -6.177
REMARK INTER:                  -5.807
REMARK INTRA:                  -0.370
REMARK UNBOUND:                -0.383
REMARK SMILES Oc1cc(O)c2cc(O)c(-c3cc(O)c(O)c(O)c3)[o+]c2c1
REMARK SMILES IDX 10 1 20 2 21 3 22 4 2 5 3 6 4 7 6 8 7 9 8 10 11 11 12 12
REMARK SMILES IDX 13 13 19 14 15 15 17 16 14 17 16 19 18 21 9 23 1 25 5 27
REMARK H PARENT 14 18 16 20 18 22 9 24 1 26 5 28
REMARK Flexibility Score: inf
ROOT
ATOM      1  C   UNL     1       7.358   9.865  11.483  1.00  0.00     0.402 A 
ATOM      2  O   UNL     1       6.852  11.002  11.950  1.00  0.00    -0.202 OA
ATOM      3  C   UNL     1       7.493  12.165  11.892  1.00  0.00     0.368 A 
ATOM      4  C   UNL     1       6.880  13.307  12.413  1.00  0.00     0.162 A 
ATOM      5  C   UNL     1       7.530  14.539  12.369  1.00  0.00     0.128 A 
ATOM      6  C   UNL     1       8.805  14.635  11.800  1.00  0.00     0.093 A 
ATOM      7  C   UNL     1       9.442  13.505  11.271  1.00  0.00     0.136 A 
ATOM      8  C   UNL     1       8.781  12.250  11.312  1.00  0.00     0.125 A 
ATOM      9  C   UNL     1       9.337  11.068  10.794  1.00  0.00     0.078 A 
ATOM     10  C   UNL     1       8.623   9.868  10.867  1.00  0.00     0.223 A 
ENDROOT
BRANCH   1  11
ATOM     11  C   UNL     1       6.549   8.631  11.615  1.00  0.00     0.091 A 
ATOM     12  C   UNL     1       5.572   8.290  10.667  1.00  0.00     0.068 A 
ATOM     13  C   UNL     1       4.830   7.110  10.790  1.00  0.00     0.162 A 
ATOM     14  C   UNL     1       6.801   7.754  12.678  1.00  0.00     0.068 A 
ATOM     15  C   UNL     1       5.072   6.241  11.882  1.00  0.00     0.200 A 
ATOM     16  C   UNL     1       6.067   6.574  12.820  1.00  0.00     0.162 A 
BRANCH  13  17
ATOM     17  O   UNL     1       3.876   6.839   9.806  1.00  0.00    -0.504 OA
ATOM     18  H   UNL     1       4.045   6.257   8.998  1.00  0.00     0.293 HD
ENDBRANCH  13  17
BRANCH  15  19
ATOM     19  O   UNL     1       4.354   5.056  12.064  1.00  0.00    -0.502 OA
ATOM     20  H   UNL     1       4.774   4.139  12.109  1.00  0.00     0.293 HD
ENDBRANCH  15  19
BRANCH  16  21
ATOM     21  O   UNL     1       6.341   5.739  13.904  1.00  0.00    -0.504 OA
ATOM     22  H   UNL     1       6.675   6.095  14.791  1.00  0.00     0.293 HD
ENDBRANCH  16  21
ENDBRANCH   1  11
BRANCH  10  23
ATOM     23  O   UNL     1       9.153   8.704  10.309  1.00  0.00    -0.500 OA
ATOM     24  H   UNL     1       9.761   8.089  10.837  1.00  0.00     0.294 HD
ENDBRANCH  10  23
BRANCH   5  25
ATOM     25  O   UNL     1       6.902  15.667  12.894  1.00  0.00    -0.507 OA
ATOM     26  H   UNL     1       7.354  16.251  13.588  1.00  0.00     0.293 HD
ENDBRANCH   5  25
BRANCH   7  27
ATOM     27  O   UNL     1      10.715  13.682  10.723  1.00  0.00    -0.507 OA
ATOM     28  H   UNL     1      11.328  14.454  10.941  1.00  0.00     0.293 HD
ENDBRANCH   7  27
TORSDOF 7
ENDMDL
MODEL 6
REMARK VINA RESULT:    -4.694     11.987     14.004
REMARK INTER + INTRA:          -6.175
REMARK INTER:                  -5.851
REMARK INTRA:                  -0.324
REMARK UNBOUND:                -0.383
REMARK SMILES Oc1cc(O)c2cc(O)c(-c3cc(O)c(O)c(O)c3)[o+]c2c1
REMARK SMILES IDX 10 1 20 2 21 3 22 4 2 5 3 6 4 7 6 8 7 9 8 10 11 11 12 12
REMARK SMILES IDX 13 13 19 14 15 15 17 16 14 17 16 19 18 21 9 23 1 25 5 27
REMARK H PARENT 14 18 16 20 18 22 9 24 1 26 5 28
REMARK Flexibility Score: inf
ROOT
ATOM      1  C   UNL     1       7.641   9.974   9.905  1.00  0.00     0.402 A 
ATOM      2  O   UNL     1       7.685   9.234  11.009  1.00  0.00    -0.202 OA
ATOM      3  C   UNL     1       6.835   8.244  11.259  1.00  0.00     0.368 A 
ATOM      4  C   UNL     1       6.961   7.523  12.450  1.00  0.00     0.162 A 
ATOM      5  C   UNL     1       6.080   6.481  12.740  1.00  0.00     0.128 A 
ATOM      6  C   UNL     1       5.064   6.155  11.836  1.00  0.00     0.093 A 
ATOM      7  C   UNL     1       4.916   6.862  10.635  1.00  0.00     0.136 A 
ATOM      8  C   UNL     1       5.812   7.920  10.336  1.00  0.00     0.125 A 
ATOM      9  C   UNL     1       5.748   8.674   9.152  1.00  0.00     0.078 A 
ATOM     10  C   UNL     1       6.670   9.701   8.924  1.00  0.00     0.223 A 
ENDROOT
BRANCH   1  11
ATOM     11  C   UNL     1       8.639  11.057   9.746  1.00  0.00     0.091 A 
ATOM     12  C   UNL     1       9.737  10.918   8.884  1.00  0.00     0.068 A 
ATOM     13  C   UNL     1      10.662  11.957   8.723  1.00  0.00     0.162 A 
ATOM     14  C   UNL     1       8.455  12.268  10.426  1.00  0.00     0.068 A 
ATOM     15  C   UNL     1      10.484  13.168   9.435  1.00  0.00     0.200 A 
ATOM     16  C   UNL     1       9.370  13.314  10.282  1.00  0.00     0.162 A 
BRANCH  13  17
ATOM     17  O   UNL     1      11.729  11.744   7.847  1.00  0.00    -0.504 OA
ATOM     18  H   UNL     1      12.699  11.883   8.092  1.00  0.00     0.293 HD
ENDBRANCH  13  17
BRANCH  15  19
ATOM     19  O   UNL     1      11.381  14.235   9.325  1.00  0.00    -0.502 OA
ATOM     20  H   UNL     1      11.191  15.086   8.816  1.00  0.00     0.293 HD
ENDBRANCH  15  19
BRANCH  16  21
ATOM     21  O   UNL     1       9.155  14.496  10.991  1.00  0.00    -0.504 OA
ATOM     22  H   UNL     1       8.448  15.169  10.720  1.00  0.00     0.293 HD
ENDBRANCH  16  21
ENDBRANCH   1  11
BRANCH  10  23
ATOM     23  O   UNL     1       6.638  10.417   7.727  1.00  0.00    -0.500 OA
ATOM     24  H   UNL     1       5.914  10.263   7.034  1.00  0.00     0.294 HD
ENDBRANCH  10  23
BRANCH   5  25
ATOM     25  O   UNL     1       6.222   5.775  13.933  1.00  0.00    -0.507 OA
ATOM     26  H   UNL     1       7.043   5.211  14.121  1.00  0.00     0.293 HD
ENDBRANCH   5  25
BRANCH   7  27
ATOM     27  O   UNL     1       3.875   6.477   9.786  1.00  0.00    -0.507 OA
ATOM     28  H   UNL     1       2.920   6.335  10.081  1.00  0.00     0.293 HD
ENDBRANCH   7  27
TORSDOF 7
ENDMDL
MODEL 7
REMARK VINA RESULT:    -4.686      2.114      3.828
REMARK INTER + INTRA:          -6.165
REMARK INTER:                  -5.785
REMARK INTRA:                  -0.380
REMARK UNBOUND:                -0.383
REMARK SMILES Oc1cc(O)c2cc(O)c(-c3cc(O)c(O)c(O)c3)[o+]c2c1
REMARK SMILES IDX 10 1 20 2 21 3 22 4 2 5 3 6 4 7 6 8 7 9 8 10 11 11 12 12
REMARK SMILES IDX 13 13 19 14 15 15 17 16 14 17 16 19 18 21 9 23 1 25 5 27
REMARK H PARENT 14 18 16 20 18 22 9 24 1 26 5 28
REMARK Flexibility Score: inf
ROOT
ATOM      1  C   UNL     1      14.357  21.873   7.310  1.00  0.00     0.402 A 
ATOM      2  O   UNL     1      15.515  22.159   7.897  1.00  0.00    -0.202 OA
ATOM      3  C   UNL     1      15.605  22.741   9.088  1.00  0.00     0.368 A 
ATOM      4  C   UNL     1      16.869  23.004   9.622  1.00  0.00     0.162 A 
ATOM      5  C   UNL     1      16.995  23.617  10.868  1.00  0.00     0.128 A 
ATOM      6  C   UNL     1      15.849  23.973  11.589  1.00  0.00     0.093 A 
ATOM      7  C   UNL     1      14.571  23.721  11.075  1.00  0.00     0.136 A 
ATOM      8  C   UNL     1      14.440  23.094   9.809  1.00  0.00     0.125 A 
ATOM      9  C   UNL     1      13.200  22.791   9.222  1.00  0.00     0.078 A 
ATOM     10  C   UNL     1      13.150  22.168   7.971  1.00  0.00     0.223 A 
ENDROOT
BRANCH   1  11
ATOM     11  C   UNL     1      14.386  21.231   5.975  1.00  0.00     0.091 A 
ATOM     12  C   UNL     1      14.392  19.835   5.834  1.00  0.00     0.068 A 
ATOM     13  C   UNL     1      14.396  19.239   4.567  1.00  0.00     0.162 A 
ATOM     14  C   UNL     1      14.352  22.031   4.826  1.00  0.00     0.068 A 
ATOM     15  C   UNL     1      14.388  20.054   3.410  1.00  0.00     0.200 A 
ATOM     16  C   UNL     1      14.361  21.454   3.553  1.00  0.00     0.162 A 
BRANCH  13  17
ATOM     17  O   UNL     1      14.401  17.843   4.508  1.00  0.00    -0.504 OA
ATOM     18  H   UNL     1      14.309  17.242   5.315  1.00  0.00     0.293 HD
ENDBRANCH  13  17
BRANCH  15  19
ATOM     19  O   UNL     1      14.406  19.517   2.120  1.00  0.00    -0.502 OA
ATOM     20  H   UNL     1      15.071  18.829   1.800  1.00  0.00     0.293 HD
ENDBRANCH  15  19
BRANCH  16  21
ATOM     21  O   UNL     1      14.342  22.291   2.437  1.00  0.00    -0.504 OA
ATOM     22  H   UNL     1      15.048  22.244   1.712  1.00  0.00     0.293 HD
ENDBRANCH  16  21
ENDBRANCH   1  11
BRANCH  10  23
ATOM     23  O   UNL     1      11.920  21.822   7.410  1.00  0.00    -0.500 OA
ATOM     24  H   UNL     1      11.854  21.187   6.623  1.00  0.00     0.294 HD
ENDBRANCH  10  23
BRANCH   5  25
ATOM     25  O   UNL     1      18.264  23.871  11.385  1.00  0.00    -0.507 OA
ATOM     26  H   UNL     1      19.068  23.318  11.111  1.00  0.00     0.293 HD
ENDBRANCH   5  25
BRANCH   7  27
ATOM     27  O   UNL     1      13.476  24.109  11.854  1.00  0.00    -0.507 OA
ATOM     28  H   UNL     1      13.524  24.320  12.840  1.00  0.00     0.293 HD
ENDBRANCH   7  27
TORSDOF 7
ENDMDL
MODEL 8
REMARK VINA RESULT:    -4.671      8.587     11.577
REMARK INTER + INTRA:          -6.146
REMARK INTER:                  -5.910
REMARK INTRA:                  -0.236
REMARK UNBOUND:                -0.383
REMARK SMILES Oc1cc(O)c2cc(O)c(-c3cc(O)c(O)c(O)c3)[o+]c2c1
REMARK SMILES IDX 10 1 20 2 21 3 22 4 2 5 3 6 4 7 6 8 7 9 8 10 11 11 12 12
REMARK SMILES IDX 13 13 19 14 15 15 17 16 14 17 16 19 18 21 9 23 1 25 5 27
REMARK H PARENT 14 18 16 20 18 22 9 24 1 26 5 28
REMARK Flexibility Score: inf
ROOT
ATOM      1  C   UNL     1       8.356  14.016  11.394  1.00  0.00     0.402 A 
ATOM      2  O   UNL     1       9.184  13.999  10.353  1.00  0.00    -0.202 OA
ATOM      3  C   UNL     1       9.621  12.879   9.787  1.00  0.00     0.368 A 
ATOM      4  C   UNL     1      10.492  12.962   8.697  1.00  0.00     0.162 A 
ATOM      5  C   UNL     1      10.969  11.804   8.085  1.00  0.00     0.128 A 
ATOM      6  C   UNL     1      10.576  10.549   8.564  1.00  0.00     0.093 A 
ATOM      7  C   UNL     1       9.704  10.438   9.656  1.00  0.00     0.136 A 
ATOM      8  C   UNL     1       9.214  11.615  10.278  1.00  0.00     0.125 A 
ATOM      9  C   UNL     1       8.327  11.600  11.368  1.00  0.00     0.078 A 
ATOM     10  C   UNL     1       7.884  12.803  11.927  1.00  0.00     0.223 A 
ENDROOT
BRANCH   1  11
ATOM     11  C   UNL     1       7.948  15.330  11.943  1.00  0.00     0.091 A 
ATOM     12  C   UNL     1       8.266  15.705  13.257  1.00  0.00     0.068 A 
ATOM     13  C   UNL     1       7.896  16.958  13.759  1.00  0.00     0.162 A 
ATOM     14  C   UNL     1       7.278  16.243  11.118  1.00  0.00     0.068 A 
ATOM     15  C   UNL     1       7.196  17.865  12.927  1.00  0.00     0.200 A 
ATOM     16  C   UNL     1       6.896  17.497  11.603  1.00  0.00     0.162 A 
BRANCH  13  17
ATOM     17  O   UNL     1       8.249  17.259  15.076  1.00  0.00    -0.504 OA
ATOM     18  H   UNL     1       8.731  16.620  15.693  1.00  0.00     0.293 HD
ENDBRANCH  13  17
BRANCH  15  19
ATOM     19  O   UNL     1       6.789  19.125  13.376  1.00  0.00    -0.502 OA
ATOM     20  H   UNL     1       6.443  19.858  12.774  1.00  0.00     0.293 HD
ENDBRANCH  15  19
BRANCH  16  21
ATOM     21  O   UNL     1       6.217  18.367  10.749  1.00  0.00    -0.504 OA
ATOM     22  H   UNL     1       5.730  18.044   9.922  1.00  0.00     0.293 HD
ENDBRANCH  16  21
ENDBRANCH   1  11
BRANCH  10  23
ATOM     23  O   UNL     1       6.964  12.789  12.976  1.00  0.00    -0.500 OA
ATOM     24  H   UNL     1       6.126  13.359  12.957  1.00  0.00     0.294 HD
ENDBRANCH  10  23
BRANCH   5  25
ATOM     25  O   UNL     1      11.837  11.908   7.000  1.00  0.00    -0.507 OA
ATOM     26  H   UNL     1      11.801  11.252   6.228  1.00  0.00     0.293 HD
ENDBRANCH   5  25
BRANCH   7  27
ATOM     27  O   UNL     1       9.360   9.150  10.076  1.00  0.00    -0.507 OA
ATOM     28  H   UNL     1      10.027   8.443  10.350  1.00  0.00     0.293 HD
ENDBRANCH   7  27
TORSDOF 7
ENDMDL
MODEL 9
REMARK VINA RESULT:    -4.599      1.220      3.284
REMARK INTER + INTRA:          -6.057
REMARK INTER:                  -5.673
REMARK INTRA:                  -0.385
REMARK UNBOUND:                -0.383
REMARK SMILES Oc1cc(O)c2cc(O)c(-c3cc(O)c(O)c(O)c3)[o+]c2c1
REMARK SMILES IDX 10 1 20 2 21 3 22 4 2 5 3 6 4 7 6 8 7 9 8 10 11 11 12 12
REMARK SMILES IDX 13 13 19 14 15 15 17 16 14 17 16 19 18 21 9 23 1 25 5 27
REMARK H PARENT 14 18 16 20 18 22 9 24 1 26 5 28
REMARK Flexibility Score: inf
ROOT
ATOM      1  C   UNL     1      11.949  20.957   6.786  1.00  0.00     0.402 A 
ATOM      2  O   UNL     1      12.279  21.603   7.901  1.00  0.00    -0.202 OA
ATOM      3  C   UNL     1      11.509  21.630   8.984  1.00  0.00     0.368 A 
ATOM      4  C   UNL     1      11.941  22.339  10.108  1.00  0.00     0.162 A 
ATOM      5  C   UNL     1      11.152  22.388  11.257  1.00  0.00     0.128 A 
ATOM      6  C   UNL     1       9.920  21.724  11.286  1.00  0.00     0.093 A 
ATOM      7  C   UNL     1       9.465  21.007  10.172  1.00  0.00     0.136 A 
ATOM      8  C   UNL     1      10.266  20.953   9.003  1.00  0.00     0.125 A 
ATOM      9  C   UNL     1       9.896  20.248   7.845  1.00  0.00     0.078 A 
ATOM     10  C   UNL     1      10.741  20.236   6.731  1.00  0.00     0.223 A 
ENDROOT
BRANCH   1  11
ATOM     11  C   UNL     1      12.888  21.009   5.642  1.00  0.00     0.091 A 
ATOM     12  C   UNL     1      12.773  21.990   4.645  1.00  0.00     0.068 A 
ATOM     13  C   UNL     1      13.680  22.044   3.580  1.00  0.00     0.162 A 
ATOM     14  C   UNL     1      13.948  20.096   5.579  1.00  0.00     0.068 A 
ATOM     15  C   UNL     1      14.733  21.101   3.509  1.00  0.00     0.200 A 
ATOM     16  C   UNL     1      14.860  20.132   4.521  1.00  0.00     0.162 A 
BRANCH  13  17
ATOM     17  O   UNL     1      13.500  23.050   2.627  1.00  0.00    -0.504 OA
ATOM     18  H   UNL     1      14.112  23.198   1.838  1.00  0.00     0.293 HD
ENDBRANCH  13  17
BRANCH  15  19
ATOM     19  O   UNL     1      15.661  21.098   2.463  1.00  0.00    -0.502 OA
ATOM     20  H   UNL     1      16.649  20.928   2.581  1.00  0.00     0.293 HD
ENDBRANCH  15  19
BRANCH  16  21
ATOM     21  O   UNL     1      15.892  19.192   4.491  1.00  0.00    -0.504 OA
ATOM     22  H   UNL     1      15.897  18.376   5.091  1.00  0.00     0.293 HD
ENDBRANCH  16  21
ENDBRANCH   1  11
BRANCH  10  23
ATOM     23  O   UNL     1      10.398  19.495   5.600  1.00  0.00    -0.500 OA
ATOM     24  H   UNL     1      10.606  19.825   4.664  1.00  0.00     0.294 HD
ENDBRANCH  10  23
BRANCH   5  25
ATOM     25  O   UNL     1      11.600  23.100  12.367  1.00  0.00    -0.507 OA
ATOM     26  H   UNL     1      12.123  22.651  13.110  1.00  0.00     0.293 HD
ENDBRANCH   5  25
BRANCH   7  27
ATOM     27  O   UNL     1       8.223  20.374  10.279  1.00  0.00    -0.507 OA
ATOM     28  H   UNL     1       7.683  20.316  11.130  1.00  0.00     0.293 HD
ENDBRANCH   7  27
TORSDOF 7
ENDMDL
