MODEL 1
REMARK VINA RESULT:    -7.545      0.000      0.000
REMARK INTER + INTRA:          -9.179
REMARK INTER:                  -8.868
REMARK INTRA:                  -0.311
REMARK UNBOUND:                -0.311
REMARK SMILES O=c1cc(-c2ccc(O)c(O)c2)oc2cc(O)cc(O)c12
REMARK SMILES IDX 4 1 3 2 2 3 1 4 21 5 19 6 18 7 16 8 15 9 14 10 13 11 5 12
REMARK SMILES IDX 6 13 7 14 8 15 12 16 10 17 9 18 11 20 20 22 17 24
REMARK H PARENT 9 19 11 21 20 23 17 25
REMARK Flexibility Score: inf
ROOT
ATOM      1  C   UNL     1       8.302  40.091  22.657  1.00  0.00     0.138 A 
ATOM      2  C   UNL     1       9.495  39.534  22.166  1.00  0.00     0.100 A 
ATOM      3  C   UNL     1      10.328  40.304  21.354  1.00  0.00     0.197 A 
ATOM      4  O   UNL     1      11.396  39.795  20.917  1.00  0.00    -0.289 OA
ATOM      5  C   UNL     1       9.961  41.626  21.034  1.00  0.00     0.107 A 
ATOM      6  C   UNL     1      10.748  42.474  20.219  1.00  0.00     0.134 A 
ATOM      7  C   UNL     1      10.308  43.777  19.943  1.00  0.00     0.093 A 
ATOM      8  C   UNL     1       9.100  44.247  20.464  1.00  0.00     0.123 A 
ATOM      9  C   UNL     1       8.318  43.414  21.270  1.00  0.00     0.094 A 
ATOM     10  C   UNL     1       8.739  42.112  21.558  1.00  0.00     0.146 A 
ATOM     11  O   UNL     1       7.978  41.340  22.328  1.00  0.00    -0.456 OA
ENDROOT
BRANCH   1  12
ATOM     12  C   UNL     1       7.376  39.318  23.524  1.00  0.00     0.021 A 
ATOM     13  C   UNL     1       7.396  37.915  23.477  1.00  0.00     0.016 A 
ATOM     14  C   UNL     1       6.532  37.166  24.276  1.00  0.00     0.051 A 
ATOM     15  C   UNL     1       5.623  37.797  25.132  1.00  0.00     0.157 A 
ATOM     16  C   UNL     1       6.453  39.955  24.374  1.00  0.00     0.062 A 
ATOM     17  C   UNL     1       5.580  39.210  25.177  1.00  0.00     0.158 A 
BRANCH  15  18
ATOM     18  O   UNL     1       4.791  36.990  25.910  1.00  0.00    -0.504 OA
ATOM     19  H   UNL     1       5.023  36.672  26.840  1.00  0.00     0.293 HD
ENDBRANCH  15  18
BRANCH  17  20
ATOM     20  O   UNL     1       4.688  39.910  25.994  1.00  0.00    -0.504 OA
ATOM     21  H   UNL     1       3.699  39.990  25.812  1.00  0.00     0.293 HD
ENDBRANCH  17  20
ENDBRANCH   1  12
BRANCH   6  22
ATOM     22  O   UNL     1      11.959  42.032  19.684  1.00  0.00    -0.507 OA
ATOM     23  H   UNL     1      12.849  42.314  20.078  1.00  0.00     0.293 HD
ENDBRANCH   6  22
BRANCH   8  24
ATOM     24  O   UNL     1       8.686  45.545  20.174  1.00  0.00    -0.508 OA
ATOM     25  H   UNL     1       7.706  45.779  20.072  1.00  0.00     0.293 HD
ENDBRANCH   8  24
TORSDOF 5
ENDMDL
MODEL 2
REMARK VINA RESULT:    -7.218      4.810     10.937
REMARK INTER + INTRA:          -8.795
REMARK INTER:                  -8.500
REMARK INTRA:                  -0.295
REMARK UNBOUND:                -0.311
REMARK SMILES O=c1cc(-c2ccc(O)c(O)c2)oc2cc(O)cc(O)c12
REMARK SMILES IDX 4 1 3 2 2 3 1 4 21 5 19 6 18 7 16 8 15 9 14 10 13 11 5 12
REMARK SMILES IDX 6 13 7 14 8 15 12 16 10 17 9 18 11 20 20 22 17 24
REMARK H PARENT 9 19 11 21 20 23 17 25
REMARK Flexibility Score: inf
ROOT
ATOM      1  C   UNL     1       4.201  36.893  27.900  1.00  0.00     0.138 A 
ATOM      2  C   UNL     1       4.253  37.291  29.245  1.00  0.00     0.100 A 
ATOM      3  C   UNL     1       3.635  36.505  30.218  1.00  0.00     0.197 A 
ATOM      4  O   UNL     1       3.686  36.872  31.424  1.00  0.00    -0.289 OA
ATOM      5  C   UNL     1       2.964  35.326  29.838  1.00  0.00     0.107 A 
ATOM      6  C   UNL     1       2.313  34.472  30.760  1.00  0.00     0.134 A 
ATOM      7  C   UNL     1       1.662  33.319  30.298  1.00  0.00     0.093 A 
ATOM      8  C   UNL     1       1.649  33.003  28.938  1.00  0.00     0.123 A 
ATOM      9  C   UNL     1       2.292  33.843  28.022  1.00  0.00     0.094 A 
ATOM     10  C   UNL     1       2.947  34.998  28.461  1.00  0.00     0.146 A 
ATOM     11  O   UNL     1       3.551  35.778  27.571  1.00  0.00    -0.456 OA
ENDROOT
BRANCH   1  12
ATOM     12  C   UNL     1       4.840  37.690  26.822  1.00  0.00     0.021 A 
ATOM     13  C   UNL     1       4.694  39.087  26.817  1.00  0.00     0.016 A 
ATOM     14  C   UNL     1       5.279  39.858  25.812  1.00  0.00     0.051 A 
ATOM     15  C   UNL     1       6.012  39.256  24.785  1.00  0.00     0.157 A 
ATOM     16  C   UNL     1       5.566  37.082  25.781  1.00  0.00     0.062 A 
ATOM     17  C   UNL     1       6.153  37.849  24.766  1.00  0.00     0.158 A 
BRANCH  15  18
ATOM     18  O   UNL     1       6.577  40.085  23.814  1.00  0.00    -0.504 OA
ATOM     19  H   UNL     1       7.468  40.549  23.917  1.00  0.00     0.293 HD
ENDBRANCH  15  18
BRANCH  17  20
ATOM     20  O   UNL     1       6.857  37.176  23.764  1.00  0.00    -0.504 OA
ATOM     21  H   UNL     1       6.500  36.374  23.266  1.00  0.00     0.293 HD
ENDBRANCH  17  20
ENDBRANCH   1  12
BRANCH   6  22
ATOM     22  O   UNL     1       2.309  34.762  32.125  1.00  0.00    -0.507 OA
ATOM     23  H   UNL     1       1.832  34.167  32.793  1.00  0.00     0.293 HD
ENDBRANCH   6  22
BRANCH   8  24
ATOM     24  O   UNL     1       0.995  31.851  28.506  1.00  0.00    -0.508 OA
ATOM     25  H   UNL     1       1.486  30.971  28.399  1.00  0.00     0.293 HD
ENDBRANCH   8  24
TORSDOF 5
ENDMDL
MODEL 3
REMARK VINA RESULT:    -7.082      5.945      9.354
REMARK INTER + INTRA:          -8.635
REMARK INTER:                  -8.347
REMARK INTRA:                  -0.288
REMARK UNBOUND:                -0.311
REMARK SMILES O=c1cc(-c2ccc(O)c(O)c2)oc2cc(O)cc(O)c12
REMARK SMILES IDX 4 1 3 2 2 3 1 4 21 5 19 6 18 7 16 8 15 9 14 10 13 11 5 12
REMARK SMILES IDX 6 13 7 14 8 15 12 16 10 17 9 18 11 20 20 22 17 24
REMARK H PARENT 9 19 11 21 20 23 17 25
REMARK Flexibility Score: inf
ROOT
ATOM      1  C   UNL     1       3.814  35.417  29.163  1.00  0.00     0.138 A 
ATOM      2  C   UNL     1       4.717  35.799  30.168  1.00  0.00     0.100 A 
ATOM      3  C   UNL     1       5.653  36.800  29.906  1.00  0.00     0.197 A 
ATOM      4  O   UNL     1       6.461  37.135  30.815  1.00  0.00    -0.289 OA
ATOM      5  C   UNL     1       5.684  37.409  28.636  1.00  0.00     0.107 A 
ATOM      6  C   UNL     1       6.599  38.431  28.287  1.00  0.00     0.134 A 
ATOM      7  C   UNL     1       6.568  38.982  26.998  1.00  0.00     0.093 A 
ATOM      8  C   UNL     1       5.642  38.534  26.054  1.00  0.00     0.123 A 
ATOM      9  C   UNL     1       4.734  37.525  26.392  1.00  0.00     0.094 A 
ATOM     10  C   UNL     1       4.749  36.962  27.672  1.00  0.00     0.146 A 
ATOM     11  O   UNL     1       3.875  36.006  27.970  1.00  0.00    -0.456 OA
ENDROOT
BRANCH   1  12
ATOM     12  C   UNL     1       2.797  34.358  29.385  1.00  0.00     0.021 A 
ATOM     13  C   UNL     1       2.367  33.575  28.301  1.00  0.00     0.016 A 
ATOM     14  C   UNL     1       1.407  32.579  28.483  1.00  0.00     0.051 A 
ATOM     15  C   UNL     1       0.847  32.347  29.743  1.00  0.00     0.157 A 
ATOM     16  C   UNL     1       2.224  34.136  30.651  1.00  0.00     0.062 A 
ATOM     17  C   UNL     1       1.257  33.139  30.841  1.00  0.00     0.158 A 
BRANCH  15  18
ATOM     18  O   UNL     1      -0.103  31.330  29.858  1.00  0.00    -0.504 OA
ATOM     19  H   UNL     1       0.118  30.346  29.834  1.00  0.00     0.293 HD
ENDBRANCH  15  18
BRANCH  17  20
ATOM     20  O   UNL     1       0.732  32.977  32.125  1.00  0.00    -0.504 OA
ATOM     21  H   UNL     1       1.290  32.961  32.965  1.00  0.00     0.293 HD
ENDBRANCH  17  20
ENDBRANCH   1  12
BRANCH   6  22
ATOM     22  O   UNL     1       7.536  38.898  29.210  1.00  0.00    -0.507 OA
ATOM     23  H   UNL     1       8.530  38.885  29.012  1.00  0.00     0.293 HD
ENDBRANCH   6  22
BRANCH   8  24
ATOM     24  O   UNL     1       5.632  39.098  24.780  1.00  0.00    -0.508 OA
ATOM     25  H   UNL     1       5.170  38.642  24.001  1.00  0.00     0.293 HD
ENDBRANCH   8  24
TORSDOF 5
ENDMDL
MODEL 4
REMARK VINA RESULT:    -6.908      9.274     11.501
REMARK INTER + INTRA:          -8.431
REMARK INTER:                  -8.165
REMARK INTRA:                  -0.266
REMARK UNBOUND:                -0.311
REMARK SMILES O=c1cc(-c2ccc(O)c(O)c2)oc2cc(O)cc(O)c12
REMARK SMILES IDX 4 1 3 2 2 3 1 4 21 5 19 6 18 7 16 8 15 9 14 10 13 11 5 12
REMARK SMILES IDX 6 13 7 14 8 15 12 16 10 17 9 18 11 20 20 22 17 24
REMARK H PARENT 9 19 11 21 20 23 17 25
REMARK Flexibility Score: inf
ROOT
ATOM      1  C   UNL     1       3.564  34.374  29.995  1.00  0.00     0.138 A 
ATOM      2  C   UNL     1       3.560  35.683  29.487  1.00  0.00     0.100 A 
ATOM      3  C   UNL     1       4.716  36.459  29.579  1.00  0.00     0.197 A 
ATOM      4  O   UNL     1       4.701  37.634  29.122  1.00  0.00    -0.289 OA
ATOM      5  C   UNL     1       5.869  35.921  30.184  1.00  0.00     0.107 A 
ATOM      6  C   UNL     1       7.082  36.638  30.317  1.00  0.00     0.134 A 
ATOM      7  C   UNL     1       8.184  36.032  30.938  1.00  0.00     0.093 A 
ATOM      8  C   UNL     1       8.097  34.726  31.425  1.00  0.00     0.123 A 
ATOM      9  C   UNL     1       6.902  34.011  31.296  1.00  0.00     0.094 A 
ATOM     10  C   UNL     1       5.791  34.598  30.681  1.00  0.00     0.146 A 
ATOM     11  O   UNL     1       4.667  33.897  30.569  1.00  0.00    -0.456 OA
ENDROOT
BRANCH   1  12
ATOM     12  C   UNL     1       2.363  33.503  29.925  1.00  0.00     0.021 A 
ATOM     13  C   UNL     1       2.009  32.912  28.701  1.00  0.00     0.016 A 
ATOM     14  C   UNL     1       0.882  32.095  28.607  1.00  0.00     0.051 A 
ATOM     15  C   UNL     1       0.077  31.857  29.725  1.00  0.00     0.157 A 
ATOM     16  C   UNL     1       1.546  33.276  31.047  1.00  0.00     0.062 A 
ATOM     17  C   UNL     1       0.410  32.460  30.961  1.00  0.00     0.158 A 
BRANCH  15  18
ATOM     18  O   UNL     1      -1.033  31.026  29.566  1.00  0.00    -0.504 OA
ATOM     19  H   UNL     1      -1.152  30.145  30.045  1.00  0.00     0.293 HD
ENDBRANCH  15  18
BRANCH  17  20
ATOM     20  O   UNL     1      -0.355  32.283  32.116  1.00  0.00    -0.504 OA
ATOM     21  H   UNL     1      -1.348  32.102  32.114  1.00  0.00     0.293 HD
ENDBRANCH  17  20
ENDBRANCH   1  12
BRANCH   6  22
ATOM     22  O   UNL     1       7.197  37.945  29.839  1.00  0.00    -0.507 OA
ATOM     23  H   UNL     1       8.007  38.247  29.309  1.00  0.00     0.293 HD
ENDBRANCH   6  22
BRANCH   8  24
ATOM     24  O   UNL     1       9.207  34.147  32.037  1.00  0.00    -0.508 OA
ATOM     25  H   UNL     1      10.150  34.363  31.738  1.00  0.00     0.293 HD
ENDBRANCH   8  24
TORSDOF 5
ENDMDL
MODEL 5
REMARK VINA RESULT:    -6.903      2.116      6.897
REMARK INTER + INTRA:          -8.425
REMARK INTER:                  -8.125
REMARK INTRA:                  -0.299
REMARK UNBOUND:                -0.311
REMARK SMILES O=c1cc(-c2ccc(O)c(O)c2)oc2cc(O)cc(O)c12
REMARK SMILES IDX 4 1 3 2 2 3 1 4 21 5 19 6 18 7 16 8 15 9 14 10 13 11 5 12
REMARK SMILES IDX 6 13 7 14 8 15 12 16 10 17 9 18 11 20 20 22 17 24
REMARK H PARENT 9 19 11 21 20 23 17 25
REMARK Flexibility Score: inf
ROOT
ATOM      1  C   UNL     1       9.923  41.494  22.081  1.00  0.00     0.138 A 
ATOM      2  C   UNL     1      10.945  41.138  22.976  1.00  0.00     0.100 A 
ATOM      3  C   UNL     1      10.646  40.325  24.071  1.00  0.00     0.197 A 
ATOM      4  O   UNL     1      11.570  40.013  24.871  1.00  0.00    -0.289 OA
ATOM      5  C   UNL     1       9.325  39.876  24.264  1.00  0.00     0.107 A 
ATOM      6  C   UNL     1       8.937  39.049  25.345  1.00  0.00     0.134 A 
ATOM      7  C   UNL     1       7.598  38.650  25.469  1.00  0.00     0.093 A 
ATOM      8  C   UNL     1       6.643  39.060  24.536  1.00  0.00     0.123 A 
ATOM      9  C   UNL     1       7.020  39.877  23.465  1.00  0.00     0.094 A 
ATOM     10  C   UNL     1       8.349  40.286  23.323  1.00  0.00     0.146 A 
ATOM     11  O   UNL     1       8.683  41.061  22.296  1.00  0.00    -0.456 OA
ENDROOT
BRANCH   1  12
ATOM     12  C   UNL     1      10.183  42.357  20.900  1.00  0.00     0.021 A 
ATOM     13  C   UNL     1      11.382  42.206  20.185  1.00  0.00     0.016 A 
ATOM     14  C   UNL     1      11.653  43.008  19.076  1.00  0.00     0.051 A 
ATOM     15  C   UNL     1      10.742  43.985  18.662  1.00  0.00     0.157 A 
ATOM     16  C   UNL     1       9.272  43.349  20.492  1.00  0.00     0.062 A 
ATOM     17  C   UNL     1       9.538  44.161  19.382  1.00  0.00     0.158 A 
BRANCH  15  18
ATOM     18  O   UNL     1      11.071  44.750  17.541  1.00  0.00    -0.504 OA
ATOM     19  H   UNL     1      12.017  44.944  17.247  1.00  0.00     0.293 HD
ENDBRANCH  15  18
BRANCH  17  20
ATOM     20  O   UNL     1       8.589  45.126  19.039  1.00  0.00    -0.504 OA
ATOM     21  H   UNL     1       8.807  45.990  18.564  1.00  0.00     0.293 HD
ENDBRANCH  17  20
ENDBRANCH   1  12
BRANCH   6  22
ATOM     22  O   UNL     1       9.870  38.624  26.292  1.00  0.00    -0.507 OA
ATOM     23  H   UNL     1       9.608  38.455  27.257  1.00  0.00     0.293 HD
ENDBRANCH   6  22
BRANCH   8  24
ATOM     24  O   UNL     1       5.319  38.649  24.683  1.00  0.00    -0.508 OA
ATOM     25  H   UNL     1       4.596  38.954  24.043  1.00  0.00     0.293 HD
ENDBRANCH   8  24
TORSDOF 5
ENDMDL
MODEL 6
REMARK VINA RESULT:    -6.897      3.325      9.187
REMARK INTER + INTRA:          -8.418
REMARK INTER:                  -8.142
REMARK INTRA:                  -0.276
REMARK UNBOUND:                -0.311
REMARK SMILES O=c1cc(-c2ccc(O)c(O)c2)oc2cc(O)cc(O)c12
REMARK SMILES IDX 4 1 3 2 2 3 1 4 21 5 19 6 18 7 16 8 15 9 14 10 13 11 5 12
REMARK SMILES IDX 6 13 7 14 8 15 12 16 10 17 9 18 11 20 20 22 17 24
REMARK H PARENT 9 19 11 21 20 23 17 25
REMARK Flexibility Score: inf
ROOT
ATOM      1  C   UNL     1       5.590  37.977  26.295  1.00  0.00     0.138 A 
ATOM      2  C   UNL     1       5.729  38.738  27.467  1.00  0.00     0.100 A 
ATOM      3  C   UNL     1       5.048  38.350  28.622  1.00  0.00     0.197 A 
ATOM      4  O   UNL     1       5.178  39.040  29.669  1.00  0.00    -0.289 OA
ATOM      5  C   UNL     1       4.229  37.204  28.594  1.00  0.00     0.107 A 
ATOM      6  C   UNL     1       3.505  36.741  29.719  1.00  0.00     0.134 A 
ATOM      7  C   UNL     1       2.706  35.593  29.607  1.00  0.00     0.093 A 
ATOM      8  C   UNL     1       2.616  34.903  28.397  1.00  0.00     0.123 A 
ATOM      9  C   UNL     1       3.329  35.355  27.282  1.00  0.00     0.094 A 
ATOM     10  C   UNL     1       4.132  36.497  27.372  1.00  0.00     0.146 A 
ATOM     11  O   UNL     1       4.800  36.905  26.299  1.00  0.00    -0.456 OA
ENDROOT
BRANCH   1  12
ATOM     12  C   UNL     1       6.290  38.344  25.037  1.00  0.00     0.021 A 
ATOM     13  C   UNL     1       7.004  37.360  24.332  1.00  0.00     0.016 A 
ATOM     14  C   UNL     1       7.675  37.680  23.152  1.00  0.00     0.051 A 
ATOM     15  C   UNL     1       7.660  38.986  22.652  1.00  0.00     0.157 A 
ATOM     16  C   UNL     1       6.286  39.661  24.543  1.00  0.00     0.062 A 
ATOM     17  C   UNL     1       6.960  39.991  23.360  1.00  0.00     0.158 A 
BRANCH  15  18
ATOM     18  O   UNL     1       8.346  39.238  21.463  1.00  0.00    -0.504 OA
ATOM     19  H   UNL     1       8.062  39.928  20.783  1.00  0.00     0.293 HD
ENDBRANCH  15  18
BRANCH  17  20
ATOM     20  O   UNL     1       6.914  41.320  22.932  1.00  0.00    -0.504 OA
ATOM     21  H   UNL     1       6.283  41.663  22.224  1.00  0.00     0.293 HD
ENDBRANCH  17  20
ENDBRANCH   1  12
BRANCH   6  22
ATOM     22  O   UNL     1       3.575  37.411  30.941  1.00  0.00    -0.507 OA
ATOM     23  H   UNL     1       3.924  36.957  31.778  1.00  0.00     0.293 HD
ENDBRANCH   6  22
BRANCH   8  24
ATOM     24  O   UNL     1       1.815  33.766  28.313  1.00  0.00    -0.508 OA
ATOM     25  H   UNL     1       2.206  32.857  28.095  1.00  0.00     0.293 HD
ENDBRANCH   8  24
TORSDOF 5
ENDMDL
MODEL 7
REMARK VINA RESULT:    -6.816      2.735      7.078
REMARK INTER + INTRA:          -8.322
REMARK INTER:                  -8.054
REMARK INTRA:                  -0.268
REMARK UNBOUND:                -0.311
REMARK SMILES O=c1cc(-c2ccc(O)c(O)c2)oc2cc(O)cc(O)c12
REMARK SMILES IDX 4 1 3 2 2 3 1 4 21 5 19 6 18 7 16 8 15 9 14 10 13 11 5 12
REMARK SMILES IDX 6 13 7 14 8 15 12 16 10 17 9 18 11 20 20 22 17 24
REMARK H PARENT 9 19 11 21 20 23 17 25
REMARK Flexibility Score: inf
ROOT
ATOM      1  C   UNL     1       9.774  41.359  22.071  1.00  0.00     0.138 A 
ATOM      2  C   UNL     1       8.652  40.515  22.038  1.00  0.00     0.100 A 
ATOM      3  C   UNL     1       8.365  39.711  23.142  1.00  0.00     0.197 A 
ATOM      4  O   UNL     1       7.356  38.955  23.103  1.00  0.00    -0.289 OA
ATOM      5  C   UNL     1       9.208  39.753  24.271  1.00  0.00     0.107 A 
ATOM      6  C   UNL     1       8.989  38.972  25.431  1.00  0.00     0.134 A 
ATOM      7  C   UNL     1       9.880  39.067  26.511  1.00  0.00     0.093 A 
ATOM      8  C   UNL     1      10.979  39.926  26.454  1.00  0.00     0.123 A 
ATOM      9  C   UNL     1      11.200  40.701  25.311  1.00  0.00     0.094 A 
ATOM     10  C   UNL     1      10.325  40.620  24.223  1.00  0.00     0.146 A 
ATOM     11  O   UNL     1      10.556  41.368  23.149  1.00  0.00    -0.456 OA
ENDROOT
BRANCH   1  12
ATOM     12  C   UNL     1      10.127  42.236  20.925  1.00  0.00     0.021 A 
ATOM     13  C   UNL     1      11.367  42.071  20.286  1.00  0.00     0.016 A 
ATOM     14  C   UNL     1      11.725  42.886  19.212  1.00  0.00     0.051 A 
ATOM     15  C   UNL     1      10.863  43.889  18.758  1.00  0.00     0.157 A 
ATOM     16  C   UNL     1       9.265  43.254  20.479  1.00  0.00     0.062 A 
ATOM     17  C   UNL     1       9.619  44.079  19.403  1.00  0.00     0.158 A 
BRANCH  15  18
ATOM     18  O   UNL     1      11.279  44.666  17.675  1.00  0.00    -0.504 OA
ATOM     19  H   UNL     1      11.752  45.553  17.765  1.00  0.00     0.293 HD
ENDBRANCH  15  18
BRANCH  17  20
ATOM     20  O   UNL     1       8.714  45.071  19.017  1.00  0.00    -0.504 OA
ATOM     21  H   UNL     1       8.306  45.741  19.652  1.00  0.00     0.293 HD
ENDBRANCH  17  20
ENDBRANCH   1  12
BRANCH   6  22
ATOM     22  O   UNL     1       7.899  38.104  25.516  1.00  0.00    -0.507 OA
ATOM     23  H   UNL     1       7.027  38.298  25.036  1.00  0.00     0.293 HD
ENDBRANCH   6  22
BRANCH   8  24
ATOM     24  O   UNL     1      11.848  40.002  27.541  1.00  0.00    -0.508 OA
ATOM     25  H   UNL     1      11.515  40.224  28.471  1.00  0.00     0.293 HD
ENDBRANCH   8  24
TORSDOF 5
ENDMDL
MODEL 8
REMARK VINA RESULT:    -6.810      1.958      7.529
REMARK INTER + INTRA:          -8.316
REMARK INTER:                  -8.026
REMARK INTRA:                  -0.290
REMARK UNBOUND:                -0.311
REMARK SMILES O=c1cc(-c2ccc(O)c(O)c2)oc2cc(O)cc(O)c12
REMARK SMILES IDX 4 1 3 2 2 3 1 4 21 5 19 6 18 7 16 8 15 9 14 10 13 11 5 12
REMARK SMILES IDX 6 13 7 14 8 15 12 16 10 17 9 18 11 20 20 22 17 24
REMARK H PARENT 9 19 11 21 20 23 17 25
REMARK Flexibility Score: inf
ROOT
ATOM      1  C   UNL     1       8.819  39.922  23.061  1.00  0.00     0.138 A 
ATOM      2  C   UNL     1       7.464  40.267  23.185  1.00  0.00     0.100 A 
ATOM      3  C   UNL     1       6.683  39.645  24.160  1.00  0.00     0.197 A 
ATOM      4  O   UNL     1       5.466  39.961  24.262  1.00  0.00    -0.289 OA
ATOM      5  C   UNL     1       7.264  38.676  25.002  1.00  0.00     0.107 A 
ATOM      6  C   UNL     1       6.545  37.998  26.015  1.00  0.00     0.134 A 
ATOM      7  C   UNL     1       7.195  37.041  26.809  1.00  0.00     0.093 A 
ATOM      8  C   UNL     1       8.547  36.751  26.609  1.00  0.00     0.123 A 
ATOM      9  C   UNL     1       9.263  37.417  25.609  1.00  0.00     0.094 A 
ATOM     10  C   UNL     1       8.633  38.374  24.808  1.00  0.00     0.146 A 
ATOM     11  O   UNL     1       9.336  38.995  23.866  1.00  0.00    -0.456 OA
ENDROOT
BRANCH   1  12
ATOM     12  C   UNL     1       9.697  40.551  22.042  1.00  0.00     0.021 A 
ATOM     13  C   UNL     1       9.696  41.948  21.897  1.00  0.00     0.016 A 
ATOM     14  C   UNL     1      10.507  42.563  20.943  1.00  0.00     0.051 A 
ATOM     15  C   UNL     1      11.327  41.802  20.104  1.00  0.00     0.157 A 
ATOM     16  C   UNL     1      10.511  39.783  21.189  1.00  0.00     0.062 A 
ATOM     17  C   UNL     1      11.326  40.393  20.226  1.00  0.00     0.158 A 
BRANCH  15  18
ATOM     18  O   UNL     1      12.119  42.479  19.175  1.00  0.00    -0.504 OA
ATOM     19  H   UNL     1      13.073  42.231  18.959  1.00  0.00     0.293 HD
ENDBRANCH  15  18
BRANCH  17  20
ATOM     20  O   UNL     1      12.105  39.566  19.413  1.00  0.00    -0.504 OA
ATOM     21  H   UNL     1      12.433  39.824  18.494  1.00  0.00     0.293 HD
ENDBRANCH  17  20
ENDBRANCH   1  12
BRANCH   6  22
ATOM     22  O   UNL     1       5.193  38.268  26.237  1.00  0.00    -0.507 OA
ATOM     23  H   UNL     1       4.825  38.407  27.172  1.00  0.00     0.293 HD
ENDBRANCH   6  22
BRANCH   8  24
ATOM     24  O   UNL     1       9.169  35.796  27.411  1.00  0.00    -0.508 OA
ATOM     25  H   UNL     1       8.634  35.125  27.948  1.00  0.00     0.293 HD
ENDBRANCH   8  24
TORSDOF 5
ENDMDL
MODEL 9
REMARK VINA RESULT:    -6.728      7.440     10.556
REMARK INTER + INTRA:          -8.219
REMARK INTER:                  -7.945
REMARK INTRA:                  -0.275
REMARK UNBOUND:                -0.311
REMARK SMILES O=c1cc(-c2ccc(O)c(O)c2)oc2cc(O)cc(O)c12
REMARK SMILES IDX 4 1 3 2 2 3 1 4 21 5 19 6 18 7 16 8 15 9 14 10 13 11 5 12
REMARK SMILES IDX 6 13 7 14 8 15 12 16 10 17 9 18 11 20 20 22 17 24
REMARK H PARENT 9 19 11 21 20 23 17 25
REMARK Flexibility Score: inf
ROOT
ATOM      1  C   UNL     1       3.370  34.933  29.579  1.00  0.00     0.138 A 
ATOM      2  C   UNL     1       3.133  35.707  28.432  1.00  0.00     0.100 A 
ATOM      3  C   UNL     1       4.156  36.504  27.918  1.00  0.00     0.197 A 
ATOM      4  O   UNL     1       3.933  37.196  26.887  1.00  0.00    -0.289 OA
ATOM      5  C   UNL     1       5.410  36.525  28.559  1.00  0.00     0.107 A 
ATOM      6  C   UNL     1       6.501  37.304  28.104  1.00  0.00     0.134 A 
ATOM      7  C   UNL     1       7.717  37.274  28.804  1.00  0.00     0.093 A 
ATOM      8  C   UNL     1       7.862  36.483  29.945  1.00  0.00     0.123 A 
ATOM      9  C   UNL     1       6.788  35.711  30.400  1.00  0.00     0.094 A 
ATOM     10  C   UNL     1       5.568  35.726  29.717  1.00  0.00     0.146 A 
ATOM     11  O   UNL     1       4.563  34.983  30.168  1.00  0.00    -0.456 OA
ENDROOT
BRANCH   1  12
ATOM     12  C   UNL     1       2.318  34.067  30.171  1.00  0.00     0.021 A 
ATOM     13  C   UNL     1       2.040  34.159  31.544  1.00  0.00     0.016 A 
ATOM     14  C   UNL     1       1.061  33.352  32.125  1.00  0.00     0.051 A 
ATOM     15  C   UNL     1       0.346  32.429  31.355  1.00  0.00     0.157 A 
ATOM     16  C   UNL     1       1.610  33.129  29.398  1.00  0.00     0.062 A 
ATOM     17  C   UNL     1       0.628  32.312  29.974  1.00  0.00     0.158 A 
BRANCH  15  18
ATOM     18  O   UNL     1      -0.624  31.656  31.996  1.00  0.00    -0.504 OA
ATOM     19  H   UNL     1      -1.065  31.913  32.867  1.00  0.00     0.293 HD
ENDBRANCH  15  18
BRANCH  17  20
ATOM     20  O   UNL     1      -0.032  31.402  29.145  1.00  0.00    -0.504 OA
ATOM     21  H   UNL     1       0.211  31.239  28.179  1.00  0.00     0.293 HD
ENDBRANCH  17  20
ENDBRANCH   1  12
BRANCH   6  22
ATOM     22  O   UNL     1       6.385  38.104  26.966  1.00  0.00    -0.507 OA
ATOM     23  H   UNL     1       6.392  37.707  26.034  1.00  0.00     0.293 HD
ENDBRANCH   6  22
BRANCH   8  24
ATOM     24  O   UNL     1       9.080  36.471  30.622  1.00  0.00    -0.508 OA
ATOM     25  H   UNL     1       9.558  37.330  30.868  1.00  0.00     0.293 HD
ENDBRANCH   8  24
TORSDOF 5
ENDMDL
