MODEL 1
REMARK VINA RESULT:    -6.260      0.000      0.000
REMARK INTER + INTRA:         -13.751
REMARK INTER:                 -11.750
REMARK INTRA:                  -2.001
REMARK UNBOUND:                -2.001
REMARK SMILES CCCCCCCCC=CCCCCCCCC(=O)[O-]
REMARK SMILES IDX 10 1 9 2 11 3 12 4 13 5 14 6 15 7 16 8 17 9 18 10 19 11
REMARK SMILES IDX 20 12 8 13 7 14 6 15 5 16 4 17 3 18 2 19 1 20
REMARK H PARENT
REMARK Flexibility Score: inf
ROOT
ATOM      1  C   UNL     1      27.473  11.955  -3.357  1.00  0.00    -0.031 C 
ATOM      2  C   UNL     1      26.600  11.915  -2.340  1.00  0.00    -0.031 C 
ENDROOT
BRANCH   1   3
ATOM      3  C   UNL     1      27.050  11.663  -4.772  1.00  0.00     0.027 C 
BRANCH   3   4
ATOM      4  C   UNL     1      25.783  10.798  -4.837  1.00  0.00     0.004 C 
BRANCH   4   5
ATOM      5  C   UNL     1      24.596  11.560  -5.452  1.00  0.00     0.000 C 
BRANCH   5   6
ATOM      6  C   UNL     1      23.264  11.246  -4.751  1.00  0.00     0.000 C 
BRANCH   6   7
ATOM      7  C   UNL     1      23.427  11.034  -3.236  1.00  0.00     0.000 C 
BRANCH   7   8
ATOM      8  C   UNL     1      22.581  12.014  -2.408  1.00  0.00     0.006 C 
BRANCH   8   9
ATOM      9  C   UNL     1      23.167  12.267  -1.013  1.00  0.00     0.053 C 
BRANCH   9  10
ATOM     10  C   UNL     1      22.534  13.471  -0.390  1.00  0.00     0.041 C 
ATOM     11  O   UNL     1      21.295  13.495  -0.170  1.00  0.00    -0.550 OA
ATOM     12  O   UNL     1      23.307  14.585  -0.088  1.00  0.00    -0.550 OA
ENDBRANCH   9  10
ENDBRANCH   8   9
ENDBRANCH   7   8
ENDBRANCH   6   7
ENDBRANCH   5   6
ENDBRANCH   4   5
ENDBRANCH   3   4
ENDBRANCH   1   3
BRANCH   2  13
ATOM     13  C   UNL     1      27.022  12.206  -0.925  1.00  0.00     0.027 C 
BRANCH  13  14
ATOM     14  C   UNL     1      26.995  10.955  -0.033  1.00  0.00     0.004 C 
BRANCH  14  15
ATOM     15  C   UNL     1      25.811  10.032  -0.362  1.00  0.00     0.000 C 
BRANCH  15  16
ATOM     16  C   UNL     1      26.049   8.620   0.191  1.00  0.00     0.000 C 
BRANCH  16  17
ATOM     17  C   UNL     1      24.752   7.799   0.314  1.00  0.00    -0.000 C 
BRANCH  17  18
ATOM     18  C   UNL     1      23.512   8.428  -0.354  1.00  0.00    -0.000 C 
BRANCH  18  19
ATOM     19  C   UNL     1      22.590   7.434  -1.081  1.00  0.00    -0.003 C 
ATOM     20  C   UNL     1      23.202   6.040  -1.211  1.00  0.00     0.004 C 
ENDBRANCH  18  19
ENDBRANCH  17  18
ENDBRANCH  16  17
ENDBRANCH  15  16
ENDBRANCH  14  15
ENDBRANCH  13  14
ENDBRANCH   2  13
TORSDOF 15
ENDMDL
MODEL 2
REMARK VINA RESULT:    -6.178      1.734      3.506
REMARK INTER + INTRA:         -13.597
REMARK INTER:                 -11.900
REMARK INTRA:                  -1.697
REMARK UNBOUND:                -2.001
REMARK SMILES CCCCCCCCC=CCCCCCCCC(=O)[O-]
REMARK SMILES IDX 10 1 9 2 11 3 12 4 13 5 14 6 15 7 16 8 17 9 18 10 19 11
REMARK SMILES IDX 20 12 8 13 7 14 6 15 5 16 4 17 3 18 2 19 1 20
REMARK H PARENT
REMARK Flexibility Score: inf
ROOT
ATOM      1  C   UNL     1      22.948  11.659  -2.669  1.00  0.00    -0.031 C 
ATOM      2  C   UNL     1      23.492  10.733  -1.866  1.00  0.00    -0.031 C 
ENDROOT
BRANCH   1   3
ATOM      3  C   UNL     1      22.687  11.385  -4.125  1.00  0.00     0.027 C 
BRANCH   3   4
ATOM      4  C   UNL     1      23.885  11.751  -5.013  1.00  0.00     0.004 C 
BRANCH   4   5
ATOM      5  C   UNL     1      25.099  10.843  -4.747  1.00  0.00     0.000 C 
BRANCH   5   6
ATOM      6  C   UNL     1      26.367  11.322  -5.473  1.00  0.00     0.000 C 
BRANCH   6   7
ATOM      7  C   UNL     1      27.469  11.777  -4.501  1.00  0.00     0.000 C 
BRANCH   7   8
ATOM      8  C   UNL     1      26.960  11.930  -3.060  1.00  0.00     0.006 C 
BRANCH   8   9
ATOM      9  C   UNL     1      28.076  12.307  -2.076  1.00  0.00     0.053 C 
BRANCH   9  10
ATOM     10  C   UNL     1      27.501  12.650  -0.738  1.00  0.00     0.041 C 
ATOM     11  O   UNL     1      26.345  13.140  -0.651  1.00  0.00    -0.550 OA
ATOM     12  O   UNL     1      28.257  12.465   0.412  1.00  0.00    -0.550 OA
ENDBRANCH   9  10
ENDBRANCH   8   9
ENDBRANCH   7   8
ENDBRANCH   6   7
ENDBRANCH   5   6
ENDBRANCH   4   5
ENDBRANCH   3   4
ENDBRANCH   1   3
BRANCH   2  13
ATOM     13  C   UNL     1      23.754  11.006  -0.409  1.00  0.00     0.027 C 
BRANCH  13  14
ATOM     14  C   UNL     1      24.301   9.775   0.331  1.00  0.00     0.004 C 
BRANCH  14  15
ATOM     15  C   UNL     1      25.773   9.498  -0.011  1.00  0.00     0.000 C 
BRANCH  15  16
ATOM     16  C   UNL     1      26.109   8.013   0.188  1.00  0.00     0.000 C 
BRANCH  16  17
ATOM     17  C   UNL     1      24.858   7.138   0.392  1.00  0.00    -0.000 C 
BRANCH  17  18
ATOM     18  C   UNL     1      24.626   6.063  -0.689  1.00  0.00    -0.000 C 
BRANCH  18  19
ATOM     19  C   UNL     1      23.172   5.931  -1.174  1.00  0.00    -0.003 C 
ATOM     20  C   UNL     1      22.396   7.246  -1.093  1.00  0.00     0.004 C 
ENDBRANCH  18  19
ENDBRANCH  17  18
ENDBRANCH  16  17
ENDBRANCH  15  16
ENDBRANCH  14  15
ENDBRANCH  13  14
ENDBRANCH   2  13
TORSDOF 15
ENDMDL
MODEL 3
REMARK VINA RESULT:    -5.855      2.040      4.117
REMARK INTER + INTRA:         -12.990
REMARK INTER:                 -11.161
REMARK INTRA:                  -1.829
REMARK UNBOUND:                -2.001
REMARK SMILES CCCCCCCCC=CCCCCCCCC(=O)[O-]
REMARK SMILES IDX 10 1 9 2 11 3 12 4 13 5 14 6 15 7 16 8 17 9 18 10 19 11
REMARK SMILES IDX 20 12 8 13 7 14 6 15 5 16 4 17 3 18 2 19 1 20
REMARK H PARENT
REMARK Flexibility Score: inf
ROOT
ATOM      1  C   UNL     1      22.682  11.315  -3.912  1.00  0.00    -0.031 C 
ATOM      2  C   UNL     1      23.307  11.669  -2.780  1.00  0.00    -0.031 C 
ENDROOT
BRANCH   1   3
ATOM      3  C   UNL     1      22.814  12.125  -5.173  1.00  0.00     0.027 C 
BRANCH   3   4
ATOM      4  C   UNL     1      23.007  11.243  -6.416  1.00  0.00     0.004 C 
BRANCH   4   5
ATOM      5  C   UNL     1      24.412  10.618  -6.467  1.00  0.00     0.000 C 
BRANCH   5   6
ATOM      6  C   UNL     1      25.496  11.549  -5.902  1.00  0.00     0.000 C 
BRANCH   6   7
ATOM      7  C   UNL     1      26.390  10.855  -4.860  1.00  0.00     0.000 C 
BRANCH   7   8
ATOM      8  C   UNL     1      27.127  11.854  -3.955  1.00  0.00     0.006 C 
BRANCH   8   9
ATOM      9  C   UNL     1      26.777  11.676  -2.472  1.00  0.00     0.053 C 
BRANCH   9  10
ATOM     10  C   UNL     1      27.771  12.389  -1.610  1.00  0.00     0.041 C 
ATOM     11  O   UNL     1      27.381  13.182  -0.715  1.00  0.00    -0.550 OA
ATOM     12  O   UNL     1      29.132  12.208  -1.822  1.00  0.00    -0.550 OA
ENDBRANCH   9  10
ENDBRANCH   8   9
ENDBRANCH   7   8
ENDBRANCH   6   7
ENDBRANCH   5   6
ENDBRANCH   4   5
ENDBRANCH   3   4
ENDBRANCH   1   3
BRANCH   2  13
ATOM     13  C   UNL     1      23.175  10.860  -1.518  1.00  0.00     0.027 C 
BRANCH  13  14
ATOM     14  C   UNL     1      23.371   9.355  -1.760  1.00  0.00     0.004 C 
BRANCH  14  15
ATOM     15  C   UNL     1      23.092   8.521  -0.501  1.00  0.00     0.000 C 
BRANCH  15  16
ATOM     16  C   UNL     1      23.094   7.021  -0.827  1.00  0.00     0.000 C 
BRANCH  16  17
ATOM     17  C   UNL     1      24.457   6.354  -0.565  1.00  0.00    -0.000 C 
BRANCH  17  18
ATOM     18  C   UNL     1      25.220   6.883   0.667  1.00  0.00    -0.000 C 
BRANCH  18  19
ATOM     19  C   UNL     1      26.593   7.506   0.364  1.00  0.00    -0.003 C 
ATOM     20  C   UNL     1      26.531   9.022   0.178  1.00  0.00     0.004 C 
ENDBRANCH  18  19
ENDBRANCH  17  18
ENDBRANCH  16  17
ENDBRANCH  15  16
ENDBRANCH  14  15
ENDBRANCH  13  14
ENDBRANCH   2  13
TORSDOF 15
ENDMDL
MODEL 4
REMARK VINA RESULT:    -5.828      2.460      5.477
REMARK INTER + INTRA:         -12.940
REMARK INTER:                 -11.171
REMARK INTRA:                  -1.769
REMARK UNBOUND:                -2.001
REMARK SMILES CCCCCCCCC=CCCCCCCCC(=O)[O-]
REMARK SMILES IDX 10 1 9 2 11 3 12 4 13 5 14 6 15 7 16 8 17 9 18 10 19 11
REMARK SMILES IDX 20 12 8 13 7 14 6 15 5 16 4 17 3 18 2 19 1 20
REMARK H PARENT
REMARK Flexibility Score: inf
ROOT
ATOM      1  C   UNL     1      26.176  11.448  -4.056  1.00  0.00    -0.031 C 
ATOM      2  C   UNL     1      25.752  11.358  -5.325  1.00  0.00    -0.031 C 
ENDROOT
BRANCH   1   3
ATOM      3  C   UNL     1      27.573  11.895  -3.721  1.00  0.00     0.027 C 
BRANCH   3   4
ATOM      4  C   UNL     1      27.743  12.211  -2.228  1.00  0.00     0.004 C 
BRANCH   4   5
ATOM      5  C   UNL     1      26.428  12.041  -1.448  1.00  0.00     0.000 C 
BRANCH   5   6
ATOM      6  C   UNL     1      26.546  11.025  -0.301  1.00  0.00     0.000 C 
BRANCH   6   7
ATOM      7  C   UNL     1      25.495   9.905  -0.390  1.00  0.00     0.000 C 
BRANCH   7   8
ATOM      8  C   UNL     1      26.035   8.549   0.089  1.00  0.00     0.006 C 
BRANCH   8   9
ATOM      9  C   UNL     1      24.943   7.663   0.703  1.00  0.00     0.053 C 
BRANCH   9  10
ATOM     10  C   UNL     1      24.124   7.021  -0.372  1.00  0.00     0.041 C 
ATOM     11  O   UNL     1      23.152   7.636  -0.882  1.00  0.00    -0.550 OA
ATOM     12  O   UNL     1      24.409   5.725  -0.784  1.00  0.00    -0.550 OA
ENDBRANCH   9  10
ENDBRANCH   8   9
ENDBRANCH   7   8
ENDBRANCH   6   7
ENDBRANCH   5   6
ENDBRANCH   4   5
ENDBRANCH   3   4
ENDBRANCH   1   3
BRANCH   2  13
ATOM     13  C   UNL     1      24.354  10.912  -5.661  1.00  0.00     0.027 C 
BRANCH  13  14
ATOM     14  C   UNL     1      23.300  11.980  -5.332  1.00  0.00     0.004 C 
BRANCH  14  15
ATOM     15  C   UNL     1      22.131  11.411  -4.513  1.00  0.00     0.000 C 
BRANCH  15  16
ATOM     16  C   UNL     1      22.599  10.989  -3.113  1.00  0.00     0.000 C 
BRANCH  16  17
ATOM     17  C   UNL     1      23.142  12.167  -2.283  1.00  0.00    -0.000 C 
BRANCH  17  18
ATOM     18  C   UNL     1      22.689  12.193  -0.809  1.00  0.00    -0.000 C 
BRANCH  18  19
ATOM     19  C   UNL     1      22.256  13.573  -0.286  1.00  0.00    -0.003 C 
ATOM     20  C   UNL     1      23.433  14.433   0.175  1.00  0.00     0.004 C 
ENDBRANCH  18  19
ENDBRANCH  17  18
ENDBRANCH  16  17
ENDBRANCH  15  16
ENDBRANCH  14  15
ENDBRANCH  13  14
ENDBRANCH   2  13
TORSDOF 15
ENDMDL
MODEL 5
REMARK VINA RESULT:    -5.816      1.297      2.284
REMARK INTER + INTRA:         -12.918
REMARK INTER:                 -10.981
REMARK INTRA:                  -1.937
REMARK UNBOUND:                -2.001
REMARK SMILES CCCCCCCCC=CCCCCCCCC(=O)[O-]
REMARK SMILES IDX 10 1 9 2 11 3 12 4 13 5 14 6 15 7 16 8 17 9 18 10 19 11
REMARK SMILES IDX 20 12 8 13 7 14 6 15 5 16 4 17 3 18 2 19 1 20
REMARK H PARENT
REMARK Flexibility Score: inf
ROOT
ATOM      1  C   UNL     1      25.532  11.356  -4.998  1.00  0.00    -0.031 C 
ATOM      2  C   UNL     1      26.814  11.201  -4.634  1.00  0.00    -0.031 C 
ENDROOT
BRANCH   1   3
ATOM      3  C   UNL     1      24.970  10.674  -6.216  1.00  0.00     0.027 C 
BRANCH   3   4
ATOM      4  C   UNL     1      23.557  11.166  -6.562  1.00  0.00     0.004 C 
BRANCH   4   5
ATOM      5  C   UNL     1      22.954  12.023  -5.435  1.00  0.00     0.000 C 
BRANCH   5   6
ATOM      6  C   UNL     1      21.868  11.279  -4.642  1.00  0.00     0.000 C 
BRANCH   6   7
ATOM      7  C   UNL     1      22.309  10.940  -3.208  1.00  0.00     0.000 C 
BRANCH   7   8
ATOM      8  C   UNL     1      22.991  12.124  -2.505  1.00  0.00     0.006 C 
BRANCH   8   9
ATOM      9  C   UNL     1      23.019  11.967  -0.978  1.00  0.00     0.053 C 
BRANCH   9  10
ATOM     10  C   UNL     1      23.113  13.306  -0.317  1.00  0.00     0.041 C 
ATOM     11  O   UNL     1      24.238  13.801  -0.043  1.00  0.00    -0.550 OA
ATOM     12  O   UNL     1      21.957  13.992   0.035  1.00  0.00    -0.550 OA
ENDBRANCH   9  10
ENDBRANCH   8   9
ENDBRANCH   7   8
ENDBRANCH   6   7
ENDBRANCH   5   6
ENDBRANCH   4   5
ENDBRANCH   3   4
ENDBRANCH   1   3
BRANCH   2  13
ATOM     13  C   UNL     1      27.377  11.882  -3.416  1.00  0.00     0.027 C 
BRANCH  13  14
ATOM     14  C   UNL     1      26.415  11.837  -2.219  1.00  0.00     0.004 C 
BRANCH  14  15
ATOM     15  C   UNL     1      27.155  11.907  -0.874  1.00  0.00     0.000 C 
BRANCH  15  16
ATOM     16  C   UNL     1      26.664  10.807   0.077  1.00  0.00     0.000 C 
BRANCH  16  17
ATOM     17  C   UNL     1      25.764   9.770  -0.620  1.00  0.00    -0.000 C 
BRANCH  17  18
ATOM     18  C   UNL     1      24.808   8.999   0.314  1.00  0.00    -0.000 C 
BRANCH  18  19
ATOM     19  C   UNL     1      25.375   7.690   0.888  1.00  0.00    -0.003 C 
ATOM     20  C   UNL     1      26.671   7.252   0.207  1.00  0.00     0.004 C 
ENDBRANCH  18  19
ENDBRANCH  17  18
ENDBRANCH  16  17
ENDBRANCH  15  16
ENDBRANCH  14  15
ENDBRANCH  13  14
ENDBRANCH   2  13
TORSDOF 15
ENDMDL
MODEL 6
REMARK VINA RESULT:    -5.796      2.322      5.529
REMARK INTER + INTRA:         -12.880
REMARK INTER:                 -11.013
REMARK INTRA:                  -1.867
REMARK UNBOUND:                -2.001
REMARK SMILES CCCCCCCCC=CCCCCCCCC(=O)[O-]
REMARK SMILES IDX 10 1 9 2 11 3 12 4 13 5 14 6 15 7 16 8 17 9 18 10 19 11
REMARK SMILES IDX 20 12 8 13 7 14 6 15 5 16 4 17 3 18 2 19 1 20
REMARK H PARENT
REMARK Flexibility Score: inf
ROOT
ATOM      1  C   UNL     1      26.856  11.248  -3.170  1.00  0.00    -0.031 C 
ATOM      2  C   UNL     1      26.549  11.630  -4.418  1.00  0.00    -0.031 C 
ENDROOT
BRANCH   1   3
ATOM      3  C   UNL     1      27.232  12.246  -2.109  1.00  0.00     0.027 C 
BRANCH   3   4
ATOM      4  C   UNL     1      26.424  12.059  -0.817  1.00  0.00     0.004 C 
BRANCH   4   5
ATOM      5  C   UNL     1      26.895  10.834  -0.014  1.00  0.00     0.000 C 
BRANCH   5   6
ATOM      6  C   UNL     1      25.848   9.709   0.020  1.00  0.00     0.000 C 
BRANCH   6   7
ATOM      7  C   UNL     1      26.462   8.336   0.344  1.00  0.00     0.000 C 
BRANCH   7   8
ATOM      8  C   UNL     1      25.413   7.315   0.810  1.00  0.00     0.006 C 
BRANCH   8   9
ATOM      9  C   UNL     1      24.894   6.437  -0.337  1.00  0.00     0.053 C 
BRANCH   9  10
ATOM     10  C   UNL     1      23.498   6.830  -0.706  1.00  0.00     0.041 C 
ATOM     11  O   UNL     1      23.012   7.914  -0.289  1.00  0.00    -0.550 OA
ATOM     12  O   UNL     1      22.717   5.980  -1.478  1.00  0.00    -0.550 OA
ENDBRANCH   9  10
ENDBRANCH   8   9
ENDBRANCH   7   8
ENDBRANCH   6   7
ENDBRANCH   5   6
ENDBRANCH   4   5
ENDBRANCH   3   4
ENDBRANCH   1   3
BRANCH   2  13
ATOM     13  C   UNL     1      26.173  10.631  -5.480  1.00  0.00     0.027 C 
BRANCH  13  14
ATOM     14  C   UNL     1      24.793  10.916  -6.093  1.00  0.00     0.004 C 
BRANCH  14  15
ATOM     15  C   UNL     1      23.975  11.906  -5.250  1.00  0.00     0.000 C 
BRANCH  15  16
ATOM     16  C   UNL     1      22.528  11.417  -5.084  1.00  0.00     0.000 C 
BRANCH  16  17
ATOM     17  C   UNL     1      22.111  11.274  -3.610  1.00  0.00    -0.000 C 
BRANCH  17  18
ATOM     18  C   UNL     1      23.216  10.765  -2.662  1.00  0.00    -0.000 C 
BRANCH  18  19
ATOM     19  C   UNL     1      23.143  11.311  -1.225  1.00  0.00    -0.003 C 
ATOM     20  C   UNL     1      22.667  12.762  -1.163  1.00  0.00     0.004 C 
ENDBRANCH  18  19
ENDBRANCH  17  18
ENDBRANCH  16  17
ENDBRANCH  15  16
ENDBRANCH  14  15
ENDBRANCH  13  14
ENDBRANCH   2  13
TORSDOF 15
ENDMDL
MODEL 7
REMARK VINA RESULT:    -5.746      2.669      5.504
REMARK INTER + INTRA:         -12.786
REMARK INTER:                 -11.014
REMARK INTRA:                  -1.772
REMARK UNBOUND:                -2.001
REMARK SMILES CCCCCCCCC=CCCCCCCCC(=O)[O-]
REMARK SMILES IDX 10 1 9 2 11 3 12 4 13 5 14 6 15 7 16 8 17 9 18 10 19 11
REMARK SMILES IDX 20 12 8 13 7 14 6 15 5 16 4 17 3 18 2 19 1 20
REMARK H PARENT
REMARK Flexibility Score: inf
ROOT
ATOM      1  C   UNL     1      24.064  11.337  -5.340  1.00  0.00    -0.031 C 
ATOM      2  C   UNL     1      24.603  11.032  -6.530  1.00  0.00    -0.031 C 
ENDROOT
BRANCH   1   3
ATOM      3  C   UNL     1      22.639  11.804  -5.216  1.00  0.00     0.027 C 
BRANCH   3   4
ATOM      4  C   UNL     1      21.954  11.260  -3.954  1.00  0.00     0.004 C 
BRANCH   4   5
ATOM      5  C   UNL     1      22.829  11.438  -2.701  1.00  0.00     0.000 C 
BRANCH   5   6
ATOM      6  C   UNL     1      23.286  10.098  -2.103  1.00  0.00     0.000 C 
BRANCH   6   7
ATOM      7  C   UNL     1      23.661  10.209  -0.615  1.00  0.00     0.000 C 
BRANCH   7   8
ATOM      8  C   UNL     1      23.318   8.938   0.177  1.00  0.00     0.006 C 
BRANCH   8   9
ATOM      9  C   UNL     1      24.230   7.757  -0.179  1.00  0.00     0.053 C 
BRANCH   9  10
ATOM     10  C   UNL     1      23.443   6.667  -0.837  1.00  0.00     0.041 C 
ATOM     11  O   UNL     1      22.258   6.874  -1.204  1.00  0.00    -0.550 OA
ATOM     12  O   UNL     1      24.006   5.409  -1.008  1.00  0.00    -0.550 OA
ENDBRANCH   9  10
ENDBRANCH   8   9
ENDBRANCH   7   8
ENDBRANCH   6   7
ENDBRANCH   5   6
ENDBRANCH   4   5
ENDBRANCH   3   4
ENDBRANCH   1   3
BRANCH   2  13
ATOM     13  C   UNL     1      26.028  10.565  -6.655  1.00  0.00     0.027 C 
BRANCH  13  14
ATOM     14  C   UNL     1      26.727  10.437  -5.293  1.00  0.00     0.004 C 
BRANCH  14  15
ATOM     15  C   UNL     1      27.830  11.490  -5.104  1.00  0.00     0.000 C 
BRANCH  15  16
ATOM     16  C   UNL     1      27.830  12.029  -3.666  1.00  0.00     0.000 C 
BRANCH  16  17
ATOM     17  C   UNL     1      26.522  11.724  -2.913  1.00  0.00    -0.000 C 
BRANCH  17  18
ATOM     18  C   UNL     1      26.455  12.266  -1.470  1.00  0.00    -0.000 C 
BRANCH  18  19
ATOM     19  C   UNL     1      27.400  11.576  -0.471  1.00  0.00    -0.003 C 
ATOM     20  C   UNL     1      28.339  12.555   0.233  1.00  0.00     0.004 C 
ENDBRANCH  18  19
ENDBRANCH  17  18
ENDBRANCH  16  17
ENDBRANCH  15  16
ENDBRANCH  14  15
ENDBRANCH  13  14
ENDBRANCH   2  13
TORSDOF 15
ENDMDL
MODEL 8
REMARK VINA RESULT:    -5.689      1.041      4.299
REMARK INTER + INTRA:         -12.679
REMARK INTER:                 -10.267
REMARK INTRA:                  -2.412
REMARK UNBOUND:                -2.001
REMARK SMILES CCCCCCCCC=CCCCCCCCC(=O)[O-]
REMARK SMILES IDX 10 1 9 2 11 3 12 4 13 5 14 6 15 7 16 8 17 9 18 10 19 11
REMARK SMILES IDX 20 12 8 13 7 14 6 15 5 16 4 17 3 18 2 19 1 20
REMARK H PARENT
REMARK Flexibility Score: inf
ROOT
ATOM      1  C   UNL     1      26.730   9.249  -0.183  1.00  0.00    -0.031 C 
ATOM      2  C   UNL     1      26.746  10.466   0.382  1.00  0.00    -0.031 C 
ENDROOT
BRANCH   1   3
ATOM      3  C   UNL     1      25.910   8.125   0.390  1.00  0.00     0.027 C 
BRANCH   3   4
ATOM      4  C   UNL     1      24.451   8.532   0.638  1.00  0.00     0.004 C 
BRANCH   4   5
ATOM      5  C   UNL     1      23.578   8.342  -0.614  1.00  0.00     0.000 C 
BRANCH   5   6
ATOM      6  C   UNL     1      23.259   9.669  -1.321  1.00  0.00     0.000 C 
BRANCH   6   7
ATOM      7  C   UNL     1      23.418  10.887  -0.395  1.00  0.00     0.000 C 
BRANCH   7   8
ATOM      8  C   UNL     1      23.219  12.220  -1.134  1.00  0.00     0.006 C 
BRANCH   8   9
ATOM      9  C   UNL     1      23.776  13.417  -0.352  1.00  0.00     0.053 C 
BRANCH   9  10
ATOM     10  C   UNL     1      22.660  14.236   0.216  1.00  0.00     0.041 C 
ATOM     11  O   UNL     1      22.904  15.331   0.787  1.00  0.00    -0.550 OA
ATOM     12  O   UNL     1      21.353  13.772   0.150  1.00  0.00    -0.550 OA
ENDBRANCH   9  10
ENDBRANCH   8   9
ENDBRANCH   7   8
ENDBRANCH   6   7
ENDBRANCH   5   6
ENDBRANCH   4   5
ENDBRANCH   3   4
ENDBRANCH   1   3
BRANCH   2  13
ATOM     13  C   UNL     1      27.566  11.591  -0.191  1.00  0.00     0.027 C 
BRANCH  13  14
ATOM     14  C   UNL     1      26.947  12.178  -1.469  1.00  0.00     0.004 C 
BRANCH  14  15
ATOM     15  C   UNL     1      27.891  12.069  -2.676  1.00  0.00     0.000 C 
BRANCH  15  16
ATOM     16  C   UNL     1      27.100  11.825  -3.969  1.00  0.00     0.000 C 
BRANCH  16  17
ATOM     17  C   UNL     1      25.808  11.021  -3.737  1.00  0.00    -0.000 C 
BRANCH  17  18
ATOM     18  C   UNL     1      24.830  10.994  -4.929  1.00  0.00    -0.000 C 
BRANCH  18  19
ATOM     19  C   UNL     1      23.377  11.367  -4.587  1.00  0.00    -0.003 C 
ATOM     20  C   UNL     1      22.706  12.206  -5.675  1.00  0.00     0.004 C 
ENDBRANCH  18  19
ENDBRANCH  17  18
ENDBRANCH  16  17
ENDBRANCH  15  16
ENDBRANCH  14  15
ENDBRANCH  13  14
ENDBRANCH   2  13
TORSDOF 15
ENDMDL
MODEL 9
REMARK VINA RESULT:    -5.677      2.502      5.070
REMARK INTER + INTRA:         -12.657
REMARK INTER:                 -10.622
REMARK INTRA:                  -2.035
REMARK UNBOUND:                -2.001
REMARK SMILES CCCCCCCCC=CCCCCCCCC(=O)[O-]
REMARK SMILES IDX 10 1 9 2 11 3 12 4 13 5 14 6 15 7 16 8 17 9 18 10 19 11
REMARK SMILES IDX 20 12 8 13 7 14 6 15 5 16 4 17 3 18 2 19 1 20
REMARK H PARENT
REMARK Flexibility Score: inf
ROOT
ATOM      1  C   UNL     1      24.692  13.021   0.103  1.00  0.00    -0.031 C 
ATOM      2  C   UNL     1      25.747  13.285  -0.682  1.00  0.00    -0.031 C 
ENDROOT
BRANCH   1   3
ATOM      3  C   UNL     1      23.372  13.718  -0.090  1.00  0.00     0.027 C 
BRANCH   3   4
ATOM      4  C   UNL     1      22.386  12.883  -0.920  1.00  0.00     0.004 C 
BRANCH   4   5
ATOM      5  C   UNL     1      23.062  12.240  -2.143  1.00  0.00     0.000 C 
BRANCH   5   6
ATOM      6  C   UNL     1      22.680  10.762  -2.322  1.00  0.00     0.000 C 
BRANCH   6   7
ATOM      7  C   UNL     1      23.770   9.802  -1.814  1.00  0.00     0.000 C 
BRANCH   7   8
ATOM      8  C   UNL     1      23.265   8.870  -0.702  1.00  0.00     0.006 C 
BRANCH   8   9
ATOM      9  C   UNL     1      24.126   8.945   0.566  1.00  0.00     0.053 C 
BRANCH   9  10
ATOM     10  C   UNL     1      25.437   8.256   0.350  1.00  0.00     0.041 C 
ATOM     11  O   UNL     1      25.494   7.000   0.303  1.00  0.00    -0.550 OA
ATOM     12  O   UNL     1      26.604   9.001   0.240  1.00  0.00    -0.550 OA
ENDBRANCH   9  10
ENDBRANCH   8   9
ENDBRANCH   7   8
ENDBRANCH   6   7
ENDBRANCH   5   6
ENDBRANCH   4   5
ENDBRANCH   3   4
ENDBRANCH   1   3
BRANCH   2  13
ATOM     13  C   UNL     1      27.068  12.588  -0.489  1.00  0.00     0.027 C 
BRANCH  13  14
ATOM     14  C   UNL     1      27.773  12.287  -1.821  1.00  0.00     0.004 C 
BRANCH  14  15
ATOM     15  C   UNL     1      26.791  11.828  -2.909  1.00  0.00     0.000 C 
BRANCH  15  16
ATOM     16  C   UNL     1      27.461  11.840  -4.290  1.00  0.00     0.000 C 
BRANCH  16  17
ATOM     17  C   UNL     1      26.486  11.495  -5.431  1.00  0.00    -0.000 C 
BRANCH  17  18
ATOM     18  C   UNL     1      25.051  11.148  -4.985  1.00  0.00    -0.000 C 
BRANCH  18  19
ATOM     19  C   UNL     1      24.000  11.155  -6.109  1.00  0.00    -0.003 C 
ATOM     20  C   UNL     1      22.757  11.971  -5.757  1.00  0.00     0.004 C 
ENDBRANCH  18  19
ENDBRANCH  17  18
ENDBRANCH  16  17
ENDBRANCH  15  16
ENDBRANCH  14  15
ENDBRANCH  13  14
ENDBRANCH   2  13
TORSDOF 15
ENDMDL
