MODEL 1
REMARK VINA RESULT:    -3.252      0.000      0.000
REMARK INTER + INTRA:          -5.757
REMARK INTER:                  -5.152
REMARK INTRA:                  -0.604
REMARK UNBOUND:                -0.604
REMARK SMILES CCCCCCCCCCCC(=O)[O-]
REMARK SMILES IDX 7 1 8 2 9 3 10 4 11 5 12 6 13 7 14 8 6 9 5 10 4 11 3 12 2 13
REMARK SMILES IDX 1 14
REMARK H PARENT
REMARK Flexibility Score: inf
ROOT
ATOM      1  C   UNL     1     -25.890  10.934  -5.955  1.00  0.00     0.000 C 
ENDROOT
BRANCH   1   2
ATOM      2  C   UNL     1     -24.376  11.118  -5.743  1.00  0.00     0.000 C 
BRANCH   2   3
ATOM      3  C   UNL     1     -23.882  10.879  -4.302  1.00  0.00     0.000 C 
BRANCH   3   4
ATOM      4  C   UNL     1     -23.798   9.400  -3.875  1.00  0.00     0.006 C 
BRANCH   4   5
ATOM      5  C   UNL     1     -22.503   8.689  -4.297  1.00  0.00     0.053 C 
BRANCH   5   6
ATOM      6  C   UNL     1     -22.776   7.504  -5.170  1.00  0.00     0.041 C 
ATOM      7  O   UNL     1     -23.957   7.107  -5.352  1.00  0.00    -0.550 OA
ATOM      8  O   UNL     1     -21.722   6.817  -5.759  1.00  0.00    -0.550 OA
ENDBRANCH   5   6
ENDBRANCH   4   5
ENDBRANCH   3   4
ENDBRANCH   2   3
ENDBRANCH   1   2
BRANCH   1   9
ATOM      9  C   UNL     1     -26.699  11.083  -4.654  1.00  0.00     0.000 C 
BRANCH   9  10
ATOM     10  C   UNL     1     -27.236   9.730  -4.139  1.00  0.00    -0.000 C 
BRANCH  10  11
ATOM     11  C   UNL     1     -27.399   8.666  -5.238  1.00  0.00    -0.000 C 
BRANCH  11  12
ATOM     12  C   UNL     1     -28.591   7.729  -4.989  1.00  0.00    -0.000 C 
BRANCH  12  13
ATOM     13  C   UNL     1     -29.941   8.461  -5.055  1.00  0.00    -0.003 C 
ATOM     14  C   UNL     1     -30.739   8.118  -6.313  1.00  0.00     0.004 C 
ENDBRANCH  12  13
ENDBRANCH  11  12
ENDBRANCH  10  11
ENDBRANCH   9  10
ENDBRANCH   1   9
TORSDOF 10
ENDMDL
MODEL 2
REMARK VINA RESULT:    -3.231      3.004      5.590
REMARK INTER + INTRA:          -5.724
REMARK INTER:                  -4.764
REMARK INTRA:                  -0.961
REMARK UNBOUND:                -0.604
REMARK SMILES CCCCCCCCCCCC(=O)[O-]
REMARK SMILES IDX 7 1 8 2 9 3 10 4 11 5 12 6 13 7 14 8 6 9 5 10 4 11 3 12 2 13
REMARK SMILES IDX 1 14
REMARK H PARENT
REMARK Flexibility Score: inf
ROOT
ATOM      1  C   UNL     1     -25.888  11.125  -5.829  1.00  0.00     0.000 C 
ENDROOT
BRANCH   1   2
ATOM      2  C   UNL     1     -26.540  11.118  -4.434  1.00  0.00     0.000 C 
BRANCH   2   3
ATOM      3  C   UNL     1     -27.119   9.760  -3.988  1.00  0.00     0.000 C 
BRANCH   3   4
ATOM      4  C   UNL     1     -27.425   8.771  -5.131  1.00  0.00     0.006 C 
BRANCH   4   5
ATOM      5  C   UNL     1     -28.471   7.700  -4.783  1.00  0.00     0.053 C 
BRANCH   5   6
ATOM      6  C   UNL     1     -29.868   8.199  -4.986  1.00  0.00     0.041 C 
ATOM      7  O   UNL     1     -30.415   8.113  -6.116  1.00  0.00    -0.550 OA
ATOM      8  O   UNL     1     -30.556   8.788  -3.932  1.00  0.00    -0.550 OA
ENDBRANCH   5   6
ENDBRANCH   4   5
ENDBRANCH   3   4
ENDBRANCH   2   3
ENDBRANCH   1   2
BRANCH   1   9
ATOM      9  C   UNL     1     -24.351  11.072  -5.771  1.00  0.00     0.000 C 
BRANCH   9  10
ATOM     10  C   UNL     1     -23.817  11.079  -4.322  1.00  0.00    -0.000 C 
BRANCH  10  11
ATOM     11  C   UNL     1     -23.072   9.792  -3.928  1.00  0.00    -0.000 C 
BRANCH  11  12
ATOM     12  C   UNL     1     -23.948   8.535  -4.039  1.00  0.00    -0.000 C 
BRANCH  12  13
ATOM     13  C   UNL     1     -23.419   7.538  -5.081  1.00  0.00    -0.003 C 
ATOM     14  C   UNL     1     -21.907   7.636  -5.280  1.00  0.00     0.004 C 
ENDBRANCH  12  13
ENDBRANCH  11  12
ENDBRANCH  10  11
ENDBRANCH   9  10
ENDBRANCH   1   9
TORSDOF 10
ENDMDL
MODEL 3
REMARK VINA RESULT:    -3.136      1.029      1.642
REMARK INTER + INTRA:          -5.573
REMARK INTER:                  -5.032
REMARK INTRA:                  -0.541
REMARK UNBOUND:                -0.604
REMARK SMILES CCCCCCCCCCCC(=O)[O-]
REMARK SMILES IDX 7 1 8 2 9 3 10 4 11 5 12 6 13 7 14 8 6 9 5 10 4 11 3 12 2 13
REMARK SMILES IDX 1 14
REMARK H PARENT
REMARK Flexibility Score: inf
ROOT
ATOM      1  C   UNL     1     -26.586  10.286  -6.118  1.00  0.00     0.000 C 
ENDROOT
BRANCH   1   2
ATOM      2  C   UNL     1     -25.335  11.123  -5.793  1.00  0.00     0.000 C 
BRANCH   2   3
ATOM      3  C   UNL     1     -24.905  11.111  -4.312  1.00  0.00     0.000 C 
BRANCH   3   4
ATOM      4  C   UNL     1     -23.663  10.252  -3.998  1.00  0.00     0.006 C 
BRANCH   4   5
ATOM      5  C   UNL     1     -23.915   8.737  -4.020  1.00  0.00     0.053 C 
BRANCH   5   6
ATOM      6  C   UNL     1     -22.794   7.995  -4.680  1.00  0.00     0.041 C 
ATOM      7  O   UNL     1     -21.622   8.453  -4.648  1.00  0.00    -0.550 OA
ATOM      8  O   UNL     1     -23.051   6.811  -5.360  1.00  0.00    -0.550 OA
ENDBRANCH   5   6
ENDBRANCH   4   5
ENDBRANCH   3   4
ENDBRANCH   2   3
ENDBRANCH   1   2
BRANCH   1   9
ATOM      9  C   UNL     1     -27.169   9.576  -4.883  1.00  0.00     0.000 C 
BRANCH   9  10
ATOM     10  C   UNL     1     -28.000   8.331  -5.261  1.00  0.00    -0.000 C 
BRANCH  10  11
ATOM     11  C   UNL     1     -29.402   8.303  -4.628  1.00  0.00    -0.000 C 
BRANCH  11  12
ATOM     12  C   UNL     1     -30.492   7.844  -5.609  1.00  0.00    -0.000 C 
BRANCH  12  13
ATOM     13  C   UNL     1     -30.582   8.742  -6.853  1.00  0.00    -0.003 C 
ATOM     14  C   UNL     1     -31.866   8.520  -7.651  1.00  0.00     0.004 C 
ENDBRANCH  12  13
ENDBRANCH  11  12
ENDBRANCH  10  11
ENDBRANCH   9  10
ENDBRANCH   1   9
TORSDOF 10
ENDMDL
MODEL 4
REMARK VINA RESULT:    -3.100      3.894      6.885
REMARK INTER + INTRA:          -5.517
REMARK INTER:                  -5.030
REMARK INTRA:                  -0.487
REMARK UNBOUND:                -0.604
REMARK SMILES CCCCCCCCCCCC(=O)[O-]
REMARK SMILES IDX 7 1 8 2 9 3 10 4 11 5 12 6 13 7 14 8 6 9 5 10 4 11 3 12 2 13
REMARK SMILES IDX 1 14
REMARK H PARENT
REMARK Flexibility Score: inf
ROOT
ATOM      1  C   UNL     1     -27.076   9.528  -4.650  1.00  0.00     0.000 C 
ENDROOT
BRANCH   1   2
ATOM      2  C   UNL     1     -27.957   8.451  -5.309  1.00  0.00     0.000 C 
BRANCH   2   3
ATOM      3  C   UNL     1     -29.339   8.244  -4.657  1.00  0.00     0.000 C 
BRANCH   3   4
ATOM      4  C   UNL     1     -30.472   7.861  -5.629  1.00  0.00     0.006 C 
BRANCH   4   5
ATOM      5  C   UNL     1     -30.521   8.704  -6.913  1.00  0.00     0.053 C 
BRANCH   5   6
ATOM      6  C   UNL     1     -31.909   8.796  -7.468  1.00  0.00     0.041 C 
ATOM      7  O   UNL     1     -32.601   9.832  -7.282  1.00  0.00    -0.550 OA
ATOM      8  O   UNL     1     -32.452   7.723  -8.163  1.00  0.00    -0.550 OA
ENDBRANCH   5   6
ENDBRANCH   4   5
ENDBRANCH   3   4
ENDBRANCH   2   3
ENDBRANCH   1   2
BRANCH   1   9
ATOM      9  C   UNL     1     -26.175  10.263  -5.658  1.00  0.00     0.000 C 
BRANCH   9  10
ATOM     10  C   UNL     1     -24.697  10.289  -5.212  1.00  0.00    -0.000 C 
BRANCH  10  11
ATOM     11  C   UNL     1     -24.410   9.448  -3.956  1.00  0.00    -0.000 C 
BRANCH  11  12
ATOM     12  C   UNL     1     -23.746   8.100  -4.278  1.00  0.00    -0.000 C 
BRANCH  12  13
ATOM     13  C   UNL     1     -22.390   8.263  -4.981  1.00  0.00    -0.003 C 
ATOM     14  C   UNL     1     -21.884   6.961  -5.600  1.00  0.00     0.004 C 
ENDBRANCH  12  13
ENDBRANCH  11  12
ENDBRANCH  10  11
ENDBRANCH   9  10
ENDBRANCH   1   9
TORSDOF 10
ENDMDL
MODEL 5
REMARK VINA RESULT:    -3.099      4.410      7.856
REMARK INTER + INTRA:          -5.515
REMARK INTER:                  -5.037
REMARK INTRA:                  -0.477
REMARK UNBOUND:                -0.604
REMARK SMILES CCCCCCCCCCCC(=O)[O-]
REMARK SMILES IDX 7 1 8 2 9 3 10 4 11 5 12 6 13 7 14 8 6 9 5 10 4 11 3 12 2 13
REMARK SMILES IDX 1 14
REMARK H PARENT
REMARK Flexibility Score: inf
ROOT
ATOM      1  C   UNL     1     -29.282   8.003  -5.418  1.00  0.00     0.000 C 
ENDROOT
BRANCH   1   2
ATOM      2  C   UNL     1     -30.757   7.955  -5.856  1.00  0.00     0.000 C 
BRANCH   2   3
ATOM      3  C   UNL     1     -31.048   8.558  -7.245  1.00  0.00     0.000 C 
BRANCH   3   4
ATOM      4  C   UNL     1     -32.543   8.729  -7.585  1.00  0.00     0.006 C 
BRANCH   4   5
ATOM      5  C   UNL     1     -32.977   8.058  -8.897  1.00  0.00     0.053 C 
BRANCH   5   6
ATOM      6  C   UNL     1     -33.627   6.730  -8.656  1.00  0.00     0.041 C 
ATOM      7  O   UNL     1     -33.735   6.279  -7.486  1.00  0.00    -0.550 OA
ATOM      8  O   UNL     1     -34.086   5.976  -9.729  1.00  0.00    -0.550 OA
ENDBRANCH   5   6
ENDBRANCH   4   5
ENDBRANCH   3   4
ENDBRANCH   2   3
ENDBRANCH   1   2
BRANCH   1   9
ATOM      9  C   UNL     1     -29.068   8.812  -4.126  1.00  0.00     0.000 C 
BRANCH   9  10
ATOM     10  C   UNL     1     -27.726   9.578  -4.129  1.00  0.00    -0.000 C 
BRANCH  10  11
ATOM     11  C   UNL     1     -26.793   9.194  -5.291  1.00  0.00    -0.000 C 
BRANCH  11  12
ATOM     12  C   UNL     1     -26.375  10.400  -6.145  1.00  0.00    -0.000 C 
BRANCH  12  13
ATOM     13  C   UNL     1     -25.128  11.109  -5.594  1.00  0.00    -0.003 C 
ATOM     14  C   UNL     1     -24.218  10.174  -4.800  1.00  0.00     0.004 C 
ENDBRANCH  12  13
ENDBRANCH  11  12
ENDBRANCH  10  11
ENDBRANCH   9  10
ENDBRANCH   1   9
TORSDOF 10
ENDMDL
MODEL 6
REMARK VINA RESULT:    -3.092      4.228      7.511
REMARK INTER + INTRA:          -5.505
REMARK INTER:                  -4.931
REMARK INTRA:                  -0.574
REMARK UNBOUND:                -0.604
REMARK SMILES CCCCCCCCCCCC(=O)[O-]
REMARK SMILES IDX 7 1 8 2 9 3 10 4 11 5 12 6 13 7 14 8 6 9 5 10 4 11 3 12 2 13
REMARK SMILES IDX 1 14
REMARK H PARENT
REMARK Flexibility Score: inf
ROOT
ATOM      1  C   UNL     1     -28.406   8.122  -5.152  1.00  0.00     0.000 C 
ENDROOT
BRANCH   1   2
ATOM      2  C   UNL     1     -29.906   8.466  -5.122  1.00  0.00     0.000 C 
BRANCH   2   3
ATOM      3  C   UNL     1     -30.746   7.837  -6.252  1.00  0.00     0.000 C 
BRANCH   3   4
ATOM      4  C   UNL     1     -31.209   8.818  -7.348  1.00  0.00     0.006 C 
BRANCH   4   5
ATOM      5  C   UNL     1     -32.716   8.773  -7.647  1.00  0.00     0.053 C 
BRANCH   5   6
ATOM      6  C   UNL     1     -33.116   7.487  -8.301  1.00  0.00     0.041 C 
ATOM      7  O   UNL     1     -32.945   7.323  -9.537  1.00  0.00    -0.550 OA
ATOM      8  O   UNL     1     -33.710   6.480  -7.549  1.00  0.00    -0.550 OA
ENDBRANCH   5   6
ENDBRANCH   4   5
ENDBRANCH   3   4
ENDBRANCH   2   3
ENDBRANCH   1   2
BRANCH   1   9
ATOM      9  C   UNL     1     -27.507   9.337  -4.863  1.00  0.00     0.000 C 
BRANCH   9  10
ATOM     10  C   UNL     1     -26.844   9.893  -6.142  1.00  0.00    -0.000 C 
BRANCH  10  11
ATOM     11  C   UNL     1     -25.586  10.738  -5.874  1.00  0.00    -0.000 C 
BRANCH  11  12
ATOM     12  C   UNL     1     -25.259  10.864  -4.377  1.00  0.00    -0.000 C 
BRANCH  12  13
ATOM     13  C   UNL     1     -23.873  10.302  -4.027  1.00  0.00    -0.003 C 
ATOM     14  C   UNL     1     -23.742   8.812  -4.341  1.00  0.00     0.004 C 
ENDBRANCH  12  13
ENDBRANCH  11  12
ENDBRANCH  10  11
ENDBRANCH   9  10
ENDBRANCH   1   9
TORSDOF 10
ENDMDL
MODEL 7
REMARK VINA RESULT:    -2.961      1.629      3.246
REMARK INTER + INTRA:          -5.296
REMARK INTER:                  -4.835
REMARK INTRA:                  -0.461
REMARK UNBOUND:                -0.604
REMARK SMILES CCCCCCCCCCCC(=O)[O-]
REMARK SMILES IDX 7 1 8 2 9 3 10 4 11 5 12 6 13 7 14 8 6 9 5 10 4 11 3 12 2 13
REMARK SMILES IDX 1 14
REMARK H PARENT
REMARK Flexibility Score: inf
ROOT
ATOM      1  C   UNL     1     -28.085   8.477  -5.351  1.00  0.00     0.000 C 
ENDROOT
BRANCH   1   2
ATOM      2  C   UNL     1     -27.141   9.398  -4.558  1.00  0.00     0.000 C 
BRANCH   2   3
ATOM      3  C   UNL     1     -26.432  10.485  -5.391  1.00  0.00     0.000 C 
BRANCH   3   4
ATOM      4  C   UNL     1     -24.893  10.485  -5.295  1.00  0.00     0.006 C 
BRANCH   4   5
ATOM      5  C   UNL     1     -24.333   9.767  -4.058  1.00  0.00     0.053 C 
BRANCH   5   6
ATOM      6  C   UNL     1     -23.492   8.586  -4.432  1.00  0.00     0.041 C 
ATOM      7  O   UNL     1     -24.027   7.550  -4.905  1.00  0.00    -0.550 OA
ATOM      8  O   UNL     1     -22.118   8.618  -4.226  1.00  0.00    -0.550 OA
ENDBRANCH   5   6
ENDBRANCH   4   5
ENDBRANCH   3   4
ENDBRANCH   2   3
ENDBRANCH   1   2
BRANCH   1   9
ATOM      9  C   UNL     1     -29.520   8.468  -4.795  1.00  0.00     0.000 C 
BRANCH   9  10
ATOM     10  C   UNL     1     -30.519   7.791  -5.758  1.00  0.00    -0.000 C 
BRANCH  10  11
ATOM     11  C   UNL     1     -30.729   8.558  -7.076  1.00  0.00    -0.000 C 
BRANCH  11  12
ATOM     12  C   UNL     1     -32.186   9.000  -7.284  1.00  0.00    -0.000 C 
BRANCH  12  13
ATOM     13  C   UNL     1     -32.828   8.352  -8.521  1.00  0.00    -0.003 C 
ATOM     14  C   UNL     1     -33.501   7.016  -8.207  1.00  0.00     0.004 C 
ENDBRANCH  12  13
ENDBRANCH  11  12
ENDBRANCH  10  11
ENDBRANCH   9  10
ENDBRANCH   1   9
TORSDOF 10
ENDMDL
MODEL 8
REMARK VINA RESULT:    -2.851      2.734      5.171
REMARK INTER + INTRA:          -5.122
REMARK INTER:                  -4.669
REMARK INTRA:                  -0.453
REMARK UNBOUND:                -0.604
REMARK SMILES CCCCCCCCCCCC(=O)[O-]
REMARK SMILES IDX 7 1 8 2 9 3 10 4 11 5 12 6 13 7 14 8 6 9 5 10 4 11 3 12 2 13
REMARK SMILES IDX 1 14
REMARK H PARENT
REMARK Flexibility Score: inf
ROOT
ATOM      1  C   UNL     1     -30.631   7.825  -5.767  1.00  0.00     0.000 C 
ENDROOT
BRANCH   1   2
ATOM      2  C   UNL     1     -29.383   8.127  -4.918  1.00  0.00     0.000 C 
BRANCH   2   3
ATOM      3  C   UNL     1     -28.182   8.700  -5.698  1.00  0.00     0.000 C 
BRANCH   3   4
ATOM      4  C   UNL     1     -26.812   8.526  -5.013  1.00  0.00     0.006 C 
BRANCH   4   5
ATOM      5  C   UNL     1     -26.332   9.757  -4.229  1.00  0.00     0.053 C 
BRANCH   5   6
ATOM      6  C   UNL     1     -25.111  10.369  -4.843  1.00  0.00     0.041 C 
ATOM      7  O   UNL     1     -24.019  10.374  -4.215  1.00  0.00    -0.550 OA
ATOM      8  O   UNL     1     -25.186  10.962  -6.096  1.00  0.00    -0.550 OA
ENDBRANCH   5   6
ENDBRANCH   4   5
ENDBRANCH   3   4
ENDBRANCH   2   3
ENDBRANCH   1   2
BRANCH   1   9
ATOM      9  C   UNL     1     -30.749   8.734  -7.003  1.00  0.00     0.000 C 
BRANCH   9  10
ATOM     10  C   UNL     1     -32.208   9.152  -7.287  1.00  0.00    -0.000 C 
BRANCH  10  11
ATOM     11  C   UNL     1     -32.787   8.552  -8.580  1.00  0.00    -0.000 C 
BRANCH  11  12
ATOM     12  C   UNL     1     -34.125   7.830  -8.357  1.00  0.00    -0.000 C 
BRANCH  12  13
ATOM     13  C   UNL     1     -34.071   6.350  -8.766  1.00  0.00    -0.003 C 
ATOM     14  C   UNL     1     -34.119   5.403  -7.567  1.00  0.00     0.004 C 
ENDBRANCH  12  13
ENDBRANCH  11  12
ENDBRANCH  10  11
ENDBRANCH   9  10
ENDBRANCH   1   9
TORSDOF 10
ENDMDL
MODEL 9
REMARK VINA RESULT:    -1.564      3.116      6.013
REMARK INTER + INTRA:          -3.082
REMARK INTER:                  -2.559
REMARK INTRA:                  -0.523
REMARK UNBOUND:                -0.604
REMARK SMILES CCCCCCCCCCCC(=O)[O-]
REMARK SMILES IDX 7 1 8 2 9 3 10 4 11 5 12 6 13 7 14 8 6 9 5 10 4 11 3 12 2 13
REMARK SMILES IDX 1 14
REMARK H PARENT
REMARK Flexibility Score: inf
ROOT
ATOM      1  C   UNL     1     -31.377   7.788  -6.702  1.00  0.00     0.000 C 
ENDROOT
BRANCH   1   2
ATOM      2  C   UNL     1     -30.374   8.758  -6.052  1.00  0.00     0.000 C 
BRANCH   2   3
ATOM      3  C   UNL     1     -29.436   8.127  -5.003  1.00  0.00     0.000 C 
BRANCH   3   4
ATOM      4  C   UNL     1     -28.850   9.111  -3.971  1.00  0.00     0.006 C 
BRANCH   4   5
ATOM      5  C   UNL     1     -27.315   9.132  -3.913  1.00  0.00     0.053 C 
BRANCH   5   6
ATOM      6  C   UNL     1     -26.703   8.958  -5.269  1.00  0.00     0.041 C 
ATOM      7  O   UNL     1     -26.022   7.932  -5.531  1.00  0.00    -0.550 OA
ATOM      8  O   UNL     1     -26.858   9.945  -6.234  1.00  0.00    -0.550 OA
ENDBRANCH   5   6
ENDBRANCH   4   5
ENDBRANCH   3   4
ENDBRANCH   2   3
ENDBRANCH   1   2
BRANCH   1   9
ATOM      9  C   UNL     1     -31.922   8.301  -8.046  1.00  0.00     0.000 C 
BRANCH   9  10
ATOM     10  C   UNL     1     -33.464   8.240  -8.116  1.00  0.00    -0.000 C 
BRANCH  10  11
ATOM     11  C   UNL     1     -34.060   6.929  -7.576  1.00  0.00    -0.000 C 
BRANCH  11  12
ATOM     12  C   UNL     1     -33.773   5.723  -8.484  1.00  0.00    -0.000 C 
BRANCH  12  13
ATOM     13  C   UNL     1     -34.125   5.995  -9.955  1.00  0.00    -0.003 C 
ATOM     14  C   UNL     1     -32.904   5.951 -10.873  1.00  0.00     0.004 C 
ENDBRANCH  12  13
ENDBRANCH  11  12
ENDBRANCH  10  11
ENDBRANCH   9  10
ENDBRANCH   1   9
TORSDOF 10
ENDMDL
