MODEL 1
REMARK VINA RESULT:    -4.881      0.000      0.000
REMARK INTER + INTRA:         -13.469
REMARK INTER:                 -10.589
REMARK INTRA:                  -2.881
REMARK UNBOUND:                -2.881
REMARK SMILES CCCCCCCCCCCCCCCCCCCCCC(=O)[O-]
REMARK SMILES IDX 12 1 11 2 10 3 9 4 8 5 7 6 6 7 5 8 4 9 3 10 2 11 1 12 13 13
REMARK SMILES IDX 14 14 15 15 16 16 17 17 18 18 19 19 20 20 21 21 22 22 23 23
REMARK SMILES IDX 24 24
REMARK H PARENT
REMARK Flexibility Score: inf
ROOT
ATOM      1  C   UNL     1      32.400  29.137  14.398  1.00  0.00     0.000 C 
ENDROOT
BRANCH   1   2
ATOM      2  C   UNL     1      31.676  29.494  13.091  1.00  0.00     0.000 C 
BRANCH   2   3
ATOM      3  C   UNL     1      31.289  28.231  12.313  1.00  0.00     0.000 C 
BRANCH   3   4
ATOM      4  C   UNL     1      32.094  27.016  12.803  1.00  0.00    -0.000 C 
BRANCH   4   5
ATOM      5  C   UNL     1      33.171  26.575  11.799  1.00  0.00    -0.000 C 
BRANCH   5   6
ATOM      6  C   UNL     1      34.431  27.457  11.861  1.00  0.00    -0.000 C 
BRANCH   6   7
ATOM      7  C   UNL     1      34.514  28.462  10.697  1.00  0.00    -0.000 C 
BRANCH   7   8
ATOM      8  C   UNL     1      33.753  28.050   9.420  1.00  0.00    -0.000 C 
BRANCH   8   9
ATOM      9  C   UNL     1      33.019  29.198   8.698  1.00  0.00    -0.000 C 
BRANCH   9  10
ATOM     10  C   UNL     1      32.936  30.518   9.491  1.00  0.00    -0.000 C 
BRANCH  10  11
ATOM     11  C   UNL     1      33.653  31.712   8.836  1.00  0.00    -0.003 C 
ATOM     12  C   UNL     1      32.831  33.001   8.883  1.00  0.00     0.004 C 
ENDBRANCH  10  11
ENDBRANCH   9  10
ENDBRANCH   8   9
ENDBRANCH   7   8
ENDBRANCH   6   7
ENDBRANCH   5   6
ENDBRANCH   4   5
ENDBRANCH   3   4
ENDBRANCH   2   3
ENDBRANCH   1   2
BRANCH   1  13
ATOM     13  C   UNL     1      32.441  30.311  15.390  1.00  0.00     0.000 C 
BRANCH  13  14
ATOM     14  C   UNL     1      32.108  31.656  14.727  1.00  0.00     0.000 C 
BRANCH  14  15
ATOM     15  C   UNL     1      31.001  32.389  15.499  1.00  0.00     0.000 C 
BRANCH  15  16
ATOM     16  C   UNL     1      30.309  31.496  16.545  1.00  0.00     0.000 C 
BRANCH  16  17
ATOM     17  C   UNL     1      29.192  30.580  15.999  1.00  0.00     0.000 C 
BRANCH  17  18
ATOM     18  C   UNL     1      28.547  31.040  14.677  1.00  0.00     0.000 C 
BRANCH  18  19
ATOM     19  C   UNL     1      28.063  29.880  13.775  1.00  0.00     0.000 C 
BRANCH  19  20
ATOM     20  C   UNL     1      28.334  28.486  14.372  1.00  0.00     0.006 C 
BRANCH  20  21
ATOM     21  C   UNL     1      27.835  27.327  13.495  1.00  0.00     0.053 C 
BRANCH  21  22
ATOM     22  C   UNL     1      26.917  27.798  12.408  1.00  0.00     0.041 C 
ATOM     23  O   UNL     1      27.367  28.033  11.254  1.00  0.00    -0.550 OA
ATOM     24  O   UNL     1      25.565  27.980  12.667  1.00  0.00    -0.550 OA
ENDBRANCH  21  22
ENDBRANCH  20  21
ENDBRANCH  19  20
ENDBRANCH  18  19
ENDBRANCH  17  18
ENDBRANCH  16  17
ENDBRANCH  15  16
ENDBRANCH  14  15
ENDBRANCH  13  14
ENDBRANCH   1  13
TORSDOF 20
ENDMDL
MODEL 2
REMARK VINA RESULT:    -4.871      2.657      4.444
REMARK INTER + INTRA:         -13.447
REMARK INTER:                  -9.955
REMARK INTRA:                  -3.492
REMARK UNBOUND:                -2.881
REMARK SMILES CCCCCCCCCCCCCCCCCCCCCC(=O)[O-]
REMARK SMILES IDX 12 1 11 2 10 3 9 4 8 5 7 6 6 7 5 8 4 9 3 10 2 11 1 12 13 13
REMARK SMILES IDX 14 14 15 15 16 16 17 17 18 18 19 19 20 20 21 21 22 22 23 23
REMARK SMILES IDX 24 24
REMARK H PARENT
REMARK Flexibility Score: inf
ROOT
ATOM      1  C   UNL     1      32.106  31.399  14.681  1.00  0.00     0.000 C 
ENDROOT
BRANCH   1   2
ATOM      2  C   UNL     1      32.504  30.112  15.420  1.00  0.00     0.000 C 
BRANCH   2   3
ATOM      3  C   UNL     1      32.339  28.884  14.516  1.00  0.00     0.000 C 
BRANCH   3   4
ATOM      4  C   UNL     1      31.784  29.286  13.141  1.00  0.00    -0.000 C 
BRANCH   4   5
ATOM      5  C   UNL     1      32.594  28.691  11.977  1.00  0.00    -0.000 C 
BRANCH   5   6
ATOM      6  C   UNL     1      33.764  27.816  12.461  1.00  0.00    -0.000 C 
BRANCH   6   7
ATOM      7  C   UNL     1      33.830  26.456  11.741  1.00  0.00    -0.000 C 
BRANCH   7   8
ATOM      8  C   UNL     1      32.467  25.777  11.496  1.00  0.00    -0.000 C 
BRANCH   8   9
ATOM      9  C   UNL     1      31.990  24.843  12.625  1.00  0.00    -0.000 C 
BRANCH   9  10
ATOM     10  C   UNL     1      31.065  25.502  13.668  1.00  0.00    -0.000 C 
BRANCH  10  11
ATOM     11  C   UNL     1      31.475  25.271  15.134  1.00  0.00    -0.003 C 
ATOM     12  C   UNL     1      32.989  25.331  15.346  1.00  0.00     0.004 C 
ENDBRANCH  10  11
ENDBRANCH   9  10
ENDBRANCH   8   9
ENDBRANCH   7   8
ENDBRANCH   6   7
ENDBRANCH   5   6
ENDBRANCH   4   5
ENDBRANCH   3   4
ENDBRANCH   2   3
ENDBRANCH   1   2
BRANCH   1  13
ATOM     13  C   UNL     1      31.022  32.196  15.423  1.00  0.00     0.000 C 
BRANCH  13  14
ATOM     14  C   UNL     1      30.358  31.384  16.546  1.00  0.00     0.000 C 
BRANCH  14  15
ATOM     15  C   UNL     1      29.118  30.643  16.026  1.00  0.00     0.000 C 
BRANCH  15  16
ATOM     16  C   UNL     1      28.655  31.145  14.646  1.00  0.00     0.000 C 
BRANCH  16  17
ATOM     17  C   UNL     1      28.262  30.043  13.638  1.00  0.00     0.000 C 
BRANCH  17  18
ATOM     18  C   UNL     1      28.354  28.599  14.168  1.00  0.00     0.000 C 
BRANCH  18  19
ATOM     19  C   UNL     1      27.149  27.709  13.782  1.00  0.00     0.000 C 
BRANCH  19  20
ATOM     20  C   UNL     1      27.100  26.375  14.551  1.00  0.00     0.006 C 
BRANCH  20  21
ATOM     21  C   UNL     1      28.116  26.285  15.701  1.00  0.00     0.053 C 
BRANCH  21  22
ATOM     22  C   UNL     1      27.802  25.162  16.643  1.00  0.00     0.041 C 
ATOM     23  O   UNL     1      28.314  24.023  16.466  1.00  0.00    -0.550 OA
ATOM     24  O   UNL     1      26.943  25.369  17.714  1.00  0.00    -0.550 OA
ENDBRANCH  21  22
ENDBRANCH  20  21
ENDBRANCH  19  20
ENDBRANCH  18  19
ENDBRANCH  17  18
ENDBRANCH  16  17
ENDBRANCH  15  16
ENDBRANCH  14  15
ENDBRANCH  13  14
ENDBRANCH   1  13
TORSDOF 20
ENDMDL
MODEL 3
REMARK VINA RESULT:    -4.822      2.656      6.421
REMARK INTER + INTRA:         -13.341
REMARK INTER:                  -9.941
REMARK INTRA:                  -3.400
REMARK UNBOUND:                -2.881
REMARK SMILES CCCCCCCCCCCCCCCCCCCCCC(=O)[O-]
REMARK SMILES IDX 12 1 11 2 10 3 9 4 8 5 7 6 6 7 5 8 4 9 3 10 2 11 1 12 13 13
REMARK SMILES IDX 14 14 15 15 16 16 17 17 18 18 19 19 20 20 21 21 22 22 23 23
REMARK SMILES IDX 24 24
REMARK H PARENT
REMARK Flexibility Score: inf
ROOT
ATOM      1  C   UNL     1      29.927  31.843  15.001  1.00  0.00     0.000 C 
ENDROOT
BRANCH   1   2
ATOM      2  C   UNL     1      28.684  30.943  14.932  1.00  0.00     0.000 C 
BRANCH   2   3
ATOM      3  C   UNL     1      28.577  30.255  13.566  1.00  0.00     0.000 C 
BRANCH   3   4
ATOM      4  C   UNL     1      28.254  28.761  13.727  1.00  0.00    -0.000 C 
BRANCH   4   5
ATOM      5  C   UNL     1      29.093  28.087  14.825  1.00  0.00    -0.000 C 
BRANCH   5   6
ATOM      6  C   UNL     1      29.579  26.685  14.418  1.00  0.00    -0.000 C 
BRANCH   6   7
ATOM      7  C   UNL     1      29.183  25.598  15.435  1.00  0.00    -0.000 C 
BRANCH   7   8
ATOM      8  C   UNL     1      27.707  25.625  15.882  1.00  0.00    -0.000 C 
BRANCH   8   9
ATOM      9  C   UNL     1      26.699  25.109  14.837  1.00  0.00    -0.000 C 
BRANCH   9  10
ATOM     10  C   UNL     1      25.732  26.175  14.283  1.00  0.00    -0.000 C 
BRANCH  10  11
ATOM     11  C   UNL     1      25.706  26.289  12.748  1.00  0.00    -0.003 C 
ATOM     12  C   UNL     1      24.304  26.540  12.192  1.00  0.00     0.004 C 
ENDBRANCH  10  11
ENDBRANCH   9  10
ENDBRANCH   8   9
ENDBRANCH   7   8
ENDBRANCH   6   7
ENDBRANCH   5   6
ENDBRANCH   4   5
ENDBRANCH   3   4
ENDBRANCH   2   3
ENDBRANCH   1   2
BRANCH   1  13
ATOM     13  C   UNL     1      30.630  31.777  16.367  1.00  0.00     0.000 C 
BRANCH  13  14
ATOM     14  C   UNL     1      31.459  30.495  16.542  1.00  0.00     0.000 C 
BRANCH  14  15
ATOM     15  C   UNL     1      32.349  30.247  15.317  1.00  0.00     0.000 C 
BRANCH  15  16
ATOM     16  C   UNL     1      32.759  28.772  15.163  1.00  0.00     0.000 C 
BRANCH  16  17
ATOM     17  C   UNL     1      32.878  28.266  13.708  1.00  0.00     0.000 C 
BRANCH  17  18
ATOM     18  C   UNL     1      32.011  29.012  12.676  1.00  0.00     0.000 C 
BRANCH  18  19
ATOM     19  C   UNL     1      31.436  28.104  11.562  1.00  0.00     0.000 C 
BRANCH  19  20
ATOM     20  C   UNL     1      30.475  28.838  10.609  1.00  0.00     0.006 C 
BRANCH  20  21
ATOM     21  C   UNL     1      30.959  28.880   9.151  1.00  0.00     0.053 C 
BRANCH  21  22
ATOM     22  C   UNL     1      32.360  29.399   9.036  1.00  0.00     0.041 C 
ATOM     23  O   UNL     1      32.632  30.577   9.393  1.00  0.00    -0.550 OA
ATOM     24  O   UNL     1      33.367  28.584   8.535  1.00  0.00    -0.550 OA
ENDBRANCH  21  22
ENDBRANCH  20  21
ENDBRANCH  19  20
ENDBRANCH  18  19
ENDBRANCH  17  18
ENDBRANCH  16  17
ENDBRANCH  15  16
ENDBRANCH  14  15
ENDBRANCH  13  14
ENDBRANCH   1  13
TORSDOF 20
ENDMDL
MODEL 4
REMARK VINA RESULT:    -4.778      3.174      6.771
REMARK INTER + INTRA:         -13.244
REMARK INTER:                 -10.283
REMARK INTRA:                  -2.961
REMARK UNBOUND:                -2.881
REMARK SMILES CCCCCCCCCCCCCCCCCCCCCC(=O)[O-]
REMARK SMILES IDX 12 1 11 2 10 3 9 4 8 5 7 6 6 7 5 8 4 9 3 10 2 11 1 12 13 13
REMARK SMILES IDX 14 14 15 15 16 16 17 17 18 18 19 19 20 20 21 21 22 22 23 23
REMARK SMILES IDX 24 24
REMARK H PARENT
REMARK Flexibility Score: inf
ROOT
ATOM      1  C   UNL     1      28.319  28.810  13.326  1.00  0.00     0.000 C 
ENDROOT
BRANCH   1   2
ATOM      2  C   UNL     1      28.746  28.025  14.575  1.00  0.00     0.000 C 
BRANCH   2   3
ATOM      3  C   UNL     1      29.415  26.700  14.191  1.00  0.00     0.000 C 
BRANCH   3   4
ATOM      4  C   UNL     1      29.306  25.678  15.334  1.00  0.00    -0.000 C 
BRANCH   4   5
ATOM      5  C   UNL     1      27.941  25.719  16.039  1.00  0.00    -0.000 C 
BRANCH   5   6
ATOM      6  C   UNL     1      27.094  24.466  15.755  1.00  0.00    -0.000 C 
BRANCH   6   7
ATOM      7  C   UNL     1      26.319  24.558  14.426  1.00  0.00    -0.000 C 
BRANCH   7   8
ATOM      8  C   UNL     1      25.725  25.946  14.108  1.00  0.00    -0.000 C 
BRANCH   8   9
ATOM      9  C   UNL     1      25.538  26.248  12.609  1.00  0.00    -0.000 C 
BRANCH   9  10
ATOM     10  C   UNL     1      24.542  27.382  12.292  1.00  0.00    -0.000 C 
BRANCH  10  11
ATOM     11  C   UNL     1      23.485  27.037  11.227  1.00  0.00    -0.003 C 
ATOM     12  C   UNL     1      22.419  28.122  11.071  1.00  0.00     0.004 C 
ENDBRANCH  10  11
ENDBRANCH   9  10
ENDBRANCH   8   9
ENDBRANCH   7   8
ENDBRANCH   6   7
ENDBRANCH   5   6
ENDBRANCH   4   5
ENDBRANCH   3   4
ENDBRANCH   2   3
ENDBRANCH   1   2
BRANCH   1  13
ATOM     13  C   UNL     1      28.299  30.330  13.561  1.00  0.00     0.000 C 
BRANCH  13  14
ATOM     14  C   UNL     1      28.776  30.714  14.970  1.00  0.00     0.000 C 
BRANCH  14  15
ATOM     15  C   UNL     1      29.755  31.896  14.913  1.00  0.00     0.000 C 
BRANCH  15  16
ATOM     16  C   UNL     1      30.717  31.936  16.114  1.00  0.00     0.000 C 
BRANCH  16  17
ATOM     17  C   UNL     1      31.401  30.595  16.459  1.00  0.00     0.000 C 
BRANCH  17  18
ATOM     18  C   UNL     1      32.527  30.161  15.502  1.00  0.00     0.000 C 
BRANCH  18  19
ATOM     19  C   UNL     1      32.176  28.927  14.635  1.00  0.00     0.000 C 
BRANCH  19  20
ATOM     20  C   UNL     1      32.022  29.255  13.138  1.00  0.00     0.006 C 
BRANCH  20  21
ATOM     21  C   UNL     1      32.396  28.092  12.206  1.00  0.00     0.053 C 
BRANCH  21  22
ATOM     22  C   UNL     1      33.874  28.009  11.973  1.00  0.00     0.041 C 
ATOM     23  O   UNL     1      34.404  28.644  11.022  1.00  0.00    -0.550 OA
ATOM     24  O   UNL     1      34.668  27.230  12.804  1.00  0.00    -0.550 OA
ENDBRANCH  21  22
ENDBRANCH  20  21
ENDBRANCH  19  20
ENDBRANCH  18  19
ENDBRANCH  17  18
ENDBRANCH  16  17
ENDBRANCH  15  16
ENDBRANCH  14  15
ENDBRANCH  13  14
ENDBRANCH   1  13
TORSDOF 20
ENDMDL
MODEL 5
REMARK VINA RESULT:    -4.760      1.582      4.070
REMARK INTER + INTRA:         -13.206
REMARK INTER:                  -9.962
REMARK INTRA:                  -3.244
REMARK UNBOUND:                -2.881
REMARK SMILES CCCCCCCCCCCCCCCCCCCCCC(=O)[O-]
REMARK SMILES IDX 12 1 11 2 10 3 9 4 8 5 7 6 6 7 5 8 4 9 3 10 2 11 1 12 13 13
REMARK SMILES IDX 14 14 15 15 16 16 17 17 18 18 19 19 20 20 21 21 22 22 23 23
REMARK SMILES IDX 24 24
REMARK H PARENT
REMARK Flexibility Score: inf
ROOT
ATOM      1  C   UNL     1      28.727  30.992  14.723  1.00  0.00     0.000 C 
ENDROOT
BRANCH   1   2
ATOM      2  C   UNL     1      29.455  30.814  16.065  1.00  0.00     0.000 C 
BRANCH   2   3
ATOM      3  C   UNL     1      30.595  31.829  16.211  1.00  0.00     0.000 C 
BRANCH   3   4
ATOM      4  C   UNL     1      31.710  31.552  15.190  1.00  0.00    -0.000 C 
BRANCH   4   5
ATOM      5  C   UNL     1      32.491  30.265  15.499  1.00  0.00    -0.000 C 
BRANCH   5   6
ATOM      6  C   UNL     1      32.526  29.296  14.303  1.00  0.00    -0.000 C 
BRANCH   6   7
ATOM      7  C   UNL     1      33.398  28.054  14.566  1.00  0.00    -0.000 C 
BRANCH   7   8
ATOM      8  C   UNL     1      33.490  27.057  13.394  1.00  0.00    -0.000 C 
BRANCH   8   9
ATOM      9  C   UNL     1      33.943  27.666  12.052  1.00  0.00    -0.000 C 
BRANCH   9  10
ATOM     10  C   UNL     1      32.823  27.846  11.008  1.00  0.00    -0.000 C 
BRANCH  10  11
ATOM     11  C   UNL     1      32.462  29.309  10.693  1.00  0.00    -0.003 C 
ATOM     12  C   UNL     1      31.893  29.494   9.285  1.00  0.00     0.004 C 
ENDBRANCH  10  11
ENDBRANCH   9  10
ENDBRANCH   8   9
ENDBRANCH   7   8
ENDBRANCH   6   7
ENDBRANCH   5   6
ENDBRANCH   4   5
ENDBRANCH   3   4
ENDBRANCH   2   3
ENDBRANCH   1   2
BRANCH   1  13
ATOM     13  C   UNL     1      28.249  29.657  14.130  1.00  0.00     0.000 C 
BRANCH  13  14
ATOM     14  C   UNL     1      29.122  29.185  12.957  1.00  0.00     0.000 C 
BRANCH  14  15
ATOM     15  C   UNL     1      29.606  27.745  13.179  1.00  0.00     0.000 C 
BRANCH  15  16
ATOM     16  C   UNL     1      29.690  27.365  14.668  1.00  0.00     0.000 C 
BRANCH  16  17
ATOM     17  C   UNL     1      29.331  25.899  14.998  1.00  0.00     0.000 C 
BRANCH  17  18
ATOM     18  C   UNL     1      28.109  25.709  15.918  1.00  0.00     0.000 C 
BRANCH  18  19
ATOM     19  C   UNL     1      26.813  25.316  15.170  1.00  0.00     0.000 C 
BRANCH  19  20
ATOM     20  C   UNL     1      26.129  26.503  14.466  1.00  0.00     0.006 C 
BRANCH  20  21
ATOM     21  C   UNL     1      26.128  26.398  12.932  1.00  0.00     0.053 C 
BRANCH  21  22
ATOM     22  C   UNL     1      25.236  27.423  12.299  1.00  0.00     0.041 C 
ATOM     23  O   UNL     1      25.707  28.532  11.927  1.00  0.00    -0.550 OA
ATOM     24  O   UNL     1      23.885  27.156  12.119  1.00  0.00    -0.550 OA
ENDBRANCH  21  22
ENDBRANCH  20  21
ENDBRANCH  19  20
ENDBRANCH  18  19
ENDBRANCH  17  18
ENDBRANCH  16  17
ENDBRANCH  15  16
ENDBRANCH  14  15
ENDBRANCH  13  14
ENDBRANCH   1  13
TORSDOF 20
ENDMDL
MODEL 6
REMARK VINA RESULT:    -4.755      2.336      6.377
REMARK INTER + INTRA:         -13.195
REMARK INTER:                 -10.085
REMARK INTRA:                  -3.110
REMARK UNBOUND:                -2.881
REMARK SMILES CCCCCCCCCCCCCCCCCCCCCC(=O)[O-]
REMARK SMILES IDX 12 1 11 2 10 3 9 4 8 5 7 6 6 7 5 8 4 9 3 10 2 11 1 12 13 13
REMARK SMILES IDX 14 14 15 15 16 16 17 17 18 18 19 19 20 20 21 21 22 22 23 23
REMARK SMILES IDX 24 24
REMARK H PARENT
REMARK Flexibility Score: inf
ROOT
ATOM      1  C   UNL     1      28.739  31.379  14.623  1.00  0.00     0.000 C 
ENDROOT
BRANCH   1   2
ATOM      2  C   UNL     1      28.082  30.219  13.858  1.00  0.00     0.000 C 
BRANCH   2   3
ATOM      3  C   UNL     1      28.723  28.878  14.235  1.00  0.00     0.000 C 
BRANCH   3   4
ATOM      4  C   UNL     1      29.221  28.136  12.985  1.00  0.00    -0.000 C 
BRANCH   4   5
ATOM      5  C   UNL     1      29.588  26.671  13.270  1.00  0.00    -0.000 C 
BRANCH   5   6
ATOM      6  C   UNL     1      29.712  26.378  14.776  1.00  0.00    -0.000 C 
BRANCH   6   7
ATOM      7  C   UNL     1      28.906  25.140  15.211  1.00  0.00    -0.000 C 
BRANCH   7   8
ATOM      8  C   UNL     1      27.650  25.438  16.055  1.00  0.00    -0.000 C 
BRANCH   8   9
ATOM      9  C   UNL     1      26.500  26.125  15.294  1.00  0.00    -0.000 C 
BRANCH   9  10
ATOM     10  C   UNL     1      26.186  25.524  13.909  1.00  0.00    -0.000 C 
BRANCH  10  11
ATOM     11  C   UNL     1      25.088  26.260  13.118  1.00  0.00    -0.003 C 
ATOM     12  C   UNL     1      25.591  27.540  12.450  1.00  0.00     0.004 C 
ENDBRANCH  10  11
ENDBRANCH   9  10
ENDBRANCH   8   9
ENDBRANCH   7   8
ENDBRANCH   6   7
ENDBRANCH   5   6
ENDBRANCH   4   5
ENDBRANCH   3   4
ENDBRANCH   2   3
ENDBRANCH   1   2
BRANCH   1  13
ATOM     13  C   UNL     1      29.505  30.906  15.869  1.00  0.00     0.000 C 
BRANCH  13  14
ATOM     14  C   UNL     1      30.777  31.728  16.128  1.00  0.00     0.000 C 
BRANCH  14  15
ATOM     15  C   UNL     1      31.911  31.289  15.191  1.00  0.00     0.000 C 
BRANCH  15  16
ATOM     16  C   UNL     1      32.484  29.906  15.551  1.00  0.00     0.000 C 
BRANCH  16  17
ATOM     17  C   UNL     1      32.329  28.822  14.462  1.00  0.00     0.000 C 
BRANCH  17  18
ATOM     18  C   UNL     1      33.584  27.970  14.193  1.00  0.00     0.000 C 
BRANCH  18  19
ATOM     19  C   UNL     1      33.721  27.495  12.727  1.00  0.00     0.000 C 
BRANCH  19  20
ATOM     20  C   UNL     1      32.855  28.300  11.739  1.00  0.00     0.006 C 
BRANCH  20  21
ATOM     21  C   UNL     1      33.659  28.983  10.622  1.00  0.00     0.053 C 
BRANCH  21  22
ATOM     22  C   UNL     1      32.782  29.774   9.700  1.00  0.00     0.041 C 
ATOM     23  O   UNL     1      33.265  30.721   9.022  1.00  0.00    -0.550 OA
ATOM     24  O   UNL     1      31.432  29.470   9.589  1.00  0.00    -0.550 OA
ENDBRANCH  21  22
ENDBRANCH  20  21
ENDBRANCH  19  20
ENDBRANCH  18  19
ENDBRANCH  17  18
ENDBRANCH  16  17
ENDBRANCH  15  16
ENDBRANCH  14  15
ENDBRANCH  13  14
ENDBRANCH   1  13
TORSDOF 20
ENDMDL
MODEL 7
REMARK VINA RESULT:    -4.720      1.611      2.791
REMARK INTER + INTRA:         -13.120
REMARK INTER:                  -9.355
REMARK INTRA:                  -3.765
REMARK UNBOUND:                -2.881
REMARK SMILES CCCCCCCCCCCCCCCCCCCCCC(=O)[O-]
REMARK SMILES IDX 12 1 11 2 10 3 9 4 8 5 7 6 6 7 5 8 4 9 3 10 2 11 1 12 13 13
REMARK SMILES IDX 14 14 15 15 16 16 17 17 18 18 19 19 20 20 21 21 22 22 23 23
REMARK SMILES IDX 24 24
REMARK H PARENT
REMARK Flexibility Score: inf
ROOT
ATOM      1  C   UNL     1      31.957  31.063  15.229  1.00  0.00     0.000 C 
ENDROOT
BRANCH   1   2
ATOM      2  C   UNL     1      32.404  29.690  15.754  1.00  0.00     0.000 C 
BRANCH   2   3
ATOM      3  C   UNL     1      33.015  28.843  14.631  1.00  0.00     0.000 C 
BRANCH   3   4
ATOM      4  C   UNL     1      33.244  27.396  15.097  1.00  0.00    -0.000 C 
BRANCH   4   5
ATOM      5  C   UNL     1      33.862  26.511  14.002  1.00  0.00    -0.000 C 
BRANCH   5   6
ATOM      6  C   UNL     1      32.798  25.856  13.104  1.00  0.00    -0.000 C 
BRANCH   6   7
ATOM      7  C   UNL     1      32.899  26.306  11.634  1.00  0.00    -0.000 C 
BRANCH   7   8
ATOM      8  C   UNL     1      34.171  27.101  11.278  1.00  0.00    -0.000 C 
BRANCH   8   9
ATOM      9  C   UNL     1      33.959  28.613  11.068  1.00  0.00    -0.000 C 
BRANCH   9  10
ATOM     10  C   UNL     1      32.485  29.059  10.991  1.00  0.00    -0.000 C 
BRANCH  10  11
ATOM     11  C   UNL     1      31.905  29.130   9.567  1.00  0.00    -0.003 C 
ATOM     12  C   UNL     1      30.478  28.587   9.477  1.00  0.00     0.004 C 
ENDBRANCH  10  11
ENDBRANCH   9  10
ENDBRANCH   8   9
ENDBRANCH   7   8
ENDBRANCH   6   7
ENDBRANCH   5   6
ENDBRANCH   4   5
ENDBRANCH   3   4
ENDBRANCH   2   3
ENDBRANCH   1   2
BRANCH   1  13
ATOM     13  C   UNL     1      30.884  31.714  16.116  1.00  0.00     0.000 C 
BRANCH  13  14
ATOM     14  C   UNL     1      29.519  31.019  15.997  1.00  0.00     0.000 C 
BRANCH  14  15
ATOM     15  C   UNL     1      28.892  31.278  14.620  1.00  0.00     0.000 C 
BRANCH  15  16
ATOM     16  C   UNL     1      28.302  30.007  13.982  1.00  0.00     0.000 C 
BRANCH  16  17
ATOM     17  C   UNL     1      29.217  29.292  12.963  1.00  0.00     0.000 C 
BRANCH  17  18
ATOM     18  C   UNL     1      29.846  27.973  13.450  1.00  0.00     0.000 C 
BRANCH  18  19
ATOM     19  C   UNL     1      29.330  27.502  14.831  1.00  0.00     0.000 C 
BRANCH  19  20
ATOM     20  C   UNL     1      28.425  26.257  14.755  1.00  0.00     0.006 C 
BRANCH  20  21
ATOM     21  C   UNL     1      26.925  26.582  14.701  1.00  0.00     0.053 C 
BRANCH  21  22
ATOM     22  C   UNL     1      26.433  26.743  13.294  1.00  0.00     0.041 C 
ATOM     23  O   UNL     1      25.619  27.662  13.007  1.00  0.00    -0.550 OA
ATOM     24  O   UNL     1      26.871  25.878  12.299  1.00  0.00    -0.550 OA
ENDBRANCH  21  22
ENDBRANCH  20  21
ENDBRANCH  19  20
ENDBRANCH  18  19
ENDBRANCH  17  18
ENDBRANCH  16  17
ENDBRANCH  15  16
ENDBRANCH  14  15
ENDBRANCH  13  14
ENDBRANCH   1  13
TORSDOF 20
ENDMDL
MODEL 8
REMARK VINA RESULT:    -4.695      2.570      5.977
REMARK INTER + INTRA:         -13.065
REMARK INTER:                  -9.591
REMARK INTRA:                  -3.474
REMARK UNBOUND:                -2.881
REMARK SMILES CCCCCCCCCCCCCCCCCCCCCC(=O)[O-]
REMARK SMILES IDX 12 1 11 2 10 3 9 4 8 5 7 6 6 7 5 8 4 9 3 10 2 11 1 12 13 13
REMARK SMILES IDX 14 14 15 15 16 16 17 17 18 18 19 19 20 20 21 21 22 22 23 23
REMARK SMILES IDX 24 24
REMARK H PARENT
REMARK Flexibility Score: inf
ROOT
ATOM      1  C   UNL     1      28.673  30.970  14.687  1.00  0.00     0.000 C 
ENDROOT
BRANCH   1   2
ATOM      2  C   UNL     1      28.777  29.743  13.768  1.00  0.00     0.000 C 
BRANCH   2   3
ATOM      3  C   UNL     1      28.624  28.442  14.567  1.00  0.00     0.000 C 
BRANCH   3   4
ATOM      4  C   UNL     1      27.429  27.622  14.057  1.00  0.00    -0.000 C 
BRANCH   4   5
ATOM      5  C   UNL     1      27.282  26.274  14.782  1.00  0.00    -0.000 C 
BRANCH   5   6
ATOM      6  C   UNL     1      28.337  26.081  15.886  1.00  0.00    -0.000 C 
BRANCH   6   7
ATOM      7  C   UNL     1      29.310  24.925  15.585  1.00  0.00    -0.000 C 
BRANCH   7   8
ATOM      8  C   UNL     1      30.705  25.355  15.086  1.00  0.00    -0.000 C 
BRANCH   8   9
ATOM      9  C   UNL     1      30.995  25.038  13.606  1.00  0.00    -0.000 C 
BRANCH   9  10
ATOM     10  C   UNL     1      30.560  26.130  12.609  1.00  0.00    -0.000 C 
BRANCH  10  11
ATOM     11  C   UNL     1      29.916  25.602  11.314  1.00  0.00    -0.003 C 
ATOM     12  C   UNL     1      28.508  25.047  11.531  1.00  0.00     0.004 C 
ENDBRANCH  10  11
ENDBRANCH   9  10
ENDBRANCH   8   9
ENDBRANCH   7   8
ENDBRANCH   6   7
ENDBRANCH   5   6
ENDBRANCH   4   5
ENDBRANCH   3   4
ENDBRANCH   2   3
ENDBRANCH   1   2
BRANCH   1  13
ATOM     13  C   UNL     1      29.471  30.800  15.991  1.00  0.00     0.000 C 
BRANCH  13  14
ATOM     14  C   UNL     1      30.648  31.783  16.094  1.00  0.00     0.000 C 
BRANCH  14  15
ATOM     15  C   UNL     1      31.765  31.404  15.110  1.00  0.00     0.000 C 
BRANCH  15  16
ATOM     16  C   UNL     1      32.483  30.098  15.493  1.00  0.00     0.000 C 
BRANCH  16  17
ATOM     17  C   UNL     1      32.296  28.925  14.506  1.00  0.00     0.000 C 
BRANCH  17  18
ATOM     18  C   UNL     1      33.417  27.868  14.514  1.00  0.00     0.000 C 
BRANCH  18  19
ATOM     19  C   UNL     1      34.023  27.582  13.119  1.00  0.00     0.000 C 
BRANCH  19  20
ATOM     20  C   UNL     1      33.317  28.339  11.978  1.00  0.00     0.006 C 
BRANCH  20  21
ATOM     21  C   UNL     1      34.167  28.477  10.706  1.00  0.00     0.053 C 
BRANCH  21  22
ATOM     22  C   UNL     1      33.407  29.125   9.588  1.00  0.00     0.041 C 
ATOM     23  O   UNL     1      33.203  30.369   9.598  1.00  0.00    -0.550 OA
ATOM     24  O   UNL     1      32.922  28.358   8.537  1.00  0.00    -0.550 OA
ENDBRANCH  21  22
ENDBRANCH  20  21
ENDBRANCH  19  20
ENDBRANCH  18  19
ENDBRANCH  17  18
ENDBRANCH  16  17
ENDBRANCH  15  16
ENDBRANCH  14  15
ENDBRANCH  13  14
ENDBRANCH   1  13
TORSDOF 20
ENDMDL
MODEL 9
REMARK VINA RESULT:    -4.674      2.816      6.655
REMARK INTER + INTRA:         -13.020
REMARK INTER:                  -9.777
REMARK INTRA:                  -3.243
REMARK UNBOUND:                -2.881
REMARK SMILES CCCCCCCCCCCCCCCCCCCCCC(=O)[O-]
REMARK SMILES IDX 12 1 11 2 10 3 9 4 8 5 7 6 6 7 5 8 4 9 3 10 2 11 1 12 13 13
REMARK SMILES IDX 14 14 15 15 16 16 17 17 18 18 19 19 20 20 21 21 22 22 23 23
REMARK SMILES IDX 24 24
REMARK H PARENT
REMARK Flexibility Score: inf
ROOT
ATOM      1  C   UNL     1      28.801  30.993  14.797  1.00  0.00     0.000 C 
ENDROOT
BRANCH   1   2
ATOM      2  C   UNL     1      28.593  29.579  14.233  1.00  0.00     0.000 C 
BRANCH   2   3
ATOM      3  C   UNL     1      27.529  29.578  13.128  1.00  0.00     0.000 C 
BRANCH   3   4
ATOM      4  C   UNL     1      28.027  28.821  11.887  1.00  0.00    -0.000 C 
BRANCH   4   5
ATOM      5  C   UNL     1      27.196  27.564  11.585  1.00  0.00    -0.000 C 
BRANCH   5   6
ATOM      6  C   UNL     1      25.683  27.812  11.719  1.00  0.00    -0.000 C 
BRANCH   6   7
ATOM      7  C   UNL     1      24.979  26.753  12.588  1.00  0.00    -0.000 C 
BRANCH   7   8
ATOM      8  C   UNL     1      25.917  25.886  13.453  1.00  0.00    -0.000 C 
BRANCH   8   9
ATOM      9  C   UNL     1      26.186  26.428  14.870  1.00  0.00    -0.000 C 
BRANCH   9  10
ATOM     10  C   UNL     1      27.376  25.775  15.602  1.00  0.00    -0.000 C 
BRANCH  10  11
ATOM     11  C   UNL     1      28.720  25.862  14.858  1.00  0.00    -0.003 C 
ATOM     12  C   UNL     1      29.810  24.994  15.490  1.00  0.00     0.004 C 
ENDBRANCH  10  11
ENDBRANCH   9  10
ENDBRANCH   8   9
ENDBRANCH   7   8
ENDBRANCH   6   7
ENDBRANCH   5   6
ENDBRANCH   4   5
ENDBRANCH   3   4
ENDBRANCH   2   3
ENDBRANCH   1   2
BRANCH   1  13
ATOM     13  C   UNL     1      29.539  30.988  16.146  1.00  0.00     0.000 C 
BRANCH  13  14
ATOM     14  C   UNL     1      30.858  31.774  16.100  1.00  0.00     0.000 C 
BRANCH  14  15
ATOM     15  C   UNL     1      31.859  31.109  15.145  1.00  0.00     0.000 C 
BRANCH  15  16
ATOM     16  C   UNL     1      32.466  29.815  15.719  1.00  0.00     0.000 C 
BRANCH  16  17
ATOM     17  C   UNL     1      32.879  28.757  14.673  1.00  0.00     0.000 C 
BRANCH  17  18
ATOM     18  C   UNL     1      31.757  27.802  14.220  1.00  0.00     0.000 C 
BRANCH  18  19
ATOM     19  C   UNL     1      31.509  27.803  12.692  1.00  0.00     0.000 C 
BRANCH  19  20
ATOM     20  C   UNL     1      31.863  29.140  12.015  1.00  0.00     0.006 C 
BRANCH  20  21
ATOM     21  C   UNL     1      32.150  29.017  10.511  1.00  0.00     0.053 C 
BRANCH  21  22
ATOM     22  C   UNL     1      33.535  28.513  10.240  1.00  0.00     0.041 C 
ATOM     23  O   UNL     1      34.446  28.670  11.097  1.00  0.00    -0.550 OA
ATOM     24  O   UNL     1      33.822  27.871   9.043  1.00  0.00    -0.550 OA
ENDBRANCH  21  22
ENDBRANCH  20  21
ENDBRANCH  19  20
ENDBRANCH  18  19
ENDBRANCH  17  18
ENDBRANCH  16  17
ENDBRANCH  15  16
ENDBRANCH  14  15
ENDBRANCH  13  14
ENDBRANCH   1  13
TORSDOF 20
ENDMDL
