MODEL 1
REMARK VINA RESULT:    -2.906      0.000      0.000
REMARK INTER + INTRA:         -10.018
REMARK INTER:                  -6.644
REMARK INTRA:                  -3.374
REMARK UNBOUND:                -3.374
REMARK SMILES CCCCCCCCCCCCCCCCCCCCCCCC(=O)[O-]
REMARK SMILES IDX 13 1 14 2 15 3 16 4 17 5 18 6 19 7 20 8 21 9 22 10 23 11
REMARK SMILES IDX 24 12 25 13 26 14 12 15 11 16 10 17 9 18 8 19 7 20 6 21 5 22
REMARK SMILES IDX 4 23 3 24 2 25 1 26
REMARK H PARENT
REMARK Flexibility Score: inf
ROOT
ATOM      1  C   UNL     1     -26.972  66.714  84.968  1.00  0.00     0.000 C 
ENDROOT
BRANCH   1   2
ATOM      2  C   UNL     1     -27.512  65.497  85.735  1.00  0.00     0.000 C 
BRANCH   2   3
ATOM      3  C   UNL     1     -28.799  65.852  86.495  1.00  0.00     0.000 C 
BRANCH   3   4
ATOM      4  C   UNL     1     -29.808  64.690  86.542  1.00  0.00     0.000 C 
BRANCH   4   5
ATOM      5  C   UNL     1     -31.103  64.916  85.740  1.00  0.00     0.000 C 
BRANCH   5   6
ATOM      6  C   UNL     1     -31.408  66.384  85.388  1.00  0.00     0.000 C 
BRANCH   6   7
ATOM      7  C   UNL     1     -32.380  67.073  86.371  1.00  0.00     0.000 C 
BRANCH   7   8
ATOM      8  C   UNL     1     -31.731  68.256  87.110  1.00  0.00     0.000 C 
BRANCH   8   9
ATOM      9  C   UNL     1     -30.938  69.178  86.168  1.00  0.00     0.000 C 
BRANCH   9  10
ATOM     10  C   UNL     1     -29.481  69.374  86.623  1.00  0.00     0.006 C 
BRANCH  10  11
ATOM     11  C   UNL     1     -29.240  68.844  88.043  1.00  0.00     0.053 C 
BRANCH  11  12
ATOM     12  C   UNL     1     -27.787  68.870  88.409  1.00  0.00     0.041 C 
ATOM     13  O   UNL     1     -26.910  68.987  87.514  1.00  0.00    -0.550 OA
ATOM     14  O   UNL     1     -27.402  68.759  89.741  1.00  0.00    -0.550 OA
ENDBRANCH  11  12
ENDBRANCH  10  11
ENDBRANCH   9  10
ENDBRANCH   8   9
ENDBRANCH   7   8
ENDBRANCH   6   7
ENDBRANCH   5   6
ENDBRANCH   4   5
ENDBRANCH   3   4
ENDBRANCH   2   3
ENDBRANCH   1   2
BRANCH   1  15
ATOM     15  C   UNL     1     -28.091  67.632  84.443  1.00  0.00     0.000 C 
BRANCH  15  16
ATOM     16  C   UNL     1     -28.798  67.126  83.169  1.00  0.00     0.000 C 
BRANCH  16  17
ATOM     17  C   UNL     1     -27.874  66.464  82.127  1.00  0.00     0.000 C 
BRANCH  17  18
ATOM     18  C   UNL     1     -28.364  65.112  81.580  1.00  0.00    -0.000 C 
BRANCH  18  19
ATOM     19  C   UNL     1     -29.725  64.689  82.160  1.00  0.00    -0.000 C 
BRANCH  19  20
ATOM     20  C   UNL     1     -29.629  63.452  83.073  1.00  0.00    -0.000 C 
BRANCH  20  21
ATOM     21  C   UNL     1     -28.229  63.169  83.653  1.00  0.00    -0.000 C 
BRANCH  21  22
ATOM     22  C   UNL     1     -28.158  61.986  84.635  1.00  0.00    -0.000 C 
BRANCH  22  23
ATOM     23  C   UNL     1     -27.216  60.870  84.153  1.00  0.00    -0.000 C 
BRANCH  23  24
ATOM     24  C   UNL     1     -27.787  60.082  82.960  1.00  0.00    -0.000 C 
BRANCH  24  25
ATOM     25  C   UNL     1     -27.027  58.786  82.622  1.00  0.00    -0.003 C 
ATOM     26  C   UNL     1     -27.852  57.811  81.784  1.00  0.00     0.004 C 
ENDBRANCH  24  25
ENDBRANCH  23  24
ENDBRANCH  22  23
ENDBRANCH  21  22
ENDBRANCH  20  21
ENDBRANCH  19  20
ENDBRANCH  18  19
ENDBRANCH  17  18
ENDBRANCH  16  17
ENDBRANCH  15  16
ENDBRANCH   1  15
TORSDOF 22
ENDMDL
MODEL 2
REMARK VINA RESULT:    -2.838      1.570      3.046
REMARK INTER + INTRA:          -9.862
REMARK INTER:                  -6.995
REMARK INTRA:                  -2.867
REMARK UNBOUND:                -3.374
REMARK SMILES CCCCCCCCCCCCCCCCCCCCCCCC(=O)[O-]
REMARK SMILES IDX 13 1 14 2 15 3 16 4 17 5 18 6 19 7 20 8 21 9 22 10 23 11
REMARK SMILES IDX 24 12 25 13 26 14 12 15 11 16 10 17 9 18 8 19 7 20 6 21 5 22
REMARK SMILES IDX 4 23 3 24 2 25 1 26
REMARK H PARENT
REMARK Flexibility Score: inf
ROOT
ATOM      1  C   UNL     1     -28.462  67.148  83.362  1.00  0.00     0.000 C 
ENDROOT
BRANCH   1   2
ATOM      2  C   UNL     1     -27.251  67.111  84.307  1.00  0.00     0.000 C 
BRANCH   2   3
ATOM      3  C   UNL     1     -27.527  67.916  85.586  1.00  0.00     0.000 C 
BRANCH   3   4
ATOM      4  C   UNL     1     -28.051  67.046  86.743  1.00  0.00     0.000 C 
BRANCH   4   5
ATOM      5  C   UNL     1     -28.319  65.573  86.383  1.00  0.00     0.000 C 
BRANCH   5   6
ATOM      6  C   UNL     1     -29.648  65.001  86.912  1.00  0.00     0.000 C 
BRANCH   6   7
ATOM      7  C   UNL     1     -30.676  64.685  85.805  1.00  0.00     0.000 C 
BRANCH   7   8
ATOM      8  C   UNL     1     -31.274  65.956  85.177  1.00  0.00     0.000 C 
BRANCH   8   9
ATOM      9  C   UNL     1     -32.266  66.667  86.112  1.00  0.00     0.000 C 
BRANCH   9  10
ATOM     10  C   UNL     1     -31.686  67.959  86.714  1.00  0.00     0.006 C 
BRANCH  10  11
ATOM     11  C   UNL     1     -30.924  68.793  85.675  1.00  0.00     0.053 C 
BRANCH  11  12
ATOM     12  C   UNL     1     -30.662  70.186  86.160  1.00  0.00     0.041 C 
ATOM     13  O   UNL     1     -29.816  70.391  87.070  1.00  0.00    -0.550 OA
ATOM     14  O   UNL     1     -31.357  71.258  85.611  1.00  0.00    -0.550 OA
ENDBRANCH  11  12
ENDBRANCH  10  11
ENDBRANCH   9  10
ENDBRANCH   8   9
ENDBRANCH   7   8
ENDBRANCH   6   7
ENDBRANCH   5   6
ENDBRANCH   4   5
ENDBRANCH   3   4
ENDBRANCH   2   3
ENDBRANCH   1   2
BRANCH   1  15
ATOM     15  C   UNL     1     -28.102  66.760  81.917  1.00  0.00     0.000 C 
BRANCH  15  16
ATOM     16  C   UNL     1     -28.355  65.280  81.561  1.00  0.00     0.000 C 
BRANCH  16  17
ATOM     17  C   UNL     1     -29.483  64.599  82.360  1.00  0.00     0.000 C 
BRANCH  17  18
ATOM     18  C   UNL     1     -29.200  63.148  82.790  1.00  0.00    -0.000 C 
BRANCH  18  19
ATOM     19  C   UNL     1     -28.277  63.057  84.017  1.00  0.00    -0.000 C 
BRANCH  19  20
ATOM     20  C   UNL     1     -28.116  61.617  84.539  1.00  0.00    -0.000 C 
BRANCH  20  21
ATOM     21  C   UNL     1     -27.154  60.725  83.728  1.00  0.00    -0.000 C 
BRANCH  21  22
ATOM     22  C   UNL     1     -27.835  59.652  82.860  1.00  0.00    -0.000 C 
BRANCH  22  23
ATOM     23  C   UNL     1     -26.857  58.564  82.384  1.00  0.00    -0.000 C 
BRANCH  23  24
ATOM     24  C   UNL     1     -27.461  57.150  82.447  1.00  0.00    -0.000 C 
BRANCH  24  25
ATOM     25  C   UNL     1     -26.705  56.168  83.361  1.00  0.00    -0.003 C 
ATOM     26  C   UNL     1     -25.622  56.845  84.198  1.00  0.00     0.004 C 
ENDBRANCH  24  25
ENDBRANCH  23  24
ENDBRANCH  22  23
ENDBRANCH  21  22
ENDBRANCH  20  21
ENDBRANCH  19  20
ENDBRANCH  18  19
ENDBRANCH  17  18
ENDBRANCH  16  17
ENDBRANCH  15  16
ENDBRANCH   1  15
TORSDOF 22
ENDMDL
MODEL 3
REMARK VINA RESULT:    -2.801      3.918      8.109
REMARK INTER + INTRA:          -9.777
REMARK INTER:                  -6.815
REMARK INTRA:                  -2.962
REMARK UNBOUND:                -3.374
REMARK SMILES CCCCCCCCCCCCCCCCCCCCCCCC(=O)[O-]
REMARK SMILES IDX 13 1 14 2 15 3 16 4 17 5 18 6 19 7 20 8 21 9 22 10 23 11
REMARK SMILES IDX 24 12 25 13 26 14 12 15 11 16 10 17 9 18 8 19 7 20 6 21 5 22
REMARK SMILES IDX 4 23 3 24 2 25 1 26
REMARK H PARENT
REMARK Flexibility Score: inf
ROOT
ATOM      1  C   UNL     1     -28.313  66.926  83.331  1.00  0.00     0.000 C 
ENDROOT
BRANCH   1   2
ATOM      2  C   UNL     1     -27.844  66.462  81.943  1.00  0.00     0.000 C 
BRANCH   2   3
ATOM      3  C   UNL     1     -28.540  65.155  81.536  1.00  0.00     0.000 C 
BRANCH   3   4
ATOM      4  C   UNL     1     -29.695  64.770  82.479  1.00  0.00     0.000 C 
BRANCH   4   5
ATOM      5  C   UNL     1     -29.564  63.386  83.142  1.00  0.00     0.000 C 
BRANCH   5   6
ATOM      6  C   UNL     1     -28.124  62.958  83.486  1.00  0.00     0.000 C 
BRANCH   6   7
ATOM      7  C   UNL     1     -28.042  61.836  84.542  1.00  0.00     0.000 C 
BRANCH   7   8
ATOM      8  C   UNL     1     -27.203  60.638  84.065  1.00  0.00     0.000 C 
BRANCH   8   9
ATOM      9  C   UNL     1     -27.766  59.992  82.788  1.00  0.00     0.000 C 
BRANCH   9  10
ATOM     10  C   UNL     1     -27.150  58.611  82.505  1.00  0.00     0.006 C 
BRANCH  10  11
ATOM     11  C   UNL     1     -26.282  58.112  83.668  1.00  0.00     0.053 C 
BRANCH  11  12
ATOM     12  C   UNL     1     -26.097  56.626  83.628  1.00  0.00     0.041 C 
ATOM     13  O   UNL     1     -27.054  55.876  83.300  1.00  0.00    -0.550 OA
ATOM     14  O   UNL     1     -24.867  56.068  83.961  1.00  0.00    -0.550 OA
ENDBRANCH  11  12
ENDBRANCH  10  11
ENDBRANCH   9  10
ENDBRANCH   8   9
ENDBRANCH   7   8
ENDBRANCH   6   7
ENDBRANCH   5   6
ENDBRANCH   4   5
ENDBRANCH   3   4
ENDBRANCH   2   3
ENDBRANCH   1   2
BRANCH   1  15
ATOM     15  C   UNL     1     -27.421  66.398  84.469  1.00  0.00     0.000 C 
BRANCH  15  16
ATOM     16  C   UNL     1     -26.480  67.448  85.094  1.00  0.00     0.000 C 
BRANCH  16  17
ATOM     17  C   UNL     1     -27.179  68.534  85.937  1.00  0.00     0.000 C 
BRANCH  17  18
ATOM     18  C   UNL     1     -27.978  68.014  87.145  1.00  0.00    -0.000 C 
BRANCH  18  19
ATOM     19  C   UNL     1     -29.117  68.961  87.562  1.00  0.00    -0.000 C 
BRANCH  19  20
ATOM     20  C   UNL     1     -29.814  69.623  86.359  1.00  0.00    -0.000 C 
BRANCH  20  21
ATOM     21  C   UNL     1     -31.046  68.871  85.816  1.00  0.00    -0.000 C 
BRANCH  21  22
ATOM     22  C   UNL     1     -31.911  68.181  86.885  1.00  0.00    -0.000 C 
BRANCH  22  23
ATOM     23  C   UNL     1     -32.214  66.711  86.545  1.00  0.00    -0.000 C 
BRANCH  23  24
ATOM     24  C   UNL     1     -31.197  66.105  85.562  1.00  0.00    -0.000 C 
BRANCH  24  25
ATOM     25  C   UNL     1     -30.033  65.347  86.227  1.00  0.00    -0.003 C 
ATOM     26  C   UNL     1     -30.366  63.887  86.527  1.00  0.00     0.004 C 
ENDBRANCH  24  25
ENDBRANCH  23  24
ENDBRANCH  22  23
ENDBRANCH  21  22
ENDBRANCH  20  21
ENDBRANCH  19  20
ENDBRANCH  18  19
ENDBRANCH  17  18
ENDBRANCH  16  17
ENDBRANCH  15  16
ENDBRANCH   1  15
TORSDOF 22
ENDMDL
MODEL 4
REMARK VINA RESULT:    -2.635      1.881      3.502
REMARK INTER + INTRA:          -9.397
REMARK INTER:                  -6.766
REMARK INTRA:                  -2.631
REMARK UNBOUND:                -3.374
REMARK SMILES CCCCCCCCCCCCCCCCCCCCCCCC(=O)[O-]
REMARK SMILES IDX 13 1 14 2 15 3 16 4 17 5 18 6 19 7 20 8 21 9 22 10 23 11
REMARK SMILES IDX 24 12 25 13 26 14 12 15 11 16 10 17 9 18 8 19 7 20 6 21 5 22
REMARK SMILES IDX 4 23 3 24 2 25 1 26
REMARK H PARENT
REMARK Flexibility Score: inf
ROOT
ATOM      1  C   UNL     1     -28.407  67.086  83.484  1.00  0.00     0.000 C 
ENDROOT
BRANCH   1   2
ATOM      2  C   UNL     1     -27.494  66.508  84.577  1.00  0.00     0.000 C 
BRANCH   2   3
ATOM      3  C   UNL     1     -26.406  67.516  84.975  1.00  0.00     0.000 C 
BRANCH   3   4
ATOM      4  C   UNL     1     -26.937  68.654  85.867  1.00  0.00     0.000 C 
BRANCH   4   5
ATOM      5  C   UNL     1     -27.779  68.198  87.074  1.00  0.00     0.000 C 
BRANCH   5   6
ATOM      6  C   UNL     1     -29.071  69.004  87.313  1.00  0.00     0.000 C 
BRANCH   6   7
ATOM      7  C   UNL     1     -30.177  68.731  86.272  1.00  0.00     0.000 C 
BRANCH   7   8
ATOM      8  C   UNL     1     -31.501  68.290  86.921  1.00  0.00     0.000 C 
BRANCH   8   9
ATOM      9  C   UNL     1     -32.167  67.124  86.172  1.00  0.00     0.000 C 
BRANCH   9  10
ATOM     10  C   UNL     1     -31.197  66.404  85.220  1.00  0.00     0.006 C 
BRANCH  10  11
ATOM     11  C   UNL     1     -31.231  64.880  85.400  1.00  0.00     0.053 C 
BRANCH  11  12
ATOM     12  C   UNL     1     -30.225  64.415  86.408  1.00  0.00     0.041 C 
ATOM     13  O   UNL     1     -29.370  65.217  86.867  1.00  0.00    -0.550 OA
ATOM     14  O   UNL     1     -30.229  63.092  86.838  1.00  0.00    -0.550 OA
ENDBRANCH  11  12
ENDBRANCH  10  11
ENDBRANCH   9  10
ENDBRANCH   8   9
ENDBRANCH   7   8
ENDBRANCH   6   7
ENDBRANCH   5   6
ENDBRANCH   4   5
ENDBRANCH   3   4
ENDBRANCH   2   3
ENDBRANCH   1   2
BRANCH   1  15
ATOM     15  C   UNL     1     -27.934  66.730  82.063  1.00  0.00     0.000 C 
BRANCH  15  16
ATOM     16  C   UNL     1     -28.305  65.309  81.594  1.00  0.00     0.000 C 
BRANCH  16  17
ATOM     17  C   UNL     1     -29.612  64.745  82.187  1.00  0.00     0.000 C 
BRANCH  17  18
ATOM     18  C   UNL     1     -29.488  63.363  82.854  1.00  0.00    -0.000 C 
BRANCH  18  19
ATOM     19  C   UNL     1     -28.139  63.163  83.568  1.00  0.00    -0.000 C 
BRANCH  19  20
ATOM     20  C   UNL     1     -28.144  61.957  84.526  1.00  0.00    -0.000 C 
BRANCH  20  21
ATOM     21  C   UNL     1     -27.237  60.781  84.110  1.00  0.00    -0.000 C 
BRANCH  21  22
ATOM     22  C   UNL     1     -27.770  59.931  82.942  1.00  0.00    -0.000 C 
BRANCH  22  23
ATOM     23  C   UNL     1     -26.801  58.806  82.537  1.00  0.00    -0.000 C 
BRANCH  23  24
ATOM     24  C   UNL     1     -27.483  57.428  82.470  1.00  0.00    -0.000 C 
BRANCH  24  25
ATOM     25  C   UNL     1     -26.745  56.308  83.225  1.00  0.00    -0.003 C 
ATOM     26  C   UNL     1     -25.703  56.837  84.209  1.00  0.00     0.004 C 
ENDBRANCH  24  25
ENDBRANCH  23  24
ENDBRANCH  22  23
ENDBRANCH  21  22
ENDBRANCH  20  21
ENDBRANCH  19  20
ENDBRANCH  18  19
ENDBRANCH  17  18
ENDBRANCH  16  17
ENDBRANCH  15  16
ENDBRANCH   1  15
TORSDOF 22
ENDMDL
MODEL 5
REMARK VINA RESULT:    -2.580      2.637      7.261
REMARK INTER + INTRA:          -9.272
REMARK INTER:                  -6.164
REMARK INTRA:                  -3.108
REMARK UNBOUND:                -3.374
REMARK SMILES CCCCCCCCCCCCCCCCCCCCCCCC(=O)[O-]
REMARK SMILES IDX 13 1 14 2 15 3 16 4 17 5 18 6 19 7 20 8 21 9 22 10 23 11
REMARK SMILES IDX 24 12 25 13 26 14 12 15 11 16 10 17 9 18 8 19 7 20 6 21 5 22
REMARK SMILES IDX 4 23 3 24 2 25 1 26
REMARK H PARENT
REMARK Flexibility Score: inf
ROOT
ATOM      1  C   UNL     1     -28.579  65.851  86.564  1.00  0.00     0.000 C 
ENDROOT
BRANCH   1   2
ATOM      2  C   UNL     1     -27.431  65.555  85.587  1.00  0.00     0.000 C 
BRANCH   2   3
ATOM      3  C   UNL     1     -26.948  66.841  84.900  1.00  0.00     0.000 C 
BRANCH   3   4
ATOM      4  C   UNL     1     -28.100  67.682  84.319  1.00  0.00     0.000 C 
BRANCH   4   5
ATOM      5  C   UNL     1     -28.744  67.113  83.042  1.00  0.00     0.000 C 
BRANCH   5   6
ATOM      6  C   UNL     1     -27.753  66.603  81.979  1.00  0.00     0.000 C 
BRANCH   6   7
ATOM      7  C   UNL     1     -28.170  65.267  81.326  1.00  0.00     0.000 C 
BRANCH   7   8
ATOM      8  C   UNL     1     -29.602  64.850  81.703  1.00  0.00     0.000 C 
BRANCH   8   9
ATOM      9  C   UNL     1     -29.656  63.476  82.392  1.00  0.00     0.000 C 
BRANCH   9  10
ATOM     10  C   UNL     1     -28.539  63.295  83.433  1.00  0.00     0.006 C 
BRANCH  10  11
ATOM     11  C   UNL     1     -28.672  61.974  84.204  1.00  0.00     0.053 C 
BRANCH  11  12
ATOM     12  C   UNL     1     -27.493  61.077  83.982  1.00  0.00     0.041 C 
ATOM     13  O   UNL     1     -27.529  60.191  83.088  1.00  0.00    -0.550 OA
ATOM     14  O   UNL     1     -26.354  61.216  84.769  1.00  0.00    -0.550 OA
ENDBRANCH  11  12
ENDBRANCH  10  11
ENDBRANCH   9  10
ENDBRANCH   8   9
ENDBRANCH   7   8
ENDBRANCH   6   7
ENDBRANCH   5   6
ENDBRANCH   4   5
ENDBRANCH   3   4
ENDBRANCH   2   3
ENDBRANCH   1   2
BRANCH   1  15
ATOM     15  C   UNL     1     -29.418  64.603  86.894  1.00  0.00     0.000 C 
BRANCH  15  16
ATOM     16  C   UNL     1     -30.777  64.527  86.170  1.00  0.00     0.000 C 
BRANCH  16  17
ATOM     17  C   UNL     1     -30.862  65.323  84.853  1.00  0.00     0.000 C 
BRANCH  17  18
ATOM     18  C   UNL     1     -31.678  66.626  84.925  1.00  0.00    -0.000 C 
BRANCH  18  19
ATOM     19  C   UNL     1     -32.512  66.740  86.213  1.00  0.00    -0.000 C 
BRANCH  19  20
ATOM     20  C   UNL     1     -31.941  67.770  87.206  1.00  0.00    -0.000 C 
BRANCH  20  21
ATOM     21  C   UNL     1     -32.113  69.247  86.796  1.00  0.00    -0.000 C 
BRANCH  21  22
ATOM     22  C   UNL     1     -30.844  69.923  86.248  1.00  0.00    -0.000 C 
BRANCH  22  23
ATOM     23  C   UNL     1     -29.566  69.123  86.555  1.00  0.00    -0.000 C 
BRANCH  23  24
ATOM     24  C   UNL     1     -28.857  69.599  87.835  1.00  0.00    -0.000 C 
BRANCH  24  25
ATOM     25  C   UNL     1     -27.552  68.851  88.164  1.00  0.00    -0.003 C 
ATOM     26  C   UNL     1     -27.401  68.540  89.652  1.00  0.00     0.004 C 
ENDBRANCH  24  25
ENDBRANCH  23  24
ENDBRANCH  22  23
ENDBRANCH  21  22
ENDBRANCH  20  21
ENDBRANCH  19  20
ENDBRANCH  18  19
ENDBRANCH  17  18
ENDBRANCH  16  17
ENDBRANCH  15  16
ENDBRANCH   1  15
TORSDOF 22
ENDMDL
MODEL 6
REMARK VINA RESULT:    -2.499      3.976      7.546
REMARK INTER + INTRA:          -9.087
REMARK INTER:                  -6.123
REMARK INTRA:                  -2.964
REMARK UNBOUND:                -3.374
REMARK SMILES CCCCCCCCCCCCCCCCCCCCCCCC(=O)[O-]
REMARK SMILES IDX 13 1 14 2 15 3 16 4 17 5 18 6 19 7 20 8 21 9 22 10 23 11
REMARK SMILES IDX 24 12 25 13 26 14 12 15 11 16 10 17 9 18 8 19 7 20 6 21 5 22
REMARK SMILES IDX 4 23 3 24 2 25 1 26
REMARK H PARENT
REMARK Flexibility Score: inf
ROOT
ATOM      1  C   UNL     1     -31.986  66.720  85.795  1.00  0.00     0.000 C 
ENDROOT
BRANCH   1   2
ATOM      2  C   UNL     1     -30.996  65.686  85.236  1.00  0.00     0.000 C 
BRANCH   2   3
ATOM      3  C   UNL     1     -30.268  64.952  86.372  1.00  0.00     0.000 C 
BRANCH   3   4
ATOM      4  C   UNL     1     -30.068  63.452  86.087  1.00  0.00     0.000 C 
BRANCH   4   5
ATOM      5  C   UNL     1     -29.982  63.075  84.596  1.00  0.00     0.000 C 
BRANCH   5   6
ATOM      6  C   UNL     1     -28.565  62.763  84.080  1.00  0.00     0.000 C 
BRANCH   6   7
ATOM      7  C   UNL     1     -27.764  61.811  84.994  1.00  0.00     0.000 C 
BRANCH   7   8
ATOM      8  C   UNL     1     -26.982  60.750  84.199  1.00  0.00     0.000 C 
BRANCH   8   9
ATOM      9  C   UNL     1     -27.799  60.162  83.037  1.00  0.00     0.000 C 
BRANCH   9  10
ATOM     10  C   UNL     1     -27.283  58.782  82.593  1.00  0.00     0.006 C 
BRANCH  10  11
ATOM     11  C   UNL     1     -26.305  58.173  83.607  1.00  0.00     0.053 C 
BRANCH  11  12
ATOM     12  C   UNL     1     -26.232  56.682  83.487  1.00  0.00     0.041 C 
ATOM     13  O   UNL     1     -27.206  56.035  83.020  1.00  0.00    -0.550 OA
ATOM     14  O   UNL     1     -25.087  56.005  83.895  1.00  0.00    -0.550 OA
ENDBRANCH  11  12
ENDBRANCH  10  11
ENDBRANCH   9  10
ENDBRANCH   8   9
ENDBRANCH   7   8
ENDBRANCH   6   7
ENDBRANCH   5   6
ENDBRANCH   4   5
ENDBRANCH   3   4
ENDBRANCH   2   3
ENDBRANCH   1   2
BRANCH   1  15
ATOM     15  C   UNL     1     -31.382  67.573  86.925  1.00  0.00     0.000 C 
BRANCH  15  16
ATOM     16  C   UNL     1     -30.420  68.683  86.456  1.00  0.00     0.000 C 
BRANCH  16  17
ATOM     17  C   UNL     1     -29.031  68.671  87.123  1.00  0.00     0.000 C 
BRANCH  17  18
ATOM     18  C   UNL     1     -27.849  68.404  86.175  1.00  0.00    -0.000 C 
BRANCH  18  19
ATOM     19  C   UNL     1     -27.518  66.907  86.037  1.00  0.00    -0.000 C 
BRANCH  19  20
ATOM     20  C   UNL     1     -27.451  66.441  84.571  1.00  0.00    -0.000 C 
BRANCH  20  21
ATOM     21  C   UNL     1     -28.194  67.339  83.560  1.00  0.00    -0.000 C 
BRANCH  21  22
ATOM     22  C   UNL     1     -28.975  66.583  82.470  1.00  0.00    -0.000 C 
BRANCH  22  23
ATOM     23  C   UNL     1     -28.113  65.544  81.734  1.00  0.00    -0.000 C 
BRANCH  23  24
ATOM     24  C   UNL     1     -28.915  64.722  80.709  1.00  0.00    -0.000 C 
BRANCH  24  25
ATOM     25  C   UNL     1     -30.076  63.907  81.307  1.00  0.00    -0.003 C 
ATOM     26  C   UNL     1     -31.399  64.126  80.575  1.00  0.00     0.004 C 
ENDBRANCH  24  25
ENDBRANCH  23  24
ENDBRANCH  22  23
ENDBRANCH  21  22
ENDBRANCH  20  21
ENDBRANCH  19  20
ENDBRANCH  18  19
ENDBRANCH  17  18
ENDBRANCH  16  17
ENDBRANCH  15  16
ENDBRANCH   1  15
TORSDOF 22
ENDMDL
MODEL 7
REMARK VINA RESULT:    -2.431      2.703      6.451
REMARK INTER + INTRA:          -8.931
REMARK INTER:                  -5.331
REMARK INTRA:                  -3.600
REMARK UNBOUND:                -3.374
REMARK SMILES CCCCCCCCCCCCCCCCCCCCCCCC(=O)[O-]
REMARK SMILES IDX 13 1 14 2 15 3 16 4 17 5 18 6 19 7 20 8 21 9 22 10 23 11
REMARK SMILES IDX 24 12 25 13 26 14 12 15 11 16 10 17 9 18 8 19 7 20 6 21 5 22
REMARK SMILES IDX 4 23 3 24 2 25 1 26
REMARK H PARENT
REMARK Flexibility Score: inf
ROOT
ATOM      1  C   UNL     1     -26.378  68.382  85.379  1.00  0.00     0.000 C 
ENDROOT
BRANCH   1   2
ATOM      2  C   UNL     1     -26.407  66.846  85.395  1.00  0.00     0.000 C 
BRANCH   2   3
ATOM      3  C   UNL     1     -27.461  66.305  84.418  1.00  0.00     0.000 C 
BRANCH   3   4
ATOM      4  C   UNL     1     -28.368  67.408  83.842  1.00  0.00     0.000 C 
BRANCH   4   5
ATOM      5  C   UNL     1     -28.803  67.199  82.379  1.00  0.00     0.000 C 
BRANCH   5   6
ATOM      6  C   UNL     1     -27.823  66.382  81.515  1.00  0.00     0.000 C 
BRANCH   6   7
ATOM      7  C   UNL     1     -28.295  64.940  81.231  1.00  0.00     0.000 C 
BRANCH   7   8
ATOM      8  C   UNL     1     -29.728  64.680  81.729  1.00  0.00     0.000 C 
BRANCH   8   9
ATOM      9  C   UNL     1     -29.837  63.405  82.580  1.00  0.00     0.000 C 
BRANCH   9  10
ATOM     10  C   UNL     1     -28.606  63.187  83.477  1.00  0.00     0.006 C 
BRANCH  10  11
ATOM     11  C   UNL     1     -28.664  61.851  84.230  1.00  0.00     0.053 C 
BRANCH  11  12
ATOM     12  C   UNL     1     -27.446  61.016  83.979  1.00  0.00     0.041 C 
ATOM     13  O   UNL     1     -26.402  61.196  84.659  1.00  0.00    -0.550 OA
ATOM     14  O   UNL     1     -27.462  60.040  82.988  1.00  0.00    -0.550 OA
ENDBRANCH  11  12
ENDBRANCH  10  11
ENDBRANCH   9  10
ENDBRANCH   8   9
ENDBRANCH   7   8
ENDBRANCH   6   7
ENDBRANCH   5   6
ENDBRANCH   4   5
ENDBRANCH   3   4
ENDBRANCH   2   3
ENDBRANCH   1   2
BRANCH   1  15
ATOM     15  C   UNL     1     -26.898  69.002  86.688  1.00  0.00     0.000 C 
BRANCH  15  16
ATOM     16  C   UNL     1     -28.050  68.226  87.358  1.00  0.00     0.000 C 
BRANCH  16  17
ATOM     17  C   UNL     1     -29.340  69.038  87.587  1.00  0.00     0.000 C 
BRANCH  17  18
ATOM     18  C   UNL     1     -29.878  69.779  86.350  1.00  0.00    -0.000 C 
BRANCH  18  19
ATOM     19  C   UNL     1     -31.378  69.531  86.110  1.00  0.00    -0.000 C 
BRANCH  19  20
ATOM     20  C   UNL     1     -32.002  68.583  87.151  1.00  0.00    -0.000 C 
BRANCH  20  21
ATOM     21  C   UNL     1     -32.327  67.165  86.639  1.00  0.00    -0.000 C 
BRANCH  21  22
ATOM     22  C   UNL     1     -31.829  66.856  85.216  1.00  0.00    -0.000 C 
BRANCH  22  23
ATOM     23  C   UNL     1     -30.855  65.666  85.172  1.00  0.00    -0.000 C 
BRANCH  23  24
ATOM     24  C   UNL     1     -30.029  65.525  86.463  1.00  0.00    -0.000 C 
BRANCH  24  25
ATOM     25  C   UNL     1     -29.697  64.074  86.858  1.00  0.00    -0.003 C 
ATOM     26  C   UNL     1     -30.743  63.070  86.380  1.00  0.00     0.004 C 
ENDBRANCH  24  25
ENDBRANCH  23  24
ENDBRANCH  22  23
ENDBRANCH  21  22
ENDBRANCH  20  21
ENDBRANCH  19  20
ENDBRANCH  18  19
ENDBRANCH  17  18
ENDBRANCH  16  17
ENDBRANCH  15  16
ENDBRANCH   1  15
TORSDOF 22
ENDMDL
MODEL 8
REMARK VINA RESULT:    -2.347      2.375      4.775
REMARK INTER + INTRA:          -8.739
REMARK INTER:                  -6.364
REMARK INTRA:                  -2.375
REMARK UNBOUND:                -3.374
REMARK SMILES CCCCCCCCCCCCCCCCCCCCCCCC(=O)[O-]
REMARK SMILES IDX 13 1 14 2 15 3 16 4 17 5 18 6 19 7 20 8 21 9 22 10 23 11
REMARK SMILES IDX 24 12 25 13 26 14 12 15 11 16 10 17 9 18 8 19 7 20 6 21 5 22
REMARK SMILES IDX 4 23 3 24 2 25 1 26
REMARK H PARENT
REMARK Flexibility Score: inf
ROOT
ATOM      1  C   UNL     1     -31.009  65.931  85.322  1.00  0.00     0.000 C 
ENDROOT
BRANCH   1   2
ATOM      2  C   UNL     1     -32.149  66.527  86.163  1.00  0.00     0.000 C 
BRANCH   2   3
ATOM      3  C   UNL     1     -31.712  67.836  86.835  1.00  0.00     0.000 C 
BRANCH   3   4
ATOM      4  C   UNL     1     -30.997  68.799  85.869  1.00  0.00     0.000 C 
BRANCH   4   5
ATOM      5  C   UNL     1     -29.794  69.551  86.467  1.00  0.00     0.000 C 
BRANCH   5   6
ATOM      6  C   UNL     1     -29.071  68.823  87.616  1.00  0.00     0.000 C 
BRANCH   6   7
ATOM      7  C   UNL     1     -27.674  68.289  87.235  1.00  0.00     0.000 C 
BRANCH   7   8
ATOM      8  C   UNL     1     -27.388  68.409  85.728  1.00  0.00     0.000 C 
BRANCH   8   9
ATOM      9  C   UNL     1     -26.567  67.228  85.186  1.00  0.00     0.000 C 
BRANCH   9  10
ATOM     10  C   UNL     1     -27.442  66.176  84.481  1.00  0.00     0.006 C 
BRANCH  10  11
ATOM     11  C   UNL     1     -28.286  66.784  83.352  1.00  0.00     0.053 C 
BRANCH  11  12
ATOM     12  C   UNL     1     -28.534  65.801  82.250  1.00  0.00     0.041 C 
ATOM     13  O   UNL     1     -27.784  65.779  81.239  1.00  0.00    -0.550 OA
ATOM     14  O   UNL     1     -29.600  64.911  82.337  1.00  0.00    -0.550 OA
ENDBRANCH  11  12
ENDBRANCH  10  11
ENDBRANCH   9  10
ENDBRANCH   8   9
ENDBRANCH   7   8
ENDBRANCH   6   7
ENDBRANCH   5   6
ENDBRANCH   4   5
ENDBRANCH   3   4
ENDBRANCH   2   3
ENDBRANCH   1   2
BRANCH   1  15
ATOM     15  C   UNL     1     -30.145  64.931  86.113  1.00  0.00     0.000 C 
BRANCH  15  16
ATOM     16  C   UNL     1     -30.666  63.480  86.106  1.00  0.00     0.000 C 
BRANCH  16  17
ATOM     17  C   UNL     1     -29.636  62.417  85.675  1.00  0.00     0.000 C 
BRANCH  17  18
ATOM     18  C   UNL     1     -29.006  62.638  84.289  1.00  0.00    -0.000 C 
BRANCH  18  19
ATOM     19  C   UNL     1     -27.500  62.323  84.259  1.00  0.00    -0.000 C 
BRANCH  19  20
ATOM     20  C   UNL     1     -27.206  60.812  84.188  1.00  0.00    -0.000 C 
BRANCH  20  21
ATOM     21  C   UNL     1     -27.788  60.086  82.958  1.00  0.00    -0.000 C 
BRANCH  21  22
ATOM     22  C   UNL     1     -26.953  58.897  82.449  1.00  0.00    -0.000 C 
BRANCH  22  23
ATOM     23  C   UNL     1     -27.784  57.612  82.292  1.00  0.00    -0.000 C 
BRANCH  23  24
ATOM     24  C   UNL     1     -27.093  56.377  82.897  1.00  0.00    -0.000 C 
BRANCH  24  25
ATOM     25  C   UNL     1     -26.224  56.669  84.135  1.00  0.00    -0.003 C 
ATOM     26  C   UNL     1     -24.795  56.148  83.998  1.00  0.00     0.004 C 
ENDBRANCH  24  25
ENDBRANCH  23  24
ENDBRANCH  22  23
ENDBRANCH  21  22
ENDBRANCH  20  21
ENDBRANCH  19  20
ENDBRANCH  18  19
ENDBRANCH  17  18
ENDBRANCH  16  17
ENDBRANCH  15  16
ENDBRANCH   1  15
TORSDOF 22
ENDMDL
MODEL 9
REMARK VINA RESULT:    -2.324      3.761      8.216
REMARK INTER + INTRA:          -8.687
REMARK INTER:                  -6.392
REMARK INTRA:                  -2.294
REMARK UNBOUND:                -3.374
REMARK SMILES CCCCCCCCCCCCCCCCCCCCCCCC(=O)[O-]
REMARK SMILES IDX 13 1 14 2 15 3 16 4 17 5 18 6 19 7 20 8 21 9 22 10 23 11
REMARK SMILES IDX 24 12 25 13 26 14 12 15 11 16 10 17 9 18 8 19 7 20 6 21 5 22
REMARK SMILES IDX 4 23 3 24 2 25 1 26
REMARK H PARENT
REMARK Flexibility Score: inf
ROOT
ATOM      1  C   UNL     1     -31.270  66.048  85.096  1.00  0.00     0.000 C 
ENDROOT
BRANCH   1   2
ATOM      2  C   UNL     1     -30.755  64.686  85.588  1.00  0.00     0.000 C 
BRANCH   2   3
ATOM      3  C   UNL     1     -29.367  64.822  86.230  1.00  0.00     0.000 C 
BRANCH   3   4
ATOM      4  C   UNL     1     -28.273  64.053  85.465  1.00  0.00     0.000 C 
BRANCH   4   5
ATOM      5  C   UNL     1     -28.666  62.635  85.013  1.00  0.00     0.000 C 
BRANCH   5   6
ATOM      6  C   UNL     1     -27.910  62.107  83.779  1.00  0.00     0.000 C 
BRANCH   6   7
ATOM      7  C   UNL     1     -27.369  60.671  83.946  1.00  0.00     0.000 C 
BRANCH   7   8
ATOM      8  C   UNL     1     -27.794  59.744  82.793  1.00  0.00     0.000 C 
BRANCH   8   9
ATOM      9  C   UNL     1     -26.858  58.535  82.632  1.00  0.00     0.000 C 
BRANCH   9  10
ATOM     10  C   UNL     1     -27.619  57.240  82.298  1.00  0.00     0.006 C 
BRANCH  10  11
ATOM     11  C   UNL     1     -27.037  56.020  83.025  1.00  0.00     0.053 C 
BRANCH  11  12
ATOM     12  C   UNL     1     -25.917  56.400  83.944  1.00  0.00     0.041 C 
ATOM     13  O   UNL     1     -26.129  57.165  84.921  1.00  0.00    -0.550 OA
ATOM     14  O   UNL     1     -24.634  55.912  83.718  1.00  0.00    -0.550 OA
ENDBRANCH  11  12
ENDBRANCH  10  11
ENDBRANCH   9  10
ENDBRANCH   8   9
ENDBRANCH   7   8
ENDBRANCH   6   7
ENDBRANCH   5   6
ENDBRANCH   4   5
ENDBRANCH   3   4
ENDBRANCH   2   3
ENDBRANCH   1   2
BRANCH   1  15
ATOM     15  C   UNL     1     -32.270  66.695  86.071  1.00  0.00     0.000 C 
BRANCH  15  16
ATOM     16  C   UNL     1     -31.726  67.915  86.842  1.00  0.00     0.000 C 
BRANCH  16  17
ATOM     17  C   UNL     1     -30.706  68.775  86.070  1.00  0.00     0.000 C 
BRANCH  17  18
ATOM     18  C   UNL     1     -29.832  69.696  86.940  1.00  0.00    -0.000 C 
BRANCH  18  19
ATOM     19  C   UNL     1     -28.675  68.948  87.628  1.00  0.00    -0.000 C 
BRANCH  19  20
ATOM     20  C   UNL     1     -28.077  67.834  86.749  1.00  0.00    -0.000 C 
BRANCH  20  21
ATOM     21  C   UNL     1     -27.111  68.311  85.646  1.00  0.00    -0.000 C 
BRANCH  21  22
ATOM     22  C   UNL     1     -27.040  67.404  84.405  1.00  0.00    -0.000 C 
BRANCH  22  23
ATOM     23  C   UNL     1     -28.406  67.234  83.716  1.00  0.00    -0.000 C 
BRANCH  23  24
ATOM     24  C   UNL     1     -28.281  66.810  82.242  1.00  0.00    -0.000 C 
BRANCH  24  25
ATOM     25  C   UNL     1     -28.309  65.289  82.005  1.00  0.00    -0.003 C 
ATOM     26  C   UNL     1     -29.723  64.712  81.993  1.00  0.00     0.004 C 
ENDBRANCH  24  25
ENDBRANCH  23  24
ENDBRANCH  22  23
ENDBRANCH  21  22
ENDBRANCH  20  21
ENDBRANCH  19  20
ENDBRANCH  18  19
ENDBRANCH  17  18
ENDBRANCH  16  17
ENDBRANCH  15  16
ENDBRANCH   1  15
TORSDOF 22
ENDMDL
