MODEL 1
REMARK VINA RESULT:     9.507      0.000      0.000
REMARK INTER + INTRA:          14.938
REMARK INTER:                  13.676
REMARK INTRA:                   1.262
REMARK UNBOUND:                 1.262
REMARK SMILES O=c1c(O[C@@H]2O[C@@H](CO)[C@H](O)[C@@H](O)[C@@H]2O)c(-c2ccc(O)cc2)oc2cc(O)cc(O)c12
REMARK SMILES IDX 4 1 3 2 16 3 24 4 2 5 25 6 1 7 32 8 26 9 30 10 27 11 29 12
REMARK SMILES IDX 17 13 18 14 19 15 20 16 23 17 22 18 21 19 31 21 28 23 5 25
REMARK SMILES IDX 14 26 6 27 12 28 7 29 10 30 15 31 13 33 8 35 9 36 11 38
REMARK H PARENT 21 20 31 22 28 24 15 32 13 34 9 37 11 39
REMARK Flexibility Score: inf
ROOT
ATOM      1  O   UNL     1      13.830 -11.306  29.919  1.00  0.00    -0.454 OA
ENDROOT
BRANCH   1   2
ATOM      2  C   UNL     1      14.226 -12.262  28.973  1.00  0.00     0.214 A 
ATOM      3  C   UNL     1      14.399 -11.886  27.631  1.00  0.00     0.180 A 
ATOM      4  O   UNL     1      14.745 -12.797  26.727  1.00  0.00    -0.452 OA
ATOM      5  C   UNL     1      14.485 -13.592  29.343  1.00  0.00     0.239 A 
ATOM      6  C   UNL     1      14.963 -14.072  27.024  1.00  0.00     0.146 A 
ATOM      7  O   UNL     1      14.480 -13.891  30.567  1.00  0.00    -0.285 OA
ATOM      8  C   UNL     1      14.807 -14.549  28.352  1.00  0.00     0.111 A 
ATOM      9  C   UNL     1      15.376 -14.934  26.006  1.00  0.00     0.094 A 
ATOM     10  C   UNL     1      15.028 -15.933  28.611  1.00  0.00     0.134 A 
ATOM     11  C   UNL     1      15.661 -16.271  26.288  1.00  0.00     0.123 A 
ATOM     12  C   UNL     1      15.490 -16.761  27.583  1.00  0.00     0.093 A 
BRANCH   3  13
ATOM     13  C   UNL     1      14.190 -10.497  27.181  1.00  0.00     0.021 A 
ATOM     14  C   UNL     1      13.039  -9.781  27.553  1.00  0.00     0.016 A 
ATOM     15  C   UNL     1      12.849  -8.471  27.103  1.00  0.00     0.047 A 
ATOM     16  C   UNL     1      13.817  -7.855  26.299  1.00  0.00     0.115 A 
ATOM     17  C   UNL     1      15.168  -9.865  26.398  1.00  0.00     0.016 A 
ATOM     18  C   UNL     1      14.979  -8.552  25.956  1.00  0.00     0.047 A 
BRANCH  16  19
ATOM     19  O   UNL     1      13.634  -6.555  25.835  1.00  0.00    -0.508 OA
ATOM     20  H   UNL     1      13.330  -6.370  24.885  1.00  0.00     0.293 HD
ENDBRANCH  16  19
ENDBRANCH   3  13
BRANCH  10  21
ATOM     21  O   UNL     1      14.782 -16.542  29.845  1.00  0.00    -0.507 OA
ATOM     22  H   UNL     1      15.491 -16.727  30.539  1.00  0.00     0.293 HD
ENDBRANCH  10  21
BRANCH  11  23
ATOM     23  O   UNL     1      16.115 -17.125  25.289  1.00  0.00    -0.508 OA
ATOM     24  H   UNL     1      17.012 -17.591  25.358  1.00  0.00     0.293 HD
ENDBRANCH  11  23
ENDBRANCH   1   2
BRANCH   1  25
ATOM     25  C   UNL     1      12.737 -11.494  30.828  1.00  0.00     0.339 C 
ATOM     26  C   UNL     1      12.016 -10.163  31.098  1.00  0.00     0.214 C 
ATOM     27  O   UNL     1      11.838 -12.480  30.340  1.00  0.00    -0.332 OA
ATOM     28  C   UNL     1      11.278  -9.689  29.829  1.00  0.00     0.180 C 
ATOM     29  C   UNL     1      11.250 -12.098  29.104  1.00  0.00     0.179 C 
ATOM     30  C   UNL     1      10.394 -10.819  29.276  1.00  0.00     0.177 C 
BRANCH  26  31
ATOM     31  O   UNL     1      12.956  -9.201  31.507  1.00  0.00    -0.384 OA
ATOM     32  H   UNL     1      13.848  -9.633  31.458  1.00  0.00     0.211 HD
ENDBRANCH  26  31
BRANCH  28  33
ATOM     33  O   UNL     1      10.511  -8.539  30.085  1.00  0.00    -0.387 OA
ATOM     34  H   UNL     1       9.554  -8.783  29.985  1.00  0.00     0.211 HD
ENDBRANCH  28  33
BRANCH  29  35
ATOM     35  C   UNL     1      10.399 -13.268  28.586  1.00  0.00     0.191 C 
BRANCH  35  36
ATOM     36  O   UNL     1      10.435 -13.318  27.183  1.00  0.00    -0.394 OA
ATOM     37  H   UNL     1      10.418 -12.379  26.863  1.00  0.00     0.210 HD
ENDBRANCH  35  36
ENDBRANCH  29  35
BRANCH  30  38
ATOM     38  O   UNL     1       9.860 -10.414  28.040  1.00  0.00    -0.387 OA
ATOM     39  H   UNL     1       9.558  -9.473  28.145  1.00  0.00     0.211 HD
ENDBRANCH  30  38
ENDBRANCH   1  25
TORSDOF 11
ENDMDL
