MODEL 1
REMARK VINA RESULT:    -6.693      0.000      0.000
REMARK INTER + INTRA:         -13.661
REMARK INTER:                 -10.997
REMARK INTRA:                  -2.664
REMARK UNBOUND:                -2.664
REMARK SMILES C[C@@H]1O[C@H](OC[C@@H]2O[C@@H](Oc3c(-c4ccc(O)c(O)c4)oc4cc(O)cc(O)c4c3=O)[C@@H](O)[C@@H](O)[C@@H]2O)[C@@H](O)[C@H](O)[C@@H]1O
REMARK SMILES IDX 7 1 36 2 34 3 32 4 9 5 8 6 6 7 5 8 4 9 1 10 2 11 42 12 3 13
REMARK SMILES IDX 40 14 38 15 43 16 41 18 39 20 37 22 35 24 10 26 11 27 12 28
REMARK SMILES IDX 30 29 21 30 29 31 31 32 22 33 27 34 23 35 26 36 24 37 13 38
REMARK SMILES IDX 20 39 14 40 18 41 15 42 16 43 19 44 17 46 28 48 25 50 33 52
REMARK H PARENT 43 17 41 19 39 21 37 23 35 25 19 45 17 47 28 49 25 51 33 53
REMARK Flexibility Score: inf
ROOT
ATOM      1  C   UNL     1      14.237  24.087  36.814  1.00  0.00     0.180 C 
ATOM      2  C   UNL     1      13.572  23.016  35.917  1.00  0.00     0.177 C 
ATOM      3  C   UNL     1      14.775  22.166  35.356  1.00  0.00     0.180 C 
ATOM      4  C   UNL     1      16.089  23.027  34.875  1.00  0.00     0.214 C 
ATOM      5  C   UNL     1      16.325  24.401  35.798  1.00  0.00     0.339 C 
ATOM      6  O   UNL     1      14.939  24.936  35.908  1.00  0.00    -0.332 OA
ENDROOT
BRANCH   1   7
ATOM      7  C   UNL     1      14.338  24.515  38.345  1.00  0.00     0.198 C 
BRANCH   7   8
ATOM      8  O   UNL     1      13.105  25.095  38.796  1.00  0.00    -0.347 OA
BRANCH   8   9
ATOM      9  C   UNL     1      13.052  25.221  40.238  1.00  0.00     0.281 C 
ATOM     10  C   UNL     1      12.360  22.128  40.921  1.00  0.00     0.041 C 
ATOM     11  C   UNL     1      12.186  23.435  41.698  1.00  0.00     0.150 C 
ATOM     12  C   UNL     1      13.194  23.769  42.782  1.00  0.00     0.174 C 
ATOM     13  O   UNL     1      11.915  24.509  40.820  1.00  0.00    -0.344 OA
ATOM     14  C   UNL     1      14.652  24.133  42.256  1.00  0.00     0.179 C 
ATOM     15  C   UNL     1      14.484  25.090  40.965  1.00  0.00     0.202 C 
BRANCH  12  16
ATOM     16  O   UNL     1      13.328  22.742  43.726  1.00  0.00    -0.388 OA
ATOM     17  H   UNL     1      12.483  22.197  43.605  1.00  0.00     0.211 HD
ENDBRANCH  12  16
BRANCH  14  18
ATOM     18  O   UNL     1      15.259  22.944  41.796  1.00  0.00    -0.387 OA
ATOM     19  H   UNL     1      15.136  22.889  40.798  1.00  0.00     0.211 HD
ENDBRANCH  14  18
BRANCH  15  20
ATOM     20  O   UNL     1      15.118  26.321  41.181  1.00  0.00    -0.385 OA
ATOM     21  H   UNL     1      15.747  26.279  41.958  1.00  0.00     0.211 HD
ENDBRANCH  15  20
ENDBRANCH   8   9
ENDBRANCH   7   8
ENDBRANCH   1   7
BRANCH   2  22
ATOM     22  O   UNL     1      12.775  23.597  34.875  1.00  0.00    -0.387 OA
ATOM     23  H   UNL     1      11.955  23.997  35.291  1.00  0.00     0.211 HD
ENDBRANCH   2  22
BRANCH   3  24
ATOM     24  O   UNL     1      15.259  21.224  36.373  1.00  0.00    -0.387 OA
ATOM     25  H   UNL     1      14.520  20.518  36.508  1.00  0.00     0.211 HD
ENDBRANCH   3  24
BRANCH   5  26
ATOM     26  O   UNL     1      17.164  24.452  37.185  1.00  0.00    -0.454 OA
BRANCH  26  27
ATOM     27  C   UNL     1      17.616  25.551  38.145  1.00  0.00     0.214 A 
ATOM     28  C   UNL     1      18.834  25.884  37.774  1.00  0.00     0.180 A 
ATOM     29  C   UNL     1      17.833  25.372  39.606  1.00  0.00     0.239 A 
ATOM     30  O   UNL     1      19.622  24.818  37.910  1.00  0.00    -0.452 OA
ATOM     31  C   UNL     1      18.509  24.129  39.884  1.00  0.00     0.111 A 
ATOM     32  O   UNL     1      18.164  26.344  40.401  1.00  0.00    -0.285 OA
ATOM     33  C   UNL     1      19.312  23.788  38.756  1.00  0.00     0.146 A 
ATOM     34  C   UNL     1      18.821  23.580  41.181  1.00  0.00     0.134 A 
ATOM     35  C   UNL     1      20.219  22.722  38.822  1.00  0.00     0.094 A 
ATOM     36  C   UNL     1      19.834  22.658  41.239  1.00  0.00     0.093 A 
ATOM     37  C   UNL     1      20.502  22.193  40.048  1.00  0.00     0.123 A 
BRANCH  28  38
ATOM     38  C   UNL     1      19.276  27.279  37.368  1.00  0.00     0.025 A 
ATOM     39  C   UNL     1      20.043  28.253  38.164  1.00  0.00     0.062 A 
ATOM     40  C   UNL     1      18.949  27.625  36.060  1.00  0.00     0.016 A 
ATOM     41  C   UNL     1      20.454  29.482  37.564  1.00  0.00     0.158 A 
ATOM     42  C   UNL     1      19.314  28.832  35.508  1.00  0.00     0.051 A 
ATOM     43  C   UNL     1      20.092  29.722  36.199  1.00  0.00     0.157 A 
BRANCH  41  44
ATOM     44  O   UNL     1      21.309  30.395  38.197  1.00  0.00    -0.504 OA
ATOM     45  H   UNL     1      22.205  30.666  37.820  1.00  0.00     0.293 HD
ENDBRANCH  41  44
BRANCH  43  46
ATOM     46  O   UNL     1      20.474  30.917  35.573  1.00  0.00    -0.504 OA
ATOM     47  H   UNL     1      21.234  30.974  34.860  1.00  0.00     0.293 HD
ENDBRANCH  43  46
ENDBRANCH  28  38
BRANCH  34  48
ATOM     48  O   UNL     1      18.067  23.971  42.315  1.00  0.00    -0.507 OA
ATOM     49  H   UNL     1      17.030  24.089  42.224  1.00  0.00     0.293 HD
ENDBRANCH  34  48
BRANCH  37  50
ATOM     50  O   UNL     1      21.652  21.444  40.303  1.00  0.00    -0.508 OA
ATOM     51  H   UNL     1      22.455  21.645  39.729  1.00  0.00     0.293 HD
ENDBRANCH  37  50
ENDBRANCH  26  27
ENDBRANCH   5  26
BRANCH   4  52
ATOM     52  O   UNL     1      17.109  22.138  34.978  1.00  0.00    -0.384 OA
ATOM     53  H   UNL     1      16.724  21.358  35.463  1.00  0.00     0.211 HD
ENDBRANCH   4  52
TORSDOF 16
ENDMDL
MODEL 2
REMARK VINA RESULT:    -5.760      9.288     13.059
REMARK INTER + INTRA:         -12.128
REMARK INTER:                  -9.800
REMARK INTRA:                  -2.328
REMARK UNBOUND:                -2.664
REMARK SMILES C[C@@H]1O[C@H](OC[C@@H]2O[C@@H](Oc3c(-c4ccc(O)c(O)c4)oc4cc(O)cc(O)c4c3=O)[C@@H](O)[C@@H](O)[C@@H]2O)[C@@H](O)[C@H](O)[C@@H]1O
REMARK SMILES IDX 7 1 36 2 34 3 32 4 9 5 8 6 6 7 5 8 4 9 1 10 2 11 42 12 3 13
REMARK SMILES IDX 40 14 38 15 43 16 41 18 39 20 37 22 35 24 10 26 11 27 12 28
REMARK SMILES IDX 30 29 21 30 29 31 31 32 22 33 27 34 23 35 26 36 24 37 13 38
REMARK SMILES IDX 20 39 14 40 18 41 15 42 16 43 19 44 17 46 28 48 25 50 33 52
REMARK H PARENT 43 17 41 19 39 21 37 23 35 25 19 45 17 47 28 49 25 51 33 53
REMARK Flexibility Score: inf
ROOT
ATOM      1  C   UNL     1      13.584  24.806  48.723  1.00  0.00     0.180 C 
ATOM      2  C   UNL     1      13.613  25.235  47.237  1.00  0.00     0.177 C 
ATOM      3  C   UNL     1      14.606  26.458  47.196  1.00  0.00     0.180 C 
ATOM      4  C   UNL     1      14.449  27.540  48.422  1.00  0.00     0.214 C 
ATOM      5  C   UNL     1      13.988  26.817  49.857  1.00  0.00     0.339 C 
ATOM      6  O   UNL     1      12.927  25.878  49.397  1.00  0.00    -0.332 OA
ENDROOT
BRANCH   1   7
ATOM      7  C   UNL     1      14.012  23.591  49.659  1.00  0.00     0.198 C 
BRANCH   7   8
ATOM      8  O   UNL     1      15.012  22.782  49.021  1.00  0.00    -0.347 OA
BRANCH   8   9
ATOM      9  C   UNL     1      14.652  21.379  49.001  1.00  0.00     0.281 C 
ATOM     10  C   UNL     1      14.106  21.114  45.817  1.00  0.00     0.041 C 
ATOM     11  C   UNL     1      13.662  20.288  47.027  1.00  0.00     0.150 C 
ATOM     12  C   UNL     1      14.391  18.990  47.320  1.00  0.00     0.174 C 
ATOM     13  O   UNL     1      13.486  21.114  48.160  1.00  0.00    -0.344 OA
ATOM     14  C   UNL     1      15.889  19.161  47.833  1.00  0.00     0.179 C 
ATOM     15  C   UNL     1      15.909  20.376  48.898  1.00  0.00     0.202 C 
BRANCH  12  16
ATOM     16  O   UNL     1      14.416  18.127  46.218  1.00  0.00    -0.388 OA
ATOM     17  H   UNL     1      15.200  17.515  46.413  1.00  0.00     0.211 HD
ENDBRANCH  12  16
BRANCH  14  18
ATOM     18  O   UNL     1      16.679  19.577  46.738  1.00  0.00    -0.387 OA
ATOM     19  H   UNL     1      16.242  19.257  45.890  1.00  0.00     0.211 HD
ENDBRANCH  14  18
BRANCH  15  20
ATOM     20  O   UNL     1      16.375  19.931  50.142  1.00  0.00    -0.385 OA
ATOM     21  H   UNL     1      15.648  19.488  50.669  1.00  0.00     0.211 HD
ENDBRANCH  15  20
ENDBRANCH   8   9
ENDBRANCH   7   8
ENDBRANCH   1   7
BRANCH   2  22
ATOM     22  O   UNL     1      12.309  25.566  46.740  1.00  0.00    -0.387 OA
ATOM     23  H   UNL     1      11.715  24.767  46.856  1.00  0.00     0.211 HD
ENDBRANCH   2  22
BRANCH   3  24
ATOM     24  O   UNL     1      15.998  25.995  47.241  1.00  0.00    -0.387 OA
ATOM     25  H   UNL     1      15.975  24.964  47.218  1.00  0.00     0.211 HD
ENDBRANCH   3  24
BRANCH   5  26
ATOM     26  O   UNL     1      15.010  26.179  50.942  1.00  0.00    -0.454 OA
BRANCH  26  27
ATOM     27  C   UNL     1      15.318  26.416  52.420  1.00  0.00     0.214 A 
ATOM     28  C   UNL     1      16.618  26.600  52.499  1.00  0.00     0.180 A 
ATOM     29  C   UNL     1      15.136  25.411  53.501  1.00  0.00     0.239 A 
ATOM     30  O   UNL     1      17.227  25.489  52.086  1.00  0.00    -0.452 OA
ATOM     31  C   UNL     1      15.581  24.107  53.081  1.00  0.00     0.111 A 
ATOM     32  O   UNL     1      15.355  25.667  54.755  1.00  0.00    -0.285 OA
ATOM     33  C   UNL     1      16.603  24.271  52.100  1.00  0.00     0.146 A 
ATOM     34  C   UNL     1      15.492  22.875  53.827  1.00  0.00     0.134 A 
ATOM     35  C   UNL     1      17.344  23.170  51.650  1.00  0.00     0.094 A 
ATOM     36  C   UNL     1      16.352  21.868  53.471  1.00  0.00     0.093 A 
ATOM     37  C   UNL     1      17.247  22.000  52.348  1.00  0.00     0.123 A 
BRANCH  28  38
ATOM     38  C   UNL     1      17.296  27.834  53.068  1.00  0.00     0.025 A 
ATOM     39  C   UNL     1      18.433  27.892  54.003  1.00  0.00     0.062 A 
ATOM     40  C   UNL     1      16.794  29.038  52.584  1.00  0.00     0.016 A 
ATOM     41  C   UNL     1      18.998  29.158  54.344  1.00  0.00     0.158 A 
ATOM     42  C   UNL     1      17.321  30.255  52.954  1.00  0.00     0.051 A 
ATOM     43  C   UNL     1      18.425  30.334  53.761  1.00  0.00     0.157 A 
BRANCH  41  44
ATOM     44  O   UNL     1      20.169  29.295  55.104  1.00  0.00    -0.504 OA
ATOM     45  H   UNL     1      20.969  28.688  55.001  1.00  0.00     0.293 HD
ENDBRANCH  41  44
BRANCH  43  46
ATOM     46  O   UNL     1      18.948  31.597  54.070  1.00  0.00    -0.504 OA
ATOM     47  H   UNL     1      19.971  31.791  54.145  1.00  0.00     0.293 HD
ENDBRANCH  43  46
ENDBRANCH  28  38
BRANCH  34  48
ATOM     48  O   UNL     1      14.521  22.735  54.849  1.00  0.00    -0.507 OA
ATOM     49  H   UNL     1      14.819  22.401  55.797  1.00  0.00     0.293 HD
ENDBRANCH  34  48
BRANCH  37  50
ATOM     50  O   UNL     1      18.207  20.990  52.270  1.00  0.00    -0.508 OA
ATOM     51  H   UNL     1      18.755  20.956  51.425  1.00  0.00     0.293 HD
ENDBRANCH  37  50
ENDBRANCH  26  27
ENDBRANCH   5  26
BRANCH   4  52
ATOM     52  O   UNL     1      15.672  28.124  48.492  1.00  0.00    -0.384 OA
ATOM     53  H   UNL     1      15.708  28.542  49.396  1.00  0.00     0.211 HD
ENDBRANCH   4  52
TORSDOF 16
ENDMDL
MODEL 3
REMARK VINA RESULT:    -5.550      9.707     14.569
REMARK INTER + INTRA:         -11.782
REMARK INTER:                  -9.383
REMARK INTRA:                  -2.399
REMARK UNBOUND:                -2.664
REMARK SMILES C[C@@H]1O[C@H](OC[C@@H]2O[C@@H](Oc3c(-c4ccc(O)c(O)c4)oc4cc(O)cc(O)c4c3=O)[C@@H](O)[C@@H](O)[C@@H]2O)[C@@H](O)[C@H](O)[C@@H]1O
REMARK SMILES IDX 7 1 36 2 34 3 32 4 9 5 8 6 6 7 5 8 4 9 1 10 2 11 42 12 3 13
REMARK SMILES IDX 40 14 38 15 43 16 41 18 39 20 37 22 35 24 10 26 11 27 12 28
REMARK SMILES IDX 30 29 21 30 29 31 31 32 22 33 27 34 23 35 26 36 24 37 13 38
REMARK SMILES IDX 20 39 14 40 18 41 15 42 16 43 19 44 17 46 28 48 25 50 33 52
REMARK H PARENT 43 17 41 19 39 21 37 23 35 25 19 45 17 47 28 49 25 51 33 53
REMARK Flexibility Score: inf
ROOT
ATOM      1  C   UNL     1      15.561  22.656  50.693  1.00  0.00     0.180 C 
ATOM      2  C   UNL     1      16.922  22.928  51.375  1.00  0.00     0.177 C 
ATOM      3  C   UNL     1      17.418  21.510  51.852  1.00  0.00     0.180 C 
ATOM      4  C   UNL     1      16.269  20.548  52.528  1.00  0.00     0.214 C 
ATOM      5  C   UNL     1      14.760  20.780  51.847  1.00  0.00     0.339 C 
ATOM      6  O   UNL     1      14.693  22.266  51.756  1.00  0.00    -0.332 OA
ENDROOT
BRANCH   1   7
ATOM      7  C   UNL     1      14.875  22.709  49.256  1.00  0.00     0.198 C 
BRANCH   7   8
ATOM      8  O   UNL     1      13.917  23.776  49.186  1.00  0.00    -0.347 OA
BRANCH   8   9
ATOM      9  C   UNL     1      14.523  25.034  48.799  1.00  0.00     0.281 C 
ATOM     10  C   UNL     1      11.936  26.337  47.344  1.00  0.00     0.041 C 
ATOM     11  C   UNL     1      13.439  26.613  47.250  1.00  0.00     0.150 C 
ATOM     12  C   UNL     1      14.001  27.806  48.000  1.00  0.00     0.174 C 
ATOM     13  O   UNL     1      14.180  25.423  47.433  1.00  0.00    -0.344 OA
ATOM     14  C   UNL     1      14.002  27.665  49.586  1.00  0.00     0.179 C 
ATOM     15  C   UNL     1      14.484  26.166  49.946  1.00  0.00     0.202 C 
BRANCH  12  16
ATOM     16  O   UNL     1      13.342  29.000  47.681  1.00  0.00    -0.388 OA
ATOM     17  H   UNL     1      12.907  28.800  46.788  1.00  0.00     0.211 HD
ENDBRANCH  12  16
BRANCH  14  18
ATOM     18  O   UNL     1      12.667  27.774  50.034  1.00  0.00    -0.387 OA
ATOM     19  H   UNL     1      12.573  27.248  50.887  1.00  0.00     0.211 HD
ENDBRANCH  14  18
BRANCH  15  20
ATOM     20  O   UNL     1      15.637  26.198  50.741  1.00  0.00    -0.385 OA
ATOM     21  H   UNL     1      16.231  26.965  50.497  1.00  0.00     0.211 HD
ENDBRANCH  15  20
ENDBRANCH   8   9
ENDBRANCH   7   8
ENDBRANCH   1   7
BRANCH   2  22
ATOM     22  O   UNL     1      16.812  23.866  52.455  1.00  0.00    -0.387 OA
ATOM     23  H   UNL     1      17.694  24.329  52.562  1.00  0.00     0.211 HD
ENDBRANCH   2  22
BRANCH   3  24
ATOM     24  O   UNL     1      17.969  20.750  50.725  1.00  0.00    -0.387 OA
ATOM     25  H   UNL     1      17.241  20.085  50.422  1.00  0.00     0.211 HD
ENDBRANCH   3  24
BRANCH   5  26
ATOM     26  O   UNL     1      14.211  20.012  50.529  1.00  0.00    -0.454 OA
BRANCH  26  27
ATOM     27  C   UNL     1      13.638  18.626  50.235  1.00  0.00     0.214 A 
ATOM     28  C   UNL     1      14.610  17.771  50.470  1.00  0.00     0.180 A 
ATOM     29  C   UNL     1      13.197  18.152  48.896  1.00  0.00     0.239 A 
ATOM     30  O   UNL     1      15.612  18.031  49.629  1.00  0.00    -0.452 OA
ATOM     31  C   UNL     1      14.120  18.561  47.868  1.00  0.00     0.111 A 
ATOM     32  O   UNL     1      12.663  16.985  48.695  1.00  0.00    -0.285 OA
ATOM     33  C   UNL     1      15.416  18.693  48.448  1.00  0.00     0.146 A 
ATOM     34  C   UNL     1      13.987  18.352  46.447  1.00  0.00     0.134 A 
ATOM     35  C   UNL     1      16.541  18.904  47.641  1.00  0.00     0.094 A 
ATOM     36  C   UNL     1      15.137  18.397  45.700  1.00  0.00     0.093 A 
ATOM     37  C   UNL     1      16.411  18.721  46.294  1.00  0.00     0.123 A 
BRANCH  28  38
ATOM     38  C   UNL     1      14.545  16.619  51.457  1.00  0.00     0.025 A 
ATOM     39  C   UNL     1      13.467  16.303  52.410  1.00  0.00     0.062 A 
ATOM     40  C   UNL     1      15.625  15.743  51.387  1.00  0.00     0.016 A 
ATOM     41  C   UNL     1      13.544  15.108  53.189  1.00  0.00     0.158 A 
ATOM     42  C   UNL     1      15.708  14.617  52.175  1.00  0.00     0.051 A 
ATOM     43  C   UNL     1      14.685  14.260  53.013  1.00  0.00     0.157 A 
BRANCH  41  44
ATOM     44  O   UNL     1      12.498  14.657  54.005  1.00  0.00    -0.504 OA
ATOM     45  H   UNL     1      12.371  13.688  54.257  1.00  0.00     0.293 HD
ENDBRANCH  41  44
BRANCH  43  46
ATOM     46  O   UNL     1      14.801  13.079  53.759  1.00  0.00    -0.504 OA
ATOM     47  H   UNL     1      14.601  12.132  53.368  1.00  0.00     0.293 HD
ENDBRANCH  43  46
ENDBRANCH  28  38
BRANCH  34  48
ATOM     48  O   UNL     1      12.705  18.152  45.878  1.00  0.00    -0.507 OA
ATOM     49  H   UNL     1      12.620  18.012  44.842  1.00  0.00     0.293 HD
ENDBRANCH  34  48
BRANCH  37  50
ATOM     50  O   UNL     1      17.500  18.492  45.452  1.00  0.00    -0.508 OA
ATOM     51  H   UNL     1      17.863  17.553  45.433  1.00  0.00     0.293 HD
ENDBRANCH  37  50
ENDBRANCH  26  27
ENDBRANCH   5  26
BRANCH   4  52
ATOM     52  O   UNL     1      16.750  19.294  52.336  1.00  0.00    -0.384 OA
ATOM     53  H   UNL     1      17.644  19.421  51.915  1.00  0.00     0.211 HD
ENDBRANCH   4  52
TORSDOF 16
ENDMDL
MODEL 4
REMARK VINA RESULT:    -5.519      8.794     13.491
REMARK INTER + INTRA:         -11.732
REMARK INTER:                  -8.942
REMARK INTRA:                  -2.790
REMARK UNBOUND:                -2.664
REMARK SMILES C[C@@H]1O[C@H](OC[C@@H]2O[C@@H](Oc3c(-c4ccc(O)c(O)c4)oc4cc(O)cc(O)c4c3=O)[C@@H](O)[C@@H](O)[C@@H]2O)[C@@H](O)[C@H](O)[C@@H]1O
REMARK SMILES IDX 7 1 36 2 34 3 32 4 9 5 8 6 6 7 5 8 4 9 1 10 2 11 42 12 3 13
REMARK SMILES IDX 40 14 38 15 43 16 41 18 39 20 37 22 35 24 10 26 11 27 12 28
REMARK SMILES IDX 30 29 21 30 29 31 31 32 22 33 27 34 23 35 26 36 24 37 13 38
REMARK SMILES IDX 20 39 14 40 18 41 15 42 16 43 19 44 17 46 28 48 25 50 33 52
REMARK H PARENT 43 17 41 19 39 21 37 23 35 25 19 45 17 47 28 49 25 51 33 53
REMARK Flexibility Score: inf
ROOT
ATOM      1  C   UNL     1      16.442  21.560  52.087  1.00  0.00     0.180 C 
ATOM      2  C   UNL     1      17.658  20.982  52.848  1.00  0.00     0.177 C 
ATOM      3  C   UNL     1      18.260  22.211  53.629  1.00  0.00     0.180 C 
ATOM      4  C   UNL     1      18.337  23.619  52.784  1.00  0.00     0.214 C 
ATOM      5  C   UNL     1      17.073  23.784  51.703  1.00  0.00     0.339 C 
ATOM      6  O   UNL     1      17.007  22.423  51.101  1.00  0.00    -0.332 OA
ENDROOT
BRANCH   1   7
ATOM      7  C   UNL     1      14.853  21.462  52.056  1.00  0.00     0.198 C 
BRANCH   7   8
ATOM      8  O   UNL     1      14.372  21.372  50.707  1.00  0.00    -0.347 OA
BRANCH   8   9
ATOM      9  C   UNL     1      14.678  20.093  50.099  1.00  0.00     0.281 C 
ATOM     10  C   UNL     1      12.095  19.907  48.149  1.00  0.00     0.041 C 
ATOM     11  C   UNL     1      13.060  18.860  48.710  1.00  0.00     0.150 C 
ATOM     12  C   UNL     1      14.162  18.339  47.807  1.00  0.00     0.174 C 
ATOM     13  O   UNL     1      13.504  19.227  50.000  1.00  0.00    -0.344 OA
ATOM     14  C   UNL     1      15.309  19.392  47.468  1.00  0.00     0.179 C 
ATOM     15  C   UNL     1      15.666  20.185  48.829  1.00  0.00     0.202 C 
BRANCH  12  16
ATOM     16  O   UNL     1      13.672  17.841  46.593  1.00  0.00    -0.388 OA
ATOM     17  H   UNL     1      14.232  17.012  46.433  1.00  0.00     0.211 HD
ENDBRANCH  12  16
BRANCH  14  18
ATOM     18  O   UNL     1      14.772  20.347  46.577  1.00  0.00    -0.387 OA
ATOM     19  H   UNL     1      15.439  21.094  46.472  1.00  0.00     0.211 HD
ENDBRANCH  14  18
BRANCH  15  20
ATOM     20  O   UNL     1      17.017  20.015  49.157  1.00  0.00    -0.385 OA
ATOM     21  H   UNL     1      17.460  20.890  49.353  1.00  0.00     0.211 HD
ENDBRANCH  15  20
ENDBRANCH   8   9
ENDBRANCH   7   8
ENDBRANCH   1   7
BRANCH   2  22
ATOM     22  O   UNL     1      18.611  20.369  51.967  1.00  0.00    -0.387 OA
ATOM     23  H   UNL     1      18.795  21.002  51.212  1.00  0.00     0.211 HD
ENDBRANCH   2  22
BRANCH   3  24
ATOM     24  O   UNL     1      17.463  22.501  54.827  1.00  0.00    -0.387 OA
ATOM     25  H   UNL     1      16.562  22.012  54.717  1.00  0.00     0.211 HD
ENDBRANCH   3  24
BRANCH   5  26
ATOM     26  O   UNL     1      15.624  24.419  52.061  1.00  0.00    -0.454 OA
BRANCH  26  27
ATOM     27  C   UNL     1      14.511  25.107  51.272  1.00  0.00     0.214 A 
ATOM     28  C   UNL     1      15.072  25.574  50.177  1.00  0.00     0.180 A 
ATOM     29  C   UNL     1      13.773  26.318  51.719  1.00  0.00     0.239 A 
ATOM     30  O   UNL     1      15.995  26.470  50.527  1.00  0.00    -0.452 OA
ATOM     31  C   UNL     1      14.665  27.284  52.309  1.00  0.00     0.111 A 
ATOM     32  O   UNL     1      12.793  26.843  51.047  1.00  0.00    -0.285 OA
ATOM     33  C   UNL     1      15.958  27.120  51.730  1.00  0.00     0.146 A 
ATOM     34  C   UNL     1      14.305  28.541  52.920  1.00  0.00     0.134 A 
ATOM     35  C   UNL     1      16.977  28.047  51.986  1.00  0.00     0.094 A 
ATOM     36  C   UNL     1      15.285  29.496  53.004  1.00  0.00     0.093 A 
ATOM     37  C   UNL     1      16.638  29.230  52.579  1.00  0.00     0.123 A 
BRANCH  28  38
ATOM     38  C   UNL     1      14.654  25.225  48.760  1.00  0.00     0.025 A 
ATOM     39  C   UNL     1      14.052  23.970  48.277  1.00  0.00     0.062 A 
ATOM     40  C   UNL     1      14.821  26.258  47.843  1.00  0.00     0.016 A 
ATOM     41  C   UNL     1      13.630  23.871  46.917  1.00  0.00     0.158 A 
ATOM     42  C   UNL     1      14.449  26.134  46.523  1.00  0.00     0.051 A 
ATOM     43  C   UNL     1      13.818  25.008  46.067  1.00  0.00     0.157 A 
BRANCH  41  44
ATOM     44  O   UNL     1      12.915  22.774  46.414  1.00  0.00    -0.504 OA
ATOM     45  H   UNL     1      12.373  22.810  45.564  1.00  0.00     0.293 HD
ENDBRANCH  41  44
BRANCH  43  46
ATOM     46  O   UNL     1      13.420  24.952  44.723  1.00  0.00    -0.504 OA
ATOM     47  H   UNL     1      13.459  25.772  44.079  1.00  0.00     0.293 HD
ENDBRANCH  43  46
ENDBRANCH  28  38
BRANCH  34  48
ATOM     48  O   UNL     1      12.998  28.729  53.434  1.00  0.00    -0.507 OA
ATOM     49  H   UNL     1      12.485  27.910  53.840  1.00  0.00     0.293 HD
ENDBRANCH  34  48
BRANCH  37  50
ATOM     50  O   UNL     1      17.442  30.368  52.512  1.00  0.00    -0.508 OA
ATOM     51  H   UNL     1      17.328  30.951  51.699  1.00  0.00     0.293 HD
ENDBRANCH  37  50
ENDBRANCH  26  27
ENDBRANCH   5  26
BRANCH   4  52
ATOM     52  O   UNL     1      18.335  24.572  53.751  1.00  0.00    -0.384 OA
ATOM     53  H   UNL     1      18.811  24.158  54.523  1.00  0.00     0.211 HD
ENDBRANCH   4  52
TORSDOF 16
ENDMDL
MODEL 5
REMARK VINA RESULT:    -5.381      9.203     13.717
REMARK INTER + INTRA:         -11.505
REMARK INTER:                  -8.720
REMARK INTRA:                  -2.785
REMARK UNBOUND:                -2.664
REMARK SMILES C[C@@H]1O[C@H](OC[C@@H]2O[C@@H](Oc3c(-c4ccc(O)c(O)c4)oc4cc(O)cc(O)c4c3=O)[C@@H](O)[C@@H](O)[C@@H]2O)[C@@H](O)[C@H](O)[C@@H]1O
REMARK SMILES IDX 7 1 36 2 34 3 32 4 9 5 8 6 6 7 5 8 4 9 1 10 2 11 42 12 3 13
REMARK SMILES IDX 40 14 38 15 43 16 41 18 39 20 37 22 35 24 10 26 11 27 12 28
REMARK SMILES IDX 30 29 21 30 29 31 31 32 22 33 27 34 23 35 26 36 24 37 13 38
REMARK SMILES IDX 20 39 14 40 18 41 15 42 16 43 19 44 17 46 28 48 25 50 33 52
REMARK H PARENT 43 17 41 19 39 21 37 23 35 25 19 45 17 47 28 49 25 51 33 53
REMARK Flexibility Score: inf
ROOT
ATOM      1  C   UNL     1      13.706  24.647  47.876  1.00  0.00     0.180 C 
ATOM      2  C   UNL     1      14.108  25.265  46.517  1.00  0.00     0.177 C 
ATOM      3  C   UNL     1      14.826  26.618  46.891  1.00  0.00     0.180 C 
ATOM      4  C   UNL     1      14.108  27.495  48.081  1.00  0.00     0.214 C 
ATOM      5  C   UNL     1      13.372  26.530  49.231  1.00  0.00     0.339 C 
ATOM      6  O   UNL     1      12.691  25.512  48.383  1.00  0.00    -0.332 OA
ENDROOT
BRANCH   1   7
ATOM      7  C   UNL     1      14.043  23.397  48.805  1.00  0.00     0.198 C 
BRANCH   7   8
ATOM      8  O   UNL     1      12.916  22.514  48.901  1.00  0.00    -0.347 OA
BRANCH   8   9
ATOM      9  C   UNL     1      13.262  21.245  49.508  1.00  0.00     0.281 C 
ATOM     10  C   UNL     1      15.020  20.054  47.058  1.00  0.00     0.041 C 
ATOM     11  C   UNL     1      14.300  19.404  48.242  1.00  0.00     0.150 C 
ATOM     12  C   UNL     1      15.124  18.981  49.443  1.00  0.00     0.174 C 
ATOM     13  O   UNL     1      13.132  20.126  48.577  1.00  0.00    -0.344 OA
ATOM     14  C   UNL     1      15.720  20.180  50.306  1.00  0.00     0.179 C 
ATOM     15  C   UNL     1      14.566  21.300  50.454  1.00  0.00     0.202 C 
BRANCH  12  16
ATOM     16  O   UNL     1      16.189  18.140  49.095  1.00  0.00    -0.388 OA
ATOM     17  H   UNL     1      16.952  18.471  49.672  1.00  0.00     0.211 HD
ENDBRANCH  12  16
BRANCH  14  18
ATOM     18  O   UNL     1      16.763  20.775  49.563  1.00  0.00    -0.387 OA
ATOM     19  H   UNL     1      16.730  20.416  48.623  1.00  0.00     0.211 HD
ENDBRANCH  14  18
BRANCH  15  20
ATOM     20  O   UNL     1      14.269  21.525  51.804  1.00  0.00    -0.385 OA
ATOM     21  H   UNL     1      13.675  22.321  51.922  1.00  0.00     0.211 HD
ENDBRANCH  15  20
ENDBRANCH   8   9
ENDBRANCH   7   8
ENDBRANCH   1   7
BRANCH   2  22
ATOM     22  O   UNL     1      12.980  25.461  45.653  1.00  0.00    -0.387 OA
ATOM     23  H   UNL     1      12.517  24.580  45.534  1.00  0.00     0.211 HD
ENDBRANCH   2  22
BRANCH   3  24
ATOM     24  O   UNL     1      16.197  26.365  47.348  1.00  0.00    -0.387 OA
ATOM     25  H   UNL     1      16.404  27.056  48.085  1.00  0.00     0.211 HD
ENDBRANCH   3  24
BRANCH   5  26
ATOM     26  O   UNL     1      14.113  25.915  50.535  1.00  0.00    -0.454 OA
BRANCH  26  27
ATOM     27  C   UNL     1      15.544  25.900  51.069  1.00  0.00     0.214 A 
ATOM     28  C   UNL     1      15.482  25.367  52.271  1.00  0.00     0.180 A 
ATOM     29  C   UNL     1      16.356  27.111  51.368  1.00  0.00     0.239 A 
ATOM     30  O   UNL     1      14.723  26.149  53.039  1.00  0.00    -0.452 OA
ATOM     31  C   UNL     1      15.565  28.118  52.028  1.00  0.00     0.111 A 
ATOM     32  O   UNL     1      17.590  27.059  51.768  1.00  0.00    -0.285 OA
ATOM     33  C   UNL     1      14.522  27.472  52.755  1.00  0.00     0.146 A 
ATOM     34  C   UNL     1      15.986  29.447  52.403  1.00  0.00     0.134 A 
ATOM     35  C   UNL     1      13.712  28.197  53.638  1.00  0.00     0.094 A 
ATOM     36  C   UNL     1      15.272  30.069  53.395  1.00  0.00     0.093 A 
ATOM     37  C   UNL     1      14.103  29.461  53.980  1.00  0.00     0.123 A 
BRANCH  28  38
ATOM     38  C   UNL     1      16.239  24.131  52.721  1.00  0.00     0.025 A 
ATOM     39  C   UNL     1      17.258  23.371  51.975  1.00  0.00     0.062 A 
ATOM     40  C   UNL     1      15.955  23.728  54.023  1.00  0.00     0.016 A 
ATOM     41  C   UNL     1      17.936  22.289  52.615  1.00  0.00     0.158 A 
ATOM     42  C   UNL     1      16.585  22.656  54.613  1.00  0.00     0.051 A 
ATOM     43  C   UNL     1      17.588  21.981  53.970  1.00  0.00     0.157 A 
BRANCH  41  44
ATOM     44  O   UNL     1      19.017  21.612  52.034  1.00  0.00    -0.504 OA
ATOM     45  H   UNL     1      18.962  21.145  51.141  1.00  0.00     0.293 HD
ENDBRANCH  41  44
BRANCH  43  46
ATOM     46  O   UNL     1      18.229  20.925  54.634  1.00  0.00    -0.504 OA
ATOM     47  H   UNL     1      18.990  20.355  54.205  1.00  0.00     0.293 HD
ENDBRANCH  43  46
ENDBRANCH  28  38
BRANCH  34  48
ATOM     48  O   UNL     1      17.067  30.064  51.727  1.00  0.00    -0.507 OA
ATOM     49  H   UNL     1      17.169  31.106  51.769  1.00  0.00     0.293 HD
ENDBRANCH  34  48
BRANCH  37  50
ATOM     50  O   UNL     1      13.641  30.112  55.125  1.00  0.00    -0.508 OA
ATOM     51  H   UNL     1      13.049  30.914  54.977  1.00  0.00     0.293 HD
ENDBRANCH  37  50
ENDBRANCH  26  27
ENDBRANCH   5  26
BRANCH   4  52
ATOM     52  O   UNL     1      15.124  28.240  48.586  1.00  0.00    -0.384 OA
ATOM     53  H   UNL     1      15.867  28.143  47.929  1.00  0.00     0.211 HD
ENDBRANCH   4  52
TORSDOF 16
ENDMDL
MODEL 6
REMARK VINA RESULT:    -5.376      7.806     12.198
REMARK INTER + INTRA:         -11.497
REMARK INTER:                  -9.089
REMARK INTRA:                  -2.408
REMARK UNBOUND:                -2.664
REMARK SMILES C[C@@H]1O[C@H](OC[C@@H]2O[C@@H](Oc3c(-c4ccc(O)c(O)c4)oc4cc(O)cc(O)c4c3=O)[C@@H](O)[C@@H](O)[C@@H]2O)[C@@H](O)[C@H](O)[C@@H]1O
REMARK SMILES IDX 7 1 36 2 34 3 32 4 9 5 8 6 6 7 5 8 4 9 1 10 2 11 42 12 3 13
REMARK SMILES IDX 40 14 38 15 43 16 41 18 39 20 37 22 35 24 10 26 11 27 12 28
REMARK SMILES IDX 30 29 21 30 29 31 31 32 22 33 27 34 23 35 26 36 24 37 13 38
REMARK SMILES IDX 20 39 14 40 18 41 15 42 16 43 19 44 17 46 28 48 25 50 33 52
REMARK H PARENT 43 17 41 19 39 21 37 23 35 25 19 45 17 47 28 49 25 51 33 53
REMARK Flexibility Score: inf
ROOT
ATOM      1  C   UNL     1      12.552  24.983  47.730  1.00  0.00     0.180 C 
ATOM      2  C   UNL     1      12.929  25.935  46.571  1.00  0.00     0.177 C 
ATOM      3  C   UNL     1      14.241  26.657  47.060  1.00  0.00     0.180 C 
ATOM      4  C   UNL     1      14.242  27.138  48.632  1.00  0.00     0.214 C 
ATOM      5  C   UNL     1      13.377  26.101  49.617  1.00  0.00     0.339 C 
ATOM      6  O   UNL     1      12.161  25.846  48.797  1.00  0.00    -0.332 OA
ENDROOT
BRANCH   1   7
ATOM      7  C   UNL     1      12.447  23.427  48.057  1.00  0.00     0.198 C 
BRANCH   7   8
ATOM      8  O   UNL     1      12.362  22.656  46.849  1.00  0.00    -0.347 OA
BRANCH   8   9
ATOM      9  C   UNL     1      13.667  22.271  46.352  1.00  0.00     0.281 C 
ATOM     10  C   UNL     1      12.976  19.180  45.661  1.00  0.00     0.041 C 
ATOM     11  C   UNL     1      14.287  19.926  45.920  1.00  0.00     0.150 C 
ATOM     12  C   UNL     1      15.139  20.323  44.729  1.00  0.00     0.174 C 
ATOM     13  O   UNL     1      14.095  20.968  46.857  1.00  0.00    -0.344 OA
ATOM     14  C   UNL     1      14.524  21.472  43.814  1.00  0.00     0.179 C 
ATOM     15  C   UNL     1      13.901  22.598  44.791  1.00  0.00     0.202 C 
BRANCH  12  16
ATOM     16  O   UNL     1      15.440  19.235  43.899  1.00  0.00    -0.388 OA
ATOM     17  H   UNL     1      15.851  19.668  43.080  1.00  0.00     0.211 HD
ENDBRANCH  12  16
BRANCH  14  18
ATOM     18  O   UNL     1      13.440  20.922  43.095  1.00  0.00    -0.387 OA
ATOM     19  H   UNL     1      12.812  20.484  43.749  1.00  0.00     0.211 HD
ENDBRANCH  14  18
BRANCH  15  20
ATOM     20  O   UNL     1      14.511  23.838  44.563  1.00  0.00    -0.385 OA
ATOM     21  H   UNL     1      13.903  24.461  44.069  1.00  0.00     0.211 HD
ENDBRANCH  15  20
ENDBRANCH   8   9
ENDBRANCH   7   8
ENDBRANCH   1   7
BRANCH   2  22
ATOM     22  O   UNL     1      11.875  26.858  46.260  1.00  0.00    -0.387 OA
ATOM     23  H   UNL     1      11.784  27.502  47.023  1.00  0.00     0.211 HD
ENDBRANCH   2  22
BRANCH   3  24
ATOM     24  O   UNL     1      15.403  25.774  46.907  1.00  0.00    -0.387 OA
ATOM     25  H   UNL     1      15.056  24.804  46.960  1.00  0.00     0.211 HD
ENDBRANCH   3  24
BRANCH   5  26
ATOM     26  O   UNL     1      13.985  24.776  50.328  1.00  0.00    -0.454 OA
BRANCH  26  27
ATOM     27  C   UNL     1      14.583  24.450  51.695  1.00  0.00     0.214 A 
ATOM     28  C   UNL     1      15.885  24.385  51.520  1.00  0.00     0.180 A 
ATOM     29  C   UNL     1      14.361  23.184  52.443  1.00  0.00     0.239 A 
ATOM     30  O   UNL     1      16.146  23.394  50.668  1.00  0.00    -0.452 OA
ATOM     31  C   UNL     1      14.421  22.043  51.565  1.00  0.00     0.111 A 
ATOM     32  O   UNL     1      14.841  22.965  53.630  1.00  0.00    -0.285 OA
ATOM     33  C   UNL     1      15.274  22.360  50.467  1.00  0.00     0.146 A 
ATOM     34  C   UNL     1      14.181  20.663  51.914  1.00  0.00     0.134 A 
ATOM     35  C   UNL     1      15.658  21.370  49.552  1.00  0.00     0.094 A 
ATOM     36  C   UNL     1      14.717  19.710  51.087  1.00  0.00     0.093 A 
ATOM     37  C   UNL     1      15.416  20.065  49.876  1.00  0.00     0.123 A 
BRANCH  28  38
ATOM     38  C   UNL     1      16.912  25.230  52.254  1.00  0.00     0.025 A 
ATOM     39  C   UNL     1      18.212  24.802  52.800  1.00  0.00     0.062 A 
ATOM     40  C   UNL     1      16.577  26.577  52.356  1.00  0.00     0.016 A 
ATOM     41  C   UNL     1      19.089  25.775  53.370  1.00  0.00     0.158 A 
ATOM     42  C   UNL     1      17.414  27.497  52.947  1.00  0.00     0.051 A 
ATOM     43  C   UNL     1      18.658  27.141  53.393  1.00  0.00     0.157 A 
BRANCH  41  44
ATOM     44  O   UNL     1      20.399  25.482  53.774  1.00  0.00    -0.504 OA
ATOM     45  H   UNL     1      21.216  25.865  53.322  1.00  0.00     0.293 HD
ENDBRANCH  41  44
BRANCH  43  46
ATOM     46  O   UNL     1      19.488  28.127  53.946  1.00  0.00    -0.504 OA
ATOM     47  H   UNL     1      19.778  28.988  53.431  1.00  0.00     0.293 HD
ENDBRANCH  43  46
ENDBRANCH  28  38
BRANCH  34  48
ATOM     48  O   UNL     1      13.390  20.347  53.046  1.00  0.00    -0.507 OA
ATOM     49  H   UNL     1      12.444  19.919  52.906  1.00  0.00     0.293 HD
ENDBRANCH  34  48
BRANCH  37  50
ATOM     50  O   UNL     1      16.094  19.000  49.283  1.00  0.00    -0.508 OA
ATOM     51  H   UNL     1      15.557  18.166  49.111  1.00  0.00     0.293 HD
ENDBRANCH  37  50
ENDBRANCH  26  27
ENDBRANCH   5  26
BRANCH   4  52
ATOM     52  O   UNL     1      15.561  27.193  48.948  1.00  0.00    -0.384 OA
ATOM     53  H   UNL     1      15.814  26.253  49.165  1.00  0.00     0.211 HD
ENDBRANCH   4  52
TORSDOF 16
ENDMDL
MODEL 7
REMARK VINA RESULT:    -5.373      8.431     12.658
REMARK INTER + INTRA:         -11.492
REMARK INTER:                  -8.874
REMARK INTRA:                  -2.618
REMARK UNBOUND:                -2.664
REMARK SMILES C[C@@H]1O[C@H](OC[C@@H]2O[C@@H](Oc3c(-c4ccc(O)c(O)c4)oc4cc(O)cc(O)c4c3=O)[C@@H](O)[C@@H](O)[C@@H]2O)[C@@H](O)[C@H](O)[C@@H]1O
REMARK SMILES IDX 7 1 36 2 34 3 32 4 9 5 8 6 6 7 5 8 4 9 1 10 2 11 42 12 3 13
REMARK SMILES IDX 40 14 38 15 43 16 41 18 39 20 37 22 35 24 10 26 11 27 12 28
REMARK SMILES IDX 30 29 21 30 29 31 31 32 22 33 27 34 23 35 26 36 24 37 13 38
REMARK SMILES IDX 20 39 14 40 18 41 15 42 16 43 19 44 17 46 28 48 25 50 33 52
REMARK H PARENT 43 17 41 19 39 21 37 23 35 25 19 45 17 47 28 49 25 51 33 53
REMARK Flexibility Score: inf
ROOT
ATOM      1  C   UNL     1      13.074  23.403  46.819  1.00  0.00     0.180 C 
ATOM      2  C   UNL     1      13.278  24.138  45.474  1.00  0.00     0.177 C 
ATOM      3  C   UNL     1      13.645  25.616  45.879  1.00  0.00     0.180 C 
ATOM      4  C   UNL     1      12.758  26.255  47.107  1.00  0.00     0.214 C 
ATOM      5  C   UNL     1      12.312  25.107  48.237  1.00  0.00     0.339 C 
ATOM      6  O   UNL     1      11.887  23.974  47.368  1.00  0.00    -0.332 OA
ENDROOT
BRANCH   1   7
ATOM      7  C   UNL     1      13.732  22.252  47.702  1.00  0.00     0.198 C 
BRANCH   7   8
ATOM      8  O   UNL     1      12.756  21.264  48.063  1.00  0.00    -0.347 OA
BRANCH   8   9
ATOM      9  C   UNL     1      13.165  19.926  47.687  1.00  0.00     0.281 C 
ATOM     10  C   UNL     1      14.251  20.621  44.713  1.00  0.00     0.041 C 
ATOM     11  C   UNL     1      13.787  19.324  45.381  1.00  0.00     0.150 C 
ATOM     12  C   UNL     1      14.840  18.348  45.870  1.00  0.00     0.174 C 
ATOM     13  O   UNL     1      12.766  19.583  46.324  1.00  0.00    -0.344 OA
ATOM     14  C   UNL     1      15.680  18.841  47.131  1.00  0.00     0.179 C 
ATOM     15  C   UNL     1      14.651  19.530  48.168  1.00  0.00     0.202 C 
BRANCH  12  16
ATOM     16  O   UNL     1      15.751  17.993  44.867  1.00  0.00    -0.388 OA
ATOM     17  H   UNL     1      15.715  16.981  44.862  1.00  0.00     0.211 HD
ENDBRANCH  12  16
BRANCH  14  18
ATOM     18  O   UNL     1      16.556  19.861  46.699  1.00  0.00    -0.387 OA
ATOM     19  H   UNL     1      16.006  20.608  46.308  1.00  0.00     0.211 HD
ENDBRANCH  14  18
BRANCH  15  20
ATOM     20  O   UNL     1      14.683  18.870  49.403  1.00  0.00    -0.385 OA
ATOM     21  H   UNL     1      15.449  18.228  49.457  1.00  0.00     0.211 HD
ENDBRANCH  15  20
ENDBRANCH   8   9
ENDBRANCH   7   8
ENDBRANCH   1   7
BRANCH   2  22
ATOM     22  O   UNL     1      12.117  24.069  44.634  1.00  0.00    -0.387 OA
ATOM     23  H   UNL     1      12.411  24.171  43.681  1.00  0.00     0.211 HD
ENDBRANCH   2  22
BRANCH   3  24
ATOM     24  O   UNL     1      15.047  25.701  46.307  1.00  0.00    -0.387 OA
ATOM     25  H   UNL     1      15.521  26.351  45.661  1.00  0.00     0.211 HD
ENDBRANCH   3  24
BRANCH   5  26
ATOM     26  O   UNL     1      13.213  24.661  49.510  1.00  0.00    -0.454 OA
BRANCH  26  27
ATOM     27  C   UNL     1      14.639  24.934  49.984  1.00  0.00     0.214 A 
ATOM     28  C   UNL     1      14.853  24.117  50.993  1.00  0.00     0.180 A 
ATOM     29  C   UNL     1      15.109  26.211  50.585  1.00  0.00     0.239 A 
ATOM     30  O   UNL     1      13.992  24.414  51.966  1.00  0.00    -0.452 OA
ATOM     31  C   UNL     1      14.143  26.735  51.517  1.00  0.00     0.111 A 
ATOM     32  O   UNL     1      16.343  26.426  50.925  1.00  0.00    -0.285 OA
ATOM     33  C   UNL     1      13.402  25.645  52.063  1.00  0.00     0.146 A 
ATOM     34  C   UNL     1      14.214  27.985  52.234  1.00  0.00     0.134 A 
ATOM     35  C   UNL     1      12.519  25.846  53.131  1.00  0.00     0.094 A 
ATOM     36  C   UNL     1      13.463  28.092  53.376  1.00  0.00     0.093 A 
ATOM     37  C   UNL     1      12.576  27.036  53.799  1.00  0.00     0.123 A 
BRANCH  28  38
ATOM     38  C   UNL     1      15.967  23.088  51.066  1.00  0.00     0.025 A 
ATOM     39  C   UNL     1      16.151  21.891  50.226  1.00  0.00     0.062 A 
ATOM     40  C   UNL     1      16.946  23.370  52.014  1.00  0.00     0.016 A 
ATOM     41  C   UNL     1      17.328  21.097  50.383  1.00  0.00     0.158 A 
ATOM     42  C   UNL     1      18.055  22.572  52.184  1.00  0.00     0.051 A 
ATOM     43  C   UNL     1      18.288  21.498  51.367  1.00  0.00     0.157 A 
BRANCH  41  44
ATOM     44  O   UNL     1      17.653  20.033  49.529  1.00  0.00    -0.504 OA
ATOM     45  H   UNL     1      17.790  19.087  49.851  1.00  0.00     0.293 HD
ENDBRANCH  41  44
BRANCH  43  46
ATOM     46  O   UNL     1      19.456  20.745  51.554  1.00  0.00    -0.504 OA
ATOM     47  H   UNL     1      19.851  20.110  50.827  1.00  0.00     0.293 HD
ENDBRANCH  43  46
ENDBRANCH  28  38
BRANCH  34  48
ATOM     48  O   UNL     1      15.005  29.046  51.728  1.00  0.00    -0.507 OA
ATOM     49  H   UNL     1      16.049  28.952  51.729  1.00  0.00     0.293 HD
ENDBRANCH  34  48
BRANCH  37  50
ATOM     50  O   UNL     1      12.073  27.205  55.090  1.00  0.00    -0.508 OA
ATOM     51  H   UNL     1      11.421  26.508  55.412  1.00  0.00     0.293 HD
ENDBRANCH  37  50
ENDBRANCH  26  27
ENDBRANCH   5  26
BRANCH   4  52
ATOM     52  O   UNL     1      13.568  27.216  47.619  1.00  0.00    -0.384 OA
ATOM     53  H   UNL     1      14.489  26.952  47.344  1.00  0.00     0.211 HD
ENDBRANCH   4  52
TORSDOF 16
ENDMDL
MODEL 8
REMARK VINA RESULT:    -5.195      8.887     13.290
REMARK INTER + INTRA:         -11.200
REMARK INTER:                  -8.986
REMARK INTRA:                  -2.214
REMARK UNBOUND:                -2.664
REMARK SMILES C[C@@H]1O[C@H](OC[C@@H]2O[C@@H](Oc3c(-c4ccc(O)c(O)c4)oc4cc(O)cc(O)c4c3=O)[C@@H](O)[C@@H](O)[C@@H]2O)[C@@H](O)[C@H](O)[C@@H]1O
REMARK SMILES IDX 7 1 36 2 34 3 32 4 9 5 8 6 6 7 5 8 4 9 1 10 2 11 42 12 3 13
REMARK SMILES IDX 40 14 38 15 43 16 41 18 39 20 37 22 35 24 10 26 11 27 12 28
REMARK SMILES IDX 30 29 21 30 29 31 31 32 22 33 27 34 23 35 26 36 24 37 13 38
REMARK SMILES IDX 20 39 14 40 18 41 15 42 16 43 19 44 17 46 28 48 25 50 33 52
REMARK H PARENT 43 17 41 19 39 21 37 23 35 25 19 45 17 47 28 49 25 51 33 53
REMARK Flexibility Score: inf
ROOT
ATOM      1  C   UNL     1      13.537  24.451  47.758  1.00  0.00     0.180 C 
ATOM      2  C   UNL     1      13.915  25.041  46.379  1.00  0.00     0.177 C 
ATOM      3  C   UNL     1      14.492  26.471  46.703  1.00  0.00     0.180 C 
ATOM      4  C   UNL     1      13.664  27.330  47.833  1.00  0.00     0.214 C 
ATOM      5  C   UNL     1      12.992  26.354  49.012  1.00  0.00     0.339 C 
ATOM      6  O   UNL     1      12.432  25.238  48.200  1.00  0.00    -0.332 OA
ENDROOT
BRANCH   1   7
ATOM      7  C   UNL     1      13.965  23.282  48.753  1.00  0.00     0.198 C 
BRANCH   7   8
ATOM      8  O   UNL     1      13.380  22.033  48.355  1.00  0.00    -0.347 OA
BRANCH   8   9
ATOM      9  C   UNL     1      14.187  21.338  47.373  1.00  0.00     0.281 C 
ATOM     10  C   UNL     1      13.666  18.320  48.437  1.00  0.00     0.041 C 
ATOM     11  C   UNL     1      14.760  18.950  47.572  1.00  0.00     0.150 C 
ATOM     12  C   UNL     1      14.689  18.760  46.069  1.00  0.00     0.174 C 
ATOM     13  O   UNL     1      15.007  20.284  47.969  1.00  0.00    -0.344 OA
ATOM     14  C   UNL     1      13.501  19.538  45.347  1.00  0.00     0.179 C 
ATOM     15  C   UNL     1      13.416  21.015  45.995  1.00  0.00     0.202 C 
BRANCH  12  16
ATOM     16  O   UNL     1      14.597  17.411  45.701  1.00  0.00    -0.388 OA
ATOM     17  H   UNL     1      14.227  17.447  44.759  1.00  0.00     0.211 HD
ENDBRANCH  12  16
BRANCH  14  18
ATOM     18  O   UNL     1      12.292  18.887  45.676  1.00  0.00    -0.387 OA
ATOM     19  H   UNL     1      12.397  18.455  46.579  1.00  0.00     0.211 HD
ENDBRANCH  14  18
BRANCH  15  20
ATOM     20  O   UNL     1      13.596  21.995  45.010  1.00  0.00    -0.385 OA
ATOM     21  H   UNL     1      12.993  21.842  44.226  1.00  0.00     0.211 HD
ENDBRANCH  15  20
ENDBRANCH   8   9
ENDBRANCH   7   8
ENDBRANCH   1   7
BRANCH   2  22
ATOM     22  O   UNL     1      12.796  25.088  45.482  1.00  0.00    -0.387 OA
ATOM     23  H   UNL     1      13.048  25.654  44.694  1.00  0.00     0.211 HD
ENDBRANCH   2  22
BRANCH   3  24
ATOM     24  O   UNL     1      15.869  26.370  47.201  1.00  0.00    -0.387 OA
ATOM     25  H   UNL     1      16.365  25.703  46.591  1.00  0.00     0.211 HD
ENDBRANCH   3  24
BRANCH   5  26
ATOM     26  O   UNL     1      13.753  25.873  50.361  1.00  0.00    -0.454 OA
BRANCH  26  27
ATOM     27  C   UNL     1      15.208  25.788  50.819  1.00  0.00     0.214 A 
ATOM     28  C   UNL     1      15.187  25.210  52.001  1.00  0.00     0.180 A 
ATOM     29  C   UNL     1      16.077  26.957  51.121  1.00  0.00     0.239 A 
ATOM     30  O   UNL     1      14.497  25.986  52.837  1.00  0.00    -0.452 OA
ATOM     31  C   UNL     1      15.357  27.964  51.859  1.00  0.00     0.111 A 
ATOM     32  O   UNL     1      17.327  26.848  51.455  1.00  0.00    -0.285 OA
ATOM     33  C   UNL     1      14.329  27.325  52.614  1.00  0.00     0.146 A 
ATOM     34  C   UNL     1      15.844  29.261  52.263  1.00  0.00     0.134 A 
ATOM     35  C   UNL     1      13.591  28.042  53.564  1.00  0.00     0.094 A 
ATOM     36  C   UNL     1      15.204  29.868  53.313  1.00  0.00     0.093 A 
ATOM     37  C   UNL     1      14.044  29.277  53.934  1.00  0.00     0.123 A 
BRANCH  28  38
ATOM     38  C   UNL     1      15.921  23.932  52.365  1.00  0.00     0.025 A 
ATOM     39  C   UNL     1      15.855  23.178  53.629  1.00  0.00     0.062 A 
ATOM     40  C   UNL     1      16.697  23.404  51.336  1.00  0.00     0.016 A 
ATOM     41  C   UNL     1      16.546  21.933  53.742  1.00  0.00     0.158 A 
ATOM     42  C   UNL     1      17.392  22.224  51.473  1.00  0.00     0.051 A 
ATOM     43  C   UNL     1      17.288  21.467  52.609  1.00  0.00     0.157 A 
BRANCH  41  44
ATOM     44  O   UNL     1      16.416  21.083  54.849  1.00  0.00    -0.504 OA
ATOM     45  H   UNL     1      16.209  20.099  54.770  1.00  0.00     0.293 HD
ENDBRANCH  41  44
BRANCH  43  46
ATOM     46  O   UNL     1      17.982  20.250  52.678  1.00  0.00    -0.504 OA
ATOM     47  H   UNL     1      18.006  19.652  53.533  1.00  0.00     0.293 HD
ENDBRANCH  43  46
ENDBRANCH  28  38
BRANCH  34  48
ATOM     48  O   UNL     1      16.911  29.867  51.556  1.00  0.00    -0.507 OA
ATOM     49  H   UNL     1      17.348  30.740  51.938  1.00  0.00     0.293 HD
ENDBRANCH  34  48
BRANCH  37  50
ATOM     50  O   UNL     1      13.664  29.897  55.124  1.00  0.00    -0.508 OA
ATOM     51  H   UNL     1      13.753  30.900  55.156  1.00  0.00     0.293 HD
ENDBRANCH  37  50
ENDBRANCH  26  27
ENDBRANCH   5  26
BRANCH   4  52
ATOM     52  O   UNL     1      14.592  28.191  48.323  1.00  0.00    -0.384 OA
ATOM     53  H   UNL     1      15.459  27.705  48.251  1.00  0.00     0.211 HD
ENDBRANCH   4  52
TORSDOF 16
ENDMDL
MODEL 9
REMARK VINA RESULT:    -5.081     11.250     15.588
REMARK INTER + INTRA:         -11.013
REMARK INTER:                  -8.210
REMARK INTRA:                  -2.803
REMARK UNBOUND:                -2.664
REMARK SMILES C[C@@H]1O[C@H](OC[C@@H]2O[C@@H](Oc3c(-c4ccc(O)c(O)c4)oc4cc(O)cc(O)c4c3=O)[C@@H](O)[C@@H](O)[C@@H]2O)[C@@H](O)[C@H](O)[C@@H]1O
REMARK SMILES IDX 7 1 36 2 34 3 32 4 9 5 8 6 6 7 5 8 4 9 1 10 2 11 42 12 3 13
REMARK SMILES IDX 40 14 38 15 43 16 41 18 39 20 37 22 35 24 10 26 11 27 12 28
REMARK SMILES IDX 30 29 21 30 29 31 31 32 22 33 27 34 23 35 26 36 24 37 13 38
REMARK SMILES IDX 20 39 14 40 18 41 15 42 16 43 19 44 17 46 28 48 25 50 33 52
REMARK H PARENT 43 17 41 19 39 21 37 23 35 25 19 45 17 47 28 49 25 51 33 53
REMARK Flexibility Score: inf
ROOT
ATOM      1  C   UNL     1      18.541  24.299  53.636  1.00  0.00     0.180 C 
ATOM      2  C   UNL     1      19.457  23.054  53.628  1.00  0.00     0.177 C 
ATOM      3  C   UNL     1      18.500  21.858  53.257  1.00  0.00     0.180 C 
ATOM      4  C   UNL     1      17.033  21.868  53.998  1.00  0.00     0.214 C 
ATOM      5  C   UNL     1      16.462  23.417  54.261  1.00  0.00     0.339 C 
ATOM      6  O   UNL     1      17.681  24.111  54.760  1.00  0.00    -0.332 OA
ENDROOT
BRANCH   1   7
ATOM      7  C   UNL     1      18.306  25.657  52.836  1.00  0.00     0.198 C 
BRANCH   7   8
ATOM      8  O   UNL     1      19.119  26.712  53.370  1.00  0.00    -0.347 OA
BRANCH   8   9
ATOM      9  C   UNL     1      18.429  27.474  54.391  1.00  0.00     0.281 C 
ATOM     10  C   UNL     1      19.369  30.428  53.441  1.00  0.00     0.041 C 
ATOM     11  C   UNL     1      18.843  29.873  54.767  1.00  0.00     0.150 C 
ATOM     12  C   UNL     1      17.388  30.115  55.123  1.00  0.00     0.174 C 
ATOM     13  O   UNL     1      19.261  28.536  54.953  1.00  0.00    -0.344 OA
ATOM     14  C   UNL     1      16.335  29.319  54.231  1.00  0.00     0.179 C 
ATOM     15  C   UNL     1      16.895  27.816  54.034  1.00  0.00     0.202 C 
BRANCH  12  16
ATOM     16  O   UNL     1      17.042  31.472  55.076  1.00  0.00    -0.388 OA
ATOM     17  H   UNL     1      17.936  31.942  54.997  1.00  0.00     0.211 HD
ENDBRANCH  12  16
BRANCH  14  18
ATOM     18  O   UNL     1      16.315  29.910  52.949  1.00  0.00    -0.387 OA
ATOM     19  H   UNL     1      16.800  29.302  52.310  1.00  0.00     0.211 HD
ENDBRANCH  14  18
BRANCH  15  20
ATOM     20  O   UNL     1      15.981  26.882  54.537  1.00  0.00    -0.385 OA
ATOM     21  H   UNL     1      15.044  27.232  54.507  1.00  0.00     0.211 HD
ENDBRANCH  15  20
ENDBRANCH   8   9
ENDBRANCH   7   8
ENDBRANCH   1   7
BRANCH   2  22
ATOM     22  O   UNL     1      20.122  22.858  54.885  1.00  0.00    -0.387 OA
ATOM     23  H   UNL     1      19.640  22.137  55.387  1.00  0.00     0.211 HD
ENDBRANCH   2  22
BRANCH   3  24
ATOM     24  O   UNL     1      18.225  21.846  51.816  1.00  0.00    -0.387 OA
ATOM     25  H   UNL     1      18.938  21.244  51.376  1.00  0.00     0.211 HD
ENDBRANCH   3  24
BRANCH   5  26
ATOM     26  O   UNL     1      15.601  24.281  53.192  1.00  0.00    -0.454 OA
BRANCH  26  27
ATOM     27  C   UNL     1      14.323  24.054  52.385  1.00  0.00     0.214 A 
ATOM     28  C   UNL     1      14.710  23.721  51.172  1.00  0.00     0.180 A 
ATOM     29  C   UNL     1      13.324  25.106  52.056  1.00  0.00     0.239 A 
ATOM     30  O   UNL     1      15.394  24.741  50.653  1.00  0.00    -0.452 OA
ATOM     31  C   UNL     1      13.970  26.336  51.672  1.00  0.00     0.111 A 
ATOM     32  O   UNL     1      12.221  24.864  51.415  1.00  0.00    -0.285 OA
ATOM     33  C   UNL     1      15.241  26.023  51.105  1.00  0.00     0.146 A 
ATOM     34  C   UNL     1      13.332  27.591  51.357  1.00  0.00     0.134 A 
ATOM     35  C   UNL     1      16.007  27.015  50.479  1.00  0.00     0.094 A 
ATOM     36  C   UNL     1      14.048  28.480  50.596  1.00  0.00     0.093 A 
ATOM     37  C   UNL     1      15.407  28.209  50.197  1.00  0.00     0.123 A 
BRANCH  28  38
ATOM     38  C   UNL     1      14.339  22.434  50.456  1.00  0.00     0.025 A 
ATOM     39  C   UNL     1      14.718  22.013  49.096  1.00  0.00     0.062 A 
ATOM     40  C   UNL     1      13.599  21.543  51.227  1.00  0.00     0.016 A 
ATOM     41  C   UNL     1      14.354  20.711  48.636  1.00  0.00     0.158 A 
ATOM     42  C   UNL     1      13.218  20.307  50.756  1.00  0.00     0.051 A 
ATOM     43  C   UNL     1      13.621  19.861  49.526  1.00  0.00     0.157 A 
BRANCH  41  44
ATOM     44  O   UNL     1      14.800  20.176  47.419  1.00  0.00    -0.504 OA
ATOM     45  H   UNL     1      15.387  19.358  47.357  1.00  0.00     0.293 HD
ENDBRANCH  41  44
BRANCH  43  46
ATOM     46  O   UNL     1      13.242  18.576  49.113  1.00  0.00    -0.504 OA
ATOM     47  H   UNL     1      12.568  18.398  48.337  1.00  0.00     0.293 HD
ENDBRANCH  43  46
ENDBRANCH  28  38
BRANCH  34  48
ATOM     48  O   UNL     1      12.040  27.875  51.864  1.00  0.00    -0.507 OA
ATOM     49  H   UNL     1      11.834  28.834  52.232  1.00  0.00     0.293 HD
ENDBRANCH  34  48
BRANCH  37  50
ATOM     50  O   UNL     1      15.901  29.096  49.239  1.00  0.00    -0.508 OA
ATOM     51  H   UNL     1      16.012  30.054  49.530  1.00  0.00     0.293 HD
ENDBRANCH  37  50
ENDBRANCH  26  27
ENDBRANCH   5  26
BRANCH   4  52
ATOM     52  O   UNL     1      16.246  21.148  53.159  1.00  0.00    -0.384 OA
ATOM     53  H   UNL     1      16.539  20.203  53.276  1.00  0.00     0.211 HD
ENDBRANCH   4  52
TORSDOF 16
ENDMDL
