MODEL 1
REMARK VINA RESULT:     8.854      0.000      0.000
REMARK INTER + INTRA:          10.468
REMARK INTER:                   9.630
REMARK INTRA:                   0.839
REMARK UNBOUND:                 0.839
REMARK SMILES C[C@H]1[C@@H](C)CC[C@@]2(C(=O)[O-])CC[C@@]3(C)C(=CC[C@H]4[C@]5(C)CC[C@H](O)C(C)(C)[C@H]5CC[C@]43C)[C@@H]12
REMARK SMILES IDX 7 1 6 2 11 3 33 4 5 5 12 6 15 7 2 8 3 9 13 10 16 11 1 12
REMARK SMILES IDX 4 13 14 14 31 15 17 16 18 17 30 18 32 19 19 20 29 21 28 22
REMARK SMILES IDX 21 23 20 24 25 25 22 26 23 27 26 28 27 29 8 30 9 31 10 32
REMARK SMILES IDX 24 33
REMARK H PARENT 24 34
REMARK Flexibility Score: inf
ROOT
ATOM      1  C   UNL     1       8.131 -53.935 569.769  1.00  0.00     0.017 C 
ATOM      2  C   UNL     1       8.632 -53.963 568.294  1.00  0.00     0.014 C 
ATOM      3  C   UNL     1       6.601 -53.708 569.791  1.00  0.00     0.014 C 
ATOM      4  C   UNL     1       8.454 -55.266 570.551  1.00  0.00     0.030 C 
ATOM      5  C   UNL     1       8.402 -55.277 567.557  1.00  0.00     0.004 C 
ATOM      6  C   UNL     1       6.108 -53.441 571.218  1.00  0.00     0.013 C 
ATOM      7  C   UNL     1       7.658 -55.419 571.869  1.00  0.00    -0.063 C 
ATOM      8  C   UNL     1       8.405 -56.594 569.707  1.00  0.00    -0.003 C 
ATOM      9  C   UNL     1       9.076 -56.414 568.324  1.00  0.00    -0.011 C 
ATOM     10  C   UNL     1       6.375 -54.625 572.220  1.00  0.00    -0.006 C 
ATOM     11  C   UNL     1       8.126 -56.299 572.776  1.00  0.00    -0.027 C 
ATOM     12  C   UNL     1       7.019 -57.289 569.641  1.00  0.00     0.008 C 
ATOM     13  C   UNL     1       9.124 -57.704 567.491  1.00  0.00     0.008 C 
ATOM     14  C   UNL     1       5.124 -55.560 572.050  1.00  0.00     0.017 C 
ATOM     15  C   UNL     1       6.519 -54.125 573.751  1.00  0.00    -0.020 C 
ATOM     16  C   UNL     1       7.368 -56.630 574.025  1.00  0.00     0.032 C 
ATOM     17  C   UNL     1       6.746 -55.373 574.740  1.00  0.00     0.006 C 
ATOM     18  C   UNL     1       7.767 -53.192 573.929  1.00  0.00     0.008 C 
ATOM     19  C   UNL     1       5.221 -53.310 574.141  1.00  0.00     0.012 C 
ATOM     20  C   UNL     1       7.444 -55.035 576.164  1.00  0.00    -0.025 C 
ATOM     21  C   UNL     1       7.978 -52.643 575.359  1.00  0.00     0.005 C 
ATOM     22  C   UNL     1       7.317 -53.502 576.475  1.00  0.00     0.003 C 
ATOM     23  C   UNL     1       6.682 -55.831 577.276  1.00  0.00     0.010 C 
ATOM     24  C   UNL     1       8.955 -55.459 576.193  1.00  0.00     0.012 C 
ATOM     25  C   UNL     1       7.613 -53.010 577.967  1.00  0.00    -0.006 C 
ATOM     26  C   UNL     1       7.077 -55.438 578.709  1.00  0.00     0.033 C 
ATOM     27  C   UNL     1       6.869 -53.935 578.998  1.00  0.00     0.120 C 
ATOM     28  C   UNL     1       9.125 -52.960 578.370  1.00  0.00     0.014 C 
ATOM     29  C   UNL     1       7.076 -51.560 578.127  1.00  0.00     0.014 C 
ENDROOT
BRANCH   1  30
ATOM     30  C   UNL     1       8.830 -52.726 570.408  1.00  0.00     0.048 C 
ATOM     31  O   UNL     1       9.125 -52.747 571.636  1.00  0.00    -0.550 OA
ATOM     32  O   UNL     1       9.090 -51.565 569.682  1.00  0.00    -0.550 OA
ENDBRANCH   1  30
BRANCH  27  33
ATOM     33  O   UNL     1       5.496 -53.623 579.124  1.00  0.00    -0.393 OA
ATOM     34  H   UNL     1       5.414 -52.676 579.392  1.00  0.00     0.210 HD
ENDBRANCH  27  33
TORSDOF 2
ENDMDL
