MODEL 1
REMARK VINA RESULT:    -1.185      0.000      0.000
REMARK INTER + INTRA:          -3.631
REMARK INTER:                  -2.571
REMARK INTRA:                  -1.060
REMARK UNBOUND:                -1.060
REMARK SMILES CCCCCCCCCCCCCCCCCCCCCC(=O)[O-]
REMARK SMILES IDX 12 1 11 2 10 3 9 4 8 5 7 6 6 7 5 8 4 9 3 10 2 11 1 12 13 13
REMARK SMILES IDX 14 14 15 15 16 16 17 17 18 18 19 19 20 20 21 21 22 22 23 23
REMARK SMILES IDX 24 24
REMARK H PARENT
REMARK Flexibility Score: inf
ROOT
ATOM      1  C   UNL     1       7.712  -9.278  -3.503  1.00  0.00     0.000 C 
ENDROOT
BRANCH   1   2
ATOM      2  C   UNL     1       8.163 -10.095  -4.728  1.00  0.00     0.000 C 
BRANCH   2   3
ATOM      3  C   UNL     1       9.683 -10.044  -4.955  1.00  0.00     0.000 C 
BRANCH   3   4
ATOM      4  C   UNL     1      10.068  -9.324  -6.262  1.00  0.00    -0.000 C 
BRANCH   4   5
ATOM      5  C   UNL     1       9.797 -10.120  -7.554  1.00  0.00    -0.000 C 
BRANCH   5   6
ATOM      6  C   UNL     1       9.477  -9.266  -8.799  1.00  0.00    -0.000 C 
BRANCH   6   7
ATOM      7  C   UNL     1       9.839  -7.774  -8.680  1.00  0.00    -0.000 C 
BRANCH   7   8
ATOM      8  C   UNL     1      10.125  -7.119 -10.041  1.00  0.00    -0.000 C 
BRANCH   8   9
ATOM      9  C   UNL     1       9.621  -5.665 -10.125  1.00  0.00    -0.000 C 
BRANCH   9  10
ATOM     10  C   UNL     1       8.259  -5.404  -9.455  1.00  0.00    -0.000 C 
BRANCH  10  11
ATOM     11  C   UNL     1       7.169  -6.384  -9.911  1.00  0.00    -0.003 C 
ATOM     12  C   UNL     1       5.793  -5.943  -9.418  1.00  0.00     0.004 C 
ENDBRANCH  10  11
ENDBRANCH   9  10
ENDBRANCH   8   9
ENDBRANCH   7   8
ENDBRANCH   6   7
ENDBRANCH   5   6
ENDBRANCH   4   5
ENDBRANCH   3   4
ENDBRANCH   2   3
ENDBRANCH   1   2
BRANCH   1  13
ATOM     13  C   UNL     1       8.277  -9.755  -2.152  1.00  0.00     0.000 C 
BRANCH  13  14
ATOM     14  C   UNL     1       9.236  -8.742  -1.510  1.00  0.00     0.000 C 
BRANCH  14  15
ATOM     15  C   UNL     1       9.941  -7.899  -2.580  1.00  0.00     0.000 C 
BRANCH  15  16
ATOM     16  C   UNL     1       9.090  -6.679  -2.966  1.00  0.00     0.000 C 
BRANCH  16  17
ATOM     17  C   UNL     1       8.879  -6.559  -4.485  1.00  0.00     0.000 C 
BRANCH  17  18
ATOM     18  C   UNL     1       7.410  -6.764  -4.894  1.00  0.00     0.000 C 
BRANCH  18  19
ATOM     19  C   UNL     1       7.256  -7.091  -6.389  1.00  0.00     0.000 C 
BRANCH  19  20
ATOM     20  C   UNL     1       5.955  -7.852  -6.699  1.00  0.00     0.006 C 
BRANCH  20  21
ATOM     21  C   UNL     1       6.205  -9.092  -7.568  1.00  0.00     0.053 C 
BRANCH  21  22
ATOM     22  C   UNL     1       5.053  -9.367  -8.487  1.00  0.00     0.041 C 
ATOM     23  O   UNL     1       5.252  -9.913  -9.605  1.00  0.00    -0.550 OA
ATOM     24  O   UNL     1       3.758  -9.053  -8.094  1.00  0.00    -0.550 OA
ENDBRANCH  21  22
ENDBRANCH  20  21
ENDBRANCH  19  20
ENDBRANCH  18  19
ENDBRANCH  17  18
ENDBRANCH  16  17
ENDBRANCH  15  16
ENDBRANCH  14  15
ENDBRANCH  13  14
ENDBRANCH   1  13
TORSDOF 20
ENDMDL
MODEL 2
REMARK VINA RESULT:    -1.058      2.113      3.401
REMARK INTER + INTRA:          -3.356
REMARK INTER:                  -2.209
REMARK INTRA:                  -1.147
REMARK UNBOUND:                -1.060
REMARK SMILES CCCCCCCCCCCCCCCCCCCCCC(=O)[O-]
REMARK SMILES IDX 12 1 11 2 10 3 9 4 8 5 7 6 6 7 5 8 4 9 3 10 2 11 1 12 13 13
REMARK SMILES IDX 14 14 15 15 16 16 17 17 18 18 19 19 20 20 21 21 22 22 23 23
REMARK SMILES IDX 24 24
REMARK H PARENT
REMARK Flexibility Score: inf
ROOT
ATOM      1  C   UNL     1       7.628  -9.171  -3.343  1.00  0.00     0.000 C 
ENDROOT
BRANCH   1   2
ATOM      2  C   UNL     1       7.962 -10.125  -4.505  1.00  0.00     0.000 C 
BRANCH   2   3
ATOM      3  C   UNL     1       9.389  -9.936  -5.044  1.00  0.00     0.000 C 
BRANCH   3   4
ATOM      4  C   UNL     1       9.447  -9.001  -6.266  1.00  0.00    -0.000 C 
BRANCH   4   5
ATOM      5  C   UNL     1       9.478  -9.711  -7.635  1.00  0.00    -0.000 C 
BRANCH   5   6
ATOM      6  C   UNL     1       8.109  -9.862  -8.329  1.00  0.00    -0.000 C 
BRANCH   6   7
ATOM      7  C   UNL     1       7.112  -8.717  -8.069  1.00  0.00    -0.000 C 
BRANCH   7   8
ATOM      8  C   UNL     1       6.755  -7.936  -9.344  1.00  0.00    -0.000 C 
BRANCH   8   9
ATOM      9  C   UNL     1       5.566  -8.549 -10.110  1.00  0.00    -0.000 C 
BRANCH   9  10
ATOM     10  C   UNL     1       4.253  -7.749 -10.029  1.00  0.00    -0.000 C 
BRANCH  10  11
ATOM     11  C   UNL     1       3.028  -8.634  -9.758  1.00  0.00    -0.003 C 
ATOM     12  C   UNL     1       3.324 -10.096 -10.081  1.00  0.00     0.004 C 
ENDBRANCH  10  11
ENDBRANCH   9  10
ENDBRANCH   8   9
ENDBRANCH   7   8
ENDBRANCH   6   7
ENDBRANCH   5   6
ENDBRANCH   4   5
ENDBRANCH   3   4
ENDBRANCH   2   3
ENDBRANCH   1   2
BRANCH   1  13
ATOM     13  C   UNL     1       7.745  -9.786  -1.935  1.00  0.00     0.000 C 
BRANCH  13  14
ATOM     14  C   UNL     1       8.629  -8.958  -0.990  1.00  0.00     0.000 C 
BRANCH  14  15
ATOM     15  C   UNL     1       9.787  -8.304  -1.753  1.00  0.00     0.000 C 
BRANCH  15  16
ATOM     16  C   UNL     1       9.514  -6.810  -1.989  1.00  0.00     0.000 C 
BRANCH  16  17
ATOM     17  C   UNL     1      10.125  -6.295  -3.303  1.00  0.00     0.000 C 
BRANCH  17  18
ATOM     18  C   UNL     1       9.109  -6.277  -4.458  1.00  0.00     0.000 C 
BRANCH  18  19
ATOM     19  C   UNL     1       9.580  -5.417  -5.643  1.00  0.00     0.000 C 
BRANCH  19  20
ATOM     20  C   UNL     1       9.490  -6.160  -6.988  1.00  0.00     0.006 C 
BRANCH  20  21
ATOM     21  C   UNL     1       9.764  -5.232  -8.179  1.00  0.00     0.053 C 
BRANCH  21  22
ATOM     22  C   UNL     1       9.250  -5.810  -9.462  1.00  0.00     0.041 C 
ATOM     23  O   UNL     1       9.870  -6.751 -10.026  1.00  0.00    -0.550 OA
ATOM     24  O   UNL     1       8.069  -5.334 -10.018  1.00  0.00    -0.550 OA
ENDBRANCH  21  22
ENDBRANCH  20  21
ENDBRANCH  19  20
ENDBRANCH  18  19
ENDBRANCH  17  18
ENDBRANCH  16  17
ENDBRANCH  15  16
ENDBRANCH  14  15
ENDBRANCH  13  14
ENDBRANCH   1  13
TORSDOF 20
ENDMDL
MODEL 3
REMARK VINA RESULT:    -0.954      5.175      7.324
REMARK INTER + INTRA:          -3.129
REMARK INTER:                  -2.626
REMARK INTRA:                  -0.503
REMARK UNBOUND:                -1.060
REMARK SMILES CCCCCCCCCCCCCCCCCCCCCC(=O)[O-]
REMARK SMILES IDX 12 1 11 2 10 3 9 4 8 5 7 6 6 7 5 8 4 9 3 10 2 11 1 12 13 13
REMARK SMILES IDX 14 14 15 15 16 16 17 17 18 18 19 19 20 20 21 21 22 22 23 23
REMARK SMILES IDX 24 24
REMARK H PARENT
REMARK Flexibility Score: inf
ROOT
ATOM      1  C   UNL     1       7.145  -7.487  -4.120  1.00  0.00     0.000 C 
ENDROOT
BRANCH   1   2
ATOM      2  C   UNL     1       6.705  -8.944  -4.357  1.00  0.00     0.000 C 
BRANCH   2   3
ATOM      3  C   UNL     1       7.488  -9.630  -5.488  1.00  0.00     0.000 C 
BRANCH   3   4
ATOM      4  C   UNL     1       7.366  -8.889  -6.833  1.00  0.00    -0.000 C 
BRANCH   4   5
ATOM      5  C   UNL     1       8.493  -9.176  -7.845  1.00  0.00    -0.000 C 
BRANCH   5   6
ATOM      6  C   UNL     1       9.220  -7.930  -8.391  1.00  0.00    -0.000 C 
BRANCH   6   7
ATOM      7  C   UNL     1       8.597  -7.309  -9.655  1.00  0.00    -0.000 C 
BRANCH   7   8
ATOM      8  C   UNL     1       7.194  -6.732  -9.407  1.00  0.00    -0.000 C 
BRANCH   8   9
ATOM      9  C   UNL     1       6.082  -7.537 -10.106  1.00  0.00    -0.000 C 
BRANCH   9  10
ATOM     10  C   UNL     1       4.831  -7.808  -9.250  1.00  0.00    -0.000 C 
BRANCH  10  11
ATOM     11  C   UNL     1       4.087  -9.087  -9.662  1.00  0.00    -0.003 C 
ATOM     12  C   UNL     1       2.659  -8.774 -10.100  1.00  0.00     0.004 C 
ENDBRANCH  10  11
ENDBRANCH   9  10
ENDBRANCH   8   9
ENDBRANCH   7   8
ENDBRANCH   6   7
ENDBRANCH   5   6
ENDBRANCH   4   5
ENDBRANCH   3   4
ENDBRANCH   2   3
ENDBRANCH   1   2
BRANCH   1  13
ATOM     13  C   UNL     1       8.667  -7.267  -4.030  1.00  0.00     0.000 C 
BRANCH  13  14
ATOM     14  C   UNL     1       9.295  -7.915  -2.787  1.00  0.00     0.000 C 
BRANCH  14  15
ATOM     15  C   UNL     1       9.396  -9.436  -2.953  1.00  0.00     0.000 C 
BRANCH  15  16
ATOM     16  C   UNL     1      10.036 -10.082  -1.713  1.00  0.00     0.000 C 
BRANCH  16  17
ATOM     17  C   UNL     1       9.334  -9.680  -0.406  1.00  0.00     0.000 C 
BRANCH  17  18
ATOM     18  C   UNL     1      10.122 -10.111   0.843  1.00  0.00     0.000 C 
BRANCH  18  19
ATOM     19  C   UNL     1       9.717  -9.318   2.097  1.00  0.00     0.000 C 
BRANCH  19  20
ATOM     20  C   UNL     1      10.125 -10.023   3.403  1.00  0.00     0.006 C 
BRANCH  20  21
ATOM     21  C   UNL     1       8.959 -10.116   4.397  1.00  0.00     0.053 C 
BRANCH  21  22
ATOM     22  C   UNL     1       9.199  -9.275   5.614  1.00  0.00     0.041 C 
ATOM     23  O   UNL     1      10.043  -8.340   5.581  1.00  0.00    -0.550 OA
ATOM     24  O   UNL     1       8.468  -9.502   6.773  1.00  0.00    -0.550 OA
ENDBRANCH  21  22
ENDBRANCH  20  21
ENDBRANCH  19  20
ENDBRANCH  18  19
ENDBRANCH  17  18
ENDBRANCH  16  17
ENDBRANCH  15  16
ENDBRANCH  14  15
ENDBRANCH  13  14
ENDBRANCH   1  13
TORSDOF 20
ENDMDL
MODEL 4
REMARK VINA RESULT:    -0.835      5.026      7.348
REMARK INTER + INTRA:          -2.872
REMARK INTER:                  -1.755
REMARK INTRA:                  -1.118
REMARK UNBOUND:                -1.060
REMARK SMILES CCCCCCCCCCCCCCCCCCCCCC(=O)[O-]
REMARK SMILES IDX 12 1 11 2 10 3 9 4 8 5 7 6 6 7 5 8 4 9 3 10 2 11 1 12 13 13
REMARK SMILES IDX 14 14 15 15 16 16 17 17 18 18 19 19 20 20 21 21 22 22 23 23
REMARK SMILES IDX 24 24
REMARK H PARENT
REMARK Flexibility Score: inf
ROOT
ATOM      1  C   UNL     1       7.248  -7.495  -4.378  1.00  0.00     0.000 C 
ENDROOT
BRANCH   1   2
ATOM      2  C   UNL     1       6.805  -8.953  -4.599  1.00  0.00     0.000 C 
BRANCH   2   3
ATOM      3  C   UNL     1       7.586  -9.655  -5.721  1.00  0.00     0.000 C 
BRANCH   3   4
ATOM      4  C   UNL     1       6.827  -9.662  -7.062  1.00  0.00    -0.000 C 
BRANCH   4   5
ATOM      5  C   UNL     1       5.517  -8.850  -7.079  1.00  0.00    -0.000 C 
BRANCH   5   6
ATOM      6  C   UNL     1       4.522  -9.229  -8.195  1.00  0.00    -0.000 C 
BRANCH   6   7
ATOM      7  C   UNL     1       4.396  -8.202  -9.337  1.00  0.00    -0.000 C 
BRANCH   7   8
ATOM      8  C   UNL     1       5.722  -7.974 -10.082  1.00  0.00    -0.000 C 
BRANCH   8   9
ATOM      9  C   UNL     1       6.215  -6.517  -9.996  1.00  0.00    -0.000 C 
BRANCH   9  10
ATOM     10  C   UNL     1       7.443  -6.293  -9.093  1.00  0.00    -0.000 C 
BRANCH  10  11
ATOM     11  C   UNL     1       8.642  -7.170  -9.483  1.00  0.00    -0.003 C 
ATOM     12  C   UNL     1       9.443  -7.585  -8.251  1.00  0.00     0.004 C 
ENDBRANCH  10  11
ENDBRANCH   9  10
ENDBRANCH   8   9
ENDBRANCH   7   8
ENDBRANCH   6   7
ENDBRANCH   5   6
ENDBRANCH   4   5
ENDBRANCH   3   4
ENDBRANCH   2   3
ENDBRANCH   1   2
BRANCH   1  13
ATOM     13  C   UNL     1       8.771  -7.279  -4.284  1.00  0.00     0.000 C 
BRANCH  13  14
ATOM     14  C   UNL     1       9.390  -7.906  -3.026  1.00  0.00     0.000 C 
BRANCH  14  15
ATOM     15  C   UNL     1       9.525  -9.426  -3.178  1.00  0.00     0.000 C 
BRANCH  15  16
ATOM     16  C   UNL     1      10.098 -10.057  -1.899  1.00  0.00     0.000 C 
BRANCH  16  17
ATOM     17  C   UNL     1       9.276  -9.709  -0.647  1.00  0.00     0.000 C 
BRANCH  17  18
ATOM     18  C   UNL     1       9.986 -10.117   0.656  1.00  0.00     0.000 C 
BRANCH  18  19
ATOM     19  C   UNL     1       9.511  -9.296   1.867  1.00  0.00     0.000 C 
BRANCH  19  20
ATOM     20  C   UNL     1      10.124  -9.782   3.192  1.00  0.00     0.006 C 
BRANCH  20  21
ATOM     21  C   UNL     1       9.052 -10.101   4.242  1.00  0.00     0.053 C 
BRANCH  21  22
ATOM     22  C   UNL     1       9.124  -9.166   5.410  1.00  0.00     0.041 C 
ATOM     23  O   UNL     1       9.969  -8.231   5.422  1.00  0.00    -0.550 OA
ATOM     24  O   UNL     1       8.236  -9.304   6.469  1.00  0.00    -0.550 OA
ENDBRANCH  21  22
ENDBRANCH  20  21
ENDBRANCH  19  20
ENDBRANCH  18  19
ENDBRANCH  17  18
ENDBRANCH  16  17
ENDBRANCH  15  16
ENDBRANCH  14  15
ENDBRANCH  13  14
ENDBRANCH   1  13
TORSDOF 20
ENDMDL
MODEL 5
REMARK VINA RESULT:    -0.480      1.385      2.726
REMARK INTER + INTRA:          -2.102
REMARK INTER:                  -2.416
REMARK INTRA:                   0.314
REMARK UNBOUND:                -1.060
REMARK SMILES CCCCCCCCCCCCCCCCCCCCCC(=O)[O-]
REMARK SMILES IDX 12 1 11 2 10 3 9 4 8 5 7 6 6 7 5 8 4 9 3 10 2 11 1 12 13 13
REMARK SMILES IDX 14 14 15 15 16 16 17 17 18 18 19 19 20 20 21 21 22 22 23 23
REMARK SMILES IDX 24 24
REMARK H PARENT
REMARK Flexibility Score: inf
ROOT
ATOM      1  C   UNL     1       9.066  -8.207  -2.633  1.00  0.00     0.000 C 
ENDROOT
BRANCH   1   2
ATOM      2  C   UNL     1       9.806  -9.403  -3.259  1.00  0.00     0.000 C 
BRANCH   2   3
ATOM      3  C   UNL     1      10.125  -9.198  -4.749  1.00  0.00     0.000 C 
BRANCH   3   4
ATOM      4  C   UNL     1       9.304 -10.123  -5.667  1.00  0.00    -0.000 C 
BRANCH   4   5
ATOM      5  C   UNL     1       8.571  -9.416  -6.825  1.00  0.00    -0.000 C 
BRANCH   5   6
ATOM      6  C   UNL     1       8.766 -10.056  -8.215  1.00  0.00    -0.000 C 
BRANCH   6   7
ATOM      7  C   UNL     1      10.087  -9.699  -8.922  1.00  0.00    -0.000 C 
BRANCH   7   8
ATOM      8  C   UNL     1       9.937  -8.536  -9.917  1.00  0.00    -0.000 C 
BRANCH   8   9
ATOM      9  C   UNL     1       8.556  -7.856  -9.839  1.00  0.00    -0.000 C 
BRANCH   9  10
ATOM     10  C   UNL     1       8.588  -6.321  -9.715  1.00  0.00    -0.000 C 
BRANCH  10  11
ATOM     11  C   UNL     1       9.995  -5.771  -9.441  1.00  0.00    -0.003 C 
ATOM     12  C   UNL     1      10.079  -4.284  -9.779  1.00  0.00     0.004 C 
ENDBRANCH  10  11
ENDBRANCH   9  10
ENDBRANCH   8   9
ENDBRANCH   7   8
ENDBRANCH   6   7
ENDBRANCH   5   6
ENDBRANCH   4   5
ENDBRANCH   3   4
ENDBRANCH   2   3
ENDBRANCH   1   2
BRANCH   1  13
ATOM     13  C   UNL     1       7.881  -7.665  -3.456  1.00  0.00     0.000 C 
BRANCH  13  14
ATOM     14  C   UNL     1       8.129  -6.253  -4.008  1.00  0.00     0.000 C 
BRANCH  14  15
ATOM     15  C   UNL     1       7.293  -6.001  -5.268  1.00  0.00     0.000 C 
BRANCH  15  16
ATOM     16  C   UNL     1       7.515  -7.114  -6.305  1.00  0.00     0.000 C 
BRANCH  16  17
ATOM     17  C   UNL     1       6.199  -7.628  -6.914  1.00  0.00     0.000 C 
BRANCH  17  18
ATOM     18  C   UNL     1       5.880  -9.072  -6.493  1.00  0.00     0.000 C 
BRANCH  18  19
ATOM     19  C   UNL     1       5.068  -9.830  -7.558  1.00  0.00     0.000 C 
BRANCH  19  20
ATOM     20  C   UNL     1       5.885 -10.124  -8.829  1.00  0.00     0.006 C 
BRANCH  20  21
ATOM     21  C   UNL     1       5.192  -9.602 -10.095  1.00  0.00     0.053 C 
BRANCH  21  22
ATOM     22  C   UNL     1       4.325  -8.415  -9.803  1.00  0.00     0.041 C 
ATOM     23  O   UNL     1       4.749  -7.250 -10.030  1.00  0.00    -0.550 OA
ATOM     24  O   UNL     1       3.038  -8.595  -9.314  1.00  0.00    -0.550 OA
ENDBRANCH  21  22
ENDBRANCH  20  21
ENDBRANCH  19  20
ENDBRANCH  18  19
ENDBRANCH  17  18
ENDBRANCH  16  17
ENDBRANCH  15  16
ENDBRANCH  14  15
ENDBRANCH  13  14
ENDBRANCH   1  13
TORSDOF 20
ENDMDL
MODEL 6
REMARK VINA RESULT:     0.903      2.485      5.497
REMARK INTER + INTRA:           0.900
REMARK INTER:                  -2.378
REMARK INTRA:                   3.277
REMARK UNBOUND:                -1.060
REMARK SMILES CCCCCCCCCCCCCCCCCCCCCC(=O)[O-]
REMARK SMILES IDX 12 1 11 2 10 3 9 4 8 5 7 6 6 7 5 8 4 9 3 10 2 11 1 12 13 13
REMARK SMILES IDX 14 14 15 15 16 16 17 17 18 18 19 19 20 20 21 21 22 22 23 23
REMARK SMILES IDX 24 24
REMARK H PARENT
REMARK Flexibility Score: inf
ROOT
ATOM      1  C   UNL     1       5.913  -9.117  -8.262  1.00  0.00     0.000 C 
ENDROOT
BRANCH   1   2
ATOM      2  C   UNL     1       6.985  -9.777  -9.149  1.00  0.00     0.000 C 
BRANCH   2   3
ATOM      3  C   UNL     1       8.282  -8.955  -9.233  1.00  0.00     0.000 C 
BRANCH   3   4
ATOM      4  C   UNL     1       8.055  -7.536  -9.788  1.00  0.00    -0.000 C 
BRANCH   4   5
ATOM      5  C   UNL     1       9.338  -6.737 -10.089  1.00  0.00    -0.000 C 
BRANCH   5   6
ATOM      6  C   UNL     1      10.124  -6.262  -8.849  1.00  0.00    -0.000 C 
BRANCH   6   7
ATOM      7  C   UNL     1       9.275  -5.594  -7.751  1.00  0.00    -0.000 C 
BRANCH   7   8
ATOM      8  C   UNL     1      10.049  -5.393  -6.438  1.00  0.00    -0.000 C 
BRANCH   8   9
ATOM      9  C   UNL     1       9.662  -6.414  -5.351  1.00  0.00    -0.000 C 
BRANCH   9  10
ATOM     10  C   UNL     1      10.093  -6.044  -3.920  1.00  0.00    -0.000 C 
BRANCH  10  11
ATOM     11  C   UNL     1       8.908  -5.913  -2.952  1.00  0.00    -0.003 C 
ATOM     12  C   UNL     1       7.581  -6.130  -3.675  1.00  0.00     0.004 C 
ENDBRANCH  10  11
ENDBRANCH   9  10
ENDBRANCH   8   9
ENDBRANCH   7   8
ENDBRANCH   6   7
ENDBRANCH   5   6
ENDBRANCH   4   5
ENDBRANCH   3   4
ENDBRANCH   2   3
ENDBRANCH   1   2
BRANCH   1  13
ATOM     13  C   UNL     1       5.720  -7.604  -8.480  1.00  0.00     0.000 C 
BRANCH  13  14
ATOM     14  C   UNL     1       6.010  -6.774  -7.220  1.00  0.00     0.000 C 
BRANCH  14  15
ATOM     15  C   UNL     1       5.994  -7.656  -5.966  1.00  0.00     0.000 C 
BRANCH  15  16
ATOM     16  C   UNL     1       6.897  -8.887  -6.148  1.00  0.00     0.000 C 
BRANCH  16  17
ATOM     17  C   UNL     1       8.262  -8.729  -5.457  1.00  0.00     0.000 C 
BRANCH  17  18
ATOM     18  C   UNL     1       8.574  -9.888  -4.496  1.00  0.00     0.000 C 
BRANCH  18  19
ATOM     19  C   UNL     1       9.949  -9.740  -3.821  1.00  0.00     0.000 C 
BRANCH  19  20
ATOM     20  C   UNL     1       9.911 -10.072  -2.319  1.00  0.00     0.006 C 
BRANCH  20  21
ATOM     21  C   UNL     1       8.904  -9.198  -1.560  1.00  0.00     0.053 C 
BRANCH  21  22
ATOM     22  C   UNL     1       7.516  -9.756  -1.636  1.00  0.00     0.041 C 
ATOM     23  O   UNL     1       6.818  -9.863  -0.593  1.00  0.00    -0.550 OA
ATOM     24  O   UNL     1       6.980 -10.125  -2.864  1.00  0.00    -0.550 OA
ENDBRANCH  21  22
ENDBRANCH  20  21
ENDBRANCH  19  20
ENDBRANCH  18  19
ENDBRANCH  17  18
ENDBRANCH  16  17
ENDBRANCH  15  16
ENDBRANCH  14  15
ENDBRANCH  13  14
ENDBRANCH   1  13
TORSDOF 20
ENDMDL
MODEL 7
REMARK VINA RESULT:     1.039      2.730      5.698
REMARK INTER + INTRA:           1.193
REMARK INTER:                   0.602
REMARK INTRA:                   0.591
REMARK UNBOUND:                -1.060
REMARK SMILES CCCCCCCCCCCCCCCCCCCCCC(=O)[O-]
REMARK SMILES IDX 12 1 11 2 10 3 9 4 8 5 7 6 6 7 5 8 4 9 3 10 2 11 1 12 13 13
REMARK SMILES IDX 14 14 15 15 16 16 17 17 18 18 19 19 20 20 21 21 22 22 23 23
REMARK SMILES IDX 24 24
REMARK H PARENT
REMARK Flexibility Score: inf
ROOT
ATOM      1  C   UNL     1       4.828  -7.620  -7.934  1.00  0.00     0.000 C 
ENDROOT
BRANCH   1   2
ATOM      2  C   UNL     1       5.892  -6.506  -7.906  1.00  0.00     0.000 C 
BRANCH   2   3
ATOM      3  C   UNL     1       5.940  -5.690  -9.208  1.00  0.00     0.000 C 
BRANCH   3   4
ATOM      4  C   UNL     1       7.110  -6.097 -10.124  1.00  0.00    -0.000 C 
BRANCH   4   5
ATOM      5  C   UNL     1       8.334  -6.692  -9.400  1.00  0.00    -0.000 C 
BRANCH   5   6
ATOM      6  C   UNL     1       9.704  -6.190  -9.902  1.00  0.00    -0.000 C 
BRANCH   6   7
ATOM      7  C   UNL     1      10.098  -4.779  -9.427  1.00  0.00    -0.000 C 
BRANCH   7   8
ATOM      8  C   UNL     1       9.959  -4.600  -7.906  1.00  0.00    -0.000 C 
BRANCH   8   9
ATOM      9  C   UNL     1       9.969  -5.938  -7.142  1.00  0.00    -0.000 C 
BRANCH   9  10
ATOM     10  C   UNL     1       8.685  -6.252  -6.352  1.00  0.00    -0.000 C 
BRANCH  10  11
ATOM     11  C   UNL     1       8.779  -5.853  -4.872  1.00  0.00    -0.003 C 
ATOM     12  C   UNL     1      10.125  -6.259  -4.278  1.00  0.00     0.004 C 
ENDBRANCH  10  11
ENDBRANCH   9  10
ENDBRANCH   8   9
ENDBRANCH   7   8
ENDBRANCH   6   7
ENDBRANCH   5   6
ENDBRANCH   4   5
ENDBRANCH   3   4
ENDBRANCH   2   3
ENDBRANCH   1   2
BRANCH   1  13
ATOM     13  C   UNL     1       5.296  -8.988  -7.402  1.00  0.00     0.000 C 
BRANCH  13  14
ATOM     14  C   UNL     1       5.351 -10.069  -8.491  1.00  0.00     0.000 C 
BRANCH  14  15
ATOM     15  C   UNL     1       6.330  -9.678  -9.604  1.00  0.00     0.000 C 
BRANCH  15  16
ATOM     16  C   UNL     1       7.779  -9.985  -9.195  1.00  0.00     0.000 C 
BRANCH  16  17
ATOM     17  C   UNL     1       8.216  -9.214  -7.938  1.00  0.00     0.000 C 
BRANCH  17  18
ATOM     18  C   UNL     1       8.347 -10.124  -6.704  1.00  0.00     0.000 C 
BRANCH  18  19
ATOM     19  C   UNL     1       7.268  -9.839  -5.645  1.00  0.00     0.000 C 
BRANCH  19  20
ATOM     20  C   UNL     1       7.752 -10.125  -4.213  1.00  0.00     0.006 C 
BRANCH  20  21
ATOM     21  C   UNL     1       8.925  -9.222  -3.809  1.00  0.00     0.053 C 
BRANCH  21  22
ATOM     22  C   UNL     1       8.878  -8.868  -2.354  1.00  0.00     0.041 C 
ATOM     23  O   UNL     1       9.891  -8.377  -1.788  1.00  0.00    -0.550 OA
ATOM     24  O   UNL     1       7.705  -9.046  -1.631  1.00  0.00    -0.550 OA
ENDBRANCH  21  22
ENDBRANCH  20  21
ENDBRANCH  19  20
ENDBRANCH  18  19
ENDBRANCH  17  18
ENDBRANCH  16  17
ENDBRANCH  15  16
ENDBRANCH  14  15
ENDBRANCH  13  14
ENDBRANCH   1  13
TORSDOF 20
ENDMDL
