MODEL 1
REMARK VINA RESULT:    -4.105      0.000      0.000
REMARK INTER + INTRA:         -13.309
REMARK INTER:                  -9.385
REMARK INTRA:                  -3.925
REMARK UNBOUND:                -3.925
REMARK SMILES CCCCCCCCCCCCCCCCCCCCCCCC(=O)[O-]
REMARK SMILES IDX 13 1 14 2 15 3 16 4 17 5 18 6 19 7 20 8 21 9 22 10 23 11
REMARK SMILES IDX 24 12 25 13 26 14 12 15 11 16 10 17 9 18 8 19 7 20 6 21 5 22
REMARK SMILES IDX 4 23 3 24 2 25 1 26
REMARK H PARENT
REMARK Flexibility Score: inf
ROOT
ATOM      1  C   UNL     1     -34.503 -48.288  30.939  1.00  0.00     0.000 C 
ENDROOT
BRANCH   1   2
ATOM      2  C   UNL     1     -33.948 -48.457  29.516  1.00  0.00     0.000 C 
BRANCH   2   3
ATOM      3  C   UNL     1     -32.887 -47.419  29.100  1.00  0.00     0.000 C 
BRANCH   3   4
ATOM      4  C   UNL     1     -32.719 -46.254  30.099  1.00  0.00     0.000 C 
BRANCH   4   5
ATOM      5  C   UNL     1     -33.290 -44.928  29.565  1.00  0.00     0.000 C 
BRANCH   5   6
ATOM      6  C   UNL     1     -34.526 -44.464  30.359  1.00  0.00     0.000 C 
BRANCH   6   7
ATOM      7  C   UNL     1     -35.679 -43.978  29.461  1.00  0.00     0.000 C 
BRANCH   7   8
ATOM      8  C   UNL     1     -36.273 -45.117  28.614  1.00  0.00     0.000 C 
BRANCH   8   9
ATOM      9  C   UNL     1     -36.061 -44.913  27.107  1.00  0.00     0.000 C 
BRANCH   9  10
ATOM     10  C   UNL     1     -35.158 -45.986  26.480  1.00  0.00     0.006 C 
BRANCH  10  11
ATOM     11  C   UNL     1     -34.180 -45.358  25.481  1.00  0.00     0.053 C 
BRANCH  11  12
ATOM     12  C   UNL     1     -34.091 -46.173  24.229  1.00  0.00     0.041 C 
ATOM     13  O   UNL     1     -32.993 -46.287  23.623  1.00  0.00    -0.550 OA
ATOM     14  O   UNL     1     -35.215 -46.834  23.746  1.00  0.00    -0.550 OA
ENDBRANCH  11  12
ENDBRANCH  10  11
ENDBRANCH   9  10
ENDBRANCH   8   9
ENDBRANCH   7   8
ENDBRANCH   6   7
ENDBRANCH   5   6
ENDBRANCH   4   5
ENDBRANCH   3   4
ENDBRANCH   2   3
ENDBRANCH   1   2
BRANCH   1  15
ATOM     15  C   UNL     1     -36.018 -48.029  30.962  1.00  0.00     0.000 C 
BRANCH  15  16
ATOM     16  C   UNL     1     -36.411 -47.143  32.153  1.00  0.00     0.000 C 
BRANCH  16  17
ATOM     17  C   UNL     1     -35.214 -46.782  33.053  1.00  0.00     0.000 C 
BRANCH  17  18
ATOM     18  C   UNL     1     -35.363 -47.190  34.530  1.00  0.00    -0.000 C 
BRANCH  18  19
ATOM     19  C   UNL     1     -35.353 -48.716  34.731  1.00  0.00    -0.000 C 
BRANCH  19  20
ATOM     20  C   UNL     1     -34.221 -49.185  35.659  1.00  0.00    -0.000 C 
BRANCH  20  21
ATOM     21  C   UNL     1     -32.832 -48.710  35.195  1.00  0.00    -0.000 C 
BRANCH  21  22
ATOM     22  C   UNL     1     -32.006 -48.100  36.340  1.00  0.00    -0.000 C 
BRANCH  22  23
ATOM     23  C   UNL     1     -31.514 -46.675  36.024  1.00  0.00    -0.000 C 
BRANCH  23  24
ATOM     24  C   UNL     1     -31.760 -46.288  34.551  1.00  0.00    -0.000 C 
BRANCH  24  25
ATOM     25  C   UNL     1     -31.582 -44.786  34.272  1.00  0.00    -0.003 C 
ATOM     26  C   UNL     1     -32.872 -44.099  33.831  1.00  0.00     0.004 C 
ENDBRANCH  24  25
ENDBRANCH  23  24
ENDBRANCH  22  23
ENDBRANCH  21  22
ENDBRANCH  20  21
ENDBRANCH  19  20
ENDBRANCH  18  19
ENDBRANCH  17  18
ENDBRANCH  16  17
ENDBRANCH  15  16
ENDBRANCH   1  15
TORSDOF 22
ENDMDL
MODEL 2
REMARK VINA RESULT:    -4.080      8.742     12.621
REMARK INTER + INTRA:         -13.252
REMARK INTER:                  -9.827
REMARK INTRA:                  -3.425
REMARK UNBOUND:                -3.925
REMARK SMILES CCCCCCCCCCCCCCCCCCCCCCCC(=O)[O-]
REMARK SMILES IDX 13 1 14 2 15 3 16 4 17 5 18 6 19 7 20 8 21 9 22 10 23 11
REMARK SMILES IDX 24 12 25 13 26 14 12 15 11 16 10 17 9 18 8 19 7 20 6 21 5 22
REMARK SMILES IDX 4 23 3 24 2 25 1 26
REMARK H PARENT
REMARK Flexibility Score: inf
ROOT
ATOM      1  C   UNL     1     -28.525 -51.930  26.944  1.00  0.00     0.000 C 
ENDROOT
BRANCH   1   2
ATOM      2  C   UNL     1     -29.312 -53.237  27.125  1.00  0.00     0.000 C 
BRANCH   2   3
ATOM      3  C   UNL     1     -28.459 -54.521  27.116  1.00  0.00     0.000 C 
BRANCH   3   4
ATOM      4  C   UNL     1     -26.937 -54.268  27.184  1.00  0.00     0.000 C 
BRANCH   4   5
ATOM      5  C   UNL     1     -26.255 -55.058  28.315  1.00  0.00     0.000 C 
BRANCH   5   6
ATOM      6  C   UNL     1     -25.382 -54.158  29.211  1.00  0.00     0.000 C 
BRANCH   6   7
ATOM      7  C   UNL     1     -25.070 -52.789  28.578  1.00  0.00     0.000 C 
BRANCH   7   8
ATOM      8  C   UNL     1     -25.769 -51.636  29.319  1.00  0.00     0.000 C 
BRANCH   8   9
ATOM      9  C   UNL     1     -24.989 -51.162  30.555  1.00  0.00     0.000 C 
BRANCH   9  10
ATOM     10  C   UNL     1     -25.727 -51.447  31.871  1.00  0.00     0.006 C 
BRANCH  10  11
ATOM     11  C   UNL     1     -25.433 -50.354  32.906  1.00  0.00     0.053 C 
BRANCH  11  12
ATOM     12  C   UNL     1     -25.163 -50.948  34.254  1.00  0.00     0.041 C 
ATOM     13  O   UNL     1     -26.105 -51.438  34.931  1.00  0.00    -0.550 OA
ATOM     14  O   UNL     1     -23.866 -50.987  34.751  1.00  0.00    -0.550 OA
ENDBRANCH  11  12
ENDBRANCH  10  11
ENDBRANCH   9  10
ENDBRANCH   8   9
ENDBRANCH   7   8
ENDBRANCH   6   7
ENDBRANCH   5   6
ENDBRANCH   4   5
ENDBRANCH   3   4
ENDBRANCH   2   3
ENDBRANCH   1   2
BRANCH   1  15
ATOM     15  C   UNL     1     -29.136 -51.009  25.875  1.00  0.00     0.000 C 
BRANCH  15  16
ATOM     16  C   UNL     1     -28.054 -50.463  24.931  1.00  0.00     0.000 C 
BRANCH  16  17
ATOM     17  C   UNL     1     -26.963 -51.500  24.606  1.00  0.00     0.000 C 
BRANCH  17  18
ATOM     18  C   UNL     1     -27.204 -52.321  23.325  1.00  0.00    -0.000 C 
BRANCH  18  19
ATOM     19  C   UNL     1     -27.484 -53.806  23.613  1.00  0.00    -0.000 C 
BRANCH  19  20
ATOM     20  C   UNL     1     -28.965 -54.176  23.435  1.00  0.00    -0.000 C 
BRANCH  20  21
ATOM     21  C   UNL     1     -29.688 -53.276  22.415  1.00  0.00    -0.000 C 
BRANCH  21  22
ATOM     22  C   UNL     1     -30.941 -52.607  23.004  1.00  0.00    -0.000 C 
BRANCH  22  23
ATOM     23  C   UNL     1     -31.031 -51.108  22.661  1.00  0.00    -0.000 C 
BRANCH  23  24
ATOM     24  C   UNL     1     -32.175 -50.405  23.421  1.00  0.00    -0.000 C 
BRANCH  24  25
ATOM     25  C   UNL     1     -32.812 -51.276  24.517  1.00  0.00    -0.003 C 
ATOM     26  C   UNL     1     -34.336 -51.197  24.536  1.00  0.00     0.004 C 
ENDBRANCH  24  25
ENDBRANCH  23  24
ENDBRANCH  22  23
ENDBRANCH  21  22
ENDBRANCH  20  21
ENDBRANCH  19  20
ENDBRANCH  18  19
ENDBRANCH  17  18
ENDBRANCH  16  17
ENDBRANCH  15  16
ENDBRANCH   1  15
TORSDOF 22
ENDMDL
MODEL 3
REMARK VINA RESULT:    -4.051      5.252      9.846
REMARK INTER + INTRA:         -13.186
REMARK INTER:                  -9.747
REMARK INTRA:                  -3.438
REMARK UNBOUND:                -3.925
REMARK SMILES CCCCCCCCCCCCCCCCCCCCCCCC(=O)[O-]
REMARK SMILES IDX 13 1 14 2 15 3 16 4 17 5 18 6 19 7 20 8 21 9 22 10 23 11
REMARK SMILES IDX 24 12 25 13 26 14 12 15 11 16 10 17 9 18 8 19 7 20 6 21 5 22
REMARK SMILES IDX 4 23 3 24 2 25 1 26
REMARK H PARENT
REMARK Flexibility Score: inf
ROOT
ATOM      1  C   UNL     1     -33.115 -49.047  22.298  1.00  0.00     0.000 C 
ENDROOT
BRANCH   1   2
ATOM      2  C   UNL     1     -34.089 -48.637  23.415  1.00  0.00     0.000 C 
BRANCH   2   3
ATOM      3  C   UNL     1     -33.616 -47.467  24.299  1.00  0.00     0.000 C 
BRANCH   3   4
ATOM      4  C   UNL     1     -34.282 -46.114  23.966  1.00  0.00     0.000 C 
BRANCH   4   5
ATOM      5  C   UNL     1     -33.256 -44.997  23.705  1.00  0.00     0.000 C 
BRANCH   5   6
ATOM      6  C   UNL     1     -32.398 -44.692  24.947  1.00  0.00     0.000 C 
BRANCH   6   7
ATOM      7  C   UNL     1     -32.916 -43.495  25.766  1.00  0.00     0.000 C 
BRANCH   7   8
ATOM      8  C   UNL     1     -33.241 -43.885  27.219  1.00  0.00     0.000 C 
BRANCH   8   9
ATOM      9  C   UNL     1     -33.198 -45.402  27.453  1.00  0.00     0.000 C 
BRANCH   9  10
ATOM     10  C   UNL     1     -34.594 -46.018  27.628  1.00  0.00     0.006 C 
BRANCH  10  11
ATOM     11  C   UNL     1     -35.673 -44.930  27.623  1.00  0.00     0.053 C 
BRANCH  11  12
ATOM     12  C   UNL     1     -36.256 -44.742  28.990  1.00  0.00     0.041 C 
ATOM     13  O   UNL     1     -37.256 -45.417  29.351  1.00  0.00    -0.550 OA
ATOM     14  O   UNL     1     -35.676 -43.843  29.878  1.00  0.00    -0.550 OA
ENDBRANCH  11  12
ENDBRANCH  10  11
ENDBRANCH   9  10
ENDBRANCH   8   9
ENDBRANCH   7   8
ENDBRANCH   6   7
ENDBRANCH   5   6
ENDBRANCH   4   5
ENDBRANCH   3   4
ENDBRANCH   2   3
ENDBRANCH   1   2
BRANCH   1  15
ATOM     15  C   UNL     1     -32.797 -47.894  21.332  1.00  0.00     0.000 C 
BRANCH  15  16
ATOM     16  C   UNL     1     -31.286 -47.786  21.078  1.00  0.00     0.000 C 
BRANCH  16  17
ATOM     17  C   UNL     1     -30.567 -46.894  22.107  1.00  0.00     0.000 C 
BRANCH  17  18
ATOM     18  C   UNL     1     -29.420 -47.579  22.874  1.00  0.00    -0.000 C 
BRANCH  18  19
ATOM     19  C   UNL     1     -29.856 -48.106  24.252  1.00  0.00    -0.000 C 
BRANCH  19  20
ATOM     20  C   UNL     1     -30.195 -49.605  24.233  1.00  0.00    -0.000 C 
BRANCH  20  21
ATOM     21  C   UNL     1     -29.442 -50.375  23.132  1.00  0.00    -0.000 C 
BRANCH  21  22
ATOM     22  C   UNL     1     -30.379 -51.243  22.275  1.00  0.00    -0.000 C 
BRANCH  22  23
ATOM     23  C   UNL     1     -30.744 -52.575  22.956  1.00  0.00    -0.000 C 
BRANCH  23  24
ATOM     24  C   UNL     1     -29.763 -53.706  22.585  1.00  0.00    -0.000 C 
BRANCH  24  25
ATOM     25  C   UNL     1     -28.739 -54.019  23.689  1.00  0.00    -0.003 C 
ATOM     26  C   UNL     1     -27.795 -55.163  23.326  1.00  0.00     0.004 C 
ENDBRANCH  24  25
ENDBRANCH  23  24
ENDBRANCH  22  23
ENDBRANCH  21  22
ENDBRANCH  20  21
ENDBRANCH  19  20
ENDBRANCH  18  19
ENDBRANCH  17  18
ENDBRANCH  16  17
ENDBRANCH  15  16
ENDBRANCH   1  15
TORSDOF 22
ENDMDL
MODEL 4
REMARK VINA RESULT:    -4.010      6.566      9.920
REMARK INTER + INTRA:         -13.091
REMARK INTER:                  -8.786
REMARK INTRA:                  -4.306
REMARK UNBOUND:                -3.925
REMARK SMILES CCCCCCCCCCCCCCCCCCCCCCCC(=O)[O-]
REMARK SMILES IDX 13 1 14 2 15 3 16 4 17 5 18 6 19 7 20 8 21 9 22 10 23 11
REMARK SMILES IDX 24 12 25 13 26 14 12 15 11 16 10 17 9 18 8 19 7 20 6 21 5 22
REMARK SMILES IDX 4 23 3 24 2 25 1 26
REMARK H PARENT
REMARK Flexibility Score: inf
ROOT
ATOM      1  C   UNL     1     -30.688 -50.147  24.072  1.00  0.00     0.000 C 
ENDROOT
BRANCH   1   2
ATOM      2  C   UNL     1     -31.598 -50.999  24.971  1.00  0.00     0.000 C 
BRANCH   2   3
ATOM      3  C   UNL     1     -32.928 -51.440  24.327  1.00  0.00     0.000 C 
BRANCH   3   4
ATOM      4  C   UNL     1     -34.119 -50.508  24.639  1.00  0.00     0.000 C 
BRANCH   4   5
ATOM      5  C   UNL     1     -34.490 -49.602  23.451  1.00  0.00     0.000 C 
BRANCH   5   6
ATOM      6  C   UNL     1     -34.056 -48.141  23.675  1.00  0.00     0.000 C 
BRANCH   6   7
ATOM      7  C   UNL     1     -33.123 -47.607  22.574  1.00  0.00     0.000 C 
BRANCH   7   8
ATOM      8  C   UNL     1     -31.984 -46.746  23.148  1.00  0.00     0.000 C 
BRANCH   8   9
ATOM      9  C   UNL     1     -32.150 -46.461  24.648  1.00  0.00     0.000 C 
BRANCH   9  10
ATOM     10  C   UNL     1     -32.216 -44.960  24.967  1.00  0.00     0.006 C 
BRANCH  10  11
ATOM     11  C   UNL     1     -33.668 -44.470  24.975  1.00  0.00     0.053 C 
BRANCH  11  12
ATOM     12  C   UNL     1     -34.422 -45.038  26.137  1.00  0.00     0.041 C 
ATOM     13  O   UNL     1     -35.430 -45.767  25.943  1.00  0.00    -0.550 OA
ATOM     14  O   UNL     1     -33.995 -44.788  27.436  1.00  0.00    -0.550 OA
ENDBRANCH  11  12
ENDBRANCH  10  11
ENDBRANCH   9  10
ENDBRANCH   8   9
ENDBRANCH   7   8
ENDBRANCH   6   7
ENDBRANCH   5   6
ENDBRANCH   4   5
ENDBRANCH   3   4
ENDBRANCH   2   3
ENDBRANCH   1   2
BRANCH   1  15
ATOM     15  C   UNL     1     -30.923 -50.401  22.574  1.00  0.00     0.000 C 
BRANCH  15  16
ATOM     16  C   UNL     1     -29.889 -49.656  21.718  1.00  0.00     0.000 C 
BRANCH  16  17
ATOM     17  C   UNL     1     -28.964 -48.747  22.550  1.00  0.00     0.000 C 
BRANCH  17  18
ATOM     18  C   UNL     1     -27.463 -48.880  22.233  1.00  0.00    -0.000 C 
BRANCH  18  19
ATOM     19  C   UNL     1     -26.569 -48.599  23.453  1.00  0.00    -0.000 C 
BRANCH  19  20
ATOM     20  C   UNL     1     -27.376 -48.393  24.745  1.00  0.00    -0.000 C 
BRANCH  20  21
ATOM     21  C   UNL     1     -27.397 -49.643  25.644  1.00  0.00    -0.000 C 
BRANCH  21  22
ATOM     22  C   UNL     1     -26.646 -50.831  25.017  1.00  0.00    -0.000 C 
BRANCH  22  23
ATOM     23  C   UNL     1     -27.486 -52.122  25.001  1.00  0.00    -0.000 C 
BRANCH  23  24
ATOM     24  C   UNL     1     -27.960 -52.489  23.579  1.00  0.00    -0.000 C 
BRANCH  24  25
ATOM     25  C   UNL     1     -28.696 -53.837  23.505  1.00  0.00    -0.003 C 
ATOM     26  C   UNL     1     -29.931 -53.799  22.609  1.00  0.00     0.004 C 
ENDBRANCH  24  25
ENDBRANCH  23  24
ENDBRANCH  22  23
ENDBRANCH  21  22
ENDBRANCH  20  21
ENDBRANCH  19  20
ENDBRANCH  18  19
ENDBRANCH  17  18
ENDBRANCH  16  17
ENDBRANCH  15  16
ENDBRANCH   1  15
TORSDOF 22
ENDMDL
MODEL 5
REMARK VINA RESULT:    -3.972      5.907      9.050
REMARK INTER + INTRA:         -13.004
REMARK INTER:                  -8.843
REMARK INTRA:                  -4.161
REMARK UNBOUND:                -3.925
REMARK SMILES CCCCCCCCCCCCCCCCCCCCCCCC(=O)[O-]
REMARK SMILES IDX 13 1 14 2 15 3 16 4 17 5 18 6 19 7 20 8 21 9 22 10 23 11
REMARK SMILES IDX 24 12 25 13 26 14 12 15 11 16 10 17 9 18 8 19 7 20 6 21 5 22
REMARK SMILES IDX 4 23 3 24 2 25 1 26
REMARK H PARENT
REMARK Flexibility Score: inf
ROOT
ATOM      1  C   UNL     1     -27.948 -44.287  32.754  1.00  0.00     0.000 C 
ENDROOT
BRANCH   1   2
ATOM      2  C   UNL     1     -28.824 -44.914  33.850  1.00  0.00     0.000 C 
BRANCH   2   3
ATOM      3  C   UNL     1     -30.082 -44.106  34.226  1.00  0.00     0.000 C 
BRANCH   3   4
ATOM      4  C   UNL     1     -31.359 -44.960  34.377  1.00  0.00     0.000 C 
BRANCH   4   5
ATOM      5  C   UNL     1     -31.310 -46.252  33.541  1.00  0.00     0.000 C 
BRANCH   5   6
ATOM      6  C   UNL     1     -31.548 -47.510  34.398  1.00  0.00     0.000 C 
BRANCH   6   7
ATOM      7  C   UNL     1     -30.564 -47.639  35.576  1.00  0.00     0.000 C 
BRANCH   7   8
ATOM      8  C   UNL     1     -30.843 -48.891  36.428  1.00  0.00     0.000 C 
BRANCH   8   9
ATOM      9  C   UNL     1     -29.772 -49.978  36.259  1.00  0.00     0.000 C 
BRANCH   9  10
ATOM     10  C   UNL     1     -30.204 -51.100  35.304  1.00  0.00     0.006 C 
BRANCH  10  11
ATOM     11  C   UNL     1     -29.030 -52.036  34.998  1.00  0.00     0.053 C 
BRANCH  11  12
ATOM     12  C   UNL     1     -29.097 -52.541  33.590  1.00  0.00     0.041 C 
ATOM     13  O   UNL     1     -28.271 -53.401  33.185  1.00  0.00    -0.550 OA
ATOM     14  O   UNL     1     -30.090 -52.084  32.731  1.00  0.00    -0.550 OA
ENDBRANCH  11  12
ENDBRANCH  10  11
ENDBRANCH   9  10
ENDBRANCH   8   9
ENDBRANCH   7   8
ENDBRANCH   6   7
ENDBRANCH   5   6
ENDBRANCH   4   5
ENDBRANCH   3   4
ENDBRANCH   2   3
ENDBRANCH   1   2
BRANCH   1  15
ATOM     15  C   UNL     1     -27.019 -45.306  32.077  1.00  0.00     0.000 C 
BRANCH  15  16
ATOM     16  C   UNL     1     -27.741 -46.043  30.938  1.00  0.00     0.000 C 
BRANCH  16  17
ATOM     17  C   UNL     1     -27.698 -47.574  31.092  1.00  0.00     0.000 C 
BRANCH  17  18
ATOM     18  C   UNL     1     -28.601 -48.143  32.203  1.00  0.00    -0.000 C 
BRANCH  18  19
ATOM     19  C   UNL     1     -27.829 -49.008  33.214  1.00  0.00    -0.000 C 
BRANCH  19  20
ATOM     20  C   UNL     1     -27.122 -48.171  34.293  1.00  0.00    -0.000 C 
BRANCH  20  21
ATOM     21  C   UNL     1     -26.427 -49.037  35.361  1.00  0.00    -0.000 C 
BRANCH  21  22
ATOM     22  C   UNL     1     -25.146 -49.705  34.835  1.00  0.00    -0.000 C 
BRANCH  22  23
ATOM     23  C   UNL     1     -25.333 -51.206  34.548  1.00  0.00    -0.000 C 
BRANCH  23  24
ATOM     24  C   UNL     1     -25.316 -51.517  33.037  1.00  0.00    -0.000 C 
BRANCH  24  25
ATOM     25  C   UNL     1     -24.326 -50.649  32.242  1.00  0.00    -0.003 C 
ATOM     26  C   UNL     1     -24.966 -49.954  31.043  1.00  0.00     0.004 C 
ENDBRANCH  24  25
ENDBRANCH  23  24
ENDBRANCH  22  23
ENDBRANCH  21  22
ENDBRANCH  20  21
ENDBRANCH  19  20
ENDBRANCH  18  19
ENDBRANCH  17  18
ENDBRANCH  16  17
ENDBRANCH  15  16
ENDBRANCH   1  15
TORSDOF 22
ENDMDL
MODEL 6
REMARK VINA RESULT:    -3.956      5.443      8.398
REMARK INTER + INTRA:         -12.969
REMARK INTER:                  -9.247
REMARK INTRA:                  -3.722
REMARK UNBOUND:                -3.925
REMARK SMILES CCCCCCCCCCCCCCCCCCCCCCCC(=O)[O-]
REMARK SMILES IDX 13 1 14 2 15 3 16 4 17 5 18 6 19 7 20 8 21 9 22 10 23 11
REMARK SMILES IDX 24 12 25 13 26 14 12 15 11 16 10 17 9 18 8 19 7 20 6 21 5 22
REMARK SMILES IDX 4 23 3 24 2 25 1 26
REMARK H PARENT
REMARK Flexibility Score: inf
ROOT
ATOM      1  C   UNL     1     -32.596 -50.097  32.534  1.00  0.00     0.000 C 
ENDROOT
BRANCH   1   2
ATOM      2  C   UNL     1     -31.868 -51.411  32.206  1.00  0.00     0.000 C 
BRANCH   2   3
ATOM      3  C   UNL     1     -32.638 -52.694  32.576  1.00  0.00     0.000 C 
BRANCH   3   4
ATOM      4  C   UNL     1     -31.880 -53.628  33.544  1.00  0.00     0.000 C 
BRANCH   4   5
ATOM      5  C   UNL     1     -30.813 -52.886  34.370  1.00  0.00     0.000 C 
BRANCH   5   6
ATOM      6  C   UNL     1     -29.423 -53.537  34.244  1.00  0.00     0.000 C 
BRANCH   6   7
ATOM      7  C   UNL     1     -28.270 -52.516  34.253  1.00  0.00     0.000 C 
BRANCH   7   8
ATOM      8  C   UNL     1     -28.395 -51.491  33.112  1.00  0.00     0.000 C 
BRANCH   8   9
ATOM      9  C   UNL     1     -28.513 -50.046  33.618  1.00  0.00     0.000 C 
BRANCH   9  10
ATOM     10  C   UNL     1     -28.285 -49.924  35.132  1.00  0.00     0.006 C 
BRANCH  10  11
ATOM     11  C   UNL     1     -27.428 -48.696  35.456  1.00  0.00     0.053 C 
BRANCH  11  12
ATOM     12  C   UNL     1     -25.969 -49.026  35.397  1.00  0.00     0.041 C 
ATOM     13  O   UNL     1     -25.110 -48.161  35.710  1.00  0.00    -0.550 OA
ATOM     14  O   UNL     1     -25.557 -50.301  35.024  1.00  0.00    -0.550 OA
ENDBRANCH  11  12
ENDBRANCH  10  11
ENDBRANCH   9  10
ENDBRANCH   8   9
ENDBRANCH   7   8
ENDBRANCH   6   7
ENDBRANCH   5   6
ENDBRANCH   4   5
ENDBRANCH   3   4
ENDBRANCH   2   3
ENDBRANCH   1   2
BRANCH   1  15
ATOM     15  C   UNL     1     -32.136 -49.476  33.863  1.00  0.00     0.000 C 
BRANCH  15  16
ATOM     16  C   UNL     1     -32.945 -50.033  35.043  1.00  0.00     0.000 C 
BRANCH  16  17
ATOM     17  C   UNL     1     -33.827 -48.968  35.722  1.00  0.00     0.000 C 
BRANCH  17  18
ATOM     18  C   UNL     1     -35.310 -48.990  35.308  1.00  0.00    -0.000 C 
BRANCH  18  19
ATOM     19  C   UNL     1     -35.826 -47.609  34.868  1.00  0.00    -0.000 C 
BRANCH  19  20
ATOM     20  C   UNL     1     -35.908 -47.466  33.339  1.00  0.00    -0.000 C 
BRANCH  20  21
ATOM     21  C   UNL     1     -34.590 -46.974  32.713  1.00  0.00    -0.000 C 
BRANCH  21  22
ATOM     22  C   UNL     1     -33.984 -45.784  33.476  1.00  0.00    -0.000 C 
BRANCH  22  23
ATOM     23  C   UNL     1     -32.527 -45.498  33.070  1.00  0.00    -0.000 C 
BRANCH  23  24
ATOM     24  C   UNL     1     -31.702 -44.915  34.236  1.00  0.00    -0.000 C 
BRANCH  24  25
ATOM     25  C   UNL     1     -30.559 -45.833  34.701  1.00  0.00    -0.003 C 
ATOM     26  C   UNL     1     -30.918 -46.662  35.932  1.00  0.00     0.004 C 
ENDBRANCH  24  25
ENDBRANCH  23  24
ENDBRANCH  22  23
ENDBRANCH  21  22
ENDBRANCH  20  21
ENDBRANCH  19  20
ENDBRANCH  18  19
ENDBRANCH  17  18
ENDBRANCH  16  17
ENDBRANCH  15  16
ENDBRANCH   1  15
TORSDOF 22
ENDMDL
MODEL 7
REMARK VINA RESULT:    -3.937      6.780      8.844
REMARK INTER + INTRA:         -12.926
REMARK INTER:                  -8.681
REMARK INTRA:                  -4.245
REMARK UNBOUND:                -3.925
REMARK SMILES CCCCCCCCCCCCCCCCCCCCCCCC(=O)[O-]
REMARK SMILES IDX 13 1 14 2 15 3 16 4 17 5 18 6 19 7 20 8 21 9 22 10 23 11
REMARK SMILES IDX 24 12 25 13 26 14 12 15 11 16 10 17 9 18 8 19 7 20 6 21 5 22
REMARK SMILES IDX 4 23 3 24 2 25 1 26
REMARK H PARENT
REMARK Flexibility Score: inf
ROOT
ATOM      1  C   UNL     1     -28.772 -51.624  32.050  1.00  0.00     0.000 C 
ENDROOT
BRANCH   1   2
ATOM      2  C   UNL     1     -28.227 -51.329  33.457  1.00  0.00     0.000 C 
BRANCH   2   3
ATOM      3  C   UNL     1     -27.019 -52.187  33.883  1.00  0.00     0.000 C 
BRANCH   3   4
ATOM      4  C   UNL     1     -25.874 -51.382  34.537  1.00  0.00     0.000 C 
BRANCH   4   5
ATOM      5  C   UNL     1     -25.453 -50.163  33.697  1.00  0.00     0.000 C 
BRANCH   5   6
ATOM      6  C   UNL     1     -24.713 -50.570  32.409  1.00  0.00     0.000 C 
BRANCH   6   7
ATOM      7  C   UNL     1     -25.260 -49.877  31.147  1.00  0.00     0.000 C 
BRANCH   7   8
ATOM      8  C   UNL     1     -25.717 -50.891  30.082  1.00  0.00     0.000 C 
BRANCH   8   9
ATOM      9  C   UNL     1     -25.439 -52.346  30.487  1.00  0.00     0.000 C 
BRANCH   9  10
ATOM     10  C   UNL     1     -24.613 -53.108  29.440  1.00  0.00     0.006 C 
BRANCH  10  11
ATOM     11  C   UNL     1     -25.357 -54.363  28.969  1.00  0.00     0.053 C 
BRANCH  11  12
ATOM     12  C   UNL     1     -26.018 -54.132  27.646  1.00  0.00     0.041 C 
ATOM     13  O   UNL     1     -25.428 -53.475  26.748  1.00  0.00    -0.550 OA
ATOM     14  O   UNL     1     -27.276 -54.667  27.392  1.00  0.00    -0.550 OA
ENDBRANCH  11  12
ENDBRANCH  10  11
ENDBRANCH   9  10
ENDBRANCH   8   9
ENDBRANCH   7   8
ENDBRANCH   6   7
ENDBRANCH   5   6
ENDBRANCH   4   5
ENDBRANCH   3   4
ENDBRANCH   2   3
ENDBRANCH   1   2
BRANCH   1  15
ATOM     15  C   UNL     1     -30.288 -51.879  32.039  1.00  0.00     0.000 C 
BRANCH  15  16
ATOM     16  C   UNL     1     -30.755 -52.495  33.366  1.00  0.00     0.000 C 
BRANCH  16  17
ATOM     17  C   UNL     1     -32.100 -51.924  33.852  1.00  0.00     0.000 C 
BRANCH  17  18
ATOM     18  C   UNL     1     -32.097 -50.412  34.149  1.00  0.00    -0.000 C 
BRANCH  18  19
ATOM     19  C   UNL     1     -31.807 -50.096  35.626  1.00  0.00    -0.000 C 
BRANCH  19  20
ATOM     20  C   UNL     1     -30.802 -48.946  35.800  1.00  0.00    -0.000 C 
BRANCH  20  21
ATOM     21  C   UNL     1     -29.452 -49.413  36.377  1.00  0.00    -0.000 C 
BRANCH  21  22
ATOM     22  C   UNL     1     -28.267 -48.595  35.839  1.00  0.00    -0.000 C 
BRANCH  22  23
ATOM     23  C   UNL     1     -28.696 -47.537  34.805  1.00  0.00    -0.000 C 
BRANCH  23  24
ATOM     24  C   UNL     1     -27.682 -47.408  33.649  1.00  0.00    -0.000 C 
BRANCH  24  25
ATOM     25  C   UNL     1     -28.268 -47.763  32.273  1.00  0.00    -0.003 C 
ATOM     26  C   UNL     1     -29.761 -48.077  32.319  1.00  0.00     0.004 C 
ENDBRANCH  24  25
ENDBRANCH  23  24
ENDBRANCH  22  23
ENDBRANCH  21  22
ENDBRANCH  20  21
ENDBRANCH  19  20
ENDBRANCH  18  19
ENDBRANCH  17  18
ENDBRANCH  16  17
ENDBRANCH  15  16
ENDBRANCH   1  15
TORSDOF 22
ENDMDL
MODEL 8
REMARK VINA RESULT:    -3.905      5.712      9.133
REMARK INTER + INTRA:         -12.852
REMARK INTER:                  -8.465
REMARK INTRA:                  -4.387
REMARK UNBOUND:                -3.925
REMARK SMILES CCCCCCCCCCCCCCCCCCCCCCCC(=O)[O-]
REMARK SMILES IDX 13 1 14 2 15 3 16 4 17 5 18 6 19 7 20 8 21 9 22 10 23 11
REMARK SMILES IDX 24 12 25 13 26 14 12 15 11 16 10 17 9 18 8 19 7 20 6 21 5 22
REMARK SMILES IDX 4 23 3 24 2 25 1 26
REMARK H PARENT
REMARK Flexibility Score: inf
ROOT
ATOM      1  C   UNL     1     -31.272 -50.795  22.623  1.00  0.00     0.000 C 
ENDROOT
BRANCH   1   2
ATOM      2  C   UNL     1     -31.460 -51.487  23.982  1.00  0.00     0.000 C 
BRANCH   2   3
ATOM      3  C   UNL     1     -32.915 -51.552  24.487  1.00  0.00     0.000 C 
BRANCH   3   4
ATOM      4  C   UNL     1     -33.469 -50.201  24.991  1.00  0.00     0.000 C 
BRANCH   4   5
ATOM      5  C   UNL     1     -34.524 -49.603  24.043  1.00  0.00     0.000 C 
BRANCH   5   6
ATOM      6  C   UNL     1     -33.944 -48.485  23.157  1.00  0.00     0.000 C 
BRANCH   6   7
ATOM      7  C   UNL     1     -34.443 -47.080  23.544  1.00  0.00     0.000 C 
BRANCH   7   8
ATOM      8  C   UNL     1     -35.473 -47.127  24.686  1.00  0.00     0.000 C 
BRANCH   8   9
ATOM      9  C   UNL     1     -35.190 -46.093  25.787  1.00  0.00     0.000 C 
BRANCH   9  10
ATOM     10  C   UNL     1     -33.784 -46.233  26.389  1.00  0.00     0.006 C 
BRANCH  10  11
ATOM     11  C   UNL     1     -33.495 -45.087  27.365  1.00  0.00     0.053 C 
BRANCH  11  12
ATOM     12  C   UNL     1     -32.560 -44.087  26.760  1.00  0.00     0.041 C 
ATOM     13  O   UNL     1     -31.453 -43.842  27.307  1.00  0.00    -0.550 OA
ATOM     14  O   UNL     1     -32.897 -43.446  25.573  1.00  0.00    -0.550 OA
ENDBRANCH  11  12
ENDBRANCH  10  11
ENDBRANCH   9  10
ENDBRANCH   8   9
ENDBRANCH   7   8
ENDBRANCH   6   7
ENDBRANCH   5   6
ENDBRANCH   4   5
ENDBRANCH   3   4
ENDBRANCH   2   3
ENDBRANCH   1   2
BRANCH   1  15
ATOM     15  C   UNL     1     -29.970 -51.210  21.918  1.00  0.00     0.000 C 
BRANCH  15  16
ATOM     16  C   UNL     1     -29.162 -49.979  21.480  1.00  0.00     0.000 C 
BRANCH  16  17
ATOM     17  C   UNL     1     -27.818 -49.848  22.220  1.00  0.00     0.000 C 
BRANCH  17  18
ATOM     18  C   UNL     1     -27.610 -48.515  22.963  1.00  0.00    -0.000 C 
BRANCH  18  19
ATOM     19  C   UNL     1     -27.411 -48.700  24.477  1.00  0.00    -0.000 C 
BRANCH  19  20
ATOM     20  C   UNL     1     -28.597 -49.411  25.149  1.00  0.00    -0.000 C 
BRANCH  20  21
ATOM     21  C   UNL     1     -29.137 -48.647  26.373  1.00  0.00    -0.000 C 
BRANCH  21  22
ATOM     22  C   UNL     1     -30.550 -48.088  26.141  1.00  0.00    -0.000 C 
BRANCH  22  23
ATOM     23  C   UNL     1     -30.801 -47.696  24.673  1.00  0.00    -0.000 C 
BRANCH  23  24
ATOM     24  C   UNL     1     -30.503 -46.205  24.409  1.00  0.00    -0.000 C 
BRANCH  24  25
ATOM     25  C   UNL     1     -31.075 -45.689  23.079  1.00  0.00    -0.003 C 
ATOM     26  C   UNL     1     -30.738 -46.586  21.891  1.00  0.00     0.004 C 
ENDBRANCH  24  25
ENDBRANCH  23  24
ENDBRANCH  22  23
ENDBRANCH  21  22
ENDBRANCH  20  21
ENDBRANCH  19  20
ENDBRANCH  18  19
ENDBRANCH  17  18
ENDBRANCH  16  17
ENDBRANCH  15  16
ENDBRANCH   1  15
TORSDOF 22
ENDMDL
MODEL 9
REMARK VINA RESULT:    -3.904      7.074      9.822
REMARK INTER + INTRA:         -12.850
REMARK INTER:                  -8.469
REMARK INTRA:                  -4.382
REMARK UNBOUND:                -3.925
REMARK SMILES CCCCCCCCCCCCCCCCCCCCCCCC(=O)[O-]
REMARK SMILES IDX 13 1 14 2 15 3 16 4 17 5 18 6 19 7 20 8 21 9 22 10 23 11
REMARK SMILES IDX 24 12 25 13 26 14 12 15 11 16 10 17 9 18 8 19 7 20 6 21 5 22
REMARK SMILES IDX 4 23 3 24 2 25 1 26
REMARK H PARENT
REMARK Flexibility Score: inf
ROOT
ATOM      1  C   UNL     1     -28.784 -50.991  26.374  1.00  0.00     0.000 C 
ENDROOT
BRANCH   1   2
ATOM      2  C   UNL     1     -27.416 -50.561  26.926  1.00  0.00     0.000 C 
BRANCH   2   3
ATOM      3  C   UNL     1     -26.276 -51.578  26.714  1.00  0.00     0.000 C 
BRANCH   3   4
ATOM      4  C   UNL     1     -26.216 -52.170  25.289  1.00  0.00     0.000 C 
BRANCH   4   5
ATOM      5  C   UNL     1     -25.849 -51.118  24.226  1.00  0.00     0.000 C 
BRANCH   5   6
ATOM      6  C   UNL     1     -26.962 -50.939  23.176  1.00  0.00     0.000 C 
BRANCH   6   7
ATOM      7  C   UNL     1     -27.288 -49.464  22.880  1.00  0.00     0.000 C 
BRANCH   7   8
ATOM      8  C   UNL     1     -26.691 -48.516  23.935  1.00  0.00     0.000 C 
BRANCH   8   9
ATOM      9  C   UNL     1     -27.581 -47.295  24.211  1.00  0.00     0.000 C 
BRANCH   9  10
ATOM     10  C   UNL     1     -28.875 -47.300  23.383  1.00  0.00     0.006 C 
BRANCH  10  11
ATOM     11  C   UNL     1     -29.549 -45.924  23.421  1.00  0.00     0.053 C 
BRANCH  11  12
ATOM     12  C   UNL     1     -30.838 -45.935  22.658  1.00  0.00     0.041 C 
ATOM     13  O   UNL     1     -31.816 -45.251  23.057  1.00  0.00    -0.550 OA
ATOM     14  O   UNL     1     -30.950 -46.679  21.489  1.00  0.00    -0.550 OA
ENDBRANCH  11  12
ENDBRANCH  10  11
ENDBRANCH   9  10
ENDBRANCH   8   9
ENDBRANCH   7   8
ENDBRANCH   6   7
ENDBRANCH   5   6
ENDBRANCH   4   5
ENDBRANCH   3   4
ENDBRANCH   2   3
ENDBRANCH   1   2
BRANCH   1  15
ATOM     15  C   UNL     1     -29.785 -49.827  26.287  1.00  0.00     0.000 C 
BRANCH  15  16
ATOM     16  C   UNL     1     -31.101 -50.175  26.998  1.00  0.00     0.000 C 
BRANCH  16  17
ATOM     17  C   UNL     1     -31.589 -51.603  26.692  1.00  0.00     0.000 C 
BRANCH  17  18
ATOM     18  C   UNL     1     -32.906 -52.004  27.383  1.00  0.00    -0.000 C 
BRANCH  18  19
ATOM     19  C   UNL     1     -34.114 -51.971  26.431  1.00  0.00    -0.000 C 
BRANCH  19  20
ATOM     20  C   UNL     1     -33.701 -51.986  24.949  1.00  0.00    -0.000 C 
BRANCH  20  21
ATOM     21  C   UNL     1     -34.274 -50.796  24.157  1.00  0.00    -0.000 C 
BRANCH  21  22
ATOM     22  C   UNL     1     -33.283 -49.625  24.055  1.00  0.00    -0.000 C 
BRANCH  22  23
ATOM     23  C   UNL     1     -32.439 -49.672  22.767  1.00  0.00    -0.000 C 
BRANCH  23  24
ATOM     24  C   UNL     1     -31.018 -50.218  23.022  1.00  0.00    -0.000 C 
BRANCH  24  25
ATOM     25  C   UNL     1     -30.774 -51.608  22.411  1.00  0.00    -0.003 C 
ATOM     26  C   UNL     1     -30.255 -52.626  23.423  1.00  0.00     0.004 C 
ENDBRANCH  24  25
ENDBRANCH  23  24
ENDBRANCH  22  23
ENDBRANCH  21  22
ENDBRANCH  20  21
ENDBRANCH  19  20
ENDBRANCH  18  19
ENDBRANCH  17  18
ENDBRANCH  16  17
ENDBRANCH  15  16
ENDBRANCH   1  15
TORSDOF 22
ENDMDL
