MODEL 1
REMARK VINA RESULT:    -3.086      0.000      0.000
REMARK INTER + INTRA:          -4.046
REMARK INTER:                  -3.717
REMARK INTRA:                  -0.328
REMARK UNBOUND:                -0.328
REMARK SMILES O=c1c(O)c(-c2ccc(O)cc2O)oc2cc(O)cc(O)c12
REMARK SMILES IDX 5 1 3 2 2 3 1 4 22 5 20 6 19 7 17 8 16 9 15 10 14 11 6 12
REMARK SMILES IDX 8 13 7 14 9 15 11 16 12 17 10 18 13 20 4 22 21 24 18 26
REMARK H PARENT 10 19 13 21 4 23 21 25 18 27
REMARK Flexibility Score: inf
ROOT
ATOM      1  C   UNL     1      40.264 113.343 -15.626  1.00  0.00     0.184 A 
ATOM      2  C   UNL     1      39.377 113.587 -14.568  1.00  0.00     0.208 A 
ATOM      3  C   UNL     1      38.023 113.825 -14.855  1.00  0.00     0.238 A 
ATOM      4  O   UNL     1      37.248 114.116 -13.907  1.00  0.00    -0.285 OA
ATOM      5  C   UNL     1      37.566 113.759 -16.193  1.00  0.00     0.111 A 
ATOM      6  C   UNL     1      36.208 113.939 -16.598  1.00  0.00     0.134 A 
ATOM      7  C   UNL     1      35.889 113.957 -17.961  1.00  0.00     0.093 A 
ATOM      8  C   UNL     1      36.866 113.739 -18.932  1.00  0.00     0.123 A 
ATOM      9  C   UNL     1      38.187 113.508 -18.547  1.00  0.00     0.094 A 
ATOM     10  C   UNL     1      38.543 113.522 -17.197  1.00  0.00     0.146 A 
ATOM     11  O   UNL     1      39.815 113.318 -16.875  1.00  0.00    -0.451 OA
ENDROOT
BRANCH   1  12
ATOM     12  C   UNL     1      41.702 113.093 -15.394  1.00  0.00     0.063 A 
ATOM     13  C   UNL     1      43.986 113.924 -15.424  1.00  0.00     0.047 A 
ATOM     14  C   UNL     1      42.620 114.125 -15.639  1.00  0.00     0.020 A 
ATOM     15  C   UNL     1      44.450 112.695 -14.948  1.00  0.00     0.119 A 
ATOM     16  C   UNL     1      43.539 111.665 -14.678  1.00  0.00     0.093 A 
ATOM     17  C   UNL     1      42.165 111.861 -14.886  1.00  0.00     0.130 A 
BRANCH  15  18
ATOM     18  O   UNL     1      45.814 112.507 -14.743  1.00  0.00    -0.508 OA
ATOM     19  H   UNL     1      46.400 113.243 -14.363  1.00  0.00     0.293 HD
ENDBRANCH  15  18
BRANCH  17  20
ATOM     20  O   UNL     1      41.264 110.845 -14.567  1.00  0.00    -0.507 OA
ATOM     21  H   UNL     1      40.611 110.478 -15.250  1.00  0.00     0.293 HD
ENDBRANCH  17  20
ENDBRANCH   1  12
BRANCH   2  22
ATOM     22  O   UNL     1      39.841 113.576 -13.249  1.00  0.00    -0.502 OA
ATOM     23  H   UNL     1      40.496 112.882 -12.910  1.00  0.00     0.293 HD
ENDBRANCH   2  22
BRANCH   6  24
ATOM     24  O   UNL     1      35.137 114.078 -15.708  1.00  0.00    -0.507 OA
ATOM     25  H   UNL     1      34.639 114.937 -15.533  1.00  0.00     0.293 HD
ENDBRANCH   6  24
BRANCH   8  26
ATOM     26  O   UNL     1      36.510 113.747 -20.279  1.00  0.00    -0.508 OA
ATOM     27  H   UNL     1      36.741 114.526 -20.884  1.00  0.00     0.293 HD
ENDBRANCH   8  26
TORSDOF 6
ENDMDL
MODEL 2
REMARK VINA RESULT:    -1.696      7.205     11.094
REMARK INTER + INTRA:          -2.372
REMARK INTER:                  -2.075
REMARK INTRA:                  -0.297
REMARK UNBOUND:                -0.328
REMARK SMILES O=c1c(O)c(-c2ccc(O)cc2O)oc2cc(O)cc(O)c12
REMARK SMILES IDX 5 1 3 2 2 3 1 4 22 5 20 6 19 7 17 8 16 9 15 10 14 11 6 12
REMARK SMILES IDX 8 13 7 14 9 15 11 16 12 17 10 18 13 20 4 22 21 24 18 26
REMARK H PARENT 10 19 13 21 4 23 21 25 18 27
REMARK Flexibility Score: inf
ROOT
ATOM      1  C   UNL     1      47.393 108.475 -16.473  1.00  0.00     0.184 A 
ATOM      2  C   UNL     1      47.572 107.734 -17.650  1.00  0.00     0.208 A 
ATOM      3  C   UNL     1      47.821 106.356 -17.554  1.00  0.00     0.238 A 
ATOM      4  O   UNL     1      48.055 105.711 -18.610  1.00  0.00    -0.285 OA
ATOM      5  C   UNL     1      47.831 105.728 -16.285  1.00  0.00     0.111 A 
ATOM      6  C   UNL     1      48.029 104.330 -16.071  1.00  0.00     0.134 A 
ATOM      7  C   UNL     1      48.125 103.837 -14.764  1.00  0.00     0.093 A 
ATOM      8  C   UNL     1      47.967 104.679 -13.664  1.00  0.00     0.123 A 
ATOM      9  C   UNL     1      47.719 106.038 -13.860  1.00  0.00     0.094 A 
ATOM     10  C   UNL     1      47.655 106.566 -15.151  1.00  0.00     0.146 A 
ATOM     11  O   UNL     1      47.439 107.868 -15.293  1.00  0.00    -0.451 OA
ENDROOT
BRANCH   1  12
ATOM     12  C   UNL     1      47.135 109.931 -16.502  1.00  0.00     0.063 A 
ATOM     13  C   UNL     1      47.916 112.188 -16.050  1.00  0.00     0.047 A 
ATOM     14  C   UNL     1      48.125 110.806 -16.031  1.00  0.00     0.020 A 
ATOM     15  C   UNL     1      46.723 112.712 -16.552  1.00  0.00     0.119 A 
ATOM     16  C   UNL     1      45.737 111.847 -17.046  1.00  0.00     0.093 A 
ATOM     17  C   UNL     1      45.941 110.459 -17.036  1.00  0.00     0.130 A 
BRANCH  15  18
ATOM     18  O   UNL     1      46.527 114.090 -16.561  1.00  0.00    -0.508 OA
ATOM     19  H   UNL     1      46.211 114.576 -17.393  1.00  0.00     0.293 HD
ENDBRANCH  15  18
BRANCH  17  20
ATOM     20  O   UNL     1      44.974 109.612 -17.576  1.00  0.00    -0.507 OA
ATOM     21  H   UNL     1      44.359 109.062 -16.988  1.00  0.00     0.293 HD
ENDBRANCH  17  20
ENDBRANCH   1  12
BRANCH   2  22
ATOM     22  O   UNL     1      47.487 108.365 -18.894  1.00  0.00    -0.502 OA
ATOM     23  H   UNL     1      48.299 108.734 -19.373  1.00  0.00     0.293 HD
ENDBRANCH   2  22
BRANCH   6  24
ATOM     24  O   UNL     1      48.112 103.384 -17.099  1.00  0.00    -0.507 OA
ATOM     25  H   UNL     1      47.993 102.390 -16.980  1.00  0.00     0.293 HD
ENDBRANCH   6  24
BRANCH   8  26
ATOM     26  O   UNL     1      48.051 104.151 -12.377  1.00  0.00    -0.508 OA
ATOM     27  H   UNL     1      47.774 103.198 -12.176  1.00  0.00     0.293 HD
ENDBRANCH   8  26
TORSDOF 6
ENDMDL
MODEL 3
REMARK VINA RESULT:    -0.326      7.367      9.653
REMARK INTER + INTRA:          -0.721
REMARK INTER:                  -1.236
REMARK INTRA:                   0.515
REMARK UNBOUND:                -0.328
REMARK SMILES O=c1c(O)c(-c2ccc(O)cc2O)oc2cc(O)cc(O)c12
REMARK SMILES IDX 5 1 3 2 2 3 1 4 22 5 20 6 19 7 17 8 16 9 15 10 14 11 6 12
REMARK SMILES IDX 8 13 7 14 9 15 11 16 12 17 10 18 13 20 4 22 21 24 18 26
REMARK H PARENT 10 19 13 21 4 23 21 25 18 27
REMARK Flexibility Score: inf
ROOT
ATOM      1  C   UNL     1      47.091 109.020 -16.378  1.00  0.00     0.184 A 
ATOM      2  C   UNL     1      46.394 109.777 -17.331  1.00  0.00     0.208 A 
ATOM      3  C   UNL     1      46.164 111.139 -17.082  1.00  0.00     0.238 A 
ATOM      4  O   UNL     1      45.473 111.793 -17.907  1.00  0.00    -0.285 OA
ATOM      5  C   UNL     1      46.683 111.738 -15.910  1.00  0.00     0.111 A 
ATOM      6  C   UNL     1      46.549 113.120 -15.576  1.00  0.00     0.134 A 
ATOM      7  C   UNL     1      47.013 113.579 -14.337  1.00  0.00     0.093 A 
ATOM      8  C   UNL     1      47.661 112.723 -13.447  1.00  0.00     0.123 A 
ATOM      9  C   UNL     1      47.846 111.382 -13.786  1.00  0.00     0.094 A 
ATOM     10  C   UNL     1      47.362 110.885 -14.998  1.00  0.00     0.146 A 
ATOM     11  O   UNL     1      47.540 109.599 -15.271  1.00  0.00    -0.451 OA
ENDROOT
BRANCH   1  12
ATOM     12  C   UNL     1      47.361 107.579 -16.574  1.00  0.00     0.063 A 
ATOM     13  C   UNL     1      47.450 105.668 -18.074  1.00  0.00     0.047 A 
ATOM     14  C   UNL     1      47.198 107.025 -17.852  1.00  0.00     0.020 A 
ATOM     15  C   UNL     1      47.881 104.853 -17.024  1.00  0.00     0.119 A 
ATOM     16  C   UNL     1      48.069 105.402 -15.749  1.00  0.00     0.093 A 
ATOM     17  C   UNL     1      47.824 106.765 -15.520  1.00  0.00     0.130 A 
BRANCH  15  18
ATOM     18  O   UNL     1      48.124 103.502 -17.258  1.00  0.00    -0.508 OA
ATOM     19  H   UNL     1      47.481 102.933 -17.797  1.00  0.00     0.293 HD
ENDBRANCH  15  18
BRANCH  17  20
ATOM     20  O   UNL     1      48.062 107.310 -14.259  1.00  0.00    -0.507 OA
ATOM     21  H   UNL     1      48.291 108.289 -14.136  1.00  0.00     0.293 HD
ENDBRANCH  17  20
ENDBRANCH   1  12
BRANCH   2  22
ATOM     22  O   UNL     1      45.953 109.177 -18.515  1.00  0.00    -0.502 OA
ATOM     23  H   UNL     1      45.306 109.632 -19.146  1.00  0.00     0.293 HD
ENDBRANCH   2  22
BRANCH   6  24
ATOM     24  O   UNL     1      45.996 114.082 -16.427  1.00  0.00    -0.507 OA
ATOM     25  H   UNL     1      45.248 113.912 -17.082  1.00  0.00     0.293 HD
ENDBRANCH   6  24
BRANCH   8  26
ATOM     26  O   UNL     1      48.125 113.219 -12.230  1.00  0.00    -0.508 OA
ATOM     27  H   UNL     1      49.031 113.664 -12.150  1.00  0.00     0.293 HD
ENDBRANCH   8  26
TORSDOF 6
ENDMDL
