MODEL 1
REMARK VINA RESULT:    -3.630      0.000      0.000
REMARK INTER + INTRA:         -11.265
REMARK INTER:                  -9.147
REMARK INTRA:                  -2.118
REMARK UNBOUND:                -2.118
REMARK SMILES CCCCCCCCCCCCCCCCCCCCCCCCCCCC(=O)[O-]
REMARK SMILES IDX 15 1 16 2 17 3 18 4 19 5 20 6 21 7 22 8 23 9 24 10 25 11
REMARK SMILES IDX 26 12 27 13 28 14 29 15 30 16 14 17 13 18 12 19 11 20 10 21
REMARK SMILES IDX 9 22 8 23 7 24 6 25 5 26 4 27 3 28 2 29 1 30
REMARK H PARENT
REMARK Flexibility Score: inf
ROOT
ATOM      1  C   UNL     1       2.378  43.441   9.123  1.00  0.00     0.000 C 
ENDROOT
BRANCH   1   2
ATOM      2  C   UNL     1       3.644  44.250   9.476  1.00  0.00     0.000 C 
BRANCH   2   3
ATOM      3  C   UNL     1       3.754  44.693  10.947  1.00  0.00     0.000 C 
BRANCH   3   4
ATOM      4  C   UNL     1       3.907  43.512  11.919  1.00  0.00     0.000 C 
BRANCH   4   5
ATOM      5  C   UNL     1       2.714  43.374  12.880  1.00  0.00     0.000 C 
BRANCH   5   6
ATOM      6  C   UNL     1       1.410  42.908  12.201  1.00  0.00     0.000 C 
BRANCH   6   7
ATOM      7  C   UNL     1       0.277  42.677  13.218  1.00  0.00     0.000 C 
BRANCH   7   8
ATOM      8  C   UNL     1       0.682  41.732  14.363  1.00  0.00     0.000 C 
BRANCH   8   9
ATOM      9  C   UNL     1      -0.456  41.343  15.328  1.00  0.00     0.000 C 
BRANCH   9  10
ATOM     10  C   UNL     1      -0.989  39.906  15.173  1.00  0.00     0.000 C 
BRANCH  10  11
ATOM     11  C   UNL     1      -1.125  39.471  13.707  1.00  0.00     0.000 C 
BRANCH  11  12
ATOM     12  C   UNL     1      -0.084  38.398  13.356  1.00  0.00     0.006 C 
BRANCH  12  13
ATOM     13  C   UNL     1      -0.726  37.124  12.790  1.00  0.00     0.053 C 
BRANCH  13  14
ATOM     14  C   UNL     1       0.273  36.263  12.077  1.00  0.00     0.041 C 
ATOM     15  O   UNL     1      -0.040  35.098  11.713  1.00  0.00    -0.550 OA
ATOM     16  O   UNL     1       1.544  36.753  11.802  1.00  0.00    -0.550 OA
ENDBRANCH  13  14
ENDBRANCH  12  13
ENDBRANCH  11  12
ENDBRANCH  10  11
ENDBRANCH   9  10
ENDBRANCH   8   9
ENDBRANCH   7   8
ENDBRANCH   6   7
ENDBRANCH   5   6
ENDBRANCH   4   5
ENDBRANCH   3   4
ENDBRANCH   2   3
ENDBRANCH   1   2
BRANCH   1  17
ATOM     17  C   UNL     1       1.119  44.281   8.844  1.00  0.00     0.000 C 
BRANCH  17  18
ATOM     18  C   UNL     1       1.342  45.785   9.088  1.00  0.00     0.000 C 
BRANCH  18  19
ATOM     19  C   UNL     1       1.221  46.616   7.795  1.00  0.00     0.000 C 
BRANCH  19  20
ATOM     20  C   UNL     1      -0.197  47.154   7.519  1.00  0.00     0.000 C 
BRANCH  20  21
ATOM     21  C   UNL     1      -0.582  48.374   8.380  1.00  0.00     0.000 C 
BRANCH  21  22
ATOM     22  C   UNL     1      -0.856  49.626   7.530  1.00  0.00    -0.000 C 
BRANCH  22  23
ATOM     23  C   UNL     1       0.294  50.634   7.649  1.00  0.00    -0.000 C 
BRANCH  23  24
ATOM     24  C   UNL     1       1.497  50.018   8.381  1.00  0.00    -0.000 C 
BRANCH  24  25
ATOM     25  C   UNL     1       2.843  50.489   7.793  1.00  0.00    -0.000 C 
BRANCH  25  26
ATOM     26  C   UNL     1       3.654  49.369   7.120  1.00  0.00    -0.000 C 
BRANCH  26  27
ATOM     27  C   UNL     1       4.880  48.940   7.943  1.00  0.00    -0.000 C 
BRANCH  27  28
ATOM     28  C   UNL     1       4.637  47.647   8.739  1.00  0.00    -0.000 C 
BRANCH  28  29
ATOM     29  C   UNL     1       5.644  47.438   9.891  1.00  0.00    -0.003 C 
ATOM     30  C   UNL     1       7.057  47.881   9.514  1.00  0.00     0.004 C 
ENDBRANCH  28  29
ENDBRANCH  27  28
ENDBRANCH  26  27
ENDBRANCH  25  26
ENDBRANCH  24  25
ENDBRANCH  23  24
ENDBRANCH  22  23
ENDBRANCH  21  22
ENDBRANCH  20  21
ENDBRANCH  19  20
ENDBRANCH  18  19
ENDBRANCH  17  18
ENDBRANCH   1  17
TORSDOF 26
ENDMDL
MODEL 2
REMARK VINA RESULT:    -3.503      3.722     10.240
REMARK INTER + INTRA:         -10.945
REMARK INTER:                  -7.849
REMARK INTRA:                  -3.096
REMARK UNBOUND:                -2.118
REMARK SMILES CCCCCCCCCCCCCCCCCCCCCCCCCCCC(=O)[O-]
REMARK SMILES IDX 15 1 16 2 17 3 18 4 19 5 20 6 21 7 22 8 23 9 24 10 25 11
REMARK SMILES IDX 26 12 27 13 28 14 29 15 30 16 14 17 13 18 12 19 11 20 10 21
REMARK SMILES IDX 9 22 8 23 7 24 6 25 5 26 4 27 3 28 2 29 1 30
REMARK H PARENT
REMARK Flexibility Score: inf
ROOT
ATOM      1  C   UNL     1       2.930  45.881   9.156  1.00  0.00     0.000 C 
ENDROOT
BRANCH   1   2
ATOM      2  C   UNL     1       1.539  45.213   9.173  1.00  0.00     0.000 C 
BRANCH   2   3
ATOM      3  C   UNL     1       0.529  45.821  10.163  1.00  0.00     0.000 C 
BRANCH   3   4
ATOM      4  C   UNL     1      -0.801  46.214   9.499  1.00  0.00     0.000 C 
BRANCH   4   5
ATOM      5  C   UNL     1      -0.793  45.997   7.976  1.00  0.00     0.000 C 
BRANCH   5   6
ATOM      6  C   UNL     1      -0.466  47.267   7.163  1.00  0.00     0.000 C 
BRANCH   6   7
ATOM      7  C   UNL     1      -0.786  48.554   7.944  1.00  0.00     0.000 C 
BRANCH   7   8
ATOM      8  C   UNL     1       0.340  49.600   7.863  1.00  0.00     0.000 C 
BRANCH   8   9
ATOM      9  C   UNL     1       1.650  49.212   8.579  1.00  0.00     0.000 C 
BRANCH   9  10
ATOM     10  C   UNL     1       2.931  49.836   7.994  1.00  0.00     0.000 C 
BRANCH  10  11
ATOM     11  C   UNL     1       3.961  48.787   7.550  1.00  0.00     0.000 C 
BRANCH  11  12
ATOM     12  C   UNL     1       5.367  49.158   8.044  1.00  0.00     0.006 C 
BRANCH  12  13
ATOM     13  C   UNL     1       5.934  48.121   9.022  1.00  0.00     0.053 C 
BRANCH  13  14
ATOM     14  C   UNL     1       7.374  48.383   9.345  1.00  0.00     0.041 C 
ATOM     15  O   UNL     1       7.807  49.566   9.397  1.00  0.00    -0.550 OA
ATOM     16  O   UNL     1       8.234  47.322   9.603  1.00  0.00    -0.550 OA
ENDBRANCH  13  14
ENDBRANCH  12  13
ENDBRANCH  11  12
ENDBRANCH  10  11
ENDBRANCH   9  10
ENDBRANCH   8   9
ENDBRANCH   7   8
ENDBRANCH   6   7
ENDBRANCH   5   6
ENDBRANCH   4   5
ENDBRANCH   3   4
ENDBRANCH   2   3
ENDBRANCH   1   2
BRANCH   1  17
ATOM     17  C   UNL     1       3.371  46.514  10.487  1.00  0.00     0.000 C 
BRANCH  17  18
ATOM     18  C   UNL     1       4.365  45.632  11.264  1.00  0.00     0.000 C 
BRANCH  18  19
ATOM     19  C   UNL     1       3.680  44.811  12.376  1.00  0.00     0.000 C 
BRANCH  19  20
ATOM     20  C   UNL     1       3.655  43.292  12.117  1.00  0.00     0.000 C 
BRANCH  20  21
ATOM     21  C   UNL     1       2.412  42.808  11.344  1.00  0.00     0.000 C 
BRANCH  21  22
ATOM     22  C   UNL     1       1.138  42.844  12.204  1.00  0.00    -0.000 C 
BRANCH  22  23
ATOM     23  C   UNL     1       1.243  41.870  13.383  1.00  0.00    -0.000 C 
BRANCH  23  24
ATOM     24  C   UNL     1      -0.038  41.888  14.232  1.00  0.00    -0.000 C 
BRANCH  24  25
ATOM     25  C   UNL     1      -1.069  40.842  13.757  1.00  0.00    -0.000 C 
BRANCH  25  26
ATOM     26  C   UNL     1      -0.809  39.425  14.295  1.00  0.00    -0.000 C 
BRANCH  26  27
ATOM     27  C   UNL     1      -0.672  38.377  13.177  1.00  0.00    -0.000 C 
BRANCH  27  28
ATOM     28  C   UNL     1       0.731  37.748  13.124  1.00  0.00    -0.000 C 
BRANCH  28  29
ATOM     29  C   UNL     1       0.934  36.806  11.917  1.00  0.00    -0.003 C 
ATOM     30  C   UNL     1       0.008  35.593  11.965  1.00  0.00     0.004 C 
ENDBRANCH  28  29
ENDBRANCH  27  28
ENDBRANCH  26  27
ENDBRANCH  25  26
ENDBRANCH  24  25
ENDBRANCH  23  24
ENDBRANCH  22  23
ENDBRANCH  21  22
ENDBRANCH  20  21
ENDBRANCH  19  20
ENDBRANCH  18  19
ENDBRANCH  17  18
ENDBRANCH   1  17
TORSDOF 26
ENDMDL
MODEL 3
REMARK VINA RESULT:    -3.296      2.337      4.391
REMARK INTER + INTRA:         -10.425
REMARK INTER:                  -7.970
REMARK INTRA:                  -2.455
REMARK UNBOUND:                -2.118
REMARK SMILES CCCCCCCCCCCCCCCCCCCCCCCCCCCC(=O)[O-]
REMARK SMILES IDX 15 1 16 2 17 3 18 4 19 5 20 6 21 7 22 8 23 9 24 10 25 11
REMARK SMILES IDX 26 12 27 13 28 14 29 15 30 16 14 17 13 18 12 19 11 20 10 21
REMARK SMILES IDX 9 22 8 23 7 24 6 25 5 26 4 27 3 28 2 29 1 30
REMARK H PARENT
REMARK Flexibility Score: inf
ROOT
ATOM      1  C   UNL     1      -1.080  46.660   8.037  1.00  0.00     0.000 C 
ENDROOT
BRANCH   1   2
ATOM      2  C   UNL     1      -0.945  45.463   7.072  1.00  0.00     0.000 C 
BRANCH   2   3
ATOM      3  C   UNL     1       0.339  44.629   7.232  1.00  0.00     0.000 C 
BRANCH   3   4
ATOM      4  C   UNL     1       0.755  44.444   8.700  1.00  0.00     0.000 C 
BRANCH   4   5
ATOM      5  C   UNL     1       2.260  44.171   8.863  1.00  0.00     0.000 C 
BRANCH   5   6
ATOM      6  C   UNL     1       2.610  42.685   9.083  1.00  0.00     0.000 C 
BRANCH   6   7
ATOM      7  C   UNL     1       3.636  42.492  10.214  1.00  0.00     0.000 C 
BRANCH   7   8
ATOM      8  C   UNL     1       3.875  43.774  11.032  1.00  0.00     0.000 C 
BRANCH   8   9
ATOM      9  C   UNL     1       3.057  43.885  12.335  1.00  0.00     0.000 C 
BRANCH   9  10
ATOM     10  C   UNL     1       1.962  42.819  12.518  1.00  0.00     0.000 C 
BRANCH  10  11
ATOM     11  C   UNL     1       0.546  43.412  12.559  1.00  0.00     0.000 C 
BRANCH  11  12
ATOM     12  C   UNL     1      -0.391  42.534  13.400  1.00  0.00     0.006 C 
BRANCH  12  13
ATOM     13  C   UNL     1       0.329  41.319  14.000  1.00  0.00     0.053 C 
BRANCH  13  14
ATOM     14  C   UNL     1      -0.043  41.098  15.435  1.00  0.00     0.041 C 
ATOM     15  O   UNL     1      -0.323  39.941  15.847  1.00  0.00    -0.550 OA
ATOM     16  O   UNL     1      -0.065  42.169  16.321  1.00  0.00    -0.550 OA
ENDBRANCH  13  14
ENDBRANCH  12  13
ENDBRANCH  11  12
ENDBRANCH  10  11
ENDBRANCH   9  10
ENDBRANCH   8   9
ENDBRANCH   7   8
ENDBRANCH   6   7
ENDBRANCH   5   6
ENDBRANCH   4   5
ENDBRANCH   3   4
ENDBRANCH   2   3
ENDBRANCH   1   2
BRANCH   1  17
ATOM     17  C   UNL     1      -0.792  48.039   7.418  1.00  0.00     0.000 C 
BRANCH  17  18
ATOM     18  C   UNL     1      -0.888  49.182   8.443  1.00  0.00     0.000 C 
BRANCH  18  19
ATOM     19  C   UNL     1      -0.634  50.565   7.809  1.00  0.00     0.000 C 
BRANCH  19  20
ATOM     20  C   UNL     1       0.734  50.700   7.112  1.00  0.00     0.000 C 
BRANCH  20  21
ATOM     21  C   UNL     1       1.931  50.741   8.084  1.00  0.00     0.000 C 
BRANCH  21  22
ATOM     22  C   UNL     1       3.031  49.739   7.698  1.00  0.00    -0.000 C 
BRANCH  22  23
ATOM     23  C   UNL     1       2.463  48.320   7.569  1.00  0.00    -0.000 C 
BRANCH  23  24
ATOM     24  C   UNL     1       3.300  47.313   8.373  1.00  0.00    -0.000 C 
BRANCH  24  25
ATOM     25  C   UNL     1       2.972  47.352   9.880  1.00  0.00    -0.000 C 
BRANCH  25  26
ATOM     26  C   UNL     1       4.197  47.144  10.788  1.00  0.00    -0.000 C 
BRANCH  26  27
ATOM     27  C   UNL     1       5.435  46.656  10.019  1.00  0.00    -0.000 C 
BRANCH  27  28
ATOM     28  C   UNL     1       6.054  47.751   9.133  1.00  0.00    -0.000 C 
BRANCH  28  29
ATOM     29  C   UNL     1       7.585  47.875   9.290  1.00  0.00    -0.003 C 
ATOM     30  C   UNL     1       7.998  49.201   9.924  1.00  0.00     0.004 C 
ENDBRANCH  28  29
ENDBRANCH  27  28
ENDBRANCH  26  27
ENDBRANCH  25  26
ENDBRANCH  24  25
ENDBRANCH  23  24
ENDBRANCH  22  23
ENDBRANCH  21  22
ENDBRANCH  20  21
ENDBRANCH  19  20
ENDBRANCH  18  19
ENDBRANCH  17  18
ENDBRANCH   1  17
TORSDOF 26
ENDMDL
MODEL 4
REMARK VINA RESULT:    -3.218      3.770      9.714
REMARK INTER + INTRA:         -10.227
REMARK INTER:                  -7.225
REMARK INTRA:                  -3.002
REMARK UNBOUND:                -2.118
REMARK SMILES CCCCCCCCCCCCCCCCCCCCCCCCCCCC(=O)[O-]
REMARK SMILES IDX 15 1 16 2 17 3 18 4 19 5 20 6 21 7 22 8 23 9 24 10 25 11
REMARK SMILES IDX 26 12 27 13 28 14 29 15 30 16 14 17 13 18 12 19 11 20 10 21
REMARK SMILES IDX 9 22 8 23 7 24 6 25 5 26 4 27 3 28 2 29 1 30
REMARK H PARENT
REMARK Flexibility Score: inf
ROOT
ATOM      1  C   UNL     1      -0.784  46.277   9.853  1.00  0.00     0.000 C 
ENDROOT
BRANCH   1   2
ATOM      2  C   UNL     1      -0.672  47.047   8.520  1.00  0.00     0.000 C 
BRANCH   2   3
ATOM      3  C   UNL     1      -0.975  48.554   8.603  1.00  0.00     0.000 C 
BRANCH   3   4
ATOM      4  C   UNL     1      -0.964  49.245   7.229  1.00  0.00     0.000 C 
BRANCH   4   5
ATOM      5  C   UNL     1      -0.262  50.613   7.256  1.00  0.00     0.000 C 
BRANCH   5   6
ATOM      6  C   UNL     1       1.045  50.633   8.075  1.00  0.00     0.000 C 
BRANCH   6   7
ATOM      7  C   UNL     1       2.282  50.860   7.187  1.00  0.00     0.000 C 
BRANCH   7   8
ATOM      8  C   UNL     1       3.328  49.738   7.317  1.00  0.00     0.000 C 
BRANCH   8   9
ATOM      9  C   UNL     1       2.767  48.361   7.727  1.00  0.00     0.000 C 
BRANCH   9  10
ATOM     10  C   UNL     1       2.635  48.128   9.244  1.00  0.00     0.000 C 
BRANCH  10  11
ATOM     11  C   UNL     1       3.395  46.885   9.729  1.00  0.00     0.000 C 
BRANCH  11  12
ATOM     12  C   UNL     1       4.812  46.845   9.138  1.00  0.00     0.006 C 
BRANCH  12  13
ATOM     13  C   UNL     1       5.841  47.536  10.042  1.00  0.00     0.053 C 
BRANCH  13  14
ATOM     14  C   UNL     1       6.953  48.158   9.252  1.00  0.00     0.041 C 
ATOM     15  O   UNL     1       8.092  47.618   9.227  1.00  0.00    -0.550 OA
ATOM     16  O   UNL     1       6.727  49.325   8.531  1.00  0.00    -0.550 OA
ENDBRANCH  13  14
ENDBRANCH  12  13
ENDBRANCH  11  12
ENDBRANCH  10  11
ENDBRANCH   9  10
ENDBRANCH   8   9
ENDBRANCH   7   8
ENDBRANCH   6   7
ENDBRANCH   5   6
ENDBRANCH   4   5
ENDBRANCH   3   4
ENDBRANCH   2   3
ENDBRANCH   1   2
BRANCH   1  17
ATOM     17  C   UNL     1       0.270  45.177  10.066  1.00  0.00     0.000 C 
BRANCH  17  18
ATOM     18  C   UNL     1       1.121  44.919   8.809  1.00  0.00     0.000 C 
BRANCH  18  19
ATOM     19  C   UNL     1       1.425  43.422   8.601  1.00  0.00     0.000 C 
BRANCH  19  20
ATOM     20  C   UNL     1       2.926  43.073   8.611  1.00  0.00     0.000 C 
BRANCH  20  21
ATOM     21  C   UNL     1       3.429  42.507   9.954  1.00  0.00     0.000 C 
BRANCH  21  22
ATOM     22  C   UNL     1       4.110  43.578  10.822  1.00  0.00    -0.000 C 
BRANCH  22  23
ATOM     23  C   UNL     1       3.462  43.657  12.209  1.00  0.00    -0.000 C 
BRANCH  23  24
ATOM     24  C   UNL     1       1.984  43.240  12.155  1.00  0.00    -0.000 C 
BRANCH  24  25
ATOM     25  C   UNL     1       1.447  42.806  13.534  1.00  0.00    -0.000 C 
BRANCH  25  26
ATOM     26  C   UNL     1       0.332  41.748  13.463  1.00  0.00    -0.000 C 
BRANCH  26  27
ATOM     27  C   UNL     1       0.096  41.036  14.805  1.00  0.00    -0.000 C 
BRANCH  27  28
ATOM     28  C   UNL     1      -0.932  39.896  14.699  1.00  0.00    -0.000 C 
BRANCH  28  29
ATOM     29  C   UNL     1      -0.957  39.222  13.310  1.00  0.00    -0.003 C 
ATOM     30  C   UNL     1       0.083  38.110  13.186  1.00  0.00     0.004 C 
ENDBRANCH  28  29
ENDBRANCH  27  28
ENDBRANCH  26  27
ENDBRANCH  25  26
ENDBRANCH  24  25
ENDBRANCH  23  24
ENDBRANCH  22  23
ENDBRANCH  21  22
ENDBRANCH  20  21
ENDBRANCH  19  20
ENDBRANCH  18  19
ENDBRANCH  17  18
ENDBRANCH   1  17
TORSDOF 26
ENDMDL
MODEL 5
REMARK VINA RESULT:    -3.103      1.852      3.616
REMARK INTER + INTRA:          -9.937
REMARK INTER:                  -7.961
REMARK INTRA:                  -1.976
REMARK UNBOUND:                -2.118
REMARK SMILES CCCCCCCCCCCCCCCCCCCCCCCCCCCC(=O)[O-]
REMARK SMILES IDX 15 1 16 2 17 3 18 4 19 5 20 6 21 7 22 8 23 9 24 10 25 11
REMARK SMILES IDX 26 12 27 13 28 14 29 15 30 16 14 17 13 18 12 19 11 20 10 21
REMARK SMILES IDX 9 22 8 23 7 24 6 25 5 26 4 27 3 28 2 29 1 30
REMARK H PARENT
REMARK Flexibility Score: inf
ROOT
ATOM      1  C   UNL     1       1.118  45.666   8.974  1.00  0.00     0.000 C 
ENDROOT
BRANCH   1   2
ATOM      2  C   UNL     1       0.825  44.258   8.413  1.00  0.00     0.000 C 
BRANCH   2   3
ATOM      3  C   UNL     1       1.700  43.126   8.983  1.00  0.00     0.000 C 
BRANCH   3   4
ATOM      4  C   UNL     1       3.189  43.286   8.635  1.00  0.00     0.000 C 
BRANCH   4   5
ATOM      5  C   UNL     1       4.066  43.535   9.873  1.00  0.00     0.000 C 
BRANCH   5   6
ATOM      6  C   UNL     1       4.147  45.016  10.298  1.00  0.00     0.000 C 
BRANCH   6   7
ATOM      7  C   UNL     1       4.916  45.199  11.619  1.00  0.00     0.000 C 
BRANCH   7   8
ATOM      8  C   UNL     1       4.169  44.618  12.833  1.00  0.00     0.000 C 
BRANCH   8   9
ATOM      9  C   UNL     1       3.011  43.657  12.494  1.00  0.00     0.000 C 
BRANCH   9  10
ATOM     10  C   UNL     1       1.664  44.332  12.179  1.00  0.00     0.000 C 
BRANCH  10  11
ATOM     11  C   UNL     1       0.470  43.373  12.290  1.00  0.00     0.000 C 
BRANCH  11  12
ATOM     12  C   UNL     1       0.806  42.185  13.203  1.00  0.00     0.006 C 
BRANCH  12  13
ATOM     13  C   UNL     1      -0.349  41.832  14.151  1.00  0.00     0.053 C 
BRANCH  13  14
ATOM     14  C   UNL     1      -0.205  40.454  14.721  1.00  0.00     0.041 C 
ATOM     15  O   UNL     1      -0.015  39.468  13.959  1.00  0.00    -0.550 OA
ATOM     16  O   UNL     1      -0.265  40.260  16.096  1.00  0.00    -0.550 OA
ENDBRANCH  13  14
ENDBRANCH  12  13
ENDBRANCH  11  12
ENDBRANCH  10  11
ENDBRANCH   9  10
ENDBRANCH   8   9
ENDBRANCH   7   8
ENDBRANCH   6   7
ENDBRANCH   5   6
ENDBRANCH   4   5
ENDBRANCH   3   4
ENDBRANCH   2   3
ENDBRANCH   1   2
BRANCH   1  17
ATOM     17  C   UNL     1       1.164  46.793   7.928  1.00  0.00     0.000 C 
BRANCH  17  18
ATOM     18  C   UNL     1      -0.195  47.023   7.242  1.00  0.00     0.000 C 
BRANCH  18  19
ATOM     19  C   UNL     1      -1.124  47.935   8.069  1.00  0.00     0.000 C 
BRANCH  19  20
ATOM     20  C   UNL     1      -0.497  49.286   8.464  1.00  0.00     0.000 C 
BRANCH  20  21
ATOM     21  C   UNL     1      -0.264  50.241   7.276  1.00  0.00     0.000 C 
BRANCH  21  22
ATOM     22  C   UNL     1       1.100  50.946   7.351  1.00  0.00    -0.000 C 
BRANCH  22  23
ATOM     23  C   UNL     1       2.051  50.206   8.299  1.00  0.00    -0.000 C 
BRANCH  23  24
ATOM     24  C   UNL     1       3.499  50.263   7.786  1.00  0.00    -0.000 C 
BRANCH  24  25
ATOM     25  C   UNL     1       3.992  48.894   7.274  1.00  0.00    -0.000 C 
BRANCH  25  26
ATOM     26  C   UNL     1       4.164  47.841   8.382  1.00  0.00    -0.000 C 
BRANCH  26  27
ATOM     27  C   UNL     1       5.289  48.190   9.370  1.00  0.00    -0.000 C 
BRANCH  27  28
ATOM     28  C   UNL     1       6.668  47.700   8.895  1.00  0.00    -0.000 C 
BRANCH  28  29
ATOM     29  C   UNL     1       7.845  48.462   9.543  1.00  0.00    -0.003 C 
ATOM     30  C   UNL     1       7.778  49.965   9.279  1.00  0.00     0.004 C 
ENDBRANCH  28  29
ENDBRANCH  27  28
ENDBRANCH  26  27
ENDBRANCH  25  26
ENDBRANCH  24  25
ENDBRANCH  23  24
ENDBRANCH  22  23
ENDBRANCH  21  22
ENDBRANCH  20  21
ENDBRANCH  19  20
ENDBRANCH  18  19
ENDBRANCH  17  18
ENDBRANCH   1  17
TORSDOF 26
ENDMDL
MODEL 6
REMARK VINA RESULT:    -3.079      3.023      8.848
REMARK INTER + INTRA:          -9.878
REMARK INTER:                  -7.273
REMARK INTRA:                  -2.604
REMARK UNBOUND:                -2.118
REMARK SMILES CCCCCCCCCCCCCCCCCCCCCCCCCCCC(=O)[O-]
REMARK SMILES IDX 15 1 16 2 17 3 18 4 19 5 20 6 21 7 22 8 23 9 24 10 25 11
REMARK SMILES IDX 26 12 27 13 28 14 29 15 30 16 14 17 13 18 12 19 11 20 10 21
REMARK SMILES IDX 9 22 8 23 7 24 6 25 5 26 4 27 3 28 2 29 1 30
REMARK H PARENT
REMARK Flexibility Score: inf
ROOT
ATOM      1  C   UNL     1       3.462  47.079   9.900  1.00  0.00     0.000 C 
ENDROOT
BRANCH   1   2
ATOM      2  C   UNL     1       4.912  46.684   9.545  1.00  0.00     0.000 C 
BRANCH   2   3
ATOM      3  C   UNL     1       5.864  47.859   9.258  1.00  0.00     0.000 C 
BRANCH   3   4
ATOM      4  C   UNL     1       5.346  48.795   8.154  1.00  0.00     0.000 C 
BRANCH   4   5
ATOM      5  C   UNL     1       4.093  48.250   7.450  1.00  0.00     0.000 C 
BRANCH   5   6
ATOM      6  C   UNL     1       3.131  49.344   6.942  1.00  0.00     0.000 C 
BRANCH   6   7
ATOM      7  C   UNL     1       2.968  50.490   7.957  1.00  0.00     0.000 C 
BRANCH   7   8
ATOM      8  C   UNL     1       1.614  50.455   8.688  1.00  0.00     0.000 C 
BRANCH   8   9
ATOM      9  C   UNL     1       0.385  50.775   7.812  1.00  0.00     0.000 C 
BRANCH   9  10
ATOM     10  C   UNL     1      -0.475  49.562   7.415  1.00  0.00     0.000 C 
BRANCH  10  11
ATOM     11  C   UNL     1      -0.299  48.365   8.361  1.00  0.00     0.000 C 
BRANCH  11  12
ATOM     12  C   UNL     1      -1.125  47.163   7.882  1.00  0.00     0.006 C 
BRANCH  12  13
ATOM     13  C   UNL     1      -0.954  46.898   6.380  1.00  0.00     0.053 C 
BRANCH  13  14
ATOM     14  C   UNL     1      -1.024  45.436   6.056  1.00  0.00     0.041 C 
ATOM     15  O   UNL     1      -1.119  45.056   4.858  1.00  0.00    -0.550 OA
ATOM     16  O   UNL     1      -0.970  44.494   7.077  1.00  0.00    -0.550 OA
ENDBRANCH  13  14
ENDBRANCH  12  13
ENDBRANCH  11  12
ENDBRANCH  10  11
ENDBRANCH   9  10
ENDBRANCH   8   9
ENDBRANCH   7   8
ENDBRANCH   6   7
ENDBRANCH   5   6
ENDBRANCH   4   5
ENDBRANCH   3   4
ENDBRANCH   2   3
ENDBRANCH   1   2
BRANCH   1  17
ATOM     17  C   UNL     1       2.776  46.185  10.946  1.00  0.00     0.000 C 
BRANCH  17  18
ATOM     18  C   UNL     1       1.391  45.691  10.489  1.00  0.00     0.000 C 
BRANCH  18  19
ATOM     19  C   UNL     1       1.404  45.164   9.040  1.00  0.00     0.000 C 
BRANCH  19  20
ATOM     20  C   UNL     1       1.806  43.681   8.909  1.00  0.00     0.000 C 
BRANCH  20  21
ATOM     21  C   UNL     1       3.281  43.399   9.259  1.00  0.00     0.000 C 
BRANCH  21  22
ATOM     22  C   UNL     1       3.425  42.467  10.473  1.00  0.00    -0.000 C 
BRANCH  22  23
ATOM     23  C   UNL     1       4.100  43.190  11.645  1.00  0.00    -0.000 C 
BRANCH  23  24
ATOM     24  C   UNL     1       3.111  43.416  12.799  1.00  0.00    -0.000 C 
BRANCH  24  25
ATOM     25  C   UNL     1       1.923  42.434  12.753  1.00  0.00    -0.000 C 
BRANCH  25  26
ATOM     26  C   UNL     1       0.547  43.120  12.792  1.00  0.00    -0.000 C 
BRANCH  26  27
ATOM     27  C   UNL     1      -0.522  42.278  13.508  1.00  0.00    -0.000 C 
BRANCH  27  28
ATOM     28  C   UNL     1       0.042  40.966  14.080  1.00  0.00    -0.000 C 
BRANCH  28  29
ATOM     29  C   UNL     1       0.121  40.954  15.622  1.00  0.00    -0.003 C 
ATOM     30  C   UNL     1      -0.791  42.001  16.258  1.00  0.00     0.004 C 
ENDBRANCH  28  29
ENDBRANCH  27  28
ENDBRANCH  26  27
ENDBRANCH  25  26
ENDBRANCH  24  25
ENDBRANCH  23  24
ENDBRANCH  22  23
ENDBRANCH  21  22
ENDBRANCH  20  21
ENDBRANCH  19  20
ENDBRANCH  18  19
ENDBRANCH  17  18
ENDBRANCH   1  17
TORSDOF 26
ENDMDL
MODEL 7
REMARK VINA RESULT:    -2.919      3.216     10.077
REMARK INTER + INTRA:          -9.474
REMARK INTER:                  -7.156
REMARK INTRA:                  -2.318
REMARK UNBOUND:                -2.118
REMARK SMILES CCCCCCCCCCCCCCCCCCCCCCCCCCCC(=O)[O-]
REMARK SMILES IDX 15 1 16 2 17 3 18 4 19 5 20 6 21 7 22 8 23 9 24 10 25 11
REMARK SMILES IDX 26 12 27 13 28 14 29 15 30 16 14 17 13 18 12 19 11 20 10 21
REMARK SMILES IDX 9 22 8 23 7 24 6 25 5 26 4 27 3 28 2 29 1 30
REMARK H PARENT
REMARK Flexibility Score: inf
ROOT
ATOM      1  C   UNL     1       3.688  42.743   9.475  1.00  0.00     0.000 C 
ENDROOT
BRANCH   1   2
ATOM      2  C   UNL     1       2.884  43.908   8.860  1.00  0.00     0.000 C 
BRANCH   2   3
ATOM      3  C   UNL     1       1.363  43.684   8.772  1.00  0.00     0.000 C 
BRANCH   3   4
ATOM      4  C   UNL     1       0.657  44.712   7.873  1.00  0.00     0.000 C 
BRANCH   4   5
ATOM      5  C   UNL     1      -0.062  45.810   8.674  1.00  0.00     0.000 C 
BRANCH   5   6
ATOM      6  C   UNL     1      -0.983  46.708   7.823  1.00  0.00     0.000 C 
BRANCH   6   7
ATOM      7  C   UNL     1      -0.897  48.188   8.240  1.00  0.00     0.000 C 
BRANCH   7   8
ATOM      8  C   UNL     1       0.315  48.913   7.629  1.00  0.00     0.000 C 
BRANCH   8   9
ATOM      9  C   UNL     1       0.478  50.389   8.048  1.00  0.00     0.000 C 
BRANCH   9  10
ATOM     10  C   UNL     1       1.928  50.852   8.280  1.00  0.00     0.000 C 
BRANCH  10  11
ATOM     11  C   UNL     1       2.864  50.507   7.112  1.00  0.00     0.000 C 
BRANCH  11  12
ATOM     12  C   UNL     1       4.025  49.621   7.584  1.00  0.00     0.006 C 
BRANCH  12  13
ATOM     13  C   UNL     1       3.666  48.129   7.564  1.00  0.00     0.053 C 
BRANCH  13  14
ATOM     14  C   UNL     1       3.921  47.473   8.888  1.00  0.00     0.041 C 
ATOM     15  O   UNL     1       5.093  47.149   9.219  1.00  0.00    -0.550 OA
ATOM     16  O   UNL     1       2.867  47.233   9.761  1.00  0.00    -0.550 OA
ENDBRANCH  13  14
ENDBRANCH  12  13
ENDBRANCH  11  12
ENDBRANCH  10  11
ENDBRANCH   9  10
ENDBRANCH   8   9
ENDBRANCH   7   8
ENDBRANCH   6   7
ENDBRANCH   5   6
ENDBRANCH   4   5
ENDBRANCH   3   4
ENDBRANCH   2   3
ENDBRANCH   1   2
BRANCH   1  17
ATOM     17  C   UNL     1       4.402  43.066  10.799  1.00  0.00     0.000 C 
BRANCH  17  18
ATOM     18  C   UNL     1       4.208  44.529  11.237  1.00  0.00     0.000 C 
BRANCH  18  19
ATOM     19  C   UNL     1       3.084  44.686  12.281  1.00  0.00     0.000 C 
BRANCH  19  20
ATOM     20  C   UNL     1       2.607  43.359  12.903  1.00  0.00     0.000 C 
BRANCH  20  21
ATOM     21  C   UNL     1       1.331  42.785  12.256  1.00  0.00     0.000 C 
BRANCH  21  22
ATOM     22  C   UNL     1       0.150  42.732  13.239  1.00  0.00    -0.000 C 
BRANCH  22  23
ATOM     23  C   UNL     1       0.507  41.911  14.483  1.00  0.00    -0.000 C 
BRANCH  23  24
ATOM     24  C   UNL     1      -0.696  41.087  14.968  1.00  0.00    -0.000 C 
BRANCH  24  25
ATOM     25  C   UNL     1      -0.947  39.845  14.088  1.00  0.00    -0.000 C 
BRANCH  25  26
ATOM     26  C   UNL     1       0.339  39.171  13.582  1.00  0.00    -0.000 C 
BRANCH  26  27
ATOM     27  C   UNL     1       0.100  37.751  13.045  1.00  0.00    -0.000 C 
BRANCH  27  28
ATOM     28  C   UNL     1       1.291  37.215  12.232  1.00  0.00    -0.000 C 
BRANCH  28  29
ATOM     29  C   UNL     1       1.078  35.778  11.708  1.00  0.00    -0.003 C 
ATOM     30  C   UNL     1      -0.378  35.330  11.818  1.00  0.00     0.004 C 
ENDBRANCH  28  29
ENDBRANCH  27  28
ENDBRANCH  26  27
ENDBRANCH  25  26
ENDBRANCH  24  25
ENDBRANCH  23  24
ENDBRANCH  22  23
ENDBRANCH  21  22
ENDBRANCH  20  21
ENDBRANCH  19  20
ENDBRANCH  18  19
ENDBRANCH  17  18
ENDBRANCH   1  17
TORSDOF 26
ENDMDL
MODEL 8
REMARK VINA RESULT:    -2.902      2.006      9.219
REMARK INTER + INTRA:          -9.430
REMARK INTER:                  -7.396
REMARK INTRA:                  -2.034
REMARK UNBOUND:                -2.118
REMARK SMILES CCCCCCCCCCCCCCCCCCCCCCCCCCCC(=O)[O-]
REMARK SMILES IDX 15 1 16 2 17 3 18 4 19 5 20 6 21 7 22 8 23 9 24 10 25 11
REMARK SMILES IDX 26 12 27 13 28 14 29 15 30 16 14 17 13 18 12 19 11 20 10 21
REMARK SMILES IDX 9 22 8 23 7 24 6 25 5 26 4 27 3 28 2 29 1 30
REMARK H PARENT
REMARK Flexibility Score: inf
ROOT
ATOM      1  C   UNL     1       5.222  47.008   9.351  1.00  0.00     0.000 C 
ENDROOT
BRANCH   1   2
ATOM      2  C   UNL     1       3.827  47.520   8.934  1.00  0.00     0.000 C 
BRANCH   2   3
ATOM      3  C   UNL     1       3.765  48.219   7.564  1.00  0.00     0.000 C 
BRANCH   3   4
ATOM      4  C   UNL     1       3.309  49.685   7.658  1.00  0.00     0.000 C 
BRANCH   4   5
ATOM      5  C   UNL     1       1.849  49.884   7.218  1.00  0.00     0.000 C 
BRANCH   5   6
ATOM      6  C   UNL     1       0.867  50.111   8.386  1.00  0.00     0.000 C 
BRANCH   6   7
ATOM      7  C   UNL     1      -0.598  49.908   7.959  1.00  0.00     0.000 C 
BRANCH   7   8
ATOM      8  C   UNL     1      -1.068  48.450   8.103  1.00  0.00     0.000 C 
BRANCH   8   9
ATOM      9  C   UNL     1      -0.568  47.487   7.007  1.00  0.00     0.000 C 
BRANCH   9  10
ATOM     10  C   UNL     1       0.523  46.495   7.449  1.00  0.00     0.000 C 
BRANCH  10  11
ATOM     11  C   UNL     1       0.018  45.458   8.464  1.00  0.00     0.000 C 
BRANCH  11  12
ATOM     12  C   UNL     1       1.192  44.791   9.194  1.00  0.00     0.006 C 
BRANCH  12  13
ATOM     13  C   UNL     1       1.848  43.685   8.356  1.00  0.00     0.053 C 
BRANCH  13  14
ATOM     14  C   UNL     1       2.940  42.984   9.109  1.00  0.00     0.041 C 
ATOM     15  O   UNL     1       2.655  42.137   9.997  1.00  0.00    -0.550 OA
ATOM     16  O   UNL     1       4.271  43.257   8.817  1.00  0.00    -0.550 OA
ENDBRANCH  13  14
ENDBRANCH  12  13
ENDBRANCH  11  12
ENDBRANCH  10  11
ENDBRANCH   9  10
ENDBRANCH   8   9
ENDBRANCH   7   8
ENDBRANCH   6   7
ENDBRANCH   5   6
ENDBRANCH   4   5
ENDBRANCH   3   4
ENDBRANCH   2   3
ENDBRANCH   1   2
BRANCH   1  17
ATOM     17  C   UNL     1       5.239  46.072  10.572  1.00  0.00     0.000 C 
BRANCH  17  18
ATOM     18  C   UNL     1       3.943  46.151  11.400  1.00  0.00     0.000 C 
BRANCH  18  19
ATOM     19  C   UNL     1       3.746  44.919  12.305  1.00  0.00     0.000 C 
BRANCH  19  20
ATOM     20  C   UNL     1       2.352  44.269  12.196  1.00  0.00     0.000 C 
BRANCH  20  21
ATOM     21  C   UNL     1       2.031  43.281  13.335  1.00  0.00     0.000 C 
BRANCH  21  22
ATOM     22  C   UNL     1       0.997  42.223  12.916  1.00  0.00    -0.000 C 
BRANCH  22  23
ATOM     23  C   UNL     1      -0.152  42.144  13.929  1.00  0.00    -0.000 C 
BRANCH  23  24
ATOM     24  C   UNL     1       0.030  40.952  14.881  1.00  0.00    -0.000 C 
BRANCH  24  25
ATOM     25  C   UNL     1      -0.812  39.731  14.457  1.00  0.00    -0.000 C 
BRANCH  25  26
ATOM     26  C   UNL     1      -0.091  38.789  13.477  1.00  0.00    -0.000 C 
BRANCH  26  27
ATOM     27  C   UNL     1      -1.062  37.951  12.629  1.00  0.00    -0.000 C 
BRANCH  27  28
ATOM     28  C   UNL     1      -1.125  36.481  13.080  1.00  0.00    -0.000 C 
BRANCH  28  29
ATOM     29  C   UNL     1      -0.343  35.523  12.155  1.00  0.00    -0.003 C 
ATOM     30  C   UNL     1       0.971  36.130  11.668  1.00  0.00     0.004 C 
ENDBRANCH  28  29
ENDBRANCH  27  28
ENDBRANCH  26  27
ENDBRANCH  25  26
ENDBRANCH  24  25
ENDBRANCH  23  24
ENDBRANCH  22  23
ENDBRANCH  21  22
ENDBRANCH  20  21
ENDBRANCH  19  20
ENDBRANCH  18  19
ENDBRANCH  17  18
ENDBRANCH   1  17
TORSDOF 26
ENDMDL
