MODEL 1
REMARK VINA RESULT:    -3.755      0.000      0.000
REMARK INTER + INTRA:          -9.341
REMARK INTER:                  -7.268
REMARK INTRA:                  -2.073
REMARK UNBOUND:                -2.073
REMARK SMILES CCCCCCCCCCCCCCCCCC(=O)[O-]
REMARK SMILES IDX 10 1 11 2 12 3 13 4 14 5 15 6 16 7 17 8 18 9 19 10 20 11
REMARK SMILES IDX 9 12 8 13 7 14 6 15 5 16 4 17 3 18 2 19 1 20
REMARK H PARENT
REMARK Flexibility Score: inf
ROOT
ATOM      1  C   UNL     1     -18.225  19.911  45.175  1.00  0.00     0.000 C 
ENDROOT
BRANCH   1   2
ATOM      2  C   UNL     1     -17.619  20.804  44.085  1.00  0.00     0.000 C 
BRANCH   2   3
ATOM      3  C   UNL     1     -16.123  21.036  44.331  1.00  0.00     0.000 C 
BRANCH   3   4
ATOM      4  C   UNL     1     -15.903  22.088  45.429  1.00  0.00     0.000 C 
BRANCH   4   5
ATOM      5  C   UNL     1     -15.524  23.468  44.867  1.00  0.00     0.000 C 
BRANCH   5   6
ATOM      6  C   UNL     1     -16.751  24.287  44.430  1.00  0.00     0.000 C 
BRANCH   6   7
ATOM      7  C   UNL     1     -16.869  24.403  42.902  1.00  0.00     0.006 C 
BRANCH   7   8
ATOM      8  C   UNL     1     -18.245  23.970  42.379  1.00  0.00     0.053 C 
BRANCH   8   9
ATOM      9  C   UNL     1     -19.225  25.096  42.497  1.00  0.00     0.041 C 
ATOM     10  O   UNL     1     -19.150  26.084  41.719  1.00  0.00    -0.550 OA
ATOM     11  O   UNL     1     -20.182  25.082  43.502  1.00  0.00    -0.550 OA
ENDBRANCH   8   9
ENDBRANCH   7   8
ENDBRANCH   6   7
ENDBRANCH   5   6
ENDBRANCH   4   5
ENDBRANCH   3   4
ENDBRANCH   2   3
ENDBRANCH   1   2
BRANCH   1  12
ATOM     12  C   UNL     1     -19.438  20.586  45.826  1.00  0.00     0.000 C 
BRANCH  12  13
ATOM     13  C   UNL     1     -19.601  22.026  45.329  1.00  0.00    -0.000 C 
BRANCH  13  14
ATOM     14  C   UNL     1     -20.760  22.729  46.046  1.00  0.00    -0.000 C 
BRANCH  14  15
ATOM     15  C   UNL     1     -21.675  21.714  46.743  1.00  0.00    -0.000 C 
BRANCH  15  16
ATOM     16  C   UNL     1     -23.001  22.368  47.161  1.00  0.00    -0.000 C 
BRANCH  16  17
ATOM     17  C   UNL     1     -24.224  21.681  46.533  1.00  0.00    -0.000 C 
BRANCH  17  18
ATOM     18  C   UNL     1     -24.759  22.432  45.302  1.00  0.00    -0.000 C 
BRANCH  18  19
ATOM     19  C   UNL     1     -24.477  23.942  45.364  1.00  0.00    -0.003 C 
ATOM     20  C   UNL     1     -23.601  24.427  44.209  1.00  0.00     0.004 C 
ENDBRANCH  18  19
ENDBRANCH  17  18
ENDBRANCH  16  17
ENDBRANCH  15  16
ENDBRANCH  14  15
ENDBRANCH  13  14
ENDBRANCH  12  13
ENDBRANCH   1  12
TORSDOF 16
ENDMDL
MODEL 2
REMARK VINA RESULT:    -3.696      3.096      5.722
REMARK INTER + INTRA:          -9.225
REMARK INTER:                  -6.218
REMARK INTRA:                  -3.008
REMARK UNBOUND:                -2.073
REMARK SMILES CCCCCCCCCCCCCCCCCC(=O)[O-]
REMARK SMILES IDX 10 1 11 2 12 3 13 4 14 5 15 6 16 7 17 8 18 9 19 10 20 11
REMARK SMILES IDX 9 12 8 13 7 14 6 15 5 16 4 17 3 18 2 19 1 20
REMARK H PARENT
REMARK Flexibility Score: inf
ROOT
ATOM      1  C   UNL     1     -20.390  23.844  46.181  1.00  0.00     0.000 C 
ENDROOT
BRANCH   1   2
ATOM      2  C   UNL     1     -19.827  22.853  45.155  1.00  0.00     0.000 C 
BRANCH   2   3
ATOM      3  C   UNL     1     -18.742  21.968  45.782  1.00  0.00     0.000 C 
BRANCH   3   4
ATOM      4  C   UNL     1     -18.383  20.798  44.853  1.00  0.00     0.000 C 
BRANCH   4   5
ATOM      5  C   UNL     1     -17.062  21.018  44.097  1.00  0.00     0.000 C 
BRANCH   5   6
ATOM      6  C   UNL     1     -15.827  20.801  44.989  1.00  0.00     0.000 C 
BRANCH   6   7
ATOM      7  C   UNL     1     -14.513  21.140  44.267  1.00  0.00     0.006 C 
BRANCH   7   8
ATOM      8  C   UNL     1     -14.719  22.080  43.072  1.00  0.00     0.053 C 
BRANCH   8   9
ATOM      9  C   UNL     1     -13.451  22.812  42.760  1.00  0.00     0.041 C 
ATOM     10  O   UNL     1     -13.291  23.347  41.631  1.00  0.00    -0.550 OA
ATOM     11  O   UNL     1     -12.423  22.853  43.692  1.00  0.00    -0.550 OA
ENDBRANCH   8   9
ENDBRANCH   7   8
ENDBRANCH   6   7
ENDBRANCH   5   6
ENDBRANCH   4   5
ENDBRANCH   3   4
ENDBRANCH   2   3
ENDBRANCH   1   2
BRANCH   1  12
ATOM     12  C   UNL     1     -20.513  25.249  45.578  1.00  0.00     0.000 C 
BRANCH  12  13
ATOM     13  C   UNL     1     -20.778  25.180  44.070  1.00  0.00    -0.000 C 
BRANCH  13  14
ATOM     14  C   UNL     1     -20.343  26.476  43.375  1.00  0.00    -0.000 C 
BRANCH  14  15
ATOM     15  C   UNL     1     -19.188  26.219  42.399  1.00  0.00    -0.000 C 
BRANCH  15  16
ATOM     16  C   UNL     1     -19.037  24.718  42.110  1.00  0.00    -0.000 C 
BRANCH  16  17
ATOM     17  C   UNL     1     -17.625  24.196  42.417  1.00  0.00    -0.000 C 
BRANCH  17  18
ATOM     18  C   UNL     1     -16.785  25.196  43.229  1.00  0.00    -0.000 C 
BRANCH  18  19
ATOM     19  C   UNL     1     -16.605  24.762  44.693  1.00  0.00    -0.003 C 
ATOM     20  C   UNL     1     -16.965  25.869  45.685  1.00  0.00     0.004 C 
ENDBRANCH  18  19
ENDBRANCH  17  18
ENDBRANCH  16  17
ENDBRANCH  15  16
ENDBRANCH  14  15
ENDBRANCH  13  14
ENDBRANCH  12  13
ENDBRANCH   1  12
TORSDOF 16
ENDMDL
MODEL 3
REMARK VINA RESULT:    -3.658      2.939      4.359
REMARK INTER + INTRA:          -9.153
REMARK INTER:                  -6.597
REMARK INTRA:                  -2.556
REMARK UNBOUND:                -2.073
REMARK SMILES CCCCCCCCCCCCCCCCCC(=O)[O-]
REMARK SMILES IDX 10 1 11 2 12 3 13 4 14 5 15 6 16 7 17 8 18 9 19 10 20 11
REMARK SMILES IDX 9 12 8 13 7 14 6 15 5 16 4 17 3 18 2 19 1 20
REMARK H PARENT
REMARK Flexibility Score: inf
ROOT
ATOM      1  C   UNL     1     -18.262  19.962  45.161  1.00  0.00     0.000 C 
ENDROOT
BRANCH   1   2
ATOM      2  C   UNL     1     -17.741  20.831  44.009  1.00  0.00     0.000 C 
BRANCH   2   3
ATOM      3  C   UNL     1     -16.228  21.050  44.125  1.00  0.00     0.000 C 
BRANCH   3   4
ATOM      4  C   UNL     1     -15.838  22.455  43.642  1.00  0.00     0.000 C 
BRANCH   4   5
ATOM      5  C   UNL     1     -15.652  23.454  44.797  1.00  0.00     0.000 C 
BRANCH   5   6
ATOM      6  C   UNL     1     -15.481  24.902  44.305  1.00  0.00     0.000 C 
BRANCH   6   7
ATOM      7  C   UNL     1     -15.455  25.004  42.771  1.00  0.00     0.006 C 
BRANCH   7   8
ATOM      8  C   UNL     1     -14.111  25.514  42.234  1.00  0.00     0.053 C 
BRANCH   8   9
ATOM      9  C   UNL     1     -13.328  24.389  41.634  1.00  0.00     0.041 C 
ATOM     10  O   UNL     1     -13.271  24.255  40.383  1.00  0.00    -0.550 OA
ATOM     11  O   UNL     1     -12.710  23.455  42.455  1.00  0.00    -0.550 OA
ENDBRANCH   8   9
ENDBRANCH   7   8
ENDBRANCH   6   7
ENDBRANCH   5   6
ENDBRANCH   4   5
ENDBRANCH   3   4
ENDBRANCH   2   3
ENDBRANCH   1   2
BRANCH   1  12
ATOM     12  C   UNL     1     -19.474  20.614  45.837  1.00  0.00     0.000 C 
BRANCH  12  13
ATOM     13  C   UNL     1     -19.322  22.139  45.888  1.00  0.00    -0.000 C 
BRANCH  13  14
ATOM     14  C   UNL     1     -20.688  22.831  45.796  1.00  0.00    -0.000 C 
BRANCH  14  15
ATOM     15  C   UNL     1     -20.634  24.039  44.852  1.00  0.00    -0.000 C 
BRANCH  15  16
ATOM     16  C   UNL     1     -19.210  24.255  44.318  1.00  0.00    -0.000 C 
BRANCH  16  17
ATOM     17  C   UNL     1     -19.110  24.050  42.799  1.00  0.00    -0.000 C 
BRANCH  17  18
ATOM     18  C   UNL     1     -18.959  25.374  42.030  1.00  0.00    -0.000 C 
BRANCH  18  19
ATOM     19  C   UNL     1     -19.264  26.601  42.904  1.00  0.00    -0.003 C 
ATOM     20  C   UNL     1     -18.130  27.627  42.899  1.00  0.00     0.004 C 
ENDBRANCH  18  19
ENDBRANCH  17  18
ENDBRANCH  16  17
ENDBRANCH  15  16
ENDBRANCH  14  15
ENDBRANCH  13  14
ENDBRANCH  12  13
ENDBRANCH   1  12
TORSDOF 16
ENDMDL
MODEL 4
REMARK VINA RESULT:    -3.648      2.377      6.527
REMARK INTER + INTRA:          -9.134
REMARK INTER:                  -6.995
REMARK INTRA:                  -2.139
REMARK UNBOUND:                -2.073
REMARK SMILES CCCCCCCCCCCCCCCCCC(=O)[O-]
REMARK SMILES IDX 10 1 11 2 12 3 13 4 14 5 15 6 16 7 17 8 18 9 19 10 20 11
REMARK SMILES IDX 9 12 8 13 7 14 6 15 5 16 4 17 3 18 2 19 1 20
REMARK H PARENT
REMARK Flexibility Score: inf
ROOT
ATOM      1  C   UNL     1     -18.323  21.213  45.785  1.00  0.00     0.000 C 
ENDROOT
BRANCH   1   2
ATOM      2  C   UNL     1     -19.849  21.121  45.918  1.00  0.00     0.000 C 
BRANCH   2   3
ATOM      3  C   UNL     1     -20.494  22.510  45.833  1.00  0.00     0.000 C 
BRANCH   3   4
ATOM      4  C   UNL     1     -19.424  23.605  45.708  1.00  0.00     0.000 C 
BRANCH   4   5
ATOM      5  C   UNL     1     -20.024  25.005  45.500  1.00  0.00     0.000 C 
BRANCH   5   6
ATOM      6  C   UNL     1     -20.396  25.278  44.032  1.00  0.00     0.000 C 
BRANCH   6   7
ATOM      7  C   UNL     1     -21.896  25.559  43.847  1.00  0.00     0.006 C 
BRANCH   7   8
ATOM      8  C   UNL     1     -22.662  25.582  45.176  1.00  0.00     0.053 C 
BRANCH   8   9
ATOM      9  C   UNL     1     -23.933  24.800  45.060  1.00  0.00     0.041 C 
ATOM     10  O   UNL     1     -24.952  25.148  45.713  1.00  0.00    -0.550 OA
ATOM     11  O   UNL     1     -23.975  23.654  44.277  1.00  0.00    -0.550 OA
ENDBRANCH   8   9
ENDBRANCH   7   8
ENDBRANCH   6   7
ENDBRANCH   5   6
ENDBRANCH   4   5
ENDBRANCH   3   4
ENDBRANCH   2   3
ENDBRANCH   1   2
BRANCH   1  12
ATOM     12  C   UNL     1     -17.833  20.457  44.544  1.00  0.00     0.000 C 
BRANCH  12  13
ATOM     13  C   UNL     1     -17.040  21.382  43.614  1.00  0.00    -0.000 C 
BRANCH  13  14
ATOM     14  C   UNL     1     -17.980  22.231  42.750  1.00  0.00    -0.000 C 
BRANCH  14  15
ATOM     15  C   UNL     1     -17.361  23.600  42.440  1.00  0.00    -0.000 C 
BRANCH  15  16
ATOM     16  C   UNL     1     -16.351  24.003  43.524  1.00  0.00    -0.000 C 
BRANCH  16  17
ATOM     17  C   UNL     1     -15.322  25.029  43.023  1.00  0.00    -0.000 C 
BRANCH  17  18
ATOM     18  C   UNL     1     -13.875  24.518  43.126  1.00  0.00    -0.000 C 
BRANCH  18  19
ATOM     19  C   UNL     1     -13.509  23.553  41.986  1.00  0.00    -0.003 C 
ATOM     20  C   UNL     1     -13.450  24.244  40.624  1.00  0.00     0.004 C 
ENDBRANCH  18  19
ENDBRANCH  17  18
ENDBRANCH  16  17
ENDBRANCH  15  16
ENDBRANCH  14  15
ENDBRANCH  13  14
ENDBRANCH  12  13
ENDBRANCH   1  12
TORSDOF 16
ENDMDL
MODEL 5
REMARK VINA RESULT:    -3.642      1.784      2.905
REMARK INTER + INTRA:          -9.122
REMARK INTER:                  -7.140
REMARK INTRA:                  -1.982
REMARK UNBOUND:                -2.073
REMARK SMILES CCCCCCCCCCCCCCCCCC(=O)[O-]
REMARK SMILES IDX 10 1 11 2 12 3 13 4 14 5 15 6 16 7 17 8 18 9 19 10 20 11
REMARK SMILES IDX 9 12 8 13 7 14 6 15 5 16 4 17 3 18 2 19 1 20
REMARK H PARENT
REMARK Flexibility Score: inf
ROOT
ATOM      1  C   UNL     1     -18.650  21.476  45.413  1.00  0.00     0.000 C 
ENDROOT
BRANCH   1   2
ATOM      2  C   UNL     1     -17.825  20.795  44.313  1.00  0.00     0.000 C 
BRANCH   2   3
ATOM      3  C   UNL     1     -17.577  21.751  43.139  1.00  0.00     0.000 C 
BRANCH   3   4
ATOM      4  C   UNL     1     -18.140  23.148  43.441  1.00  0.00     0.000 C 
BRANCH   4   5
ATOM      5  C   UNL     1     -18.170  24.060  42.203  1.00  0.00     0.000 C 
BRANCH   5   6
ATOM      6  C   UNL     1     -19.050  25.306  42.407  1.00  0.00     0.000 C 
BRANCH   6   7
ATOM      7  C   UNL     1     -20.025  25.151  43.586  1.00  0.00     0.006 C 
BRANCH   7   8
ATOM      8  C   UNL     1     -21.147  26.198  43.568  1.00  0.00     0.053 C 
BRANCH   8   9
ATOM      9  C   UNL     1     -21.362  26.755  44.940  1.00  0.00     0.041 C 
ATOM     10  O   UNL     1     -22.210  27.667  45.127  1.00  0.00    -0.550 OA
ATOM     11  O   UNL     1     -20.585  26.310  46.002  1.00  0.00    -0.550 OA
ENDBRANCH   8   9
ENDBRANCH   7   8
ENDBRANCH   6   7
ENDBRANCH   5   6
ENDBRANCH   4   5
ENDBRANCH   3   4
ENDBRANCH   2   3
ENDBRANCH   1   2
BRANCH   1  12
ATOM     12  C   UNL     1     -19.578  20.470  46.105  1.00  0.00     0.000 C 
BRANCH  12  13
ATOM     13  C   UNL     1     -20.860  21.152  46.597  1.00  0.00    -0.000 C 
BRANCH  13  14
ATOM     14  C   UNL     1     -21.028  22.535  45.958  1.00  0.00    -0.000 C 
BRANCH  14  15
ATOM     15  C   UNL     1     -22.308  23.221  46.453  1.00  0.00    -0.000 C 
BRANCH  15  16
ATOM     16  C   UNL     1     -23.250  23.537  45.281  1.00  0.00    -0.000 C 
BRANCH  16  17
ATOM     17  C   UNL     1     -24.505  22.651  45.275  1.00  0.00    -0.000 C 
BRANCH  17  18
ATOM     18  C   UNL     1     -24.718  21.914  46.609  1.00  0.00    -0.000 C 
BRANCH  18  19
ATOM     19  C   UNL     1     -24.756  20.388  46.439  1.00  0.00    -0.003 C 
ATOM     20  C   UNL     1     -25.764  19.936  45.380  1.00  0.00     0.004 C 
ENDBRANCH  18  19
ENDBRANCH  17  18
ENDBRANCH  16  17
ENDBRANCH  15  16
ENDBRANCH  14  15
ENDBRANCH  13  14
ENDBRANCH  12  13
ENDBRANCH   1  12
TORSDOF 16
ENDMDL
MODEL 6
REMARK VINA RESULT:    -3.640      1.496      6.055
REMARK INTER + INTRA:          -9.118
REMARK INTER:                  -6.878
REMARK INTRA:                  -2.240
REMARK UNBOUND:                -2.073
REMARK SMILES CCCCCCCCCCCCCCCCCC(=O)[O-]
REMARK SMILES IDX 10 1 11 2 12 3 13 4 14 5 15 6 16 7 17 8 18 9 19 10 20 11
REMARK SMILES IDX 9 12 8 13 7 14 6 15 5 16 4 17 3 18 2 19 1 20
REMARK H PARENT
REMARK Flexibility Score: inf
ROOT
ATOM      1  C   UNL     1     -20.599  22.139  45.865  1.00  0.00     0.000 C 
ENDROOT
BRANCH   1   2
ATOM      2  C   UNL     1     -21.472  22.439  47.091  1.00  0.00     0.000 C 
BRANCH   2   3
ATOM      3  C   UNL     1     -22.415  21.269  47.396  1.00  0.00     0.000 C 
BRANCH   3   4
ATOM      4  C   UNL     1     -23.871  21.748  47.492  1.00  0.00     0.000 C 
BRANCH   4   5
ATOM      5  C   UNL     1     -24.701  21.392  46.247  1.00  0.00     0.000 C 
BRANCH   5   6
ATOM      6  C   UNL     1     -25.251  22.636  45.527  1.00  0.00     0.000 C 
BRANCH   6   7
ATOM      7  C   UNL     1     -24.150  23.436  44.811  1.00  0.00     0.006 C 
BRANCH   7   8
ATOM      8  C   UNL     1     -23.966  24.843  45.395  1.00  0.00     0.053 C 
BRANCH   8   9
ATOM      9  C   UNL     1     -22.653  25.419  44.965  1.00  0.00     0.041 C 
ATOM     10  O   UNL     1     -22.390  25.548  43.740  1.00  0.00    -0.550 OA
ATOM     11  O   UNL     1     -21.697  25.756  45.914  1.00  0.00    -0.550 OA
ENDBRANCH   8   9
ENDBRANCH   7   8
ENDBRANCH   6   7
ENDBRANCH   5   6
ENDBRANCH   4   5
ENDBRANCH   3   4
ENDBRANCH   2   3
ENDBRANCH   1   2
BRANCH   1  12
ATOM     12  C   UNL     1     -19.239  21.570  46.285  1.00  0.00     0.000 C 
BRANCH  12  13
ATOM     13  C   UNL     1     -19.015  20.178  45.683  1.00  0.00    -0.000 C 
BRANCH  13  14
ATOM     14  C   UNL     1     -17.926  20.213  44.604  1.00  0.00    -0.000 C 
BRANCH  14  15
ATOM     15  C   UNL     1     -17.112  21.511  44.683  1.00  0.00    -0.000 C 
BRANCH  15  16
ATOM     16  C   UNL     1     -16.784  22.039  43.278  1.00  0.00    -0.000 C 
BRANCH  16  17
ATOM     17  C   UNL     1     -18.039  22.454  42.494  1.00  0.00    -0.000 C 
BRANCH  17  18
ATOM     18  C   UNL     1     -18.116  23.973  42.258  1.00  0.00    -0.000 C 
BRANCH  18  19
ATOM     19  C   UNL     1     -19.145  24.659  43.171  1.00  0.00    -0.003 C 
ATOM     20  C   UNL     1     -18.594  24.947  44.568  1.00  0.00     0.004 C 
ENDBRANCH  18  19
ENDBRANCH  17  18
ENDBRANCH  16  17
ENDBRANCH  15  16
ENDBRANCH  14  15
ENDBRANCH  13  14
ENDBRANCH  12  13
ENDBRANCH   1  12
TORSDOF 16
ENDMDL
MODEL 7
REMARK VINA RESULT:    -3.635      3.387      6.355
REMARK INTER + INTRA:          -9.109
REMARK INTER:                  -6.495
REMARK INTRA:                  -2.613
REMARK UNBOUND:                -2.073
REMARK SMILES CCCCCCCCCCCCCCCCCC(=O)[O-]
REMARK SMILES IDX 10 1 11 2 12 3 13 4 14 5 15 6 16 7 17 8 18 9 19 10 20 11
REMARK SMILES IDX 9 12 8 13 7 14 6 15 5 16 4 17 3 18 2 19 1 20
REMARK H PARENT
REMARK Flexibility Score: inf
ROOT
ATOM      1  C   UNL     1     -18.697  22.850  43.995  1.00  0.00     0.000 C 
ENDROOT
BRANCH   1   2
ATOM      2  C   UNL     1     -18.090  22.729  42.592  1.00  0.00     0.000 C 
BRANCH   2   3
ATOM      3  C   UNL     1     -17.106  23.873  42.317  1.00  0.00     0.000 C 
BRANCH   3   4
ATOM      4  C   UNL     1     -16.701  24.575  43.622  1.00  0.00     0.000 C 
BRANCH   4   5
ATOM      5  C   UNL     1     -16.428  26.076  43.434  1.00  0.00     0.000 C 
BRANCH   5   6
ATOM      6  C   UNL     1     -17.440  26.961  44.183  1.00  0.00     0.000 C 
BRANCH   6   7
ATOM      7  C   UNL     1     -18.897  26.572  43.884  1.00  0.00     0.006 C 
BRANCH   7   8
ATOM      8  C   UNL     1     -19.310  26.892  42.441  1.00  0.00     0.053 C 
BRANCH   8   9
ATOM      9  C   UNL     1     -19.257  28.367  42.198  1.00  0.00     0.041 C 
ATOM     10  O   UNL     1     -20.042  29.138  42.811  1.00  0.00    -0.550 OA
ATOM     11  O   UNL     1     -18.383  28.886  41.252  1.00  0.00    -0.550 OA
ENDBRANCH   8   9
ENDBRANCH   7   8
ENDBRANCH   6   7
ENDBRANCH   5   6
ENDBRANCH   4   5
ENDBRANCH   3   4
ENDBRANCH   2   3
ENDBRANCH   1   2
BRANCH   1  12
ATOM     12  C   UNL     1     -18.562  21.532  44.768  1.00  0.00     0.000 C 
BRANCH  12  13
ATOM     13  C   UNL     1     -17.428  20.673  44.197  1.00  0.00    -0.000 C 
BRANCH  13  14
ATOM     14  C   UNL     1     -16.374  20.370  45.269  1.00  0.00    -0.000 C 
BRANCH  14  15
ATOM     15  C   UNL     1     -15.155  21.290  45.120  1.00  0.00    -0.000 C 
BRANCH  15  16
ATOM     16  C   UNL     1     -14.737  21.413  43.647  1.00  0.00    -0.000 C 
BRANCH  16  17
ATOM     17  C   UNL     1     -13.303  21.937  43.480  1.00  0.00    -0.000 C 
BRANCH  17  18
ATOM     18  C   UNL     1     -13.253  23.439  43.153  1.00  0.00    -0.000 C 
BRANCH  18  19
ATOM     19  C   UNL     1     -13.375  23.717  41.647  1.00  0.00    -0.003 C 
ATOM     20  C   UNL     1     -13.085  25.176  41.290  1.00  0.00     0.004 C 
ENDBRANCH  18  19
ENDBRANCH  17  18
ENDBRANCH  16  17
ENDBRANCH  15  16
ENDBRANCH  14  15
ENDBRANCH  13  14
ENDBRANCH  12  13
ENDBRANCH   1  12
TORSDOF 16
ENDMDL
MODEL 8
REMARK VINA RESULT:    -3.633      2.305      5.825
REMARK INTER + INTRA:          -9.105
REMARK INTER:                  -6.586
REMARK INTRA:                  -2.519
REMARK UNBOUND:                -2.073
REMARK SMILES CCCCCCCCCCCCCCCCCC(=O)[O-]
REMARK SMILES IDX 10 1 11 2 12 3 13 4 14 5 15 6 16 7 17 8 18 9 19 10 20 11
REMARK SMILES IDX 9 12 8 13 7 14 6 15 5 16 4 17 3 18 2 19 1 20
REMARK H PARENT
REMARK Flexibility Score: inf
ROOT
ATOM      1  C   UNL     1     -19.641  20.903  45.848  1.00  0.00     0.000 C 
ENDROOT
BRANCH   1   2
ATOM      2  C   UNL     1     -20.233  22.317  45.777  1.00  0.00     0.000 C 
BRANCH   2   3
ATOM      3  C   UNL     1     -19.180  23.373  46.133  1.00  0.00     0.000 C 
BRANCH   3   4
ATOM      4  C   UNL     1     -19.590  24.757  45.606  1.00  0.00     0.000 C 
BRANCH   4   5
ATOM      5  C   UNL     1     -20.504  24.679  44.372  1.00  0.00     0.000 C 
BRANCH   5   6
ATOM      6  C   UNL     1     -21.518  25.835  44.312  1.00  0.00     0.000 C 
BRANCH   6   7
ATOM      7  C   UNL     1     -21.240  26.801  43.148  1.00  0.00     0.006 C 
BRANCH   7   8
ATOM      8  C   UNL     1     -19.932  26.482  42.413  1.00  0.00     0.053 C 
BRANCH   8   9
ATOM      9  C   UNL     1     -19.059  27.696  42.349  1.00  0.00     0.041 C 
ATOM     10  O   UNL     1     -17.806  27.577  42.377  1.00  0.00    -0.550 OA
ATOM     11  O   UNL     1     -19.630  28.962  42.320  1.00  0.00    -0.550 OA
ENDBRANCH   8   9
ENDBRANCH   7   8
ENDBRANCH   6   7
ENDBRANCH   5   6
ENDBRANCH   4   5
ENDBRANCH   3   4
ENDBRANCH   2   3
ENDBRANCH   1   2
BRANCH   1  12
ATOM     12  C   UNL     1     -18.114  20.939  45.713  1.00  0.00     0.000 C 
BRANCH  12  13
ATOM     13  C   UNL     1     -17.673  20.477  44.320  1.00  0.00    -0.000 C 
BRANCH  13  14
ATOM     14  C   UNL     1     -17.012  21.623  43.543  1.00  0.00    -0.000 C 
BRANCH  14  15
ATOM     15  C   UNL     1     -18.003  22.274  42.569  1.00  0.00    -0.000 C 
BRANCH  15  16
ATOM     16  C   UNL     1     -17.615  23.733  42.287  1.00  0.00    -0.000 C 
BRANCH  16  17
ATOM     17  C   UNL     1     -16.703  24.324  43.373  1.00  0.00    -0.000 C 
BRANCH  17  18
ATOM     18  C   UNL     1     -15.389  24.887  42.803  1.00  0.00    -0.000 C 
BRANCH  18  19
ATOM     19  C   UNL     1     -14.198  23.944  43.027  1.00  0.00    -0.003 C 
ATOM     20  C   UNL     1     -13.470  23.592  41.729  1.00  0.00     0.004 C 
ENDBRANCH  18  19
ENDBRANCH  17  18
ENDBRANCH  16  17
ENDBRANCH  15  16
ENDBRANCH  14  15
ENDBRANCH  13  14
ENDBRANCH  12  13
ENDBRANCH   1  12
TORSDOF 16
ENDMDL
MODEL 9
REMARK VINA RESULT:    -3.593      1.533      2.618
REMARK INTER + INTRA:          -9.026
REMARK INTER:                  -7.196
REMARK INTRA:                  -1.831
REMARK UNBOUND:                -2.073
REMARK SMILES CCCCCCCCCCCCCCCCCC(=O)[O-]
REMARK SMILES IDX 10 1 11 2 12 3 13 4 14 5 15 6 16 7 17 8 18 9 19 10 20 11
REMARK SMILES IDX 9 12 8 13 7 14 6 15 5 16 4 17 3 18 2 19 1 20
REMARK H PARENT
REMARK Flexibility Score: inf
ROOT
ATOM      1  C   UNL     1     -17.650  20.812  43.959  1.00  0.00     0.000 C 
ENDROOT
BRANCH   1   2
ATOM      2  C   UNL     1     -16.201  21.312  44.005  1.00  0.00     0.000 C 
BRANCH   2   3
ATOM      3  C   UNL     1     -16.053  22.643  43.257  1.00  0.00     0.000 C 
BRANCH   3   4
ATOM      4  C   UNL     1     -17.398  23.093  42.667  1.00  0.00     0.000 C 
BRANCH   4   5
ATOM      5  C   UNL     1     -17.928  24.387  43.308  1.00  0.00     0.000 C 
BRANCH   5   6
ATOM      6  C   UNL     1     -19.254  24.857  42.684  1.00  0.00     0.000 C 
BRANCH   6   7
ATOM      7  C   UNL     1     -19.103  26.173  41.903  1.00  0.00     0.006 C 
BRANCH   7   8
ATOM      8  C   UNL     1     -19.344  27.411  42.778  1.00  0.00     0.053 C 
BRANCH   8   9
ATOM      9  C   UNL     1     -20.794  27.530  43.125  1.00  0.00     0.041 C 
ATOM     10  O   UNL     1     -21.171  27.411  44.321  1.00  0.00    -0.550 OA
ATOM     11  O   UNL     1     -21.737  27.713  42.122  1.00  0.00    -0.550 OA
ENDBRANCH   8   9
ENDBRANCH   7   8
ENDBRANCH   6   7
ENDBRANCH   5   6
ENDBRANCH   4   5
ENDBRANCH   3   4
ENDBRANCH   2   3
ENDBRANCH   1   2
BRANCH   1  12
ATOM     12  C   UNL     1     -17.995  20.009  45.219  1.00  0.00     0.000 C 
BRANCH  12  13
ATOM     13  C   UNL     1     -19.247  20.569  45.904  1.00  0.00    -0.000 C 
BRANCH  13  14
ATOM     14  C   UNL     1     -19.492  22.026  45.496  1.00  0.00    -0.000 C 
BRANCH  14  15
ATOM     15  C   UNL     1     -20.894  22.490  45.913  1.00  0.00    -0.000 C 
BRANCH  15  16
ATOM     16  C   UNL     1     -21.013  24.019  45.832  1.00  0.00    -0.000 C 
BRANCH  16  17
ATOM     17  C   UNL     1     -22.460  24.510  45.996  1.00  0.00    -0.000 C 
BRANCH  17  18
ATOM     18  C   UNL     1     -23.241  24.509  44.671  1.00  0.00    -0.000 C 
BRANCH  18  19
ATOM     19  C   UNL     1     -24.501  23.631  44.731  1.00  0.00    -0.003 C 
ATOM     20  C   UNL     1     -24.601  22.830  46.030  1.00  0.00     0.004 C 
ENDBRANCH  18  19
ENDBRANCH  17  18
ENDBRANCH  16  17
ENDBRANCH  15  16
ENDBRANCH  14  15
ENDBRANCH  13  14
ENDBRANCH  12  13
ENDBRANCH   1  12
TORSDOF 16
ENDMDL
