MODEL 1
REMARK VINA RESULT:    -7.055      0.000      0.000
REMARK INTER + INTRA:          -8.759
REMARK INTER:                  -8.499
REMARK INTRA:                  -0.261
REMARK UNBOUND:                -0.261
REMARK SMILES O=c1c(O)c(-c2ccc(O)c(O)c2)oc2cc(O)cc(O)c12
REMARK SMILES IDX 5 1 3 2 2 3 1 4 22 5 20 6 19 7 17 8 16 9 15 10 14 11 6 12
REMARK SMILES IDX 7 13 8 14 9 15 13 16 11 17 10 18 12 20 4 22 21 24 18 26
REMARK H PARENT 10 19 12 21 4 23 21 25 18 27
REMARK Flexibility Score: inf
ROOT
ATOM      1  C   UNL     1      29.697  23.360  49.124  1.00  0.00     0.180 A 
ATOM      2  C   UNL     1      30.728  22.403  49.189  1.00  0.00     0.208 A 
ATOM      3  C   UNL     1      31.195  21.992  50.448  1.00  0.00     0.238 A 
ATOM      4  O   UNL     1      32.125  21.144  50.517  1.00  0.00    -0.285 OA
ATOM      5  C   UNL     1      30.613  22.527  51.615  1.00  0.00     0.111 A 
ATOM      6  C   UNL     1      31.023  22.164  52.921  1.00  0.00     0.134 A 
ATOM      7  C   UNL     1      30.388  22.735  54.034  1.00  0.00     0.093 A 
ATOM      8  C   UNL     1      29.354  23.659  53.867  1.00  0.00     0.123 A 
ATOM      9  C   UNL     1      28.945  24.022  52.580  1.00  0.00     0.094 A 
ATOM     10  C   UNL     1      29.567  23.465  51.458  1.00  0.00     0.146 A 
ATOM     11  O   UNL     1      29.162  23.832  50.247  1.00  0.00    -0.452 OA
ENDROOT
BRANCH   1  12
ATOM     12  C   UNL     1      29.164  23.856  47.836  1.00  0.00     0.025 A 
ATOM     13  C   UNL     1      29.907  24.731  47.024  1.00  0.00     0.016 A 
ATOM     14  C   UNL     1      29.374  25.207  45.823  1.00  0.00     0.051 A 
ATOM     15  C   UNL     1      28.086  24.826  45.422  1.00  0.00     0.157 A 
ATOM     16  C   UNL     1      27.866  23.496  47.439  1.00  0.00     0.062 A 
ATOM     17  C   UNL     1      27.328  23.969  46.237  1.00  0.00     0.158 A 
BRANCH  15  18
ATOM     18  O   UNL     1      27.557  25.300  44.223  1.00  0.00    -0.504 OA
ATOM     19  H   UNL     1      26.775  24.842  43.771  1.00  0.00     0.293 HD
ENDBRANCH  15  18
BRANCH  17  20
ATOM     20  O   UNL     1      26.041  23.577  45.870  1.00  0.00    -0.504 OA
ATOM     21  H   UNL     1      25.235  23.765  46.455  1.00  0.00     0.293 HD
ENDBRANCH  17  20
ENDBRANCH   1  12
BRANCH   2  22
ATOM     22  O   UNL     1      31.253  21.851  48.017  1.00  0.00    -0.502 OA
ATOM     23  H   UNL     1      32.133  22.159  47.620  1.00  0.00     0.293 HD
ENDBRANCH   2  22
BRANCH   6  24
ATOM     24  O   UNL     1      32.053  21.243  53.120  1.00  0.00    -0.507 OA
ATOM     25  H   UNL     1      32.529  21.161  54.011  1.00  0.00     0.293 HD
ENDBRANCH   6  24
BRANCH   8  26
ATOM     26  O   UNL     1      28.739  24.209  54.989  1.00  0.00    -0.508 OA
ATOM     27  H   UNL     1      27.977  24.873  54.903  1.00  0.00     0.293 HD
ENDBRANCH   8  26
TORSDOF 6
ENDMDL
MODEL 2
REMARK VINA RESULT:    -6.834      1.934      2.676
REMARK INTER + INTRA:          -8.493
REMARK INTER:                  -8.988
REMARK INTRA:                   0.496
REMARK UNBOUND:                -0.261
REMARK SMILES O=c1c(O)c(-c2ccc(O)c(O)c2)oc2cc(O)cc(O)c12
REMARK SMILES IDX 5 1 3 2 2 3 1 4 22 5 20 6 19 7 17 8 16 9 15 10 14 11 6 12
REMARK SMILES IDX 7 13 8 14 9 15 13 16 11 17 10 18 12 20 4 22 21 24 18 26
REMARK H PARENT 10 19 12 21 4 23 21 25 18 27
REMARK Flexibility Score: inf
ROOT
ATOM      1  C   UNL     1      28.003  23.504  49.292  1.00  0.00     0.180 A 
ATOM      2  C   UNL     1      26.975  22.671  49.776  1.00  0.00     0.208 A 
ATOM      3  C   UNL     1      27.010  22.257  51.116  1.00  0.00     0.238 A 
ATOM      4  O   UNL     1      26.101  21.502  51.556  1.00  0.00    -0.285 OA
ATOM      5  C   UNL     1      28.057  22.695  51.953  1.00  0.00     0.111 A 
ATOM      6  C   UNL     1      28.164  22.326  53.316  1.00  0.00     0.134 A 
ATOM      7  C   UNL     1      29.231  22.812  54.086  1.00  0.00     0.093 A 
ATOM      8  C   UNL     1      30.190  23.657  53.522  1.00  0.00     0.123 A 
ATOM      9  C   UNL     1      30.090  24.024  52.177  1.00  0.00     0.094 A 
ATOM     10  C   UNL     1      29.034  23.549  51.392  1.00  0.00     0.146 A 
ATOM     11  O   UNL     1      28.966  23.909  50.115  1.00  0.00    -0.452 OA
ENDROOT
BRANCH   1  12
ATOM     12  C   UNL     1      28.045  23.967  47.887  1.00  0.00     0.025 A 
ATOM     13  C   UNL     1      29.189  24.586  47.354  1.00  0.00     0.016 A 
ATOM     14  C   UNL     1      29.197  25.039  46.032  1.00  0.00     0.051 A 
ATOM     15  C   UNL     1      28.060  24.892  45.227  1.00  0.00     0.157 A 
ATOM     16  C   UNL     1      26.900  23.842  47.083  1.00  0.00     0.062 A 
ATOM     17  C   UNL     1      26.905  24.293  45.758  1.00  0.00     0.158 A 
BRANCH  15  18
ATOM     18  O   UNL     1      28.071  25.342  43.909  1.00  0.00    -0.504 OA
ATOM     19  H   UNL     1      28.383  26.276  43.670  1.00  0.00     0.293 HD
ENDBRANCH  15  18
BRANCH  17  20
ATOM     20  O   UNL     1      25.753  24.139  44.987  1.00  0.00    -0.504 OA
ATOM     21  H   UNL     1      25.026  24.843  44.959  1.00  0.00     0.293 HD
ENDBRANCH  17  20
ENDBRANCH   1  12
BRANCH   2  22
ATOM     22  O   UNL     1      25.922  22.291  48.938  1.00  0.00    -0.502 OA
ATOM     23  H   UNL     1      25.336  21.489  49.133  1.00  0.00     0.293 HD
ENDBRANCH   2  22
BRANCH   6  24
ATOM     24  O   UNL     1      27.222  21.484  53.909  1.00  0.00    -0.507 OA
ATOM     25  H   UNL     1      26.630  20.874  53.356  1.00  0.00     0.293 HD
ENDBRANCH   6  24
BRANCH   8  26
ATOM     26  O   UNL     1      31.239  24.126  54.310  1.00  0.00    -0.508 OA
ATOM     27  H   UNL     1      32.181  23.770  54.202  1.00  0.00     0.293 HD
ENDBRANCH   8  26
TORSDOF 6
ENDMDL
MODEL 3
REMARK VINA RESULT:    -6.568      1.475      7.100
REMARK INTER + INTRA:          -8.173
REMARK INTER:                  -7.848
REMARK INTRA:                  -0.325
REMARK UNBOUND:                -0.261
REMARK SMILES O=c1c(O)c(-c2ccc(O)c(O)c2)oc2cc(O)cc(O)c12
REMARK SMILES IDX 5 1 3 2 2 3 1 4 22 5 20 6 19 7 17 8 16 9 15 10 14 11 6 12
REMARK SMILES IDX 7 13 8 14 9 15 13 16 11 17 10 18 12 20 4 22 21 24 18 26
REMARK H PARENT 10 19 12 21 4 23 21 25 18 27
REMARK Flexibility Score: inf
ROOT
ATOM      1  C   UNL     1      29.162  23.181  50.127  1.00  0.00     0.180 A 
ATOM      2  C   UNL     1      27.825  22.824  49.866  1.00  0.00     0.208 A 
ATOM      3  C   UNL     1      27.263  23.154  48.623  1.00  0.00     0.238 A 
ATOM      4  O   UNL     1      26.064  22.848  48.384  1.00  0.00    -0.285 OA
ATOM      5  C   UNL     1      28.050  23.814  47.657  1.00  0.00     0.111 A 
ATOM      6  C   UNL     1      27.561  24.179  46.379  1.00  0.00     0.134 A 
ATOM      7  C   UNL     1      28.410  24.826  45.469  1.00  0.00     0.093 A 
ATOM      8  C   UNL     1      29.733  25.115  45.810  1.00  0.00     0.123 A 
ATOM      9  C   UNL     1      30.221  24.759  47.072  1.00  0.00     0.094 A 
ATOM     10  C   UNL     1      29.390  24.114  47.993  1.00  0.00     0.146 A 
ATOM     11  O   UNL     1      29.878  23.790  49.186  1.00  0.00    -0.452 OA
ENDROOT
BRANCH   1  12
ATOM     12  C   UNL     1      29.818  22.884  51.420  1.00  0.00     0.025 A 
ATOM     13  C   UNL     1      29.667  23.733  52.530  1.00  0.00     0.016 A 
ATOM     14  C   UNL     1      30.316  23.446  53.734  1.00  0.00     0.051 A 
ATOM     15  C   UNL     1      31.136  22.314  53.843  1.00  0.00     0.157 A 
ATOM     16  C   UNL     1      30.658  21.763  51.528  1.00  0.00     0.062 A 
ATOM     17  C   UNL     1      31.310  21.472  52.732  1.00  0.00     0.158 A 
BRANCH  15  18
ATOM     18  O   UNL     1      31.781  22.029  55.044  1.00  0.00    -0.504 OA
ATOM     19  H   UNL     1      32.694  21.591  55.064  1.00  0.00     0.293 HD
ENDBRANCH  15  18
BRANCH  17  20
ATOM     20  O   UNL     1      32.124  20.342  52.804  1.00  0.00    -0.504 OA
ATOM     21  H   UNL     1      31.827  19.442  52.447  1.00  0.00     0.293 HD
ENDBRANCH  17  20
ENDBRANCH   1  12
BRANCH   2  22
ATOM     22  O   UNL     1      27.082  22.125  50.823  1.00  0.00    -0.502 OA
ATOM     23  H   UNL     1      27.130  21.118  50.917  1.00  0.00     0.293 HD
ENDBRANCH   2  22
BRANCH   6  24
ATOM     24  O   UNL     1      26.244  23.904  46.008  1.00  0.00    -0.507 OA
ATOM     25  H   UNL     1      25.905  22.953  45.915  1.00  0.00     0.293 HD
ENDBRANCH   6  24
BRANCH   8  26
ATOM     26  O   UNL     1      30.555  25.758  44.887  1.00  0.00    -0.508 OA
ATOM     27  H   UNL     1      31.333  25.279  44.448  1.00  0.00     0.293 HD
ENDBRANCH   8  26
TORSDOF 6
ENDMDL
MODEL 4
REMARK VINA RESULT:    -6.069     12.042     13.665
REMARK INTER + INTRA:          -7.571
REMARK INTER:                  -7.262
REMARK INTRA:                  -0.309
REMARK UNBOUND:                -0.261
REMARK SMILES O=c1c(O)c(-c2ccc(O)c(O)c2)oc2cc(O)cc(O)c12
REMARK SMILES IDX 5 1 3 2 2 3 1 4 22 5 20 6 19 7 17 8 16 9 15 10 14 11 6 12
REMARK SMILES IDX 7 13 8 14 9 15 13 16 11 17 10 18 12 20 4 22 21 24 18 26
REMARK H PARENT 10 19 12 21 4 23 21 25 18 27
REMARK Flexibility Score: inf
ROOT
ATOM      1  C   UNL     1      16.515  26.793  51.641  1.00  0.00     0.180 A 
ATOM      2  C   UNL     1      17.331  27.614  52.443  1.00  0.00     0.208 A 
ATOM      3  C   UNL     1      18.287  27.014  53.276  1.00  0.00     0.238 A 
ATOM      4  O   UNL     1      19.015  27.739  54.007  1.00  0.00    -0.285 OA
ATOM      5  C   UNL     1      18.426  25.611  53.280  1.00  0.00     0.111 A 
ATOM      6  C   UNL     1      19.368  24.928  54.088  1.00  0.00     0.134 A 
ATOM      7  C   UNL     1      19.451  23.529  54.027  1.00  0.00     0.093 A 
ATOM      8  C   UNL     1      18.615  22.801  53.178  1.00  0.00     0.123 A 
ATOM      9  C   UNL     1      17.682  23.470  52.379  1.00  0.00     0.094 A 
ATOM     10  C   UNL     1      17.583  24.864  52.425  1.00  0.00     0.146 A 
ATOM     11  O   UNL     1      16.685  25.473  51.659  1.00  0.00    -0.452 OA
ENDROOT
BRANCH   1  12
ATOM     12  C   UNL     1      15.472  27.349  50.750  1.00  0.00     0.025 A 
ATOM     13  C   UNL     1      14.220  27.749  51.249  1.00  0.00     0.016 A 
ATOM     14  C   UNL     1      13.241  28.248  50.385  1.00  0.00     0.051 A 
ATOM     15  C   UNL     1      13.494  28.344  49.010  1.00  0.00     0.157 A 
ATOM     16  C   UNL     1      15.712  27.426  49.368  1.00  0.00     0.062 A 
ATOM     17  C   UNL     1      14.734  27.927  48.500  1.00  0.00     0.158 A 
BRANCH  15  18
ATOM     18  O   UNL     1      12.517  28.843  48.151  1.00  0.00    -0.504 OA
ATOM     19  H   UNL     1      11.653  29.239  48.503  1.00  0.00     0.293 HD
ENDBRANCH  15  18
BRANCH  17  20
ATOM     20  O   UNL     1      15.015  28.001  47.136  1.00  0.00    -0.504 OA
ATOM     21  H   UNL     1      15.696  27.395  46.694  1.00  0.00     0.293 HD
ENDBRANCH  17  20
ENDBRANCH   1  12
BRANCH   2  22
ATOM     22  O   UNL     1      17.206  29.005  52.384  1.00  0.00    -0.502 OA
ATOM     23  H   UNL     1      17.486  29.607  53.148  1.00  0.00     0.293 HD
ENDBRANCH   2  22
BRANCH   6  24
ATOM     24  O   UNL     1      20.218  25.627  54.946  1.00  0.00    -0.507 OA
ATOM     25  H   UNL     1      20.844  25.147  55.583  1.00  0.00     0.293 HD
ENDBRANCH   6  24
BRANCH   8  26
ATOM     26  O   UNL     1      18.719  21.413  53.136  1.00  0.00    -0.508 OA
ATOM     27  H   UNL     1      19.589  20.941  53.358  1.00  0.00     0.293 HD
ENDBRANCH   8  26
TORSDOF 6
ENDMDL
MODEL 5
REMARK VINA RESULT:    -5.779      1.791      6.809
REMARK INTER + INTRA:          -7.222
REMARK INTER:                  -7.047
REMARK INTRA:                  -0.175
REMARK UNBOUND:                -0.261
REMARK SMILES O=c1c(O)c(-c2ccc(O)c(O)c2)oc2cc(O)cc(O)c12
REMARK SMILES IDX 5 1 3 2 2 3 1 4 22 5 20 6 19 7 17 8 16 9 15 10 14 11 6 12
REMARK SMILES IDX 7 13 8 14 9 15 13 16 11 17 10 18 12 20 4 22 21 24 18 26
REMARK H PARENT 10 19 12 21 4 23 21 25 18 27
REMARK Flexibility Score: inf
ROOT
ATOM      1  C   UNL     1      28.925  23.657  49.614  1.00  0.00     0.180 A 
ATOM      2  C   UNL     1      30.233  23.735  49.099  1.00  0.00     0.208 A 
ATOM      3  C   UNL     1      30.416  24.132  47.765  1.00  0.00     0.238 A 
ATOM      4  O   UNL     1      31.582  24.194  47.291  1.00  0.00    -0.285 OA
ATOM      5  C   UNL     1      29.294  24.463  46.977  1.00  0.00     0.111 A 
ATOM      6  C   UNL     1      29.391  24.875  45.626  1.00  0.00     0.134 A 
ATOM      7  C   UNL     1      28.228  25.196  44.911  1.00  0.00     0.093 A 
ATOM      8  C   UNL     1      26.973  25.114  45.519  1.00  0.00     0.123 A 
ATOM      9  C   UNL     1      26.870  24.706  46.853  1.00  0.00     0.094 A 
ATOM     10  C   UNL     1      28.018  24.380  47.581  1.00  0.00     0.146 A 
ATOM     11  O   UNL     1      27.892  23.991  48.845  1.00  0.00    -0.452 OA
ENDROOT
BRANCH   1  12
ATOM     12  C   UNL     1      28.650  23.229  51.004  1.00  0.00     0.025 A 
ATOM     13  C   UNL     1      27.946  22.044  51.280  1.00  0.00     0.016 A 
ATOM     14  C   UNL     1      27.676  21.673  52.600  1.00  0.00     0.051 A 
ATOM     15  C   UNL     1      28.095  22.484  53.662  1.00  0.00     0.157 A 
ATOM     16  C   UNL     1      29.049  24.049  52.072  1.00  0.00     0.062 A 
ATOM     17  C   UNL     1      28.782  23.680  53.395  1.00  0.00     0.158 A 
BRANCH  15  18
ATOM     18  O   UNL     1      27.827  22.111  54.978  1.00  0.00    -0.504 OA
ATOM     19  H   UNL     1      28.527  21.657  55.553  1.00  0.00     0.293 HD
ENDBRANCH  15  18
BRANCH  17  20
ATOM     20  O   UNL     1      29.206  24.515  54.429  1.00  0.00    -0.504 OA
ATOM     21  H   UNL     1      29.875  25.260  54.278  1.00  0.00     0.293 HD
ENDBRANCH  17  20
ENDBRANCH   1  12
BRANCH   2  22
ATOM     22  O   UNL     1      31.331  23.449  49.916  1.00  0.00    -0.502 OA
ATOM     23  H   UNL     1      31.579  24.025  50.711  1.00  0.00     0.293 HD
ENDBRANCH   2  22
BRANCH   6  24
ATOM     24  O   UNL     1      30.631  24.969  44.991  1.00  0.00    -0.507 OA
ATOM     25  H   UNL     1      31.067  25.864  44.805  1.00  0.00     0.293 HD
ENDBRANCH   6  24
BRANCH   8  26
ATOM     26  O   UNL     1      25.833  25.440  44.787  1.00  0.00    -0.508 OA
ATOM     27  H   UNL     1      25.645  26.393  44.498  1.00  0.00     0.293 HD
ENDBRANCH   8  26
TORSDOF 6
ENDMDL
MODEL 6
REMARK VINA RESULT:    -5.727     14.302     16.723
REMARK INTER + INTRA:          -7.159
REMARK INTER:                  -7.262
REMARK INTRA:                   0.103
REMARK UNBOUND:                -0.261
REMARK SMILES O=c1c(O)c(-c2ccc(O)c(O)c2)oc2cc(O)cc(O)c12
REMARK SMILES IDX 5 1 3 2 2 3 1 4 22 5 20 6 19 7 17 8 16 9 15 10 14 11 6 12
REMARK SMILES IDX 7 13 8 14 9 15 13 16 11 17 10 18 12 20 4 22 21 24 18 26
REMARK H PARENT 10 19 12 21 4 23 21 25 18 27
REMARK Flexibility Score: inf
ROOT
ATOM      1  C   UNL     1      15.863  21.929  43.040  1.00  0.00     0.180 A 
ATOM      2  C   UNL     1      17.189  22.265  42.704  1.00  0.00     0.208 A 
ATOM      3  C   UNL     1      17.416  23.315  41.801  1.00  0.00     0.238 A 
ATOM      4  O   UNL     1      18.599  23.617  41.485  1.00  0.00    -0.285 OA
ATOM      5  C   UNL     1      16.320  24.022  41.265  1.00  0.00     0.111 A 
ATOM      6  C   UNL     1      16.462  25.095  40.352  1.00  0.00     0.134 A 
ATOM      7  C   UNL     1      15.321  25.755  39.871  1.00  0.00     0.093 A 
ATOM      8  C   UNL     1      14.045  25.366  40.284  1.00  0.00     0.123 A 
ATOM      9  C   UNL     1      13.899  24.306  41.185  1.00  0.00     0.094 A 
ATOM     10  C   UNL     1      15.023  23.635  41.675  1.00  0.00     0.146 A 
ATOM     11  O   UNL     1      14.855  22.629  42.526  1.00  0.00    -0.452 OA
ENDROOT
BRANCH   1  12
ATOM     12  C   UNL     1      15.543  20.824  43.970  1.00  0.00     0.025 A 
ATOM     13  C   UNL     1      14.617  20.991  45.014  1.00  0.00     0.016 A 
ATOM     14  C   UNL     1      14.348  19.940  45.896  1.00  0.00     0.051 A 
ATOM     15  C   UNL     1      15.009  18.713  45.756  1.00  0.00     0.157 A 
ATOM     16  C   UNL     1      16.218  19.598  43.847  1.00  0.00     0.062 A 
ATOM     17  C   UNL     1      15.952  18.544  44.727  1.00  0.00     0.158 A 
BRANCH  15  18
ATOM     18  O   UNL     1      14.739  17.666  46.635  1.00  0.00    -0.504 OA
ATOM     19  H   UNL     1      15.330  16.845  46.679  1.00  0.00     0.293 HD
ENDBRANCH  15  18
BRANCH  17  20
ATOM     20  O   UNL     1      16.632  17.338  44.564  1.00  0.00    -0.504 OA
ATOM     21  H   UNL     1      17.420  17.246  43.933  1.00  0.00     0.293 HD
ENDBRANCH  17  20
ENDBRANCH   1  12
BRANCH   2  22
ATOM     22  O   UNL     1      18.259  21.581  43.287  1.00  0.00    -0.502 OA
ATOM     23  H   UNL     1      18.529  21.718  44.254  1.00  0.00     0.293 HD
ENDBRANCH   2  22
BRANCH   6  24
ATOM     24  O   UNL     1      17.723  25.509  39.920  1.00  0.00    -0.507 OA
ATOM     25  H   UNL     1      18.303  26.123  40.480  1.00  0.00     0.293 HD
ENDBRANCH   6  24
BRANCH   8  26
ATOM     26  O   UNL     1      12.930  26.039  39.793  1.00  0.00    -0.508 OA
ATOM     27  H   UNL     1      12.838  27.045  39.880  1.00  0.00     0.293 HD
ENDBRANCH   8  26
TORSDOF 6
ENDMDL
MODEL 7
REMARK VINA RESULT:    -5.562     13.012     14.381
REMARK INTER + INTRA:          -6.960
REMARK INTER:                  -6.839
REMARK INTRA:                  -0.122
REMARK UNBOUND:                -0.261
REMARK SMILES O=c1c(O)c(-c2ccc(O)c(O)c2)oc2cc(O)cc(O)c12
REMARK SMILES IDX 5 1 3 2 2 3 1 4 22 5 20 6 19 7 17 8 16 9 15 10 14 11 6 12
REMARK SMILES IDX 7 13 8 14 9 15 13 16 11 17 10 18 12 20 4 22 21 24 18 26
REMARK H PARENT 10 19 12 21 4 23 21 25 18 27
REMARK Flexibility Score: inf
ROOT
ATOM      1  C   UNL     1      15.870  27.616  51.107  1.00  0.00     0.180 A 
ATOM      2  C   UNL     1      16.311  26.412  51.689  1.00  0.00     0.208 A 
ATOM      3  C   UNL     1      17.225  26.466  52.753  1.00  0.00     0.238 A 
ATOM      4  O   UNL     1      17.634  25.394  53.274  1.00  0.00    -0.285 OA
ATOM      5  C   UNL     1      17.666  27.718  53.228  1.00  0.00     0.111 A 
ATOM      6  C   UNL     1      18.583  27.861  54.298  1.00  0.00     0.134 A 
ATOM      7  C   UNL     1      18.967  29.142  54.719  1.00  0.00     0.093 A 
ATOM      8  C   UNL     1      18.453  30.281  54.095  1.00  0.00     0.123 A 
ATOM      9  C   UNL     1      17.548  30.147  53.037  1.00  0.00     0.094 A 
ATOM     10  C   UNL     1      17.154  28.878  52.602  1.00  0.00     0.146 A 
ATOM     11  O   UNL     1      16.297  28.779  51.592  1.00  0.00    -0.452 OA
ENDROOT
BRANCH   1  12
ATOM     12  C   UNL     1      14.922  27.640  49.971  1.00  0.00     0.025 A 
ATOM     13  C   UNL     1      13.646  28.216  50.094  1.00  0.00     0.016 A 
ATOM     14  C   UNL     1      12.757  28.205  49.016  1.00  0.00     0.051 A 
ATOM     15  C   UNL     1      13.125  27.608  47.803  1.00  0.00     0.157 A 
ATOM     16  C   UNL     1      15.277  27.024  48.760  1.00  0.00     0.062 A 
ATOM     17  C   UNL     1      14.391  27.012  47.677  1.00  0.00     0.158 A 
BRANCH  15  18
ATOM     18  O   UNL     1      12.239  27.600  46.728  1.00  0.00    -0.504 OA
ATOM     19  H   UNL     1      12.504  27.227  45.824  1.00  0.00     0.293 HD
ENDBRANCH  15  18
BRANCH  17  20
ATOM     20  O   UNL     1      14.786  26.403  46.486  1.00  0.00    -0.504 OA
ATOM     21  H   UNL     1      15.615  25.823  46.428  1.00  0.00     0.293 HD
ENDBRANCH  17  20
ENDBRANCH   1  12
BRANCH   2  22
ATOM     22  O   UNL     1      15.820  25.186  51.231  1.00  0.00    -0.502 OA
ATOM     23  H   UNL     1      14.832  24.961  51.239  1.00  0.00     0.293 HD
ENDBRANCH   2  22
BRANCH   6  24
ATOM     24  O   UNL     1      19.114  26.742  54.943  1.00  0.00    -0.507 OA
ATOM     25  H   UNL     1      18.815  26.472  55.873  1.00  0.00     0.293 HD
ENDBRANCH   6  24
BRANCH   8  26
ATOM     26  O   UNL     1      18.850  31.542  54.534  1.00  0.00    -0.508 OA
ATOM     27  H   UNL     1      18.222  32.141  55.059  1.00  0.00     0.293 HD
ENDBRANCH   8  26
TORSDOF 6
ENDMDL
