MODEL 1
REMARK VINA RESULT:    -4.622      0.000      0.000
REMARK INTER + INTRA:          -8.791
REMARK INTER:                  -7.324
REMARK INTRA:                  -1.467
REMARK UNBOUND:                -1.467
REMARK SMILES CCCCCCCCCCCC(=O)[O-]
REMARK SMILES IDX 7 1 8 2 9 3 10 4 11 5 12 6 13 7 14 8 6 9 5 10 4 11 3 12 2 13
REMARK SMILES IDX 1 14
REMARK H PARENT
REMARK Flexibility Score: inf
ROOT
ATOM      1  C   UNL     1      29.118  27.999  14.713  1.00  0.00     0.000 C 
ENDROOT
BRANCH   1   2
ATOM      2  C   UNL     1      30.455  27.519  14.121  1.00  0.00     0.000 C 
BRANCH   2   3
ATOM      3  C   UNL     1      31.659  28.300  14.667  1.00  0.00     0.000 C 
BRANCH   3   4
ATOM      4  C   UNL     1      32.186  29.294  13.623  1.00  0.00     0.006 C 
BRANCH   4   5
ATOM      5  C   UNL     1      32.218  28.661  12.229  1.00  0.00     0.053 C 
BRANCH   5   6
ATOM      6  C   UNL     1      33.593  28.170  11.908  1.00  0.00     0.041 C 
ATOM      7  O   UNL     1      34.071  27.178  12.518  1.00  0.00    -0.550 OA
ATOM      8  O   UNL     1      34.369  28.838  10.968  1.00  0.00    -0.550 OA
ENDBRANCH   5   6
ENDBRANCH   4   5
ENDBRANCH   3   4
ENDBRANCH   2   3
ENDBRANCH   1   2
BRANCH   1   9
ATOM      9  C   UNL     1      28.266  28.774  13.692  1.00  0.00     0.000 C 
BRANCH   9  10
ATOM     10  C   UNL     1      28.596  30.276  13.666  1.00  0.00    -0.000 C 
BRANCH  10  11
ATOM     11  C   UNL     1      28.886  30.847  15.066  1.00  0.00    -0.000 C 
BRANCH  11  12
ATOM     12  C   UNL     1      29.968  31.947  15.033  1.00  0.00    -0.000 C 
BRANCH  12  13
ATOM     13  C   UNL     1      31.016  31.812  16.150  1.00  0.00    -0.003 C 
ATOM     14  C   UNL     1      30.477  31.110  17.395  1.00  0.00     0.004 C 
ENDBRANCH  12  13
ENDBRANCH  11  12
ENDBRANCH  10  11
ENDBRANCH   9  10
ENDBRANCH   1   9
TORSDOF 10
ENDMDL
MODEL 2
REMARK VINA RESULT:    -4.539      1.710      2.369
REMARK INTER + INTRA:          -8.659
REMARK INTER:                  -7.369
REMARK INTRA:                  -1.290
REMARK UNBOUND:                -1.467
REMARK SMILES CCCCCCCCCCCC(=O)[O-]
REMARK SMILES IDX 7 1 8 2 9 3 10 4 11 5 12 6 13 7 14 8 6 9 5 10 4 11 3 12 2 13
REMARK SMILES IDX 1 14
REMARK H PARENT
REMARK Flexibility Score: inf
ROOT
ATOM      1  C   UNL     1      29.827  27.914  13.967  1.00  0.00     0.000 C 
ENDROOT
BRANCH   1   2
ATOM      2  C   UNL     1      30.633  28.700  12.919  1.00  0.00     0.000 C 
BRANCH   2   3
ATOM      3  C   UNL     1      31.947  29.263  13.481  1.00  0.00     0.000 C 
BRANCH   3   4
ATOM      4  C   UNL     1      32.372  28.503  14.743  1.00  0.00     0.006 C 
BRANCH   4   5
ATOM      5  C   UNL     1      33.627  27.664  14.484  1.00  0.00     0.053 C 
BRANCH   5   6
ATOM      6  C   UNL     1      33.322  26.207  14.628  1.00  0.00     0.041 C 
ATOM      7  O   UNL     1      33.855  25.368  13.856  1.00  0.00    -0.550 OA
ATOM      8  O   UNL     1      32.409  25.778  15.584  1.00  0.00    -0.550 OA
ENDBRANCH   5   6
ENDBRANCH   4   5
ENDBRANCH   3   4
ENDBRANCH   2   3
ENDBRANCH   1   2
BRANCH   1   9
ATOM      9  C   UNL     1      28.630  28.712  14.511  1.00  0.00     0.000 C 
BRANCH   9  10
ATOM     10  C   UNL     1      28.443  30.060  13.794  1.00  0.00    -0.000 C 
BRANCH  10  11
ATOM     11  C   UNL     1      28.832  31.262  14.673  1.00  0.00    -0.000 C 
BRANCH  11  12
ATOM     12  C   UNL     1      29.557  30.827  15.965  1.00  0.00    -0.000 C 
BRANCH  12  13
ATOM     13  C   UNL     1      30.717  31.755  16.361  1.00  0.00    -0.003 C 
ATOM     14  C   UNL     1      31.152  32.685  15.231  1.00  0.00     0.004 C 
ENDBRANCH  12  13
ENDBRANCH  11  12
ENDBRANCH  10  11
ENDBRANCH   9  10
ENDBRANCH   1   9
TORSDOF 10
ENDMDL
MODEL 3
REMARK VINA RESULT:    -4.524      3.191      5.250
REMARK INTER + INTRA:          -8.636
REMARK INTER:                  -7.164
REMARK INTRA:                  -1.472
REMARK UNBOUND:                -1.467
REMARK SMILES CCCCCCCCCCCC(=O)[O-]
REMARK SMILES IDX 7 1 8 2 9 3 10 4 11 5 12 6 13 7 14 8 6 9 5 10 4 11 3 12 2 13
REMARK SMILES IDX 1 14
REMARK H PARENT
REMARK Flexibility Score: inf
ROOT
ATOM      1  C   UNL     1      29.431  30.895  15.931  1.00  0.00     0.000 C 
ENDROOT
BRANCH   1   2
ATOM      2  C   UNL     1      28.819  31.225  14.560  1.00  0.00     0.000 C 
BRANCH   2   3
ATOM      3  C   UNL     1      28.241  29.989  13.855  1.00  0.00     0.000 C 
BRANCH   3   4
ATOM      4  C   UNL     1      28.652  28.702  14.582  1.00  0.00     0.006 C 
BRANCH   4   5
ATOM      5  C   UNL     1      28.120  27.465  13.854  1.00  0.00     0.053 C 
BRANCH   5   6
ATOM      6  C   UNL     1      27.298  26.625  14.780  1.00  0.00     0.041 C 
ATOM      7  O   UNL     1      26.046  26.583  14.655  1.00  0.00    -0.550 OA
ATOM      8  O   UNL     1      27.911  25.926  15.814  1.00  0.00    -0.550 OA
ENDBRANCH   5   6
ENDBRANCH   4   5
ENDBRANCH   3   4
ENDBRANCH   2   3
ENDBRANCH   1   2
BRANCH   1   9
ATOM      9  C   UNL     1      30.754  31.640  16.181  1.00  0.00     0.000 C 
BRANCH   9  10
ATOM     10  C   UNL     1      31.848  31.255  15.171  1.00  0.00    -0.000 C 
BRANCH  10  11
ATOM     11  C   UNL     1      32.510  29.904  15.497  1.00  0.00    -0.000 C 
BRANCH  11  12
ATOM     12  C   UNL     1      32.329  28.879  14.357  1.00  0.00    -0.000 C 
BRANCH  12  13
ATOM     13  C   UNL     1      31.860  29.507  13.034  1.00  0.00    -0.003 C 
ATOM     14  C   UNL     1      31.348  28.476  12.030  1.00  0.00     0.004 C 
ENDBRANCH  12  13
ENDBRANCH  11  12
ENDBRANCH  10  11
ENDBRANCH   9  10
ENDBRANCH   1   9
TORSDOF 10
ENDMDL
MODEL 4
REMARK VINA RESULT:    -4.510      3.345      5.291
REMARK INTER + INTRA:          -8.614
REMARK INTER:                  -7.311
REMARK INTRA:                  -1.303
REMARK UNBOUND:                -1.467
REMARK SMILES CCCCCCCCCCCC(=O)[O-]
REMARK SMILES IDX 7 1 8 2 9 3 10 4 11 5 12 6 13 7 14 8 6 9 5 10 4 11 3 12 2 13
REMARK SMILES IDX 1 14
REMARK H PARENT
REMARK Flexibility Score: inf
ROOT
ATOM      1  C   UNL     1      29.928  31.901  14.948  1.00  0.00     0.000 C 
ENDROOT
BRANCH   1   2
ATOM      2  C   UNL     1      28.672  31.019  15.046  1.00  0.00     0.000 C 
BRANCH   2   3
ATOM      3  C   UNL     1      28.644  29.906  13.988  1.00  0.00     0.000 C 
BRANCH   3   4
ATOM      4  C   UNL     1      28.786  28.526  14.642  1.00  0.00     0.006 C 
BRANCH   4   5
ATOM      5  C   UNL     1      28.241  27.426  13.726  1.00  0.00     0.053 C 
BRANCH   5   6
ATOM      6  C   UNL     1      26.769  27.256  13.930  1.00  0.00     0.041 C 
ATOM      7  O   UNL     1      26.338  26.528  14.863  1.00  0.00    -0.550 OA
ATOM      8  O   UNL     1      25.871  27.861  13.058  1.00  0.00    -0.550 OA
ENDBRANCH   5   6
ENDBRANCH   4   5
ENDBRANCH   3   4
ENDBRANCH   2   3
ENDBRANCH   1   2
BRANCH   1   9
ATOM      9  C   UNL     1      30.783  31.853  16.227  1.00  0.00     0.000 C 
BRANCH   9  10
ATOM     10  C   UNL     1      31.426  30.475  16.456  1.00  0.00    -0.000 C 
BRANCH  10  11
ATOM     11  C   UNL     1      32.515  30.145  15.418  1.00  0.00    -0.000 C 
BRANCH  11  12
ATOM     12  C   UNL     1      32.417  28.689  14.915  1.00  0.00    -0.000 C 
BRANCH  12  13
ATOM     13  C   UNL     1      32.820  28.520  13.441  1.00  0.00    -0.003 C 
ATOM     14  C   UNL     1      31.776  29.066  12.468  1.00  0.00     0.004 C 
ENDBRANCH  12  13
ENDBRANCH  11  12
ENDBRANCH  10  11
ENDBRANCH   9  10
ENDBRANCH   1   9
TORSDOF 10
ENDMDL
MODEL 5
REMARK VINA RESULT:    -4.500      0.944      2.948
REMARK INTER + INTRA:          -8.597
REMARK INTER:                  -7.171
REMARK INTRA:                  -1.426
REMARK UNBOUND:                -1.467
REMARK SMILES CCCCCCCCCCCC(=O)[O-]
REMARK SMILES IDX 7 1 8 2 9 3 10 4 11 5 12 6 13 7 14 8 6 9 5 10 4 11 3 12 2 13
REMARK SMILES IDX 1 14
REMARK H PARENT
REMARK Flexibility Score: inf
ROOT
ATOM      1  C   UNL     1      31.938  31.127  15.142  1.00  0.00     0.000 C 
ENDROOT
BRANCH   1   2
ATOM      2  C   UNL     1      32.389  29.786  15.746  1.00  0.00     0.000 C 
BRANCH   2   3
ATOM      3  C   UNL     1      32.814  28.768  14.677  1.00  0.00     0.000 C 
BRANCH   3   4
ATOM      4  C   UNL     1      32.250  29.149  13.303  1.00  0.00     0.006 C 
BRANCH   4   5
ATOM      5  C   UNL     1      32.484  28.031  12.283  1.00  0.00     0.053 C 
BRANCH   5   6
ATOM      6  C   UNL     1      33.931  27.955  11.912  1.00  0.00     0.041 C 
ATOM      7  O   UNL     1      34.407  28.744  11.054  1.00  0.00    -0.550 OA
ATOM      8  O   UNL     1      34.744  26.979  12.477  1.00  0.00    -0.550 OA
ENDBRANCH   5   6
ENDBRANCH   4   5
ENDBRANCH   3   4
ENDBRANCH   2   3
ENDBRANCH   1   2
BRANCH   1   9
ATOM      9  C   UNL     1      30.865  31.826  15.995  1.00  0.00     0.000 C 
BRANCH   9  10
ATOM     10  C   UNL     1      29.493  31.137  15.900  1.00  0.00    -0.000 C 
BRANCH  10  11
ATOM     11  C   UNL     1      28.832  31.313  14.521  1.00  0.00    -0.000 C 
BRANCH  11  12
ATOM     12  C   UNL     1      28.483  29.959  13.867  1.00  0.00    -0.000 C 
BRANCH  12  13
ATOM     13  C   UNL     1      28.860  28.743  14.731  1.00  0.00    -0.003 C 
ATOM     14  C   UNL     1      29.088  27.474  13.911  1.00  0.00     0.004 C 
ENDBRANCH  12  13
ENDBRANCH  11  12
ENDBRANCH  10  11
ENDBRANCH   9  10
ENDBRANCH   1   9
TORSDOF 10
ENDMDL
MODEL 6
REMARK VINA RESULT:    -4.406      2.961      5.080
REMARK INTER + INTRA:          -8.449
REMARK INTER:                  -7.073
REMARK INTRA:                  -1.376
REMARK UNBOUND:                -1.467
REMARK SMILES CCCCCCCCCCCC(=O)[O-]
REMARK SMILES IDX 7 1 8 2 9 3 10 4 11 5 12 6 13 7 14 8 6 9 5 10 4 11 3 12 2 13
REMARK SMILES IDX 1 14
REMARK H PARENT
REMARK Flexibility Score: inf
ROOT
ATOM      1  C   UNL     1      30.292  31.184  16.624  1.00  0.00     0.000 C 
ENDROOT
BRANCH   1   2
ATOM      2  C   UNL     1      29.054  30.525  15.990  1.00  0.00     0.000 C 
BRANCH   2   3
ATOM      3  C   UNL     1      28.629  31.201  14.678  1.00  0.00     0.000 C 
BRANCH   3   4
ATOM      4  C   UNL     1      28.199  30.158  13.640  1.00  0.00     0.006 C 
BRANCH   4   5
ATOM      5  C   UNL     1      28.318  28.739  14.204  1.00  0.00     0.053 C 
BRANCH   5   6
ATOM      6  C   UNL     1      27.295  27.841  13.584  1.00  0.00     0.041 C 
ATOM      7  O   UNL     1      27.478  26.595  13.556  1.00  0.00    -0.550 OA
ATOM      8  O   UNL     1      26.161  28.383  12.991  1.00  0.00    -0.550 OA
ENDBRANCH   5   6
ENDBRANCH   4   5
ENDBRANCH   3   4
ENDBRANCH   2   3
ENDBRANCH   1   2
BRANCH   1   9
ATOM      9  C   UNL     1      31.022  32.124  15.650  1.00  0.00     0.000 C 
BRANCH   9  10
ATOM     10  C   UNL     1      32.120  31.407  14.847  1.00  0.00    -0.000 C 
BRANCH  10  11
ATOM     11  C   UNL     1      32.444  30.007  15.400  1.00  0.00    -0.000 C 
BRANCH  11  12
ATOM     12  C   UNL     1      32.129  28.892  14.379  1.00  0.00    -0.000 C 
BRANCH  12  13
ATOM     13  C   UNL     1      31.752  29.423  12.986  1.00  0.00    -0.003 C 
ATOM     14  C   UNL     1      31.304  28.321  12.027  1.00  0.00     0.004 C 
ENDBRANCH  12  13
ENDBRANCH  11  12
ENDBRANCH  10  11
ENDBRANCH   9  10
ENDBRANCH   1   9
TORSDOF 10
ENDMDL
MODEL 7
REMARK VINA RESULT:    -4.391      2.903      4.250
REMARK INTER + INTRA:          -8.425
REMARK INTER:                  -7.094
REMARK INTRA:                  -1.331
REMARK UNBOUND:                -1.467
REMARK SMILES CCCCCCCCCCCC(=O)[O-]
REMARK SMILES IDX 7 1 8 2 9 3 10 4 11 5 12 6 13 7 14 8 6 9 5 10 4 11 3 12 2 13
REMARK SMILES IDX 1 14
REMARK H PARENT
REMARK Flexibility Score: inf
ROOT
ATOM      1  C   UNL     1      30.229  28.062  13.461  1.00  0.00     0.000 C 
ENDROOT
BRANCH   1   2
ATOM      2  C   UNL     1      28.911  28.176  14.245  1.00  0.00     0.000 C 
BRANCH   2   3
ATOM      3  C   UNL     1      28.531  29.631  14.558  1.00  0.00     0.000 C 
BRANCH   3   4
ATOM      4  C   UNL     1      28.309  30.428  13.267  1.00  0.00     0.006 C 
BRANCH   4   5
ATOM      5  C   UNL     1      27.050  29.951  12.535  1.00  0.00     0.053 C 
BRANCH   5   6
ATOM      6  C   UNL     1      27.380  29.544  11.135  1.00  0.00     0.041 C 
ATOM      7  O   UNL     1      27.228  30.357  10.185  1.00  0.00    -0.550 OA
ATOM      8  O   UNL     1      27.810  28.248  10.870  1.00  0.00    -0.550 OA
ENDBRANCH   5   6
ENDBRANCH   4   5
ENDBRANCH   3   4
ENDBRANCH   2   3
ENDBRANCH   1   2
BRANCH   1   9
ATOM      9  C   UNL     1      31.455  27.938  14.382  1.00  0.00     0.000 C 
BRANCH   9  10
ATOM     10  C   UNL     1      32.429  29.119  14.233  1.00  0.00    -0.000 C 
BRANCH  10  11
ATOM     11  C   UNL     1      32.352  30.107  15.411  1.00  0.00    -0.000 C 
BRANCH  11  12
ATOM     12  C   UNL     1      31.753  31.467  14.991  1.00  0.00    -0.000 C 
BRANCH  12  13
ATOM     13  C   UNL     1      30.821  32.081  16.048  1.00  0.00    -0.003 C 
ATOM     14  C   UNL     1      30.554  31.146  17.226  1.00  0.00     0.004 C 
ENDBRANCH  12  13
ENDBRANCH  11  12
ENDBRANCH  10  11
ENDBRANCH   9  10
ENDBRANCH   1   9
TORSDOF 10
ENDMDL
MODEL 8
REMARK VINA RESULT:    -4.362      3.317      4.714
REMARK INTER + INTRA:          -8.379
REMARK INTER:                  -7.098
REMARK INTRA:                  -1.281
REMARK UNBOUND:                -1.467
REMARK SMILES CCCCCCCCCCCC(=O)[O-]
REMARK SMILES IDX 7 1 8 2 9 3 10 4 11 5 12 6 13 7 14 8 6 9 5 10 4 11 3 12 2 13
REMARK SMILES IDX 1 14
REMARK H PARENT
REMARK Flexibility Score: inf
ROOT
ATOM      1  C   UNL     1      32.163  28.793  13.362  1.00  0.00     0.000 C 
ENDROOT
BRANCH   1   2
ATOM      2  C   UNL     1      30.673  28.461  13.169  1.00  0.00     0.000 C 
BRANCH   2   3
ATOM      3  C   UNL     1      30.204  27.303  14.062  1.00  0.00     0.000 C 
BRANCH   3   4
ATOM      4  C   UNL     1      28.956  27.700  14.862  1.00  0.00     0.006 C 
BRANCH   4   5
ATOM      5  C   UNL     1      27.788  28.033  13.929  1.00  0.00     0.053 C 
BRANCH   5   6
ATOM      6  C   UNL     1      26.736  26.973  14.008  1.00  0.00     0.041 C 
ATOM      7  O   UNL     1      26.448  26.446  15.115  1.00  0.00    -0.550 OA
ATOM      8  O   UNL     1      26.105  26.531  12.851  1.00  0.00    -0.550 OA
ENDBRANCH   5   6
ENDBRANCH   4   5
ENDBRANCH   3   4
ENDBRANCH   2   3
ENDBRANCH   1   2
BRANCH   1   9
ATOM      9  C   UNL     1      32.572  28.829  14.844  1.00  0.00     0.000 C 
BRANCH   9  10
ATOM     10  C   UNL     1      32.463  30.237  15.453  1.00  0.00    -0.000 C 
BRANCH  10  11
ATOM     11  C   UNL     1      31.397  30.327  16.560  1.00  0.00    -0.000 C 
BRANCH  11  12
ATOM     12  C   UNL     1      30.684  31.697  16.570  1.00  0.00    -0.000 C 
BRANCH  12  13
ATOM     13  C   UNL     1      30.252  32.175  15.174  1.00  0.00    -0.003 C 
ATOM     14  C   UNL     1      29.042  31.418  14.630  1.00  0.00     0.004 C 
ENDBRANCH  12  13
ENDBRANCH  11  12
ENDBRANCH  10  11
ENDBRANCH   9  10
ENDBRANCH   1   9
TORSDOF 10
ENDMDL
MODEL 9
REMARK VINA RESULT:    -4.360      1.544      3.574
REMARK INTER + INTRA:          -8.376
REMARK INTER:                  -7.448
REMARK INTRA:                  -0.928
REMARK UNBOUND:                -1.467
REMARK SMILES CCCCCCCCCCCC(=O)[O-]
REMARK SMILES IDX 7 1 8 2 9 3 10 4 11 5 12 6 13 7 14 8 6 9 5 10 4 11 3 12 2 13
REMARK SMILES IDX 1 14
REMARK H PARENT
REMARK Flexibility Score: inf
ROOT
ATOM      1  C   UNL     1      29.494  30.927  15.878  1.00  0.00     0.000 C 
ENDROOT
BRANCH   1   2
ATOM      2  C   UNL     1      30.795  31.704  16.140  1.00  0.00     0.000 C 
BRANCH   2   3
ATOM      3  C   UNL     1      31.962  31.218  15.267  1.00  0.00     0.000 C 
BRANCH   3   4
ATOM      4  C   UNL     1      32.256  29.735  15.522  1.00  0.00     0.006 C 
BRANCH   4   5
ATOM      5  C   UNL     1      32.492  28.986  14.206  1.00  0.00     0.053 C 
BRANCH   5   6
ATOM      6  C   UNL     1      33.306  27.754  14.443  1.00  0.00     0.041 C 
ATOM      7  O   UNL     1      33.150  27.084  15.497  1.00  0.00    -0.550 OA
ATOM      8  O   UNL     1      34.273  27.372  13.521  1.00  0.00    -0.550 OA
ENDBRANCH   5   6
ENDBRANCH   4   5
ENDBRANCH   3   4
ENDBRANCH   2   3
ENDBRANCH   1   2
BRANCH   1   9
ATOM      9  C   UNL     1      28.785  31.382  14.591  1.00  0.00     0.000 C 
BRANCH   9  10
ATOM     10  C   UNL     1      28.094  30.221  13.855  1.00  0.00    -0.000 C 
BRANCH  10  11
ATOM     11  C   UNL     1      28.921  28.922  13.883  1.00  0.00    -0.000 C 
BRANCH  11  12
ATOM     12  C   UNL     1      28.068  27.699  14.282  1.00  0.00    -0.000 C 
BRANCH  12  13
ATOM     13  C   UNL     1      28.851  26.633  15.066  1.00  0.00    -0.003 C 
ATOM     14  C   UNL     1      27.959  25.772  15.960  1.00  0.00     0.004 C 
ENDBRANCH  12  13
ENDBRANCH  11  12
ENDBRANCH  10  11
ENDBRANCH   9  10
ENDBRANCH   1   9
TORSDOF 10
ENDMDL
