MODEL 1
REMARK VINA RESULT:    -1.450      0.000      0.000
REMARK INTER + INTRA:         -10.563
REMARK INTER:                  -3.825
REMARK INTRA:                  -6.738
REMARK UNBOUND:                -6.738
REMARK SMILES CCCCCCCCCCCCCCCCCCCCCCCCCCCCCC(=O)[O-]
REMARK SMILES IDX 16 1 17 2 18 3 19 4 20 5 21 6 22 7 23 8 24 9 25 10 26 11
REMARK SMILES IDX 27 12 28 13 29 14 30 15 31 16 32 17 15 18 14 19 13 20 12 21
REMARK SMILES IDX 11 22 10 23 9 24 8 25 7 26 6 27 5 28 4 29 3 30 2 31 1 32
REMARK H PARENT
REMARK Flexibility Score: inf
ROOT
ATOM      1  C   UNL     1      24.521  10.478  13.605  1.00  0.00     0.000 C 
ENDROOT
BRANCH   1   2
ATOM      2  C   UNL     1      23.225   9.648  13.579  1.00  0.00     0.000 C 
BRANCH   2   3
ATOM      3  C   UNL     1      22.564   9.603  12.189  1.00  0.00     0.000 C 
BRANCH   3   4
ATOM      4  C   UNL     1      23.532   9.436  11.003  1.00  0.00     0.000 C 
BRANCH   4   5
ATOM      5  C   UNL     1      23.285  10.454   9.875  1.00  0.00     0.000 C 
BRANCH   5   6
ATOM      6  C   UNL     1      22.552  11.716  10.361  1.00  0.00     0.000 C 
BRANCH   6   7
ATOM      7  C   UNL     1      23.320  13.036  10.154  1.00  0.00     0.000 C 
BRANCH   7   8
ATOM      8  C   UNL     1      23.049  14.092  11.247  1.00  0.00     0.000 C 
BRANCH   8   9
ATOM      9  C   UNL     1      23.374  13.565  12.657  1.00  0.00     0.000 C 
BRANCH   9  10
ATOM     10  C   UNL     1      22.402  14.112  13.724  1.00  0.00     0.000 C 
BRANCH  10  11
ATOM     11  C   UNL     1      21.319  13.105  14.149  1.00  0.00     0.000 C 
BRANCH  11  12
ATOM     12  C   UNL     1      20.072  13.158  13.255  1.00  0.00     0.000 C 
BRANCH  12  13
ATOM     13  C   UNL     1      19.711  11.761  12.729  1.00  0.00     0.006 C 
BRANCH  13  14
ATOM     14  C   UNL     1      19.014  11.817  11.362  1.00  0.00     0.053 C 
BRANCH  14  15
ATOM     15  C   UNL     1      17.870  12.785  11.362  1.00  0.00     0.041 C 
ATOM     16  O   UNL     1      17.912  13.817  10.643  1.00  0.00    -0.550 OA
ATOM     17  O   UNL     1      16.743  12.528  12.133  1.00  0.00    -0.550 OA
ENDBRANCH  14  15
ENDBRANCH  13  14
ENDBRANCH  12  13
ENDBRANCH  11  12
ENDBRANCH  10  11
ENDBRANCH   9  10
ENDBRANCH   8   9
ENDBRANCH   7   8
ENDBRANCH   6   7
ENDBRANCH   5   6
ENDBRANCH   4   5
ENDBRANCH   3   4
ENDBRANCH   2   3
ENDBRANCH   1   2
BRANCH   1  18
ATOM     18  C   UNL     1      25.695   9.717  14.241  1.00  0.00     0.000 C 
BRANCH  18  19
ATOM     19  C   UNL     1      26.306   8.665  13.302  1.00  0.00     0.000 C 
BRANCH  19  20
ATOM     20  C   UNL     1      27.473   9.260  12.502  1.00  0.00     0.000 C 
BRANCH  20  21
ATOM     21  C   UNL     1      27.354   9.003  10.990  1.00  0.00     0.000 C 
BRANCH  21  22
ATOM     22  C   UNL     1      27.651  10.225  10.098  1.00  0.00     0.000 C 
BRANCH  22  23
ATOM     23  C   UNL     1      26.617  11.368  10.184  1.00  0.00     0.000 C 
BRANCH  23  24
ATOM     24  C   UNL     1      27.164  12.703  10.723  1.00  0.00    -0.000 C 
BRANCH  24  25
ATOM     25  C   UNL     1      26.905  12.955  12.221  1.00  0.00    -0.000 C 
BRANCH  25  26
ATOM     26  C   UNL     1      28.173  12.870  13.098  1.00  0.00    -0.000 C 
BRANCH  26  27
ATOM     27  C   UNL     1      27.850  12.736  14.597  1.00  0.00    -0.000 C 
BRANCH  27  28
ATOM     28  C   UNL     1      26.459  13.286  14.949  1.00  0.00    -0.000 C 
BRANCH  28  29
ATOM     29  C   UNL     1      25.994  12.868  16.354  1.00  0.00    -0.000 C 
BRANCH  29  30
ATOM     30  C   UNL     1      24.475  13.010  16.547  1.00  0.00    -0.000 C 
BRANCH  30  31
ATOM     31  C   UNL     1      23.782  11.696  16.968  1.00  0.00    -0.003 C 
ATOM     32  C   UNL     1      22.366  11.926  17.495  1.00  0.00     0.004 C 
ENDBRANCH  30  31
ENDBRANCH  29  30
ENDBRANCH  28  29
ENDBRANCH  27  28
ENDBRANCH  26  27
ENDBRANCH  25  26
ENDBRANCH  24  25
ENDBRANCH  23  24
ENDBRANCH  22  23
ENDBRANCH  21  22
ENDBRANCH  20  21
ENDBRANCH  19  20
ENDBRANCH  18  19
ENDBRANCH   1  18
TORSDOF 28
ENDMDL
MODEL 2
REMARK VINA RESULT:    -1.447      1.974      3.480
REMARK INTER + INTRA:         -10.555
REMARK INTER:                  -3.827
REMARK INTRA:                  -6.728
REMARK UNBOUND:                -6.738
REMARK SMILES CCCCCCCCCCCCCCCCCCCCCCCCCCCCCC(=O)[O-]
REMARK SMILES IDX 16 1 17 2 18 3 19 4 20 5 21 6 22 7 23 8 24 9 25 10 26 11
REMARK SMILES IDX 27 12 28 13 29 14 30 15 31 16 32 17 15 18 14 19 13 20 12 21
REMARK SMILES IDX 11 22 10 23 9 24 8 25 7 26 6 27 5 28 4 29 3 30 2 31 1 32
REMARK H PARENT
REMARK Flexibility Score: inf
ROOT
ATOM      1  C   UNL     1      22.899  11.308  11.610  1.00  0.00     0.000 C 
ENDROOT
BRANCH   1   2
ATOM      2  C   UNL     1      22.463  10.677  10.275  1.00  0.00     0.000 C 
BRANCH   2   3
ATOM      3  C   UNL     1      21.287   9.694  10.427  1.00  0.00     0.000 C 
BRANCH   3   4
ATOM      4  C   UNL     1      21.665   8.202  10.394  1.00  0.00     0.000 C 
BRANCH   4   5
ATOM      5  C   UNL     1      21.484   7.504  11.753  1.00  0.00     0.000 C 
BRANCH   5   6
ATOM      6  C   UNL     1      22.803   7.367  12.533  1.00  0.00     0.000 C 
BRANCH   6   7
ATOM      7  C   UNL     1      22.837   8.098  13.889  1.00  0.00     0.000 C 
BRANCH   7   8
ATOM      8  C   UNL     1      21.559   8.911  14.191  1.00  0.00     0.000 C 
BRANCH   8   9
ATOM      9  C   UNL     1      21.858  10.184  15.003  1.00  0.00     0.000 C 
BRANCH   9  10
ATOM     10  C   UNL     1      20.804  11.287  14.771  1.00  0.00     0.000 C 
BRANCH  10  11
ATOM     11  C   UNL     1      19.811  10.966  13.639  1.00  0.00     0.000 C 
BRANCH  11  12
ATOM     12  C   UNL     1      18.346  11.127  14.068  1.00  0.00     0.000 C 
BRANCH  12  13
ATOM     13  C   UNL     1      17.452  10.086  13.378  1.00  0.00     0.006 C 
BRANCH  13  14
ATOM     14  C   UNL     1      18.226   9.244  12.353  1.00  0.00     0.053 C 
BRANCH  14  15
ATOM     15  C   UNL     1      17.696   9.435  10.965  1.00  0.00     0.041 C 
ATOM     16  O   UNL     1      17.735   8.488  10.135  1.00  0.00    -0.550 OA
ATOM     17  O   UNL     1      17.129  10.649  10.598  1.00  0.00    -0.550 OA
ENDBRANCH  14  15
ENDBRANCH  13  14
ENDBRANCH  12  13
ENDBRANCH  11  12
ENDBRANCH  10  11
ENDBRANCH   9  10
ENDBRANCH   8   9
ENDBRANCH   7   8
ENDBRANCH   6   7
ENDBRANCH   5   6
ENDBRANCH   4   5
ENDBRANCH   3   4
ENDBRANCH   2   3
ENDBRANCH   1   2
BRANCH   1  18
ATOM     18  C   UNL     1      24.326  10.906  12.013  1.00  0.00     0.000 C 
BRANCH  18  19
ATOM     19  C   UNL     1      25.012  10.006  10.973  1.00  0.00     0.000 C 
BRANCH  19  20
ATOM     20  C   UNL     1      26.005   9.050  11.647  1.00  0.00     0.000 C 
BRANCH  20  21
ATOM     21  C   UNL     1      27.468   9.344  11.270  1.00  0.00     0.000 C 
BRANCH  21  22
ATOM     22  C   UNL     1      28.314   9.976  12.393  1.00  0.00     0.000 C 
BRANCH  22  23
ATOM     23  C   UNL     1      28.031  11.468  12.668  1.00  0.00     0.000 C 
BRANCH  23  24
ATOM     24  C   UNL     1      27.261  11.756  13.972  1.00  0.00    -0.000 C 
BRANCH  24  25
ATOM     25  C   UNL     1      27.230  10.592  14.980  1.00  0.00    -0.000 C 
BRANCH  25  26
ATOM     26  C   UNL     1      25.829   9.972  15.176  1.00  0.00    -0.000 C 
BRANCH  26  27
ATOM     27  C   UNL     1      25.286  10.172  16.602  1.00  0.00    -0.000 C 
BRANCH  27  28
ATOM     28  C   UNL     1      25.307  11.646  17.037  1.00  0.00    -0.000 C 
BRANCH  28  29
ATOM     29  C   UNL     1      23.902  12.194  17.339  1.00  0.00    -0.000 C 
BRANCH  29  30
ATOM     30  C   UNL     1      23.526  13.394  16.453  1.00  0.00    -0.000 C 
BRANCH  30  31
ATOM     31  C   UNL     1      24.015  13.259  14.995  1.00  0.00    -0.003 C 
ATOM     32  C   UNL     1      23.203  14.120  14.027  1.00  0.00     0.004 C 
ENDBRANCH  30  31
ENDBRANCH  29  30
ENDBRANCH  28  29
ENDBRANCH  27  28
ENDBRANCH  26  27
ENDBRANCH  25  26
ENDBRANCH  24  25
ENDBRANCH  23  24
ENDBRANCH  22  23
ENDBRANCH  21  22
ENDBRANCH  20  21
ENDBRANCH  19  20
ENDBRANCH  18  19
ENDBRANCH   1  18
TORSDOF 28
ENDMDL
MODEL 3
REMARK VINA RESULT:    -1.413      2.840      5.322
REMARK INTER + INTRA:         -10.464
REMARK INTER:                  -3.710
REMARK INTRA:                  -6.755
REMARK UNBOUND:                -6.738
REMARK SMILES CCCCCCCCCCCCCCCCCCCCCCCCCCCCCC(=O)[O-]
REMARK SMILES IDX 16 1 17 2 18 3 19 4 20 5 21 6 22 7 23 8 24 9 25 10 26 11
REMARK SMILES IDX 27 12 28 13 29 14 30 15 31 16 32 17 15 18 14 19 13 20 12 21
REMARK SMILES IDX 11 22 10 23 9 24 8 25 7 26 6 27 5 28 4 29 3 30 2 31 1 32
REMARK H PARENT
REMARK Flexibility Score: inf
ROOT
ATOM      1  C   UNL     1      23.845  10.495  15.194  1.00  0.00     0.000 C 
ENDROOT
BRANCH   1   2
ATOM      2  C   UNL     1      22.449  11.145  15.186  1.00  0.00     0.000 C 
BRANCH   2   3
ATOM      3  C   UNL     1      22.101  11.809  13.841  1.00  0.00     0.000 C 
BRANCH   3   4
ATOM      4  C   UNL     1      20.722  11.442  13.260  1.00  0.00     0.000 C 
BRANCH   4   5
ATOM      5  C   UNL     1      20.580  11.799  11.770  1.00  0.00     0.000 C 
BRANCH   5   6
ATOM      6  C   UNL     1      20.978  13.253  11.465  1.00  0.00     0.000 C 
BRANCH   6   7
ATOM      7  C   UNL     1      22.012  13.423  10.335  1.00  0.00     0.000 C 
BRANCH   7   8
ATOM      8  C   UNL     1      23.390  13.921  10.821  1.00  0.00     0.000 C 
BRANCH   8   9
ATOM      9  C   UNL     1      23.272  15.142  11.751  1.00  0.00     0.000 C 
BRANCH   9  10
ATOM     10  C   UNL     1      24.325  15.123  12.879  1.00  0.00     0.000 C 
BRANCH  10  11
ATOM     11  C   UNL     1      25.528  14.209  12.587  1.00  0.00     0.000 C 
BRANCH  11  12
ATOM     12  C   UNL     1      25.653  13.050  13.585  1.00  0.00     0.000 C 
BRANCH  12  13
ATOM     13  C   UNL     1      26.857  13.252  14.517  1.00  0.00     0.006 C 
BRANCH  13  14
ATOM     14  C   UNL     1      26.501  12.998  15.989  1.00  0.00     0.053 C 
BRANCH  14  15
ATOM     15  C   UNL     1      25.476  13.970  16.487  1.00  0.00     0.041 C 
ATOM     16  O   UNL     1      24.368  13.558  16.921  1.00  0.00    -0.550 OA
ATOM     17  O   UNL     1      25.758  15.330  16.504  1.00  0.00    -0.550 OA
ENDBRANCH  14  15
ENDBRANCH  13  14
ENDBRANCH  12  13
ENDBRANCH  11  12
ENDBRANCH  10  11
ENDBRANCH   9  10
ENDBRANCH   8   9
ENDBRANCH   7   8
ENDBRANCH   6   7
ENDBRANCH   5   6
ENDBRANCH   4   5
ENDBRANCH   3   4
ENDBRANCH   2   3
ENDBRANCH   1   2
BRANCH   1  18
ATOM     18  C   UNL     1      24.254   9.999  16.589  1.00  0.00     0.000 C 
BRANCH  18  19
ATOM     19  C   UNL     1      24.281   8.466  16.696  1.00  0.00     0.000 C 
BRANCH  19  20
ATOM     20  C   UNL     1      25.652   7.976  17.181  1.00  0.00     0.000 C 
BRANCH  20  21
ATOM     21  C   UNL     1      26.712   7.967  16.066  1.00  0.00     0.000 C 
BRANCH  21  22
ATOM     22  C   UNL     1      26.224   7.421  14.709  1.00  0.00     0.000 C 
BRANCH  22  23
ATOM     23  C   UNL     1      26.433   8.367  13.507  1.00  0.00     0.000 C 
BRANCH  23  24
ATOM     24  C   UNL     1      27.245   9.640  13.812  1.00  0.00    -0.000 C 
BRANCH  24  25
ATOM     25  C   UNL     1      28.183  10.101  12.681  1.00  0.00    -0.000 C 
BRANCH  25  26
ATOM     26  C   UNL     1      27.956   9.367  11.341  1.00  0.00    -0.000 C 
BRANCH  26  27
ATOM     27  C   UNL     1      27.660  10.332  10.180  1.00  0.00    -0.000 C 
BRANCH  27  28
ATOM     28  C   UNL     1      26.498  11.288  10.492  1.00  0.00    -0.000 C 
BRANCH  28  29
ATOM     29  C   UNL     1      25.125  10.687  10.145  1.00  0.00    -0.000 C 
BRANCH  29  30
ATOM     30  C   UNL     1      24.284  10.362  11.391  1.00  0.00    -0.000 C 
BRANCH  30  31
ATOM     31  C   UNL     1      23.146   9.355  11.119  1.00  0.00    -0.003 C 
ATOM     32  C   UNL     1      22.956   8.366  12.269  1.00  0.00     0.004 C 
ENDBRANCH  30  31
ENDBRANCH  29  30
ENDBRANCH  28  29
ENDBRANCH  27  28
ENDBRANCH  26  27
ENDBRANCH  25  26
ENDBRANCH  24  25
ENDBRANCH  23  24
ENDBRANCH  22  23
ENDBRANCH  21  22
ENDBRANCH  20  21
ENDBRANCH  19  20
ENDBRANCH  18  19
ENDBRANCH   1  18
TORSDOF 28
ENDMDL
MODEL 4
REMARK VINA RESULT:    -1.412     17.979     22.305
REMARK INTER + INTRA:         -10.460
REMARK INTER:                  -4.227
REMARK INTRA:                  -6.233
REMARK UNBOUND:                -6.738
REMARK SMILES CCCCCCCCCCCCCCCCCCCCCCCCCCCCCC(=O)[O-]
REMARK SMILES IDX 16 1 17 2 18 3 19 4 20 5 21 6 22 7 23 8 24 9 25 10 26 11
REMARK SMILES IDX 27 12 28 13 29 14 30 15 31 16 32 17 15 18 14 19 13 20 12 21
REMARK SMILES IDX 11 22 10 23 9 24 8 25 7 26 6 27 5 28 4 29 3 30 2 31 1 32
REMARK H PARENT
REMARK Flexibility Score: inf
ROOT
ATOM      1  C   UNL     1      11.664  23.255  26.747  1.00  0.00     0.000 C 
ENDROOT
BRANCH   1   2
ATOM      2  C   UNL     1      12.110  24.465  25.907  1.00  0.00     0.000 C 
BRANCH   2   3
ATOM      3  C   UNL     1      11.397  25.771  26.303  1.00  0.00     0.000 C 
BRANCH   3   4
ATOM      4  C   UNL     1      10.033  25.595  26.996  1.00  0.00     0.000 C 
BRANCH   4   5
ATOM      5  C   UNL     1      10.052  26.004  28.480  1.00  0.00     0.000 C 
BRANCH   5   6
ATOM      6  C   UNL     1      11.432  26.500  28.944  1.00  0.00     0.000 C 
BRANCH   6   7
ATOM      7  C   UNL     1      12.092  25.653  30.049  1.00  0.00     0.000 C 
BRANCH   7   8
ATOM      8  C   UNL     1      13.611  25.455  29.860  1.00  0.00     0.000 C 
BRANCH   8   9
ATOM      9  C   UNL     1      14.149  26.218  28.636  1.00  0.00     0.000 C 
BRANCH   9  10
ATOM     10  C   UNL     1      15.307  25.470  27.943  1.00  0.00     0.000 C 
BRANCH  10  11
ATOM     11  C   UNL     1      16.687  25.757  28.561  1.00  0.00     0.000 C 
BRANCH  11  12
ATOM     12  C   UNL     1      17.078  24.742  29.643  1.00  0.00     0.000 C 
BRANCH  12  13
ATOM     13  C   UNL     1      16.885  23.302  29.144  1.00  0.00     0.006 C 
BRANCH  13  14
ATOM     14  C   UNL     1      16.019  22.468  30.100  1.00  0.00     0.053 C 
BRANCH  14  15
ATOM     15  C   UNL     1      15.999  21.022  29.711  1.00  0.00     0.041 C 
ATOM     16  O   UNL     1      16.958  20.525  29.064  1.00  0.00    -0.550 OA
ATOM     17  O   UNL     1      14.934  20.215  30.091  1.00  0.00    -0.550 OA
ENDBRANCH  14  15
ENDBRANCH  13  14
ENDBRANCH  12  13
ENDBRANCH  11  12
ENDBRANCH  10  11
ENDBRANCH   9  10
ENDBRANCH   8   9
ENDBRANCH   7   8
ENDBRANCH   6   7
ENDBRANCH   5   6
ENDBRANCH   4   5
ENDBRANCH   3   4
ENDBRANCH   2   3
ENDBRANCH   1   2
BRANCH   1  18
ATOM     18  C   UNL     1      12.802  22.685  27.609  1.00  0.00     0.000 C 
BRANCH  18  19
ATOM     19  C   UNL     1      12.316  22.151  28.965  1.00  0.00     0.000 C 
BRANCH  19  20
ATOM     20  C   UNL     1      10.795  22.305  29.101  1.00  0.00     0.000 C 
BRANCH  20  21
ATOM     21  C   UNL     1      10.094  20.994  29.495  1.00  0.00     0.000 C 
BRANCH  21  22
ATOM     22  C   UNL     1      10.967  19.728  29.377  1.00  0.00     0.000 C 
BRANCH  22  23
ATOM     23  C   UNL     1      10.513  18.714  28.307  1.00  0.00     0.000 C 
BRANCH  23  24
ATOM     24  C   UNL     1      10.346  19.293  26.889  1.00  0.00    -0.000 C 
BRANCH  24  25
ATOM     25  C   UNL     1      11.653  19.438  26.087  1.00  0.00    -0.000 C 
BRANCH  25  26
ATOM     26  C   UNL     1      11.465  19.320  24.558  1.00  0.00    -0.000 C 
BRANCH  26  27
ATOM     27  C   UNL     1      11.424  20.690  23.858  1.00  0.00    -0.000 C 
BRANCH  27  28
ATOM     28  C   UNL     1      12.771  21.426  23.928  1.00  0.00    -0.000 C 
BRANCH  28  29
ATOM     29  C   UNL     1      13.903  20.660  23.222  1.00  0.00    -0.000 C 
BRANCH  29  30
ATOM     30  C   UNL     1      15.300  21.182  23.596  1.00  0.00    -0.000 C 
BRANCH  30  31
ATOM     31  C   UNL     1      15.272  22.349  24.605  1.00  0.00    -0.003 C 
ATOM     32  C   UNL     1      15.977  22.003  25.916  1.00  0.00     0.004 C 
ENDBRANCH  30  31
ENDBRANCH  29  30
ENDBRANCH  28  29
ENDBRANCH  27  28
ENDBRANCH  26  27
ENDBRANCH  25  26
ENDBRANCH  24  25
ENDBRANCH  23  24
ENDBRANCH  22  23
ENDBRANCH  21  22
ENDBRANCH  20  21
ENDBRANCH  19  20
ENDBRANCH  18  19
ENDBRANCH   1  18
TORSDOF 28
ENDMDL
MODEL 5
REMARK VINA RESULT:    -1.396      2.267      3.995
REMARK INTER + INTRA:         -10.418
REMARK INTER:                  -3.536
REMARK INTRA:                  -6.882
REMARK UNBOUND:                -6.738
REMARK SMILES CCCCCCCCCCCCCCCCCCCCCCCCCCCCCC(=O)[O-]
REMARK SMILES IDX 16 1 17 2 18 3 19 4 20 5 21 6 22 7 23 8 24 9 25 10 26 11
REMARK SMILES IDX 27 12 28 13 29 14 30 15 31 16 32 17 15 18 14 19 13 20 12 21
REMARK SMILES IDX 11 22 10 23 9 24 8 25 7 26 6 27 5 28 4 29 3 30 2 31 1 32
REMARK H PARENT
REMARK Flexibility Score: inf
ROOT
ATOM      1  C   UNL     1      22.309  13.213  13.671  1.00  0.00     0.000 C 
ENDROOT
BRANCH   1   2
ATOM      2  C   UNL     1      21.877  11.745  13.509  1.00  0.00     0.000 C 
BRANCH   2   3
ATOM      3  C   UNL     1      20.591  11.582  12.677  1.00  0.00     0.000 C 
BRANCH   3   4
ATOM      4  C   UNL     1      20.656  10.521  11.563  1.00  0.00     0.000 C 
BRANCH   4   5
ATOM      5  C   UNL     1      21.852  10.715  10.615  1.00  0.00     0.000 C 
BRANCH   5   6
ATOM      6  C   UNL     1      22.695   9.438  10.448  1.00  0.00     0.000 C 
BRANCH   6   7
ATOM      7  C   UNL     1      22.740   8.522  11.686  1.00  0.00     0.000 C 
BRANCH   7   8
ATOM      8  C   UNL     1      24.046   8.638  12.500  1.00  0.00     0.000 C 
BRANCH   8   9
ATOM      9  C   UNL     1      23.783   8.707  14.015  1.00  0.00     0.000 C 
BRANCH   9  10
ATOM     10  C   UNL     1      22.564   7.859  14.436  1.00  0.00     0.000 C 
BRANCH  10  11
ATOM     11  C   UNL     1      21.619   8.577  15.416  1.00  0.00     0.000 C 
BRANCH  11  12
ATOM     12  C   UNL     1      20.175   8.655  14.903  1.00  0.00     0.000 C 
BRANCH  12  13
ATOM     13  C   UNL     1      19.358   9.679  15.706  1.00  0.00     0.006 C 
BRANCH  13  14
ATOM     14  C   UNL     1      20.203  10.383  16.777  1.00  0.00     0.053 C 
BRANCH  14  15
ATOM     15  C   UNL     1      20.057  11.872  16.708  1.00  0.00     0.041 C 
ATOM     16  O   UNL     1      19.282  12.396  15.865  1.00  0.00    -0.550 OA
ATOM     17  O   UNL     1      20.754  12.681  17.596  1.00  0.00    -0.550 OA
ENDBRANCH  14  15
ENDBRANCH  13  14
ENDBRANCH  12  13
ENDBRANCH  11  12
ENDBRANCH  10  11
ENDBRANCH   9  10
ENDBRANCH   8   9
ENDBRANCH   7   8
ENDBRANCH   6   7
ENDBRANCH   5   6
ENDBRANCH   4   5
ENDBRANCH   3   4
ENDBRANCH   2   3
ENDBRANCH   1   2
BRANCH   1  18
ATOM     18  C   UNL     1      23.654  13.509  12.989  1.00  0.00     0.000 C 
BRANCH  18  19
ATOM     19  C   UNL     1      24.491  12.244  12.740  1.00  0.00     0.000 C 
BRANCH  19  20
ATOM     20  C   UNL     1      25.855  12.602  12.136  1.00  0.00     0.000 C 
BRANCH  20  21
ATOM     21  C   UNL     1      25.938  12.307  10.628  1.00  0.00     0.000 C 
BRANCH  21  22
ATOM     22  C   UNL     1      25.992  10.811  10.260  1.00  0.00     0.000 C 
BRANCH  22  23
ATOM     23  C   UNL     1      27.410  10.219  10.122  1.00  0.00     0.000 C 
BRANCH  23  24
ATOM     24  C   UNL     1      27.704   9.012  11.033  1.00  0.00    -0.000 C 
BRANCH  24  25
ATOM     25  C   UNL     1      27.537   9.277  12.540  1.00  0.00    -0.000 C 
BRANCH  25  26
ATOM     26  C   UNL     1      28.547  10.297  13.112  1.00  0.00    -0.000 C 
BRANCH  26  27
ATOM     27  C   UNL     1      28.144  10.813  14.505  1.00  0.00    -0.000 C 
BRANCH  27  28
ATOM     28  C   UNL     1      27.057   9.947  15.161  1.00  0.00    -0.000 C 
BRANCH  28  29
ATOM     29  C   UNL     1      26.544  10.541  16.484  1.00  0.00    -0.000 C 
BRANCH  29  30
ATOM     30  C   UNL     1      25.516   9.637  17.185  1.00  0.00    -0.000 C 
BRANCH  30  31
ATOM     31  C   UNL     1      24.150  10.320  17.412  1.00  0.00    -0.003 C 
ATOM     32  C   UNL     1      23.961  11.552  16.528  1.00  0.00     0.004 C 
ENDBRANCH  30  31
ENDBRANCH  29  30
ENDBRANCH  28  29
ENDBRANCH  27  28
ENDBRANCH  26  27
ENDBRANCH  25  26
ENDBRANCH  24  25
ENDBRANCH  23  24
ENDBRANCH  22  23
ENDBRANCH  21  22
ENDBRANCH  20  21
ENDBRANCH  19  20
ENDBRANCH  18  19
ENDBRANCH   1  18
TORSDOF 28
ENDMDL
MODEL 6
REMARK VINA RESULT:    -1.387      3.394      6.535
REMARK INTER + INTRA:         -10.396
REMARK INTER:                  -3.876
REMARK INTRA:                  -6.520
REMARK UNBOUND:                -6.738
REMARK SMILES CCCCCCCCCCCCCCCCCCCCCCCCCCCCCC(=O)[O-]
REMARK SMILES IDX 16 1 17 2 18 3 19 4 20 5 21 6 22 7 23 8 24 9 25 10 26 11
REMARK SMILES IDX 27 12 28 13 29 14 30 15 31 16 32 17 15 18 14 19 13 20 12 21
REMARK SMILES IDX 11 22 10 23 9 24 8 25 7 26 6 27 5 28 4 29 3 30 2 31 1 32
REMARK H PARENT
REMARK Flexibility Score: inf
ROOT
ATOM      1  C   UNL     1      25.655  12.828  13.349  1.00  0.00     0.000 C 
ENDROOT
BRANCH   1   2
ATOM      2  C   UNL     1      26.809  12.086  14.046  1.00  0.00     0.000 C 
BRANCH   2   3
ATOM      3  C   UNL     1      27.170  12.683  15.419  1.00  0.00     0.000 C 
BRANCH   3   4
ATOM      4  C   UNL     1      27.898  11.729  16.384  1.00  0.00     0.000 C 
BRANCH   4   5
ATOM      5  C   UNL     1      28.079  10.313  15.809  1.00  0.00     0.000 C 
BRANCH   5   6
ATOM      6  C   UNL     1      28.115   9.228  16.898  1.00  0.00     0.000 C 
BRANCH   6   7
ATOM      7  C   UNL     1      26.875   8.314  16.949  1.00  0.00     0.000 C 
BRANCH   7   8
ATOM      8  C   UNL     1      26.471   7.735  15.575  1.00  0.00     0.000 C 
BRANCH   8   9
ATOM      9  C   UNL     1      24.965   7.886  15.301  1.00  0.00     0.000 C 
BRANCH   9  10
ATOM     10  C   UNL     1      24.305   8.936  16.219  1.00  0.00     0.000 C 
BRANCH  10  11
ATOM     11  C   UNL     1      23.959  10.254  15.504  1.00  0.00     0.000 C 
BRANCH  11  12
ATOM     12  C   UNL     1      23.904  11.454  16.459  1.00  0.00     0.000 C 
BRANCH  12  13
ATOM     13  C   UNL     1      24.564  11.120  17.804  1.00  0.00     0.006 C 
BRANCH  13  14
ATOM     14  C   UNL     1      23.983  11.948  18.958  1.00  0.00     0.053 C 
BRANCH  14  15
ATOM     15  C   UNL     1      24.991  12.906  19.516  1.00  0.00     0.041 C 
ATOM     16  O   UNL     1      25.084  13.078  20.760  1.00  0.00    -0.550 OA
ATOM     17  O   UNL     1      25.850  13.586  18.662  1.00  0.00    -0.550 OA
ENDBRANCH  14  15
ENDBRANCH  13  14
ENDBRANCH  12  13
ENDBRANCH  11  12
ENDBRANCH  10  11
ENDBRANCH   9  10
ENDBRANCH   8   9
ENDBRANCH   7   8
ENDBRANCH   6   7
ENDBRANCH   5   6
ENDBRANCH   4   5
ENDBRANCH   3   4
ENDBRANCH   2   3
ENDBRANCH   1   2
BRANCH   1  18
ATOM     18  C   UNL     1      25.964  13.149  11.879  1.00  0.00     0.000 C 
BRANCH  18  19
ATOM     19  C   UNL     1      27.426  13.562  11.650  1.00  0.00     0.000 C 
BRANCH  19  20
ATOM     20  C   UNL     1      28.050  12.753  10.506  1.00  0.00     0.000 C 
BRANCH  20  21
ATOM     21  C   UNL     1      27.078  11.725   9.900  1.00  0.00     0.000 C 
BRANCH  21  22
ATOM     22  C   UNL     1      27.548  10.258   9.984  1.00  0.00     0.000 C 
BRANCH  22  23
ATOM     23  C   UNL     1      28.179   9.846  11.330  1.00  0.00     0.000 C 
BRANCH  23  24
ATOM     24  C   UNL     1      27.202   9.224  12.345  1.00  0.00    -0.000 C 
BRANCH  24  25
ATOM     25  C   UNL     1      25.892   8.685  11.742  1.00  0.00    -0.000 C 
BRANCH  25  26
ATOM     26  C   UNL     1      24.678   9.619  11.943  1.00  0.00    -0.000 C 
BRANCH  26  27
ATOM     27  C   UNL     1      23.864   9.821  10.653  1.00  0.00    -0.000 C 
BRANCH  27  28
ATOM     28  C   UNL     1      23.165  11.189  10.607  1.00  0.00    -0.000 C 
BRANCH  28  29
ATOM     29  C   UNL     1      21.870  11.221  11.436  1.00  0.00    -0.000 C 
BRANCH  29  30
ATOM     30  C   UNL     1      22.042  11.938  12.786  1.00  0.00    -0.000 C 
BRANCH  30  31
ATOM     31  C   UNL     1      20.915  11.631  13.794  1.00  0.00    -0.003 C 
ATOM     32  C   UNL     1      20.777  12.716  14.862  1.00  0.00     0.004 C 
ENDBRANCH  30  31
ENDBRANCH  29  30
ENDBRANCH  28  29
ENDBRANCH  27  28
ENDBRANCH  26  27
ENDBRANCH  25  26
ENDBRANCH  24  25
ENDBRANCH  23  24
ENDBRANCH  22  23
ENDBRANCH  21  22
ENDBRANCH  20  21
ENDBRANCH  19  20
ENDBRANCH  18  19
ENDBRANCH   1  18
TORSDOF 28
ENDMDL
MODEL 7
REMARK VINA RESULT:    -1.334      3.502      7.363
REMARK INTER + INTRA:         -10.255
REMARK INTER:                  -4.471
REMARK INTRA:                  -5.784
REMARK UNBOUND:                -6.738
REMARK SMILES CCCCCCCCCCCCCCCCCCCCCCCCCCCCCC(=O)[O-]
REMARK SMILES IDX 16 1 17 2 18 3 19 4 20 5 21 6 22 7 23 8 24 9 25 10 26 11
REMARK SMILES IDX 27 12 28 13 29 14 30 15 31 16 32 17 15 18 14 19 13 20 12 21
REMARK SMILES IDX 11 22 10 23 9 24 8 25 7 26 6 27 5 28 4 29 3 30 2 31 1 32
REMARK H PARENT
REMARK Flexibility Score: inf
ROOT
ATOM      1  C   UNL     1      21.021  13.504  13.958  1.00  0.00     0.000 C 
ENDROOT
BRANCH   1   2
ATOM      2  C   UNL     1      22.268  13.335  14.843  1.00  0.00     0.000 C 
BRANCH   2   3
ATOM      3  C   UNL     1      22.946  11.962  14.677  1.00  0.00     0.000 C 
BRANCH   3   4
ATOM      4  C   UNL     1      24.482  11.991  14.580  1.00  0.00     0.000 C 
BRANCH   4   5
ATOM      5  C   UNL     1      25.040  13.392  14.272  1.00  0.00     0.000 C 
BRANCH   5   6
ATOM      6  C   UNL     1      26.149  13.371  13.206  1.00  0.00     0.000 C 
BRANCH   6   7
ATOM      7  C   UNL     1      25.738  13.923  11.828  1.00  0.00     0.000 C 
BRANCH   7   8
ATOM      8  C   UNL     1      26.896  13.975  10.807  1.00  0.00     0.000 C 
BRANCH   8   9
ATOM      9  C   UNL     1      26.920  12.737   9.893  1.00  0.00     0.000 C 
BRANCH   9  10
ATOM     10  C   UNL     1      28.008  11.724  10.308  1.00  0.00     0.000 C 
BRANCH  10  11
ATOM     11  C   UNL     1      27.559  10.256  10.203  1.00  0.00     0.000 C 
BRANCH  11  12
ATOM     12  C   UNL     1      27.894   9.438  11.458  1.00  0.00     0.000 C 
BRANCH  12  13
ATOM     13  C   UNL     1      28.151  10.357  12.662  1.00  0.00     0.006 C 
BRANCH  13  14
ATOM     14  C   UNL     1      27.421   9.877  13.924  1.00  0.00     0.053 C 
BRANCH  14  15
ATOM     15  C   UNL     1      28.112  10.334  15.172  1.00  0.00     0.041 C 
ATOM     16  O   UNL     1      28.727   9.507  15.896  1.00  0.00    -0.550 OA
ATOM     17  O   UNL     1      28.104  11.679  15.519  1.00  0.00    -0.550 OA
ENDBRANCH  14  15
ENDBRANCH  13  14
ENDBRANCH  12  13
ENDBRANCH  11  12
ENDBRANCH  10  11
ENDBRANCH   9  10
ENDBRANCH   8   9
ENDBRANCH   7   8
ENDBRANCH   6   7
ENDBRANCH   5   6
ENDBRANCH   4   5
ENDBRANCH   3   4
ENDBRANCH   2   3
ENDBRANCH   1   2
BRANCH   1  18
ATOM     18  C   UNL     1      21.192  12.862  12.572  1.00  0.00     0.000 C 
BRANCH  18  19
ATOM     19  C   UNL     1      22.207  13.604  11.689  1.00  0.00     0.000 C 
BRANCH  19  20
ATOM     20  C   UNL     1      22.412  12.871  10.357  1.00  0.00     0.000 C 
BRANCH  20  21
ATOM     21  C   UNL     1      22.627  11.358  10.534  1.00  0.00     0.000 C 
BRANCH  21  22
ATOM     22  C   UNL     1      23.984  10.961  11.151  1.00  0.00     0.000 C 
BRANCH  22  23
ATOM     23  C   UNL     1      24.136   9.466  11.498  1.00  0.00     0.000 C 
BRANCH  23  24
ATOM     24  C   UNL     1      23.213   8.960  12.624  1.00  0.00    -0.000 C 
BRANCH  24  25
ATOM     25  C   UNL     1      22.790   7.484  12.506  1.00  0.00    -0.000 C 
BRANCH  25  26
ATOM     26  C   UNL     1      21.358   7.286  11.961  1.00  0.00    -0.000 C 
BRANCH  26  27
ATOM     27  C   UNL     1      21.256   7.551  10.449  1.00  0.00    -0.000 C 
BRANCH  27  28
ATOM     28  C   UNL     1      20.207   8.622  10.109  1.00  0.00    -0.000 C 
BRANCH  28  29
ATOM     29  C   UNL     1      19.731   9.399  11.348  1.00  0.00    -0.000 C 
BRANCH  29  30
ATOM     30  C   UNL     1      18.719  10.507  11.005  1.00  0.00    -0.000 C 
BRANCH  30  31
ATOM     31  C   UNL     1      17.300  10.233  11.547  1.00  0.00    -0.003 C 
ATOM     32  C   UNL     1      17.161   8.828  12.133  1.00  0.00     0.004 C 
ENDBRANCH  30  31
ENDBRANCH  29  30
ENDBRANCH  28  29
ENDBRANCH  27  28
ENDBRANCH  26  27
ENDBRANCH  25  26
ENDBRANCH  24  25
ENDBRANCH  23  24
ENDBRANCH  22  23
ENDBRANCH  21  22
ENDBRANCH  20  21
ENDBRANCH  19  20
ENDBRANCH  18  19
ENDBRANCH   1  18
TORSDOF 28
ENDMDL
MODEL 8
REMARK VINA RESULT:     0.046      2.217      4.894
REMARK INTER + INTRA:          -6.617
REMARK INTER:                  -0.151
REMARK INTRA:                  -6.466
REMARK UNBOUND:                -6.738
REMARK SMILES CCCCCCCCCCCCCCCCCCCCCCCCCCCCCC(=O)[O-]
REMARK SMILES IDX 16 1 17 2 18 3 19 4 20 5 21 6 22 7 23 8 24 9 25 10 26 11
REMARK SMILES IDX 27 12 28 13 29 14 30 15 31 16 32 17 15 18 14 19 13 20 12 21
REMARK SMILES IDX 11 22 10 23 9 24 8 25 7 26 6 27 5 28 4 29 3 30 2 31 1 32
REMARK H PARENT
REMARK Flexibility Score: inf
ROOT
ATOM      1  C   UNL     1      24.349  11.960  13.456  1.00  0.00     0.000 C 
ENDROOT
BRANCH   1   2
ATOM      2  C   UNL     1      24.486  12.886  12.234  1.00  0.00     0.000 C 
BRANCH   2   3
ATOM      3  C   UNL     1      24.304  12.149  10.894  1.00  0.00     0.000 C 
BRANCH   3   4
ATOM      4  C   UNL     1      25.443  12.340   9.875  1.00  0.00     0.000 C 
BRANCH   4   5
ATOM      5  C   UNL     1      26.692  13.002  10.484  1.00  0.00     0.000 C 
BRANCH   5   6
ATOM      6  C   UNL     1      27.874  12.028  10.623  1.00  0.00     0.000 C 
BRANCH   6   7
ATOM      7  C   UNL     1      27.634  10.623  10.039  1.00  0.00     0.000 C 
BRANCH   7   8
ATOM      8  C   UNL     1      27.613   9.502  11.101  1.00  0.00     0.000 C 
BRANCH   8   9
ATOM      9  C   UNL     1      26.180   9.123  11.518  1.00  0.00     0.000 C 
BRANCH   9  10
ATOM     10  C   UNL     1      26.142   8.374  12.867  1.00  0.00     0.000 C 
BRANCH  10  11
ATOM     11  C   UNL     1      24.752   7.821  13.228  1.00  0.00     0.000 C 
BRANCH  11  12
ATOM     12  C   UNL     1      23.630   8.418  12.368  1.00  0.00     0.000 C 
BRANCH  12  13
ATOM     13  C   UNL     1      22.399   8.753  13.222  1.00  0.00     0.006 C 
BRANCH  13  14
ATOM     14  C   UNL     1      21.117   8.842  12.382  1.00  0.00     0.053 C 
BRANCH  14  15
ATOM     15  C   UNL     1      21.184   9.957  11.384  1.00  0.00     0.041 C 
ATOM     16  O   UNL     1      21.144   9.708  10.150  1.00  0.00    -0.550 OA
ATOM     17  O   UNL     1      21.259  11.275  11.818  1.00  0.00    -0.550 OA
ENDBRANCH  14  15
ENDBRANCH  13  14
ENDBRANCH  12  13
ENDBRANCH  11  12
ENDBRANCH  10  11
ENDBRANCH   9  10
ENDBRANCH   8   9
ENDBRANCH   7   8
ENDBRANCH   6   7
ENDBRANCH   5   6
ENDBRANCH   4   5
ENDBRANCH   3   4
ENDBRANCH   2   3
ENDBRANCH   1   2
BRANCH   1  18
ATOM     18  C   UNL     1      25.696  11.692  14.145  1.00  0.00     0.000 C 
BRANCH  18  19
ATOM     19  C   UNL     1      26.528  12.968  14.352  1.00  0.00     0.000 C 
BRANCH  19  20
ATOM     20  C   UNL     1      28.008  12.626  14.571  1.00  0.00     0.000 C 
BRANCH  20  21
ATOM     21  C   UNL     1      28.342  11.165  14.222  1.00  0.00     0.000 C 
BRANCH  21  22
ATOM     22  C   UNL     1      28.772  10.292  15.419  1.00  0.00     0.000 C 
BRANCH  22  23
ATOM     23  C   UNL     1      27.994  10.543  16.728  1.00  0.00     0.000 C 
BRANCH  23  24
ATOM     24  C   UNL     1      27.387   9.285  17.377  1.00  0.00    -0.000 C 
BRANCH  24  25
ATOM     25  C   UNL     1      26.465   8.460  16.461  1.00  0.00    -0.000 C 
BRANCH  25  26
ATOM     26  C   UNL     1      25.050   8.234  17.037  1.00  0.00    -0.000 C 
BRANCH  26  27
ATOM     27  C   UNL     1      24.053   9.324  16.607  1.00  0.00    -0.000 C 
BRANCH  27  28
ATOM     28  C   UNL     1      23.727  10.305  17.744  1.00  0.00    -0.000 C 
BRANCH  28  29
ATOM     29  C   UNL     1      23.860  11.776  17.315  1.00  0.00    -0.000 C 
BRANCH  29  30
ATOM     30  C   UNL     1      25.207  12.397  17.725  1.00  0.00    -0.000 C 
BRANCH  30  31
ATOM     31  C   UNL     1      25.065  13.578  18.708  1.00  0.00    -0.003 C 
ATOM     32  C   UNL     1      25.113  14.933  18.003  1.00  0.00     0.004 C 
ENDBRANCH  30  31
ENDBRANCH  29  30
ENDBRANCH  28  29
ENDBRANCH  27  28
ENDBRANCH  26  27
ENDBRANCH  25  26
ENDBRANCH  24  25
ENDBRANCH  23  24
ENDBRANCH  22  23
ENDBRANCH  21  22
ENDBRANCH  20  21
ENDBRANCH  19  20
ENDBRANCH  18  19
ENDBRANCH   1  18
TORSDOF 28
ENDMDL
