MODEL 1
REMARK VINA RESULT:    -6.816      0.000      0.000
REMARK INTER + INTRA:          -7.747
REMARK INTER:                  -8.211
REMARK INTRA:                   0.464
REMARK UNBOUND:                 0.464
REMARK SMILES O=c1c(O)c(-c2ccc(O)c(O)c2)oc2cc(O)cc(O)c12
REMARK SMILES IDX 5 1 3 2 2 3 1 4 22 5 20 6 19 7 17 8 16 9 15 10 14 11 6 12
REMARK SMILES IDX 7 13 8 14 9 15 13 16 11 17 10 18 12 20 4 22 21 24 18 26
REMARK H PARENT 10 19 12 21 4 23 21 25 18 27
REMARK Flexibility Score: inf
ROOT
ATOM      1  C   UNL     1      73.324  41.745  -4.805  1.00  0.00     0.180 A 
ATOM      2  C   UNL     1      72.372  40.763  -4.469  1.00  0.00     0.208 A 
ATOM      3  C   UNL     1      72.129  39.717  -5.372  1.00  0.00     0.238 A 
ATOM      4  O   UNL     1      71.270  38.838  -5.086  1.00  0.00    -0.285 OA
ATOM      5  C   UNL     1      72.852  39.657  -6.581  1.00  0.00     0.111 A 
ATOM      6  C   UNL     1      72.669  38.634  -7.543  1.00  0.00     0.134 A 
ATOM      7  C   UNL     1      73.435  38.641  -8.718  1.00  0.00     0.093 A 
ATOM      8  C   UNL     1      74.377  39.645  -8.950  1.00  0.00     0.123 A 
ATOM      9  C   UNL     1      74.561  40.659  -8.004  1.00  0.00     0.094 A 
ATOM     10  C   UNL     1      73.807  40.672  -6.827  1.00  0.00     0.146 A 
ATOM     11  O   UNL     1      73.998  41.649  -5.947  1.00  0.00    -0.452 OA
ENDROOT
BRANCH   1  12
ATOM     12  C   UNL     1      73.622  42.889  -3.913  1.00  0.00     0.025 A 
ATOM     13  C   UNL     1      74.485  43.901  -4.356  1.00  0.00     0.016 A 
ATOM     14  C   UNL     1      74.764  44.999  -3.540  1.00  0.00     0.051 A 
ATOM     15  C   UNL     1      74.177  45.116  -2.276  1.00  0.00     0.157 A 
ATOM     16  C   UNL     1      73.013  43.014  -2.653  1.00  0.00     0.062 A 
ATOM     17  C   UNL     1      73.284  44.114  -1.828  1.00  0.00     0.158 A 
BRANCH  15  18
ATOM     18  O   UNL     1      74.504  46.234  -1.506  1.00  0.00    -0.504 OA
ATOM     19  H   UNL     1      73.848  46.962  -1.261  1.00  0.00     0.293 HD
ENDBRANCH  15  18
BRANCH  17  20
ATOM     20  O   UNL     1      72.644  44.172  -0.589  1.00  0.00    -0.504 OA
ATOM     21  H   UNL     1      72.480  43.369  -0.000  1.00  0.00     0.293 HD
ENDBRANCH  17  20
ENDBRANCH   1  12
BRANCH   2  22
ATOM     22  O   UNL     1      71.704  40.818  -3.242  1.00  0.00    -0.502 OA
ATOM     23  H   UNL     1      71.989  41.443  -2.497  1.00  0.00     0.293 HD
ENDBRANCH   2  22
BRANCH   6  24
ATOM     24  O   UNL     1      71.738  37.615  -7.340  1.00  0.00    -0.507 OA
ATOM     25  H   UNL     1      70.771  37.712  -7.628  1.00  0.00     0.293 HD
ENDBRANCH   6  24
BRANCH   8  26
ATOM     26  O   UNL     1      75.125  39.627 -10.125  1.00  0.00    -0.508 OA
ATOM     27  H   UNL     1      75.891  38.976 -10.257  1.00  0.00     0.293 HD
ENDBRANCH   8  26
TORSDOF 6
ENDMDL
MODEL 2
REMARK VINA RESULT:    -6.721     13.682     16.040
REMARK INTER + INTRA:          -7.633
REMARK INTER:                  -7.572
REMARK INTRA:                  -0.060
REMARK UNBOUND:                 0.464
REMARK SMILES O=c1c(O)c(-c2ccc(O)c(O)c2)oc2cc(O)cc(O)c12
REMARK SMILES IDX 5 1 3 2 2 3 1 4 22 5 20 6 19 7 17 8 16 9 15 10 14 11 6 12
REMARK SMILES IDX 7 13 8 14 9 15 13 16 11 17 10 18 12 20 4 22 21 24 18 26
REMARK H PARENT 10 19 12 21 4 23 21 25 18 27
REMARK Flexibility Score: inf
ROOT
ATOM      1  C   UNL     1      69.563  48.369   8.038  1.00  0.00     0.180 A 
ATOM      2  C   UNL     1      69.866  48.541   6.674  1.00  0.00     0.208 A 
ATOM      3  C   UNL     1      71.194  48.382   6.249  1.00  0.00     0.238 A 
ATOM      4  O   UNL     1      71.479  48.545   5.030  1.00  0.00    -0.285 OA
ATOM      5  C   UNL     1      72.190  48.037   7.185  1.00  0.00     0.111 A 
ATOM      6  C   UNL     1      73.550  47.855   6.838  1.00  0.00     0.134 A 
ATOM      7  C   UNL     1      74.479  47.502   7.829  1.00  0.00     0.093 A 
ATOM      8  C   UNL     1      74.076  47.327   9.154  1.00  0.00     0.123 A 
ATOM      9  C   UNL     1      72.734  47.506   9.503  1.00  0.00     0.094 A 
ATOM     10  C   UNL     1      71.793  47.860   8.532  1.00  0.00     0.146 A 
ATOM     11  O   UNL     1      70.525  48.029   8.891  1.00  0.00    -0.452 OA
ENDROOT
BRANCH   1  12
ATOM     12  C   UNL     1      68.190  48.538   8.566  1.00  0.00     0.025 A 
ATOM     13  C   UNL     1      67.949  49.488   9.569  1.00  0.00     0.016 A 
ATOM     14  C   UNL     1      66.659  49.678  10.067  1.00  0.00     0.051 A 
ATOM     15  C   UNL     1      65.584  48.937   9.565  1.00  0.00     0.157 A 
ATOM     16  C   UNL     1      67.109  47.808   8.044  1.00  0.00     0.062 A 
ATOM     17  C   UNL     1      65.810  47.994   8.535  1.00  0.00     0.158 A 
BRANCH  15  18
ATOM     18  O   UNL     1      64.320  49.169  10.112  1.00  0.00    -0.504 OA
ATOM     19  H   UNL     1      64.164  49.480  11.060  1.00  0.00     0.293 HD
ENDBRANCH  15  18
BRANCH  17  20
ATOM     20  O   UNL     1      64.784  47.233   7.971  1.00  0.00    -0.504 OA
ATOM     21  H   UNL     1      64.812  46.228   7.879  1.00  0.00     0.293 HD
ENDBRANCH  17  20
ENDBRANCH   1  12
BRANCH   2  22
ATOM     22  O   UNL     1      68.853  48.835   5.757  1.00  0.00    -0.502 OA
ATOM     23  H   UNL     1      68.147  48.157   5.493  1.00  0.00     0.293 HD
ENDBRANCH   2  22
BRANCH   6  24
ATOM     24  O   UNL     1      73.984  48.020   5.523  1.00  0.00    -0.507 OA
ATOM     25  H   UNL     1      74.369  47.251   4.988  1.00  0.00     0.293 HD
ENDBRANCH   6  24
BRANCH   8  26
ATOM     26  O   UNL     1      75.019  46.976  10.117  1.00  0.00    -0.508 OA
ATOM     27  H   UNL     1      75.695  47.646  10.467  1.00  0.00     0.293 HD
ENDBRANCH   8  26
TORSDOF 6
ENDMDL
MODEL 3
REMARK VINA RESULT:    -6.462     12.722     15.654
REMARK INTER + INTRA:          -7.320
REMARK INTER:                  -7.082
REMARK INTRA:                  -0.238
REMARK UNBOUND:                 0.464
REMARK SMILES O=c1c(O)c(-c2ccc(O)c(O)c2)oc2cc(O)cc(O)c12
REMARK SMILES IDX 5 1 3 2 2 3 1 4 22 5 20 6 19 7 17 8 16 9 15 10 14 11 6 12
REMARK SMILES IDX 7 13 8 14 9 15 13 16 11 17 10 18 12 20 4 22 21 24 18 26
REMARK H PARENT 10 19 12 21 4 23 21 25 18 27
REMARK Flexibility Score: inf
ROOT
ATOM      1  C   UNL     1      69.123  47.452   7.953  1.00  0.00     0.180 A 
ATOM      2  C   UNL     1      69.585  48.170   9.073  1.00  0.00     0.208 A 
ATOM      3  C   UNL     1      70.920  48.600   9.100  1.00  0.00     0.238 A 
ATOM      4  O   UNL     1      71.348  49.234  10.103  1.00  0.00    -0.285 OA
ATOM      5  C   UNL     1      71.764  48.325   8.004  1.00  0.00     0.111 A 
ATOM      6  C   UNL     1      73.120  48.726   7.951  1.00  0.00     0.134 A 
ATOM      7  C   UNL     1      73.891  48.422   6.818  1.00  0.00     0.093 A 
ATOM      8  C   UNL     1      73.335  47.727   5.743  1.00  0.00     0.123 A 
ATOM      9  C   UNL     1      71.995  47.328   5.790  1.00  0.00     0.094 A 
ATOM     10  C   UNL     1      71.210  47.619   6.909  1.00  0.00     0.146 A 
ATOM     11  O   UNL     1      69.942  47.224   6.930  1.00  0.00    -0.452 OA
ENDROOT
BRANCH   1  12
ATOM     12  C   UNL     1      67.734  46.949   7.859  1.00  0.00     0.025 A 
ATOM     13  C   UNL     1      66.690  47.851   7.610  1.00  0.00     0.016 A 
ATOM     14  C   UNL     1      65.374  47.396   7.498  1.00  0.00     0.051 A 
ATOM     15  C   UNL     1      65.078  46.034   7.617  1.00  0.00     0.157 A 
ATOM     16  C   UNL     1      67.443  45.578   7.957  1.00  0.00     0.062 A 
ATOM     17  C   UNL     1      66.126  45.111   7.843  1.00  0.00     0.158 A 
BRANCH  15  18
ATOM     18  O   UNL     1      63.741  45.645   7.503  1.00  0.00    -0.504 OA
ATOM     19  H   UNL     1      63.091  45.626   8.276  1.00  0.00     0.293 HD
ENDBRANCH  15  18
BRANCH  17  20
ATOM     20  O   UNL     1      65.911  43.736   7.951  1.00  0.00    -0.504 OA
ATOM     21  H   UNL     1      65.613  43.277   8.799  1.00  0.00     0.293 HD
ENDBRANCH  17  20
ENDBRANCH   1  12
BRANCH   2  22
ATOM     22  O   UNL     1      68.716  48.472  10.125  1.00  0.00    -0.502 OA
ATOM     23  H   UNL     1      68.748  47.984  11.013  1.00  0.00     0.293 HD
ENDBRANCH   2  22
BRANCH   6  24
ATOM     24  O   UNL     1      73.706  49.423   9.008  1.00  0.00    -0.507 OA
ATOM     25  H   UNL     1      74.583  49.917   8.900  1.00  0.00     0.293 HD
ENDBRANCH   6  24
BRANCH   8  26
ATOM     26  O   UNL     1      74.122  47.439   4.630  1.00  0.00    -0.508 OA
ATOM     27  H   UNL     1      74.985  47.939   4.447  1.00  0.00     0.293 HD
ENDBRANCH   8  26
TORSDOF 6
ENDMDL
MODEL 4
REMARK VINA RESULT:    -6.414     14.776     16.777
REMARK INTER + INTRA:          -7.263
REMARK INTER:                  -7.207
REMARK INTRA:                  -0.055
REMARK UNBOUND:                 0.464
REMARK SMILES O=c1c(O)c(-c2ccc(O)c(O)c2)oc2cc(O)cc(O)c12
REMARK SMILES IDX 5 1 3 2 2 3 1 4 22 5 20 6 19 7 17 8 16 9 15 10 14 11 6 12
REMARK SMILES IDX 7 13 8 14 9 15 13 16 11 17 10 18 12 20 4 22 21 24 18 26
REMARK H PARENT 10 19 12 21 4 23 21 25 18 27
REMARK Flexibility Score: inf
ROOT
ATOM      1  C   UNL     1      68.223  47.866   8.995  1.00  0.00     0.180 A 
ATOM      2  C   UNL     1      67.280  48.746   9.560  1.00  0.00     0.208 A 
ATOM      3  C   UNL     1      65.927  48.373   9.572  1.00  0.00     0.238 A 
ATOM      4  O   UNL     1      65.071  49.158  10.065  1.00  0.00    -0.285 OA
ATOM      5  C   UNL     1      65.542  47.125   9.040  1.00  0.00     0.111 A 
ATOM      6  C   UNL     1      64.201  46.672   9.017  1.00  0.00     0.134 A 
ATOM      7  C   UNL     1      63.902  45.412   8.478  1.00  0.00     0.093 A 
ATOM      8  C   UNL     1      64.913  44.598   7.964  1.00  0.00     0.123 A 
ATOM      9  C   UNL     1      66.240  45.040   7.983  1.00  0.00     0.094 A 
ATOM     10  C   UNL     1      66.560  46.293   8.514  1.00  0.00     0.146 A 
ATOM     11  O   UNL     1      67.827  46.690   8.516  1.00  0.00    -0.452 OA
ENDROOT
BRANCH   1  12
ATOM     12  C   UNL     1      69.665  48.196   8.928  1.00  0.00     0.025 A 
ATOM     13  C   UNL     1      70.362  48.480  10.110  1.00  0.00     0.016 A 
ATOM     14  C   UNL     1      71.727  48.775  10.073  1.00  0.00     0.051 A 
ATOM     15  C   UNL     1      72.423  48.776   8.860  1.00  0.00     0.157 A 
ATOM     16  C   UNL     1      70.366  48.175   7.710  1.00  0.00     0.062 A 
ATOM     17  C   UNL     1      71.736  48.466   7.663  1.00  0.00     0.158 A 
BRANCH  15  18
ATOM     18  O   UNL     1      73.784  49.087   8.890  1.00  0.00    -0.504 OA
ATOM     19  H   UNL     1      74.272  49.408   9.714  1.00  0.00     0.293 HD
ENDBRANCH  15  18
BRANCH  17  20
ATOM     20  O   UNL     1      72.367  48.427   6.418  1.00  0.00    -0.504 OA
ATOM     21  H   UNL     1      71.877  48.421   5.536  1.00  0.00     0.293 HD
ENDBRANCH  17  20
ENDBRANCH   1  12
BRANCH   2  22
ATOM     22  O   UNL     1      67.692  49.955  10.125  1.00  0.00    -0.502 OA
ATOM     23  H   UNL     1      67.840  50.066  11.121  1.00  0.00     0.293 HD
ENDBRANCH   2  22
BRANCH   6  24
ATOM     24  O   UNL     1      63.168  47.461   9.524  1.00  0.00    -0.507 OA
ATOM     25  H   UNL     1      63.352  48.312  10.041  1.00  0.00     0.293 HD
ENDBRANCH   6  24
BRANCH   8  26
ATOM     26  O   UNL     1      64.588  43.351   7.435  1.00  0.00    -0.508 OA
ATOM     27  H   UNL     1      64.150  42.632   8.001  1.00  0.00     0.293 HD
ENDBRANCH   8  26
TORSDOF 6
ENDMDL
MODEL 5
REMARK VINA RESULT:    -6.383     10.790     13.692
REMARK INTER + INTRA:          -7.225
REMARK INTER:                  -6.897
REMARK INTRA:                  -0.328
REMARK UNBOUND:                 0.464
REMARK SMILES O=c1c(O)c(-c2ccc(O)c(O)c2)oc2cc(O)cc(O)c12
REMARK SMILES IDX 5 1 3 2 2 3 1 4 22 5 20 6 19 7 17 8 16 9 15 10 14 11 6 12
REMARK SMILES IDX 7 13 8 14 9 15 13 16 11 17 10 18 12 20 4 22 21 24 18 26
REMARK H PARENT 10 19 12 21 4 23 21 25 18 27
REMARK Flexibility Score: inf
ROOT
ATOM      1  C   UNL     1      71.504  43.982   6.190  1.00  0.00     0.180 A 
ATOM      2  C   UNL     1      71.842  44.412   4.892  1.00  0.00     0.208 A 
ATOM      3  C   UNL     1      72.562  45.607   4.740  1.00  0.00     0.238 A 
ATOM      4  O   UNL     1      72.860  46.008   3.582  1.00  0.00    -0.285 OA
ATOM      5  C   UNL     1      72.948  46.339   5.882  1.00  0.00     0.111 A 
ATOM      6  C   UNL     1      73.679  47.550   5.815  1.00  0.00     0.134 A 
ATOM      7  C   UNL     1      74.034  48.214   6.999  1.00  0.00     0.093 A 
ATOM      8  C   UNL     1      73.675  47.693   8.244  1.00  0.00     0.123 A 
ATOM      9  C   UNL     1      72.953  46.497   8.316  1.00  0.00     0.094 A 
ATOM     10  C   UNL     1      72.588  45.820   7.148  1.00  0.00     0.146 A 
ATOM     11  O   UNL     1      71.898  44.690   7.245  1.00  0.00    -0.452 OA
ENDROOT
BRANCH   1  12
ATOM     12  C   UNL     1      70.730  42.743   6.431  1.00  0.00     0.025 A 
ATOM     13  C   UNL     1      71.408  41.527   6.595  1.00  0.00     0.016 A 
ATOM     14  C   UNL     1      70.699  40.350   6.843  1.00  0.00     0.051 A 
ATOM     15  C   UNL     1      69.305  40.365   6.948  1.00  0.00     0.157 A 
ATOM     16  C   UNL     1      69.331  42.766   6.558  1.00  0.00     0.062 A 
ATOM     17  C   UNL     1      68.611  41.591   6.810  1.00  0.00     0.158 A 
BRANCH  15  18
ATOM     18  O   UNL     1      68.655  39.153   7.189  1.00  0.00    -0.504 OA
ATOM     19  H   UNL     1      69.106  38.340   7.585  1.00  0.00     0.293 HD
ENDBRANCH  15  18
BRANCH  17  20
ATOM     20  O   UNL     1      67.222  41.688   6.922  1.00  0.00    -0.504 OA
ATOM     21  H   UNL     1      66.692  42.509   6.671  1.00  0.00     0.293 HD
ENDBRANCH  17  20
ENDBRANCH   1  12
BRANCH   2  22
ATOM     22  O   UNL     1      71.489  43.644   3.780  1.00  0.00    -0.502 OA
ATOM     23  H   UNL     1      71.943  43.752   2.880  1.00  0.00     0.293 HD
ENDBRANCH   2  22
BRANCH   6  24
ATOM     24  O   UNL     1      74.053  48.096   4.587  1.00  0.00    -0.507 OA
ATOM     25  H   UNL     1      74.620  47.581   3.925  1.00  0.00     0.293 HD
ENDBRANCH   6  24
BRANCH   8  26
ATOM     26  O   UNL     1      74.041  48.371   9.404  1.00  0.00    -0.508 OA
ATOM     27  H   UNL     1      73.896  47.968  10.323  1.00  0.00     0.293 HD
ENDBRANCH   8  26
TORSDOF 6
ENDMDL
MODEL 6
REMARK VINA RESULT:    -6.296     14.509     16.259
REMARK INTER + INTRA:          -7.120
REMARK INTER:                  -6.826
REMARK INTRA:                  -0.294
REMARK UNBOUND:                 0.464
REMARK SMILES O=c1c(O)c(-c2ccc(O)c(O)c2)oc2cc(O)cc(O)c12
REMARK SMILES IDX 5 1 3 2 2 3 1 4 22 5 20 6 19 7 17 8 16 9 15 10 14 11 6 12
REMARK SMILES IDX 7 13 8 14 9 15 13 16 11 17 10 18 12 20 4 22 21 24 18 26
REMARK H PARENT 10 19 12 21 4 23 21 25 18 27
REMARK Flexibility Score: inf
ROOT
ATOM      1  C   UNL     1      67.012  46.840   8.220  1.00  0.00     0.180 A 
ATOM      2  C   UNL     1      65.688  47.198   7.899  1.00  0.00     0.208 A 
ATOM      3  C   UNL     1      64.669  46.248   8.070  1.00  0.00     0.238 A 
ATOM      4  O   UNL     1      63.481  46.553   7.776  1.00  0.00    -0.285 OA
ATOM      5  C   UNL     1      64.984  44.970   8.576  1.00  0.00     0.111 A 
ATOM      6  C   UNL     1      64.015  43.959   8.782  1.00  0.00     0.134 A 
ATOM      7  C   UNL     1      64.409  42.715   9.299  1.00  0.00     0.093 A 
ATOM      8  C   UNL     1      65.746  42.464   9.613  1.00  0.00     0.123 A 
ATOM      9  C   UNL     1      66.707  43.459   9.411  1.00  0.00     0.094 A 
ATOM     10  C   UNL     1      66.337  44.705   8.896  1.00  0.00     0.146 A 
ATOM     11  O   UNL     1      67.270  45.631   8.709  1.00  0.00    -0.452 OA
ENDROOT
BRANCH   1  12
ATOM     12  C   UNL     1      68.143  47.780   8.048  1.00  0.00     0.025 A 
ATOM     13  C   UNL     1      68.713  48.385   9.176  1.00  0.00     0.016 A 
ATOM     14  C   UNL     1      69.794  49.259   9.039  1.00  0.00     0.051 A 
ATOM     15  C   UNL     1      70.335  49.532   7.779  1.00  0.00     0.157 A 
ATOM     16  C   UNL     1      68.698  48.034   6.782  1.00  0.00     0.062 A 
ATOM     17  C   UNL     1      69.785  48.907   6.635  1.00  0.00     0.158 A 
BRANCH  15  18
ATOM     18  O   UNL     1      71.410  50.421   7.709  1.00  0.00    -0.504 OA
ATOM     19  H   UNL     1      72.310  50.189   7.314  1.00  0.00     0.293 HD
ENDBRANCH  15  18
BRANCH  17  20
ATOM     20  O   UNL     1      70.285  49.114   5.348  1.00  0.00    -0.504 OA
ATOM     21  H   UNL     1      69.832  48.787   4.507  1.00  0.00     0.293 HD
ENDBRANCH  17  20
ENDBRANCH   1  12
BRANCH   2  22
ATOM     22  O   UNL     1      65.395  48.486   7.446  1.00  0.00    -0.502 OA
ATOM     23  H   UNL     1      65.916  48.931   6.699  1.00  0.00     0.293 HD
ENDBRANCH   2  22
BRANCH   6  24
ATOM     24  O   UNL     1      62.671  44.178   8.481  1.00  0.00    -0.507 OA
ATOM     25  H   UNL     1      61.936  43.595   8.864  1.00  0.00     0.293 HD
ENDBRANCH   6  24
BRANCH   8  26
ATOM     26  O   UNL     1      66.109  41.220  10.125  1.00  0.00    -0.508 OA
ATOM     27  H   UNL     1      66.468  40.484   9.527  1.00  0.00     0.293 HD
ENDBRANCH   8  26
TORSDOF 6
ENDMDL
MODEL 7
REMARK VINA RESULT:    -6.258     10.799     13.417
REMARK INTER + INTRA:          -7.075
REMARK INTER:                  -6.744
REMARK INTRA:                  -0.331
REMARK UNBOUND:                 0.464
REMARK SMILES O=c1c(O)c(-c2ccc(O)c(O)c2)oc2cc(O)cc(O)c12
REMARK SMILES IDX 5 1 3 2 2 3 1 4 22 5 20 6 19 7 17 8 16 9 15 10 14 11 6 12
REMARK SMILES IDX 7 13 8 14 9 15 13 16 11 17 10 18 12 20 4 22 21 24 18 26
REMARK H PARENT 10 19 12 21 4 23 21 25 18 27
REMARK Flexibility Score: inf
ROOT
ATOM      1  C   UNL     1      68.688  43.611   7.399  1.00  0.00     0.180 A 
ATOM      2  C   UNL     1      68.184  42.772   8.412  1.00  0.00     0.208 A 
ATOM      3  C   UNL     1      68.305  41.382   8.264  1.00  0.00     0.238 A 
ATOM      4  O   UNL     1      67.847  40.620   9.160  1.00  0.00    -0.285 OA
ATOM      5  C   UNL     1      68.943  40.855   7.122  1.00  0.00     0.111 A 
ATOM      6  C   UNL     1      69.109  39.467   6.900  1.00  0.00     0.134 A 
ATOM      7  C   UNL     1      69.764  39.022   5.742  1.00  0.00     0.093 A 
ATOM      8  C   UNL     1      70.255  39.934   4.805  1.00  0.00     0.123 A 
ATOM      9  C   UNL     1      70.093  41.307   5.020  1.00  0.00     0.094 A 
ATOM     10  C   UNL     1      69.442  41.771   6.166  1.00  0.00     0.146 A 
ATOM     11  O   UNL     1      69.297  43.079   6.343  1.00  0.00    -0.452 OA
ENDROOT
BRANCH   1  12
ATOM     12  C   UNL     1      68.581  45.085   7.474  1.00  0.00     0.025 A 
ATOM     13  C   UNL     1      69.650  45.829   7.991  1.00  0.00     0.016 A 
ATOM     14  C   UNL     1      69.579  47.222   8.052  1.00  0.00     0.051 A 
ATOM     15  C   UNL     1      68.448  47.900   7.585  1.00  0.00     0.157 A 
ATOM     16  C   UNL     1      67.452  45.764   6.983  1.00  0.00     0.062 A 
ATOM     17  C   UNL     1      67.372  47.162   7.037  1.00  0.00     0.158 A 
BRANCH  15  18
ATOM     18  O   UNL     1      68.436  49.293   7.682  1.00  0.00    -0.504 OA
ATOM     19  H   UNL     1      67.619  49.834   7.928  1.00  0.00     0.293 HD
ENDBRANCH  15  18
BRANCH  17  20
ATOM     20  O   UNL     1      66.221  47.769   6.532  1.00  0.00    -0.504 OA
ATOM     21  H   UNL     1      65.866  48.659   6.850  1.00  0.00     0.293 HD
ENDBRANCH  17  20
ENDBRANCH   1  12
BRANCH   2  22
ATOM     22  O   UNL     1      67.600  43.320   9.557  1.00  0.00    -0.502 OA
ATOM     23  H   UNL     1      67.953  44.163   9.996  1.00  0.00     0.293 HD
ENDBRANCH   2  22
BRANCH   6  24
ATOM     24  O   UNL     1      68.632  38.529   7.816  1.00  0.00    -0.507 OA
ATOM     25  H   UNL     1      67.791  38.692   8.357  1.00  0.00     0.293 HD
ENDBRANCH   6  24
BRANCH   8  26
ATOM     26  O   UNL     1      70.902  39.466   3.664  1.00  0.00    -0.508 OA
ATOM     27  H   UNL     1      70.442  38.840   3.012  1.00  0.00     0.293 HD
ENDBRANCH   8  26
TORSDOF 6
ENDMDL
MODEL 8
REMARK VINA RESULT:    -6.169     11.630     15.463
REMARK INTER + INTRA:          -6.968
REMARK INTER:                  -6.727
REMARK INTRA:                  -0.241
REMARK UNBOUND:                 0.464
REMARK SMILES O=c1c(O)c(-c2ccc(O)c(O)c2)oc2cc(O)cc(O)c12
REMARK SMILES IDX 5 1 3 2 2 3 1 4 22 5 20 6 19 7 17 8 16 9 15 10 14 11 6 12
REMARK SMILES IDX 7 13 8 14 9 15 13 16 11 17 10 18 12 20 4 22 21 24 18 26
REMARK H PARENT 10 19 12 21 4 23 21 25 18 27
REMARK Flexibility Score: inf
ROOT
ATOM      1  C   UNL     1      69.198  44.966   7.519  1.00  0.00     0.180 A 
ATOM      2  C   UNL     1      68.115  45.845   7.317  1.00  0.00     0.208 A 
ATOM      3  C   UNL     1      68.246  47.184   7.713  1.00  0.00     0.238 A 
ATOM      4  O   UNL     1      67.279  47.978   7.546  1.00  0.00    -0.285 OA
ATOM      5  C   UNL     1      69.457  47.628   8.284  1.00  0.00     0.111 A 
ATOM      6  C   UNL     1      69.670  48.962   8.707  1.00  0.00     0.134 A 
ATOM      7  C   UNL     1      70.908  49.327   9.258  1.00  0.00     0.093 A 
ATOM      8  C   UNL     1      71.932  48.388   9.394  1.00  0.00     0.123 A 
ATOM      9  C   UNL     1      71.727  47.068   8.979  1.00  0.00     0.094 A 
ATOM     10  C   UNL     1      70.500  46.683   8.429  1.00  0.00     0.146 A 
ATOM     11  O   UNL     1      70.330  45.423   8.048  1.00  0.00    -0.452 OA
ENDROOT
BRANCH   1  12
ATOM     12  C   UNL     1      69.129  43.535   7.146  1.00  0.00     0.025 A 
ATOM     13  C   UNL     1      68.332  42.663   7.900  1.00  0.00     0.016 A 
ATOM     14  C   UNL     1      68.238  41.314   7.553  1.00  0.00     0.051 A 
ATOM     15  C   UNL     1      68.922  40.813   6.441  1.00  0.00     0.157 A 
ATOM     16  C   UNL     1      69.801  43.040   6.014  1.00  0.00     0.062 A 
ATOM     17  C   UNL     1      69.709  41.689   5.657  1.00  0.00     0.158 A 
BRANCH  15  18
ATOM     18  O   UNL     1      68.792  39.453   6.153  1.00  0.00    -0.504 OA
ATOM     19  H   UNL     1      69.524  38.890   5.745  1.00  0.00     0.293 HD
ENDBRANCH  15  18
BRANCH  17  20
ATOM     20  O   UNL     1      70.404  41.267   4.521  1.00  0.00    -0.504 OA
ATOM     21  H   UNL     1      69.958  40.963   3.668  1.00  0.00     0.293 HD
ENDBRANCH  17  20
ENDBRANCH   1  12
BRANCH   2  22
ATOM     22  O   UNL     1      66.944  45.392   6.703  1.00  0.00    -0.502 OA
ATOM     23  H   UNL     1      66.382  45.985   6.104  1.00  0.00     0.293 HD
ENDBRANCH   2  22
BRANCH   6  24
ATOM     24  O   UNL     1      68.668  49.925   8.583  1.00  0.00    -0.507 OA
ATOM     25  H   UNL     1      67.729  49.764   8.927  1.00  0.00     0.293 HD
ENDBRANCH   6  24
BRANCH   8  26
ATOM     26  O   UNL     1      73.152  48.777   9.943  1.00  0.00    -0.508 OA
ATOM     27  H   UNL     1      73.756  49.444   9.476  1.00  0.00     0.293 HD
ENDBRANCH   8  26
TORSDOF 6
ENDMDL
