MODEL 1
REMARK VINA RESULT:    -6.013      0.000      0.000
REMARK INTER + INTRA:          -7.042
REMARK INTER:                  -6.891
REMARK INTRA:                  -0.151
REMARK UNBOUND:                -0.151
REMARK SMILES O=C([O-])C=Cc1ccc(O)cc1
REMARK SMILES IDX 6 1 7 2 12 3 8 4 11 5 9 6 5 7 4 8 2 9 1 10 3 11 10 12
REMARK H PARENT 10 13
REMARK Flexibility Score: inf
ROOT
ATOM      1  C   UNL     1      11.320  20.411  18.217  1.00  0.00    -0.025 A 
ATOM      2  C   UNL     1      11.494  20.856  19.539  1.00  0.00     0.012 A 
ATOM      3  C   UNL     1      10.039  20.496  17.635  1.00  0.00     0.012 A 
ATOM      4  C   UNL     1      10.421  21.395  20.256  1.00  0.00     0.047 A 
ATOM      5  C   UNL     1       8.968  21.034  18.356  1.00  0.00     0.047 A 
ATOM      6  C   UNL     1       9.158  21.488  19.667  1.00  0.00     0.115 A 
ENDROOT
BRANCH   1   7
ATOM      7  C   UNL     1      12.487  19.838  17.502  1.00  0.00     0.010 C 
ATOM      8  C   UNL     1      13.531  19.266  18.118  1.00  0.00     0.025 C 
BRANCH   8   9
ATOM      9  C   UNL     1      14.667  18.697  17.374  1.00  0.00     0.064 C 
ATOM     10  O   UNL     1      14.541  18.319  16.178  1.00  0.00    -0.545 OA
ATOM     11  O   UNL     1      15.901  18.576  18.000  1.00  0.00    -0.545 OA
ENDBRANCH   8   9
ENDBRANCH   1   7
BRANCH   6  12
ATOM     12  O   UNL     1       8.098  22.027  20.392  1.00  0.00    -0.508 OA
ATOM     13  H   UNL     1       7.639  21.504  21.130  1.00  0.00     0.293 HD
ENDBRANCH   6  12
TORSDOF 3
ENDMDL
MODEL 2
REMARK VINA RESULT:    -5.987      1.244      1.551
REMARK INTER + INTRA:          -7.012
REMARK INTER:                  -6.875
REMARK INTRA:                  -0.138
REMARK UNBOUND:                -0.151
REMARK SMILES O=C([O-])C=Cc1ccc(O)cc1
REMARK SMILES IDX 6 1 7 2 12 3 8 4 11 5 9 6 5 7 4 8 2 9 1 10 3 11 10 12
REMARK H PARENT 10 13
REMARK Flexibility Score: inf
ROOT
ATOM      1  C   UNL     1      11.264  20.461  18.093  1.00  0.00    -0.025 A 
ATOM      2  C   UNL     1      11.497  20.885  19.413  1.00  0.00     0.012 A 
ATOM      3  C   UNL     1       9.949  20.510  17.586  1.00  0.00     0.012 A 
ATOM      4  C   UNL     1      10.449  21.371  20.200  1.00  0.00     0.047 A 
ATOM      5  C   UNL     1       8.903  20.996  18.378  1.00  0.00     0.047 A 
ATOM      6  C   UNL     1       9.152  21.431  19.686  1.00  0.00     0.115 A 
ENDROOT
BRANCH   1   7
ATOM      7  C   UNL     1      12.407  19.944  17.301  1.00  0.00     0.010 C 
ATOM      8  C   UNL     1      12.433  19.916  15.961  1.00  0.00     0.025 C 
BRANCH   8   9
ATOM      9  C   UNL     1      13.591  19.406  15.208  1.00  0.00     0.064 C 
ATOM     10  O   UNL     1      14.083  20.056  14.247  1.00  0.00    -0.545 OA
ATOM     11  O   UNL     1      14.152  18.186  15.564  1.00  0.00    -0.545 OA
ENDBRANCH   8   9
ENDBRANCH   1   7
BRANCH   6  12
ATOM     12  O   UNL     1       8.117  21.917  20.481  1.00  0.00    -0.508 OA
ATOM     13  H   UNL     1       8.185  22.813  20.951  1.00  0.00     0.293 HD
ENDBRANCH   6  12
TORSDOF 3
ENDMDL
MODEL 3
REMARK VINA RESULT:    -5.971      1.264      2.108
REMARK INTER + INTRA:          -6.994
REMARK INTER:                  -6.844
REMARK INTRA:                  -0.150
REMARK UNBOUND:                -0.151
REMARK SMILES O=C([O-])C=Cc1ccc(O)cc1
REMARK SMILES IDX 6 1 7 2 12 3 8 4 11 5 9 6 5 7 4 8 2 9 1 10 3 11 10 12
REMARK H PARENT 10 13
REMARK Flexibility Score: inf
ROOT
ATOM      1  C   UNL     1      11.369  20.478  18.164  1.00  0.00    -0.025 A 
ATOM      2  C   UNL     1      10.081  20.564  17.608  1.00  0.00     0.012 A 
ATOM      3  C   UNL     1      11.569  20.922  19.487  1.00  0.00     0.012 A 
ATOM      4  C   UNL     1       9.012  21.058  18.362  1.00  0.00     0.047 A 
ATOM      5  C   UNL     1      10.496  21.416  20.237  1.00  0.00     0.047 A 
ATOM      6  C   UNL     1       9.215  21.482  19.677  1.00  0.00     0.115 A 
ENDROOT
BRANCH   1   7
ATOM      7  C   UNL     1      12.473  19.957  17.320  1.00  0.00     0.010 C 
ATOM      8  C   UNL     1      12.445  19.945  15.980  1.00  0.00     0.025 C 
BRANCH   8   9
ATOM      9  C   UNL     1      13.565  19.430  15.175  1.00  0.00     0.064 C 
ATOM     10  O   UNL     1      14.042  20.097  14.218  1.00  0.00    -0.545 OA
ATOM     11  O   UNL     1      14.106  18.187  15.476  1.00  0.00    -0.545 OA
ENDBRANCH   8   9
ENDBRANCH   1   7
BRANCH   6  12
ATOM     12  O   UNL     1       8.141  21.971  20.416  1.00  0.00    -0.508 OA
ATOM     13  H   UNL     1       8.075  21.825  21.417  1.00  0.00     0.293 HD
ENDBRANCH   6  12
TORSDOF 3
ENDMDL
MODEL 4
REMARK VINA RESULT:    -5.927      0.110      1.402
REMARK INTER + INTRA:          -6.944
REMARK INTER:                  -6.807
REMARK INTRA:                  -0.138
REMARK UNBOUND:                -0.151
REMARK SMILES O=C([O-])C=Cc1ccc(O)cc1
REMARK SMILES IDX 6 1 7 2 12 3 8 4 11 5 9 6 5 7 4 8 2 9 1 10 3 11 10 12
REMARK H PARENT 10 13
REMARK Flexibility Score: inf
ROOT
ATOM      1  C   UNL     1      11.407  20.397  18.266  1.00  0.00    -0.025 A 
ATOM      2  C   UNL     1      10.141  20.458  17.658  1.00  0.00     0.012 A 
ATOM      3  C   UNL     1      11.559  20.907  19.572  1.00  0.00     0.012 A 
ATOM      4  C   UNL     1       9.047  20.992  18.345  1.00  0.00     0.047 A 
ATOM      5  C   UNL     1      10.462  21.441  20.255  1.00  0.00     0.047 A 
ATOM      6  C   UNL     1       9.203  21.482  19.643  1.00  0.00     0.115 A 
ENDROOT
BRANCH   1   7
ATOM      7  C   UNL     1      12.540  19.831  17.492  1.00  0.00     0.010 C 
ATOM      8  C   UNL     1      13.582  19.199  18.051  1.00  0.00     0.025 C 
BRANCH   8   9
ATOM      9  C   UNL     1      14.683  18.639  17.250  1.00  0.00     0.064 C 
ATOM     10  O   UNL     1      14.497  18.253  16.064  1.00  0.00    -0.545 OA
ATOM     11  O   UNL     1      15.950  18.536  17.809  1.00  0.00    -0.545 OA
ENDBRANCH   8   9
ENDBRANCH   1   7
BRANCH   6  12
ATOM     12  O   UNL     1       8.104  22.012  20.316  1.00  0.00    -0.508 OA
ATOM     13  H   UNL     1       7.772  21.612  21.187  1.00  0.00     0.293 HD
ENDBRANCH   6  12
TORSDOF 3
ENDMDL
MODEL 5
REMARK VINA RESULT:    -5.549      5.215      8.448
REMARK INTER + INTRA:          -6.511
REMARK INTER:                  -6.372
REMARK INTRA:                  -0.139
REMARK UNBOUND:                -0.151
REMARK SMILES O=C([O-])C=Cc1ccc(O)cc1
REMARK SMILES IDX 6 1 7 2 12 3 8 4 11 5 9 6 5 7 4 8 2 9 1 10 3 11 10 12
REMARK H PARENT 10 13
REMARK Flexibility Score: inf
ROOT
ATOM      1  C   UNL     1      18.538  19.540  20.211  1.00  0.00    -0.025 A 
ATOM      2  C   UNL     1      18.768  20.687  20.990  1.00  0.00     0.012 A 
ATOM      3  C   UNL     1      19.640  18.755  19.816  1.00  0.00     0.012 A 
ATOM      4  C   UNL     1      20.064  21.030  21.388  1.00  0.00     0.047 A 
ATOM      5  C   UNL     1      20.935  19.102  20.215  1.00  0.00     0.047 A 
ATOM      6  C   UNL     1      21.150  20.239  21.004  1.00  0.00     0.115 A 
ENDROOT
BRANCH   1   7
ATOM      7  C   UNL     1      17.146  19.225  19.806  1.00  0.00     0.010 C 
ATOM      8  C   UNL     1      16.785  18.927  18.550  1.00  0.00     0.025 C 
BRANCH   8   9
ATOM      9  C   UNL     1      15.394  18.608  18.187  1.00  0.00     0.064 C 
ATOM     10  O   UNL     1      15.032  18.542  16.981  1.00  0.00    -0.545 OA
ATOM     11  O   UNL     1      14.463  18.374  19.191  1.00  0.00    -0.545 OA
ENDBRANCH   8   9
ENDBRANCH   1   7
BRANCH   6  12
ATOM     12  O   UNL     1      22.435  20.591  21.407  1.00  0.00    -0.508 OA
ATOM     13  H   UNL     1      22.730  20.510  22.374  1.00  0.00     0.293 HD
ENDBRANCH   6  12
TORSDOF 3
ENDMDL
MODEL 6
REMARK VINA RESULT:    -5.066     11.594     12.882
REMARK INTER + INTRA:          -5.957
REMARK INTER:                  -5.809
REMARK INTRA:                  -0.148
REMARK UNBOUND:                -0.151
REMARK SMILES O=C([O-])C=Cc1ccc(O)cc1
REMARK SMILES IDX 6 1 7 2 12 3 8 4 11 5 9 6 5 7 4 8 2 9 1 10 3 11 10 12
REMARK H PARENT 10 13
REMARK Flexibility Score: inf
ROOT
ATOM      1  C   UNL     1       8.239  23.653   7.752  1.00  0.00    -0.025 A 
ATOM      2  C   UNL     1       9.621  23.450   7.906  1.00  0.00     0.012 A 
ATOM      3  C   UNL     1       7.351  22.963   8.603  1.00  0.00     0.012 A 
ATOM      4  C   UNL     1      10.108  22.597   8.902  1.00  0.00     0.047 A 
ATOM      5  C   UNL     1       7.843  22.111   9.597  1.00  0.00     0.047 A 
ATOM      6  C   UNL     1       9.223  21.928   9.750  1.00  0.00     0.115 A 
ENDROOT
BRANCH   1   7
ATOM      7  C   UNL     1       7.771  24.559   6.674  1.00  0.00     0.010 C 
ATOM      8  C   UNL     1       8.466  24.807   5.554  1.00  0.00     0.025 C 
BRANCH   8   9
ATOM      9  C   UNL     1       7.965  25.704   4.500  1.00  0.00     0.064 C 
ATOM     10  O   UNL     1       8.123  26.952   4.575  1.00  0.00    -0.545 OA
ATOM     11  O   UNL     1       7.305  25.166   3.403  1.00  0.00    -0.545 OA
ENDBRANCH   8   9
ENDBRANCH   1   7
BRANCH   6  12
ATOM     12  O   UNL     1       9.722  21.083  10.738  1.00  0.00    -0.508 OA
ATOM     13  H   UNL     1      10.168  21.446  11.573  1.00  0.00     0.293 HD
ENDBRANCH   6  12
TORSDOF 3
ENDMDL
MODEL 7
REMARK VINA RESULT:    -5.047      1.829      5.773
REMARK INTER + INTRA:          -5.935
REMARK INTER:                  -5.800
REMARK INTRA:                  -0.135
REMARK UNBOUND:                -0.151
REMARK SMILES O=C([O-])C=Cc1ccc(O)cc1
REMARK SMILES IDX 6 1 7 2 12 3 8 4 11 5 9 6 5 7 4 8 2 9 1 10 3 11 10 12
REMARK H PARENT 10 13
REMARK Flexibility Score: inf
ROOT
ATOM      1  C   UNL     1      12.778  20.291  17.208  1.00  0.00    -0.025 A 
ATOM      2  C   UNL     1      13.664  19.199  17.201  1.00  0.00     0.012 A 
ATOM      3  C   UNL     1      12.619  21.045  16.027  1.00  0.00     0.012 A 
ATOM      4  C   UNL     1      14.356  18.851  16.037  1.00  0.00     0.047 A 
ATOM      5  C   UNL     1      13.314  20.694  14.865  1.00  0.00     0.047 A 
ATOM      6  C   UNL     1      14.182  19.594  14.867  1.00  0.00     0.115 A 
ENDROOT
BRANCH   1   7
ATOM      7  C   UNL     1      12.075  20.627  18.471  1.00  0.00     0.010 C 
ATOM      8  C   UNL     1      10.753  20.830  18.556  1.00  0.00     0.025 C 
BRANCH   8   9
ATOM      9  C   UNL     1      10.088  21.151  19.830  1.00  0.00     0.064 C 
ATOM     10  O   UNL     1      10.705  21.074  20.926  1.00  0.00    -0.545 OA
ATOM     11  O   UNL     1       8.756  21.545  19.824  1.00  0.00    -0.545 OA
ENDBRANCH   8   9
ENDBRANCH   1   7
BRANCH   6  12
ATOM     12  O   UNL     1      14.877  19.237  13.714  1.00  0.00    -0.508 OA
ATOM     13  H   UNL     1      15.817  19.571  13.536  1.00  0.00     0.293 HD
ENDBRANCH   6  12
TORSDOF 3
ENDMDL
MODEL 8
REMARK VINA RESULT:    -4.970      1.309      5.718
REMARK INTER + INTRA:          -5.847
REMARK INTER:                  -5.712
REMARK INTRA:                  -0.135
REMARK UNBOUND:                -0.151
REMARK SMILES O=C([O-])C=Cc1ccc(O)cc1
REMARK SMILES IDX 6 1 7 2 12 3 8 4 11 5 9 6 5 7 4 8 2 9 1 10 3 11 10 12
REMARK H PARENT 10 13
REMARK Flexibility Score: inf
ROOT
ATOM      1  C   UNL     1      12.414  19.609  18.569  1.00  0.00    -0.025 A 
ATOM      2  C   UNL     1      12.883  18.576  19.399  1.00  0.00     0.012 A 
ATOM      3  C   UNL     1      13.335  20.293  17.750  1.00  0.00     0.012 A 
ATOM      4  C   UNL     1      14.234  18.216  19.394  1.00  0.00     0.047 A 
ATOM      5  C   UNL     1      14.686  19.930  17.748  1.00  0.00     0.047 A 
ATOM      6  C   UNL     1      15.138  18.889  18.568  1.00  0.00     0.115 A 
ENDROOT
BRANCH   1   7
ATOM      7  C   UNL     1      10.974  19.961  18.619  1.00  0.00     0.010 C 
ATOM      8  C   UNL     1      10.477  20.966  19.353  1.00  0.00     0.025 C 
BRANCH   8   9
ATOM      9  C   UNL     1       9.041  21.293  19.368  1.00  0.00     0.064 C 
ATOM     10  O   UNL     1       8.408  21.503  18.299  1.00  0.00    -0.545 OA
ATOM     11  O   UNL     1       8.372  21.372  20.583  1.00  0.00    -0.545 OA
ENDBRANCH   8   9
ENDBRANCH   1   7
BRANCH   6  12
ATOM     12  O   UNL     1      16.481  18.520  18.572  1.00  0.00    -0.508 OA
ATOM     13  H   UNL     1      16.862  17.910  19.287  1.00  0.00     0.293 HD
ENDBRANCH   6  12
TORSDOF 3
ENDMDL
MODEL 9
REMARK VINA RESULT:    -4.943     16.960     18.250
REMARK INTER + INTRA:          -5.816
REMARK INTER:                  -5.673
REMARK INTRA:                  -0.143
REMARK UNBOUND:                -0.151
REMARK SMILES O=C([O-])C=Cc1ccc(O)cc1
REMARK SMILES IDX 6 1 7 2 12 3 8 4 11 5 9 6 5 7 4 8 2 9 1 10 3 11 10 12
REMARK H PARENT 10 13
REMARK Flexibility Score: inf
ROOT
ATOM      1  C   UNL     1      20.693  15.501   4.035  1.00  0.00    -0.025 A 
ATOM      2  C   UNL     1      21.311  14.827   2.967  1.00  0.00     0.012 A 
ATOM      3  C   UNL     1      19.519  14.956   4.594  1.00  0.00     0.012 A 
ATOM      4  C   UNL     1      20.784  13.625   2.484  1.00  0.00     0.047 A 
ATOM      5  C   UNL     1      18.995  13.754   4.106  1.00  0.00     0.047 A 
ATOM      6  C   UNL     1      19.628  13.085   3.052  1.00  0.00     0.115 A 
ENDROOT
BRANCH   1   7
ATOM      7  C   UNL     1      21.285  16.778   4.505  1.00  0.00     0.010 C 
ATOM      8  C   UNL     1      22.578  16.927   4.825  1.00  0.00     0.025 C 
BRANCH   8   9
ATOM      9  C   UNL     1      23.132  18.213   5.277  1.00  0.00     0.064 C 
ATOM     10  O   UNL     1      22.383  19.133   5.705  1.00  0.00    -0.545 OA
ATOM     11  O   UNL     1      24.505  18.418   5.233  1.00  0.00    -0.545 OA
ENDBRANCH   8   9
ENDBRANCH   1   7
BRANCH   6  12
ATOM     12  O   UNL     1      19.115  11.887   2.561  1.00  0.00    -0.508 OA
ATOM     13  H   UNL     1      19.648  11.300   1.930  1.00  0.00     0.293 HD
ENDBRANCH   6  12
TORSDOF 3
ENDMDL
