MODEL 1
REMARK VINA RESULT:     1.461      0.000      0.000
REMARK INTER + INTRA:           2.742
REMARK INTER:                   3.852
REMARK INTRA:                  -1.110
REMARK UNBOUND:                -1.110
REMARK SMILES CCCCCCCCCCCCCCCCCCCCCCCCCCCCCC(=O)[O-]
REMARK SMILES IDX 16 1 17 2 18 3 19 4 20 5 21 6 22 7 23 8 24 9 25 10 26 11
REMARK SMILES IDX 27 12 28 13 29 14 30 15 31 16 32 17 15 18 14 19 13 20 12 21
REMARK SMILES IDX 11 22 10 23 9 24 8 25 7 26 6 27 5 28 4 29 3 30 2 31 1 32
REMARK H PARENT
REMARK Flexibility Score: inf
ROOT
ATOM      1  C   UNL     1       5.580 -35.448  24.320  1.00  0.00     0.000 C 
ENDROOT
BRANCH   1   2
ATOM      2  C   UNL     1       6.079 -36.278  23.120  1.00  0.00     0.000 C 
BRANCH   2   3
ATOM      3  C   UNL     1       4.985 -36.715  22.127  1.00  0.00     0.000 C 
BRANCH   3   4
ATOM      4  C   UNL     1       5.509 -37.311  20.808  1.00  0.00     0.000 C 
BRANCH   4   5
ATOM      5  C   UNL     1       5.431 -38.846  20.777  1.00  0.00     0.000 C 
BRANCH   5   6
ATOM      6  C   UNL     1       4.409 -39.369  21.798  1.00  0.00     0.000 C 
BRANCH   6   7
ATOM      7  C   UNL     1       5.053 -40.240  22.892  1.00  0.00     0.000 C 
BRANCH   7   8
ATOM      8  C   UNL     1       5.303 -39.461  24.194  1.00  0.00     0.000 C 
BRANCH   8   9
ATOM      9  C   UNL     1       4.079 -38.645  24.648  1.00  0.00     0.000 C 
BRANCH   9  10
ATOM     10  C   UNL     1       4.175 -38.042  26.064  1.00  0.00     0.000 C 
BRANCH  10  11
ATOM     11  C   UNL     1       3.170 -36.919  26.369  1.00  0.00     0.000 C 
BRANCH  11  12
ATOM     12  C   UNL     1       1.976 -37.395  27.207  1.00  0.00     0.000 C 
BRANCH  12  13
ATOM     13  C   UNL     1       1.847 -36.576  28.497  1.00  0.00     0.006 C 
BRANCH  13  14
ATOM     14  C   UNL     1       1.939 -35.076  28.205  1.00  0.00     0.053 C 
BRANCH  14  15
ATOM     15  C   UNL     1       1.620 -34.277  29.431  1.00  0.00     0.041 C 
ATOM     16  O   UNL     1       0.550 -33.617  29.491  1.00  0.00    -0.550 OA
ATOM     17  O   UNL     1       2.492 -34.276  30.512  1.00  0.00    -0.550 OA
ENDBRANCH  14  15
ENDBRANCH  13  14
ENDBRANCH  12  13
ENDBRANCH  11  12
ENDBRANCH  10  11
ENDBRANCH   9  10
ENDBRANCH   8   9
ENDBRANCH   7   8
ENDBRANCH   6   7
ENDBRANCH   5   6
ENDBRANCH   4   5
ENDBRANCH   3   4
ENDBRANCH   2   3
ENDBRANCH   1   2
BRANCH   1  18
ATOM     18  C   UNL     1       6.112 -34.005  24.382  1.00  0.00     0.000 C 
BRANCH  18  19
ATOM     19  C   UNL     1       6.012 -33.276  23.031  1.00  0.00     0.000 C 
BRANCH  19  20
ATOM     20  C   UNL     1       4.594 -33.328  22.439  1.00  0.00     0.000 C 
BRANCH  20  21
ATOM     21  C   UNL     1       4.592 -33.613  20.928  1.00  0.00     0.000 C 
BRANCH  21  22
ATOM     22  C   UNL     1       5.989 -34.043  20.453  1.00  0.00     0.000 C 
BRANCH  22  23
ATOM     23  C   UNL     1       6.027 -34.416  18.958  1.00  0.00     0.000 C 
BRANCH  23  24
ATOM     24  C   UNL     1       4.778 -33.989  18.160  1.00  0.00    -0.000 C 
BRANCH  24  25
ATOM     25  C   UNL     1       3.931 -35.162  17.629  1.00  0.00    -0.000 C 
BRANCH  25  26
ATOM     26  C   UNL     1       3.890 -36.354  18.601  1.00  0.00    -0.000 C 
BRANCH  26  27
ATOM     27  C   UNL     1       2.721 -37.312  18.302  1.00  0.00    -0.000 C 
BRANCH  27  28
ATOM     28  C   UNL     1       1.714 -36.794  17.252  1.00  0.00    -0.000 C 
BRANCH  28  29
ATOM     29  C   UNL     1       2.017 -37.193  15.795  1.00  0.00    -0.000 C 
BRANCH  29  30
ATOM     30  C   UNL     1       3.064 -36.316  15.081  1.00  0.00    -0.000 C 
BRANCH  30  31
ATOM     31  C   UNL     1       3.887 -37.046  14.006  1.00  0.00    -0.003 C 
ATOM     32  C   UNL     1       4.164 -38.507  14.363  1.00  0.00     0.004 C 
ENDBRANCH  30  31
ENDBRANCH  29  30
ENDBRANCH  28  29
ENDBRANCH  27  28
ENDBRANCH  26  27
ENDBRANCH  25  26
ENDBRANCH  24  25
ENDBRANCH  23  24
ENDBRANCH  22  23
ENDBRANCH  21  22
ENDBRANCH  20  21
ENDBRANCH  19  20
ENDBRANCH  18  19
ENDBRANCH   1  18
TORSDOF 28
ENDMDL
MODEL 2
REMARK VINA RESULT:     1.757      0.746      1.738
REMARK INTER + INTRA:           3.522
REMARK INTER:                   4.797
REMARK INTRA:                  -1.275
REMARK UNBOUND:                -1.110
REMARK SMILES CCCCCCCCCCCCCCCCCCCCCCCCCCCCCC(=O)[O-]
REMARK SMILES IDX 16 1 17 2 18 3 19 4 20 5 21 6 22 7 23 8 24 9 25 10 26 11
REMARK SMILES IDX 27 12 28 13 29 14 30 15 31 16 32 17 15 18 14 19 13 20 12 21
REMARK SMILES IDX 11 22 10 23 9 24 8 25 7 26 6 27 5 28 4 29 3 30 2 31 1 32
REMARK H PARENT
REMARK Flexibility Score: inf
ROOT
ATOM      1  C   UNL     1       4.725 -36.374  22.536  1.00  0.00     0.000 C 
ENDROOT
BRANCH   1   2
ATOM      2  C   UNL     1       4.664 -37.184  21.226  1.00  0.00     0.000 C 
BRANCH   2   3
ATOM      3  C   UNL     1       6.006 -37.783  20.764  1.00  0.00     0.000 C 
BRANCH   3   4
ATOM      4  C   UNL     1       5.917 -39.211  20.196  1.00  0.00     0.000 C 
BRANCH   4   5
ATOM      5  C   UNL     1       6.103 -40.291  21.275  1.00  0.00     0.000 C 
BRANCH   5   6
ATOM      6  C   UNL     1       5.913 -39.706  22.683  1.00  0.00     0.000 C 
BRANCH   6   7
ATOM      7  C   UNL     1       4.576 -40.121  23.323  1.00  0.00     0.000 C 
BRANCH   7   8
ATOM      8  C   UNL     1       3.939 -38.988  24.146  1.00  0.00     0.000 C 
BRANCH   8   9
ATOM      9  C   UNL     1       4.935 -38.312  25.104  1.00  0.00     0.000 C 
BRANCH   9  10
ATOM     10  C   UNL     1       4.309 -37.368  26.151  1.00  0.00     0.000 C 
BRANCH  10  11
ATOM     11  C   UNL     1       2.772 -37.367  26.197  1.00  0.00     0.000 C 
BRANCH  11  12
ATOM     12  C   UNL     1       2.215 -37.211  27.619  1.00  0.00     0.000 C 
BRANCH  12  13
ATOM     13  C   UNL     1       1.630 -35.810  27.831  1.00  0.00     0.006 C 
BRANCH  13  14
ATOM     14  C   UNL     1       2.460 -35.017  28.843  1.00  0.00     0.053 C 
BRANCH  14  15
ATOM     15  C   UNL     1       1.573 -34.226  29.754  1.00  0.00     0.041 C 
ATOM     16  O   UNL     1       2.028 -33.766  30.834  1.00  0.00    -0.550 OA
ATOM     17  O   UNL     1       0.251 -33.981  29.404  1.00  0.00    -0.550 OA
ENDBRANCH  14  15
ENDBRANCH  13  14
ENDBRANCH  12  13
ENDBRANCH  11  12
ENDBRANCH  10  11
ENDBRANCH   9  10
ENDBRANCH   8   9
ENDBRANCH   7   8
ENDBRANCH   6   7
ENDBRANCH   5   6
ENDBRANCH   4   5
ENDBRANCH   3   4
ENDBRANCH   2   3
ENDBRANCH   1   2
BRANCH   1  18
ATOM     18  C   UNL     1       6.098 -35.756  22.859  1.00  0.00     0.000 C 
BRANCH  18  19
ATOM     19  C   UNL     1       6.124 -35.044  24.222  1.00  0.00     0.000 C 
BRANCH  19  20
ATOM     20  C   UNL     1       6.042 -33.515  24.088  1.00  0.00     0.000 C 
BRANCH  20  21
ATOM     21  C   UNL     1       5.853 -33.056  22.633  1.00  0.00     0.000 C 
BRANCH  21  22
ATOM     22  C   UNL     1       4.389 -33.220  22.195  1.00  0.00     0.000 C 
BRANCH  22  23
ATOM     23  C   UNL     1       4.234 -33.416  20.675  1.00  0.00     0.000 C 
BRANCH  23  24
ATOM     24  C   UNL     1       5.404 -34.164  20.003  1.00  0.00    -0.000 C 
BRANCH  24  25
ATOM     25  C   UNL     1       5.392 -34.114  18.463  1.00  0.00    -0.000 C 
BRANCH  25  26
ATOM     26  C   UNL     1       4.191 -34.857  17.854  1.00  0.00    -0.000 C 
BRANCH  26  27
ATOM     27  C   UNL     1       3.907 -36.193  18.567  1.00  0.00    -0.000 C 
BRANCH  27  28
ATOM     28  C   UNL     1       2.501 -36.777  18.309  1.00  0.00    -0.000 C 
BRANCH  28  29
ATOM     29  C   UNL     1       2.336 -37.533  16.976  1.00  0.00    -0.000 C 
BRANCH  29  30
ATOM     30  C   UNL     1       1.864 -36.670  15.789  1.00  0.00    -0.000 C 
BRANCH  30  31
ATOM     31  C   UNL     1       2.926 -36.439  14.700  1.00  0.00    -0.003 C 
ATOM     32  C   UNL     1       3.807 -37.667  14.463  1.00  0.00     0.004 C 
ENDBRANCH  30  31
ENDBRANCH  29  30
ENDBRANCH  28  29
ENDBRANCH  27  28
ENDBRANCH  26  27
ENDBRANCH  25  26
ENDBRANCH  24  25
ENDBRANCH  23  24
ENDBRANCH  22  23
ENDBRANCH  21  22
ENDBRANCH  20  21
ENDBRANCH  19  20
ENDBRANCH  18  19
ENDBRANCH   1  18
TORSDOF 28
ENDMDL
MODEL 3
REMARK VINA RESULT:     2.166      4.169      9.978
REMARK INTER + INTRA:           4.602
REMARK INTER:                   5.917
REMARK INTRA:                  -1.315
REMARK UNBOUND:                -1.110
REMARK SMILES CCCCCCCCCCCCCCCCCCCCCCCCCCCCCC(=O)[O-]
REMARK SMILES IDX 16 1 17 2 18 3 19 4 20 5 21 6 22 7 23 8 24 9 25 10 26 11
REMARK SMILES IDX 27 12 28 13 29 14 30 15 31 16 32 17 15 18 14 19 13 20 12 21
REMARK SMILES IDX 11 22 10 23 9 24 8 25 7 26 6 27 5 28 4 29 3 30 2 31 1 32
REMARK H PARENT
REMARK Flexibility Score: inf
ROOT
ATOM      1  C   UNL     1       6.074 -36.431  22.608  1.00  0.00     0.000 C 
ENDROOT
BRANCH   1   2
ATOM      2  C   UNL     1       6.106 -35.203  23.540  1.00  0.00     0.000 C 
BRANCH   2   3
ATOM      3  C   UNL     1       4.817 -34.358  23.553  1.00  0.00     0.000 C 
BRANCH   3   4
ATOM      4  C   UNL     1       4.821 -33.157  22.590  1.00  0.00     0.000 C 
BRANCH   4   5
ATOM      5  C   UNL     1       4.570 -33.567  21.129  1.00  0.00     0.000 C 
BRANCH   5   6
ATOM      6  C   UNL     1       5.893 -33.776  20.377  1.00  0.00     0.000 C 
BRANCH   6   7
ATOM      7  C   UNL     1       5.757 -34.749  19.193  1.00  0.00     0.000 C 
BRANCH   7   8
ATOM      8  C   UNL     1       4.987 -34.137  18.011  1.00  0.00     0.000 C 
BRANCH   8   9
ATOM      9  C   UNL     1       3.897 -35.072  17.458  1.00  0.00     0.000 C 
BRANCH   9  10
ATOM     10  C   UNL     1       3.667 -36.367  18.263  1.00  0.00     0.000 C 
BRANCH  10  11
ATOM     11  C   UNL     1       2.241 -36.938  18.194  1.00  0.00     0.000 C 
BRANCH  11  12
ATOM     12  C   UNL     1       1.848 -37.402  16.785  1.00  0.00     0.000 C 
BRANCH  12  13
ATOM     13  C   UNL     1       1.950 -36.251  15.778  1.00  0.00     0.006 C 
BRANCH  13  14
ATOM     14  C   UNL     1       2.199 -36.780  14.363  1.00  0.00     0.053 C 
BRANCH  14  15
ATOM     15  C   UNL     1       3.597 -37.301  14.231  1.00  0.00     0.041 C 
ATOM     16  O   UNL     1       4.528 -36.525  13.888  1.00  0.00    -0.550 OA
ATOM     17  O   UNL     1       3.876 -38.634  14.503  1.00  0.00    -0.550 OA
ENDBRANCH  14  15
ENDBRANCH  13  14
ENDBRANCH  12  13
ENDBRANCH  11  12
ENDBRANCH  10  11
ENDBRANCH   9  10
ENDBRANCH   8   9
ENDBRANCH   7   8
ENDBRANCH   6   7
ENDBRANCH   5   6
ENDBRANCH   4   5
ENDBRANCH   3   4
ENDBRANCH   2   3
ENDBRANCH   1   2
BRANCH   1  18
ATOM     18  C   UNL     1       4.706 -36.729  21.968  1.00  0.00     0.000 C 
BRANCH  18  19
ATOM     19  C   UNL     1       4.797 -37.746  20.817  1.00  0.00     0.000 C 
BRANCH  19  20
ATOM     20  C   UNL     1       6.125 -38.521  20.822  1.00  0.00     0.000 C 
BRANCH  20  21
ATOM     21  C   UNL     1       6.001 -39.907  21.476  1.00  0.00     0.000 C 
BRANCH  21  22
ATOM     22  C   UNL     1       4.698 -40.013  22.284  1.00  0.00     0.000 C 
BRANCH  22  23
ATOM     23  C   UNL     1       4.909 -39.799  23.796  1.00  0.00     0.000 C 
BRANCH  23  24
ATOM     24  C   UNL     1       4.075 -38.652  24.402  1.00  0.00    -0.000 C 
BRANCH  24  25
ATOM     25  C   UNL     1       4.832 -37.788  25.429  1.00  0.00    -0.000 C 
BRANCH  25  26
ATOM     26  C   UNL     1       3.899 -36.863  26.230  1.00  0.00    -0.000 C 
BRANCH  26  27
ATOM     27  C   UNL     1       2.797 -37.643  26.971  1.00  0.00    -0.000 C 
BRANCH  27  28
ATOM     28  C   UNL     1       1.706 -36.761  27.618  1.00  0.00    -0.000 C 
BRANCH  28  29
ATOM     29  C   UNL     1       2.217 -35.480  28.306  1.00  0.00    -0.000 C 
BRANCH  29  30
ATOM     30  C   UNL     1       1.172 -34.735  29.160  1.00  0.00    -0.000 C 
BRANCH  30  31
ATOM     31  C   UNL     1       1.697 -33.466  29.853  1.00  0.00    -0.003 C 
ATOM     32  C   UNL     1       2.184 -33.730  31.279  1.00  0.00     0.004 C 
ENDBRANCH  30  31
ENDBRANCH  29  30
ENDBRANCH  28  29
ENDBRANCH  27  28
ENDBRANCH  26  27
ENDBRANCH  25  26
ENDBRANCH  24  25
ENDBRANCH  23  24
ENDBRANCH  22  23
ENDBRANCH  21  22
ENDBRANCH  20  21
ENDBRANCH  19  20
ENDBRANCH  18  19
ENDBRANCH   1  18
TORSDOF 28
ENDMDL
MODEL 4
REMARK VINA RESULT:     2.345      4.307      9.860
REMARK INTER + INTRA:           5.074
REMARK INTER:                   6.137
REMARK INTRA:                  -1.063
REMARK UNBOUND:                -1.110
REMARK SMILES CCCCCCCCCCCCCCCCCCCCCCCCCCCCCC(=O)[O-]
REMARK SMILES IDX 16 1 17 2 18 3 19 4 20 5 21 6 22 7 23 8 24 9 25 10 26 11
REMARK SMILES IDX 27 12 28 13 29 14 30 15 31 16 32 17 15 18 14 19 13 20 12 21
REMARK SMILES IDX 11 22 10 23 9 24 8 25 7 26 6 27 5 28 4 29 3 30 2 31 1 32
REMARK H PARENT
REMARK Flexibility Score: inf
ROOT
ATOM      1  C   UNL     1       6.112 -35.064  23.796  1.00  0.00     0.000 C 
ENDROOT
BRANCH   1   2
ATOM      2  C   UNL     1       4.916 -34.118  23.566  1.00  0.00     0.000 C 
BRANCH   2   3
ATOM      3  C   UNL     1       5.074 -33.139  22.386  1.00  0.00     0.000 C 
BRANCH   3   4
ATOM      4  C   UNL     1       4.754 -33.734  21.003  1.00  0.00     0.000 C 
BRANCH   4   5
ATOM      5  C   UNL     1       6.004 -34.257  20.278  1.00  0.00     0.000 C 
BRANCH   5   6
ATOM      6  C   UNL     1       5.679 -34.652  18.828  1.00  0.00     0.000 C 
BRANCH   6   7
ATOM      7  C   UNL     1       4.189 -34.973  18.620  1.00  0.00     0.000 C 
BRANCH   7   8
ATOM      8  C   UNL     1       3.840 -36.423  18.997  1.00  0.00     0.000 C 
BRANCH   8   9
ATOM      9  C   UNL     1       3.299 -37.236  17.808  1.00  0.00     0.000 C 
BRANCH   9  10
ATOM     10  C   UNL     1       1.815 -36.996  17.463  1.00  0.00     0.000 C 
BRANCH  10  11
ATOM     11  C   UNL     1       1.560 -36.024  16.299  1.00  0.00     0.000 C 
BRANCH  11  12
ATOM     12  C   UNL     1       2.840 -35.651  15.538  1.00  0.00     0.000 C 
BRANCH  12  13
ATOM     13  C   UNL     1       2.781 -36.143  14.088  1.00  0.00     0.006 C 
BRANCH  13  14
ATOM     14  C   UNL     1       2.836 -37.671  14.025  1.00  0.00     0.053 C 
BRANCH  14  15
ATOM     15  C   UNL     1       4.254 -38.153  14.054  1.00  0.00     0.041 C 
ATOM     16  O   UNL     1       4.500 -39.377  14.215  1.00  0.00    -0.550 OA
ATOM     17  O   UNL     1       5.301 -37.256  13.885  1.00  0.00    -0.550 OA
ENDBRANCH  14  15
ENDBRANCH  13  14
ENDBRANCH  12  13
ENDBRANCH  11  12
ENDBRANCH  10  11
ENDBRANCH   9  10
ENDBRANCH   8   9
ENDBRANCH   7   8
ENDBRANCH   6   7
ENDBRANCH   5   6
ENDBRANCH   4   5
ENDBRANCH   3   4
ENDBRANCH   2   3
ENDBRANCH   1   2
BRANCH   1  18
ATOM     18  C   UNL     1       6.056 -36.389  23.014  1.00  0.00     0.000 C 
BRANCH  18  19
ATOM     19  C   UNL     1       4.640 -36.724  22.513  1.00  0.00     0.000 C 
BRANCH  19  20
ATOM     20  C   UNL     1       4.655 -37.525  21.201  1.00  0.00     0.000 C 
BRANCH  20  21
ATOM     21  C   UNL     1       5.917 -38.389  21.048  1.00  0.00     0.000 C 
BRANCH  21  22
ATOM     22  C   UNL     1       5.664 -39.818  21.556  1.00  0.00     0.000 C 
BRANCH  22  23
ATOM     23  C   UNL     1       5.573 -39.902  23.092  1.00  0.00     0.000 C 
BRANCH  23  24
ATOM     24  C   UNL     1       4.155 -40.176  23.635  1.00  0.00    -0.000 C 
BRANCH  24  25
ATOM     25  C   UNL     1       3.569 -39.037  24.491  1.00  0.00    -0.000 C 
BRANCH  25  26
ATOM     26  C   UNL     1       4.655 -38.173  25.155  1.00  0.00    -0.000 C 
BRANCH  26  27
ATOM     27  C   UNL     1       4.074 -37.213  26.209  1.00  0.00    -0.000 C 
BRANCH  27  28
ATOM     28  C   UNL     1       2.562 -37.382  26.474  1.00  0.00    -0.000 C 
BRANCH  28  29
ATOM     29  C   UNL     1       2.087 -36.953  27.876  1.00  0.00    -0.000 C 
BRANCH  29  30
ATOM     30  C   UNL     1       2.405 -35.493  28.256  1.00  0.00    -0.000 C 
BRANCH  30  31
ATOM     31  C   UNL     1       1.295 -34.780  29.047  1.00  0.00    -0.003 C 
ATOM     32  C   UNL     1       1.831 -33.998  30.248  1.00  0.00     0.004 C 
ENDBRANCH  30  31
ENDBRANCH  29  30
ENDBRANCH  28  29
ENDBRANCH  27  28
ENDBRANCH  26  27
ENDBRANCH  25  26
ENDBRANCH  24  25
ENDBRANCH  23  24
ENDBRANCH  22  23
ENDBRANCH  21  22
ENDBRANCH  20  21
ENDBRANCH  19  20
ENDBRANCH  18  19
ENDBRANCH   1  18
TORSDOF 28
ENDMDL
MODEL 5
REMARK VINA RESULT:     2.639      2.542      8.509
REMARK INTER + INTRA:           5.849
REMARK INTER:                   7.053
REMARK INTRA:                  -1.204
REMARK UNBOUND:                -1.110
REMARK SMILES CCCCCCCCCCCCCCCCCCCCCCCCCCCCCC(=O)[O-]
REMARK SMILES IDX 16 1 17 2 18 3 19 4 20 5 21 6 22 7 23 8 24 9 25 10 26 11
REMARK SMILES IDX 27 12 28 13 29 14 30 15 31 16 32 17 15 18 14 19 13 20 12 21
REMARK SMILES IDX 11 22 10 23 9 24 8 25 7 26 6 27 5 28 4 29 3 30 2 31 1 32
REMARK H PARENT
REMARK Flexibility Score: inf
ROOT
ATOM      1  C   UNL     1       1.975 -37.528  19.840  1.00  0.00     0.000 C 
ENDROOT
BRANCH   1   2
ATOM      2  C   UNL     1       1.811 -37.964  18.370  1.00  0.00     0.000 C 
BRANCH   2   3
ATOM      3  C   UNL     1       0.664 -37.273  17.607  1.00  0.00     0.000 C 
BRANCH   3   4
ATOM      4  C   UNL     1       1.094 -36.521  16.335  1.00  0.00     0.000 C 
BRANCH   4   5
ATOM      5  C   UNL     1       2.300 -37.173  15.639  1.00  0.00     0.000 C 
BRANCH   5   6
ATOM      6  C   UNL     1       3.485 -36.198  15.555  1.00  0.00     0.000 C 
BRANCH   6   7
ATOM      7  C   UNL     1       4.290 -36.127  16.865  1.00  0.00     0.000 C 
BRANCH   7   8
ATOM      8  C   UNL     1       3.807 -35.002  17.795  1.00  0.00     0.000 C 
BRANCH   8   9
ATOM      9  C   UNL     1       4.915 -33.991  18.138  1.00  0.00     0.000 C 
BRANCH   9  10
ATOM     10  C   UNL     1       6.083 -34.551  18.976  1.00  0.00     0.000 C 
BRANCH  10  11
ATOM     11  C   UNL     1       6.124 -34.082  20.440  1.00  0.00     0.000 C 
BRANCH  11  12
ATOM     12  C   UNL     1       5.889 -35.222  21.441  1.00  0.00     0.000 C 
BRANCH  12  13
ATOM     13  C   UNL     1       5.257 -34.697  22.735  1.00  0.00     0.006 C 
BRANCH  13  14
ATOM     14  C   UNL     1       4.730 -33.272  22.549  1.00  0.00     0.053 C 
BRANCH  14  15
ATOM     15  C   UNL     1       3.566 -33.257  21.606  1.00  0.00     0.041 C 
ATOM     16  O   UNL     1       3.125 -32.161  21.169  1.00  0.00    -0.550 OA
ATOM     17  O   UNL     1       2.981 -34.448  21.197  1.00  0.00    -0.550 OA
ENDBRANCH  14  15
ENDBRANCH  13  14
ENDBRANCH  12  13
ENDBRANCH  11  12
ENDBRANCH  10  11
ENDBRANCH   9  10
ENDBRANCH   8   9
ENDBRANCH   7   8
ENDBRANCH   6   7
ENDBRANCH   5   6
ENDBRANCH   4   5
ENDBRANCH   3   4
ENDBRANCH   2   3
ENDBRANCH   1   2
BRANCH   1  18
ATOM     18  C   UNL     1       3.425 -37.511  20.359  1.00  0.00     0.000 C 
BRANCH  18  19
ATOM     19  C   UNL     1       4.385 -38.314  19.463  1.00  0.00     0.000 C 
BRANCH  19  20
ATOM     20  C   UNL     1       5.804 -38.396  20.050  1.00  0.00     0.000 C 
BRANCH  20  21
ATOM     21  C   UNL     1       6.119 -39.775  20.651  1.00  0.00     0.000 C 
BRANCH  21  22
ATOM     22  C   UNL     1       5.518 -39.904  22.061  1.00  0.00     0.000 C 
BRANCH  22  23
ATOM     23  C   UNL     1       4.812 -38.618  22.533  1.00  0.00     0.000 C 
BRANCH  23  24
ATOM     24  C   UNL     1       4.732 -38.458  24.065  1.00  0.00    -0.000 C 
BRANCH  24  25
ATOM     25  C   UNL     1       4.943 -37.017  24.567  1.00  0.00    -0.000 C 
BRANCH  25  26
ATOM     26  C   UNL     1       4.393 -36.794  25.986  1.00  0.00    -0.000 C 
BRANCH  26  27
ATOM     27  C   UNL     1       3.536 -37.978  26.473  1.00  0.00    -0.000 C 
BRANCH  27  28
ATOM     28  C   UNL     1       2.170 -37.582  27.075  1.00  0.00    -0.000 C 
BRANCH  28  29
ATOM     29  C   UNL     1       1.961 -36.071  27.295  1.00  0.00    -0.000 C 
BRANCH  29  30
ATOM     30  C   UNL     1       1.534 -35.670  28.722  1.00  0.00    -0.000 C 
BRANCH  30  31
ATOM     31  C   UNL     1       2.271 -34.446  29.292  1.00  0.00    -0.003 C 
ATOM     32  C   UNL     1       1.355 -33.529  30.104  1.00  0.00     0.004 C 
ENDBRANCH  30  31
ENDBRANCH  29  30
ENDBRANCH  28  29
ENDBRANCH  27  28
ENDBRANCH  26  27
ENDBRANCH  25  26
ENDBRANCH  24  25
ENDBRANCH  23  24
ENDBRANCH  22  23
ENDBRANCH  21  22
ENDBRANCH  20  21
ENDBRANCH  19  20
ENDBRANCH  18  19
ENDBRANCH   1  18
TORSDOF 28
ENDMDL
MODEL 6
REMARK VINA RESULT:     2.737      2.991      9.151
REMARK INTER + INTRA:           6.107
REMARK INTER:                   7.055
REMARK INTRA:                  -0.948
REMARK UNBOUND:                -1.110
REMARK SMILES CCCCCCCCCCCCCCCCCCCCCCCCCCCCCC(=O)[O-]
REMARK SMILES IDX 16 1 17 2 18 3 19 4 20 5 21 6 22 7 23 8 24 9 25 10 26 11
REMARK SMILES IDX 27 12 28 13 29 14 30 15 31 16 32 17 15 18 14 19 13 20 12 21
REMARK SMILES IDX 11 22 10 23 9 24 8 25 7 26 6 27 5 28 4 29 3 30 2 31 1 32
REMARK H PARENT
REMARK Flexibility Score: inf
ROOT
ATOM      1  C   UNL     1       5.438 -35.416  23.953  1.00  0.00     0.000 C 
ENDROOT
BRANCH   1   2
ATOM      2  C   UNL     1       5.961 -33.970  24.068  1.00  0.00     0.000 C 
BRANCH   2   3
ATOM      3  C   UNL     1       5.749 -33.097  22.815  1.00  0.00     0.000 C 
BRANCH   3   4
ATOM      4  C   UNL     1       4.348 -33.197  22.186  1.00  0.00     0.000 C 
BRANCH   4   5
ATOM      5  C   UNL     1       4.392 -33.574  20.696  1.00  0.00     0.000 C 
BRANCH   5   6
ATOM      6  C   UNL     1       5.829 -33.881  20.245  1.00  0.00     0.000 C 
BRANCH   6   7
ATOM      7  C   UNL     1       5.939 -34.105  18.726  1.00  0.00     0.000 C 
BRANCH   7   8
ATOM      8  C   UNL     1       4.567 -34.276  18.053  1.00  0.00     0.000 C 
BRANCH   8   9
ATOM      9  C   UNL     1       4.011 -35.705  18.183  1.00  0.00     0.000 C 
BRANCH   9  10
ATOM     10  C   UNL     1       3.873 -36.483  16.859  1.00  0.00     0.000 C 
BRANCH  10  11
ATOM     11  C   UNL     1       3.290 -35.682  15.684  1.00  0.00     0.000 C 
BRANCH  11  12
ATOM     12  C   UNL     1       1.878 -36.137  15.290  1.00  0.00     0.000 C 
BRANCH  12  13
ATOM     13  C   UNL     1       1.356 -37.210  16.252  1.00  0.00     0.006 C 
BRANCH  13  14
ATOM     14  C   UNL     1       1.144 -36.632  17.654  1.00  0.00     0.053 C 
BRANCH  14  15
ATOM     15  C   UNL     1       0.946 -37.729  18.654  1.00  0.00     0.041 C 
ATOM     16  O   UNL     1      -0.174 -38.296  18.754  1.00  0.00    -0.550 OA
ATOM     17  O   UNL     1       2.000 -38.137  19.462  1.00  0.00    -0.550 OA
ENDBRANCH  14  15
ENDBRANCH  13  14
ENDBRANCH  12  13
ENDBRANCH  11  12
ENDBRANCH  10  11
ENDBRANCH   9  10
ENDBRANCH   8   9
ENDBRANCH   7   8
ENDBRANCH   6   7
ENDBRANCH   5   6
ENDBRANCH   4   5
ENDBRANCH   3   4
ENDBRANCH   2   3
ENDBRANCH   1   2
BRANCH   1  18
ATOM     18  C   UNL     1       5.962 -36.206  22.740  1.00  0.00     0.000 C 
BRANCH  18  19
ATOM     19  C   UNL     1       4.841 -36.620  21.771  1.00  0.00     0.000 C 
BRANCH  19  20
ATOM     20  C   UNL     1       5.382 -37.297  20.501  1.00  0.00     0.000 C 
BRANCH  20  21
ATOM     21  C   UNL     1       5.786 -38.762  20.736  1.00  0.00     0.000 C 
BRANCH  21  22
ATOM     22  C   UNL     1       4.636 -39.546  21.388  1.00  0.00     0.000 C 
BRANCH  22  23
ATOM     23  C   UNL     1       5.058 -40.264  22.685  1.00  0.00     0.000 C 
BRANCH  23  24
ATOM     24  C   UNL     1       5.366 -39.322  23.867  1.00  0.00    -0.000 C 
BRANCH  24  25
ATOM     25  C   UNL     1       4.122 -38.843  24.640  1.00  0.00    -0.000 C 
BRANCH  25  26
ATOM     26  C   UNL     1       4.479 -38.050  25.909  1.00  0.00    -0.000 C 
BRANCH  26  27
ATOM     27  C   UNL     1       3.467 -36.927  26.202  1.00  0.00    -0.000 C 
BRANCH  27  28
ATOM     28  C   UNL     1       2.450 -37.249  27.319  1.00  0.00    -0.000 C 
BRANCH  28  29
ATOM     29  C   UNL     1       1.589 -36.060  27.787  1.00  0.00    -0.000 C 
BRANCH  29  30
ATOM     30  C   UNL     1       2.285 -35.093  28.766  1.00  0.00    -0.000 C 
BRANCH  30  31
ATOM     31  C   UNL     1       1.331 -34.176  29.549  1.00  0.00    -0.003 C 
ATOM     32  C   UNL     1       1.937 -33.671  30.860  1.00  0.00     0.004 C 
ENDBRANCH  30  31
ENDBRANCH  29  30
ENDBRANCH  28  29
ENDBRANCH  27  28
ENDBRANCH  26  27
ENDBRANCH  25  26
ENDBRANCH  24  25
ENDBRANCH  23  24
ENDBRANCH  22  23
ENDBRANCH  21  22
ENDBRANCH  20  21
ENDBRANCH  19  20
ENDBRANCH  18  19
ENDBRANCH   1  18
TORSDOF 28
ENDMDL
MODEL 7
REMARK VINA RESULT:     2.914      1.008      2.146
REMARK INTER + INTRA:           6.574
REMARK INTER:                   6.067
REMARK INTRA:                   0.507
REMARK UNBOUND:                -1.110
REMARK SMILES CCCCCCCCCCCCCCCCCCCCCCCCCCCCCC(=O)[O-]
REMARK SMILES IDX 16 1 17 2 18 3 19 4 20 5 21 6 22 7 23 8 24 9 25 10 26 11
REMARK SMILES IDX 27 12 28 13 29 14 30 15 31 16 32 17 15 18 14 19 13 20 12 21
REMARK SMILES IDX 11 22 10 23 9 24 8 25 7 26 6 27 5 28 4 29 3 30 2 31 1 32
REMARK H PARENT
REMARK Flexibility Score: inf
ROOT
ATOM      1  C   UNL     1       5.311 -35.651  23.282  1.00  0.00     0.000 C 
ENDROOT
BRANCH   1   2
ATOM      2  C   UNL     1       6.041 -36.608  22.318  1.00  0.00     0.000 C 
BRANCH   2   3
ATOM      3  C   UNL     1       5.202 -37.093  21.119  1.00  0.00     0.000 C 
BRANCH   3   4
ATOM      4  C   UNL     1       5.643 -38.443  20.525  1.00  0.00     0.000 C 
BRANCH   4   5
ATOM      5  C   UNL     1       5.894 -39.512  21.602  1.00  0.00     0.000 C 
BRANCH   5   6
ATOM      6  C   UNL     1       4.573 -39.985  22.230  1.00  0.00     0.000 C 
BRANCH   6   7
ATOM      7  C   UNL     1       4.036 -39.009  23.292  1.00  0.00     0.000 C 
BRANCH   7   8
ATOM      8  C   UNL     1       4.761 -39.149  24.641  1.00  0.00     0.000 C 
BRANCH   8   9
ATOM      9  C   UNL     1       5.192 -37.795  25.232  1.00  0.00     0.000 C 
BRANCH   9  10
ATOM     10  C   UNL     1       4.082 -37.007  25.957  1.00  0.00     0.000 C 
BRANCH  10  11
ATOM     11  C   UNL     1       3.079 -37.863  26.749  1.00  0.00     0.000 C 
BRANCH  11  12
ATOM     12  C   UNL     1       1.814 -37.091  27.145  1.00  0.00     0.000 C 
BRANCH  12  13
ATOM     13  C   UNL     1       1.989 -36.407  28.506  1.00  0.00     0.006 C 
BRANCH  13  14
ATOM     14  C   UNL     1       2.039 -34.885  28.352  1.00  0.00     0.053 C 
BRANCH  14  15
ATOM     15  C   UNL     1       1.382 -34.212  29.517  1.00  0.00     0.041 C 
ATOM     16  O   UNL     1       2.017 -34.056  30.594  1.00  0.00    -0.550 OA
ATOM     17  O   UNL     1       0.081 -33.741  29.410  1.00  0.00    -0.550 OA
ENDBRANCH  14  15
ENDBRANCH  13  14
ENDBRANCH  12  13
ENDBRANCH  11  12
ENDBRANCH  10  11
ENDBRANCH   9  10
ENDBRANCH   8   9
ENDBRANCH   7   8
ENDBRANCH   6   7
ENDBRANCH   5   6
ENDBRANCH   4   5
ENDBRANCH   3   4
ENDBRANCH   2   3
ENDBRANCH   1   2
BRANCH   1  18
ATOM     18  C   UNL     1       6.030 -34.314  23.543  1.00  0.00     0.000 C 
BRANCH  18  19
ATOM     19  C   UNL     1       5.401 -33.141  22.770  1.00  0.00     0.000 C 
BRANCH  19  20
ATOM     20  C   UNL     1       4.051 -33.512  22.136  1.00  0.00     0.000 C 
BRANCH  20  21
ATOM     21  C   UNL     1       4.095 -33.505  20.600  1.00  0.00     0.000 C 
BRANCH  21  22
ATOM     22  C   UNL     1       5.302 -34.306  20.086  1.00  0.00     0.000 C 
BRANCH  22  23
ATOM     23  C   UNL     1       5.672 -33.967  18.629  1.00  0.00     0.000 C 
BRANCH  23  24
ATOM     24  C   UNL     1       4.476 -33.938  17.655  1.00  0.00    -0.000 C 
BRANCH  24  25
ATOM     25  C   UNL     1       3.829 -35.314  17.401  1.00  0.00    -0.000 C 
BRANCH  25  26
ATOM     26  C   UNL     1       3.070 -35.376  16.065  1.00  0.00    -0.000 C 
BRANCH  26  27
ATOM     27  C   UNL     1       2.697 -36.818  15.671  1.00  0.00    -0.000 C 
BRANCH  27  28
ATOM     28  C   UNL     1       3.010 -37.882  16.746  1.00  0.00    -0.000 C 
BRANCH  28  29
ATOM     29  C   UNL     1       3.168 -37.342  18.181  1.00  0.00    -0.000 C 
BRANCH  29  30
ATOM     30  C   UNL     1       2.209 -37.956  19.220  1.00  0.00    -0.000 C 
BRANCH  30  31
ATOM     31  C   UNL     1       0.840 -38.378  18.660  1.00  0.00    -0.003 C 
ATOM     32  C   UNL     1      -0.201 -37.261  18.735  1.00  0.00     0.004 C 
ENDBRANCH  30  31
ENDBRANCH  29  30
ENDBRANCH  28  29
ENDBRANCH  27  28
ENDBRANCH  26  27
ENDBRANCH  25  26
ENDBRANCH  24  25
ENDBRANCH  23  24
ENDBRANCH  22  23
ENDBRANCH  21  22
ENDBRANCH  20  21
ENDBRANCH  19  20
ENDBRANCH  18  19
ENDBRANCH   1  18
TORSDOF 28
ENDMDL
MODEL 8
REMARK VINA RESULT:     3.645      2.975      8.581
REMARK INTER + INTRA:           8.500
REMARK INTER:                   7.094
REMARK INTRA:                   1.406
REMARK UNBOUND:                -1.110
REMARK SMILES CCCCCCCCCCCCCCCCCCCCCCCCCCCCCC(=O)[O-]
REMARK SMILES IDX 16 1 17 2 18 3 19 4 20 5 21 6 22 7 23 8 24 9 25 10 26 11
REMARK SMILES IDX 27 12 28 13 29 14 30 15 31 16 32 17 15 18 14 19 13 20 12 21
REMARK SMILES IDX 11 22 10 23 9 24 8 25 7 26 6 27 5 28 4 29 3 30 2 31 1 32
REMARK H PARENT
REMARK Flexibility Score: inf
ROOT
ATOM      1  C   UNL     1       5.877 -35.492  23.255  1.00  0.00     0.000 C 
ENDROOT
BRANCH   1   2
ATOM      2  C   UNL     1       5.865 -34.011  23.687  1.00  0.00     0.000 C 
BRANCH   2   3
ATOM      3  C   UNL     1       5.448 -33.013  22.589  1.00  0.00     0.000 C 
BRANCH   3   4
ATOM      4  C   UNL     1       3.938 -32.966  22.296  1.00  0.00     0.000 C 
BRANCH   4   5
ATOM      5  C   UNL     1       3.625 -32.963  20.791  1.00  0.00     0.000 C 
BRANCH   5   6
ATOM      6  C   UNL     1       4.209 -34.205  20.100  1.00  0.00     0.000 C 
BRANCH   6   7
ATOM      7  C   UNL     1       5.253 -33.853  19.026  1.00  0.00     0.000 C 
BRANCH   7   8
ATOM      8  C   UNL     1       5.060 -34.659  17.730  1.00  0.00     0.000 C 
BRANCH   8   9
ATOM      9  C   UNL     1       3.610 -35.137  17.533  1.00  0.00     0.000 C 
BRANCH   9  10
ATOM     10  C   UNL     1       3.070 -35.031  16.092  1.00  0.00     0.000 C 
BRANCH  10  11
ATOM     11  C   UNL     1       3.503 -36.160  15.143  1.00  0.00     0.000 C 
BRANCH  11  12
ATOM     12  C   UNL     1       2.770 -37.482  15.411  1.00  0.00     0.000 C 
BRANCH  12  13
ATOM     13  C   UNL     1       1.789 -37.341  16.579  1.00  0.00     0.006 C 
BRANCH  13  14
ATOM     14  C   UNL     1       2.408 -37.856  17.881  1.00  0.00     0.053 C 
BRANCH  14  15
ATOM     15  C   UNL     1       1.398 -37.852  18.987  1.00  0.00     0.041 C 
ATOM     16  O   UNL     1       1.713 -38.279  20.129  1.00  0.00    -0.550 OA
ATOM     17  O   UNL     1       0.119 -37.360  18.764  1.00  0.00    -0.550 OA
ENDBRANCH  14  15
ENDBRANCH  13  14
ENDBRANCH  12  13
ENDBRANCH  11  12
ENDBRANCH  10  11
ENDBRANCH   9  10
ENDBRANCH   8   9
ENDBRANCH   7   8
ENDBRANCH   6   7
ENDBRANCH   5   6
ENDBRANCH   4   5
ENDBRANCH   3   4
ENDBRANCH   2   3
ENDBRANCH   1   2
BRANCH   1  18
ATOM     18  C   UNL     1       6.064 -35.730  21.745  1.00  0.00     0.000 C 
BRANCH  18  19
ATOM     19  C   UNL     1       4.974 -36.636  21.147  1.00  0.00     0.000 C 
BRANCH  19  20
ATOM     20  C   UNL     1       5.450 -37.373  19.885  1.00  0.00     0.000 C 
BRANCH  20  21
ATOM     21  C   UNL     1       5.073 -38.864  19.890  1.00  0.00     0.000 C 
BRANCH  21  22
ATOM     22  C   UNL     1       6.125 -39.689  20.649  1.00  0.00     0.000 C 
BRANCH  22  23
ATOM     23  C   UNL     1       5.753 -39.924  22.126  1.00  0.00     0.000 C 
BRANCH  23  24
ATOM     24  C   UNL     1       4.298 -39.560  22.485  1.00  0.00    -0.000 C 
BRANCH  24  25
ATOM     25  C   UNL     1       4.141 -38.812  23.823  1.00  0.00    -0.000 C 
BRANCH  25  26
ATOM     26  C   UNL     1       5.485 -38.562  24.527  1.00  0.00    -0.000 C 
BRANCH  26  27
ATOM     27  C   UNL     1       5.629 -37.108  25.014  1.00  0.00    -0.000 C 
BRANCH  27  28
ATOM     28  C   UNL     1       4.691 -36.722  26.179  1.00  0.00    -0.000 C 
BRANCH  28  29
ATOM     29  C   UNL     1       3.450 -37.619  26.350  1.00  0.00    -0.000 C 
BRANCH  29  30
ATOM     30  C   UNL     1       2.429 -37.130  27.397  1.00  0.00    -0.000 C 
BRANCH  30  31
ATOM     31  C   UNL     1       1.108 -37.918  27.420  1.00  0.00    -0.003 C 
ATOM     32  C   UNL     1       0.880 -38.731  26.144  1.00  0.00     0.004 C 
ENDBRANCH  30  31
ENDBRANCH  29  30
ENDBRANCH  28  29
ENDBRANCH  27  28
ENDBRANCH  26  27
ENDBRANCH  25  26
ENDBRANCH  24  25
ENDBRANCH  23  24
ENDBRANCH  22  23
ENDBRANCH  21  22
ENDBRANCH  20  21
ENDBRANCH  19  20
ENDBRANCH  18  19
ENDBRANCH   1  18
TORSDOF 28
ENDMDL
