MODEL 1
REMARK VINA RESULT:    -4.464      0.000      0.000
REMARK INTER + INTRA:          -9.431
REMARK INTER:                  -7.595
REMARK INTRA:                  -1.836
REMARK UNBOUND:                -1.836
REMARK SMILES CCCCCCCCCCCCCC(=O)[O-]
REMARK SMILES IDX 8 1 9 2 10 3 11 4 12 5 13 6 14 7 15 8 16 9 7 10 6 11 5 12
REMARK SMILES IDX 4 13 3 14 2 15 1 16
REMARK H PARENT
REMARK Flexibility Score: inf
ROOT
ATOM      1  C   UNL     1     -25.687 -60.860   2.998  1.00  0.00     0.000 C 
ENDROOT
BRANCH   1   2
ATOM      2  C   UNL     1     -24.708 -60.413   1.900  1.00  0.00     0.000 C 
BRANCH   2   3
ATOM      3  C   UNL     1     -23.783 -59.273   2.360  1.00  0.00     0.000 C 
BRANCH   3   4
ATOM      4  C   UNL     1     -22.432 -59.278   1.627  1.00  0.00     0.000 C 
BRANCH   4   5
ATOM      5  C   UNL     1     -22.224 -60.541   0.773  1.00  0.00     0.006 C 
BRANCH   5   6
ATOM      6  C   UNL     1     -21.875 -60.204  -0.683  1.00  0.00     0.053 C 
BRANCH   6   7
ATOM      7  C   UNL     1     -22.919 -59.334  -1.315  1.00  0.00     0.041 C 
ATOM      8  O   UNL     1     -22.721 -58.096  -1.441  1.00  0.00    -0.550 OA
ATOM      9  O   UNL     1     -24.094 -59.896  -1.796  1.00  0.00    -0.550 OA
ENDBRANCH   6   7
ENDBRANCH   5   6
ENDBRANCH   4   5
ENDBRANCH   3   4
ENDBRANCH   2   3
ENDBRANCH   1   2
BRANCH   1  10
ATOM     10  C   UNL     1     -25.420 -62.297   3.478  1.00  0.00     0.000 C 
BRANCH  10  11
ATOM     11  C   UNL     1     -24.205 -62.936   2.784  1.00  0.00    -0.000 C 
BRANCH  11  12
ATOM     12  C   UNL     1     -22.932 -62.873   3.643  1.00  0.00    -0.000 C 
BRANCH  12  13
ATOM     13  C   UNL     1     -23.228 -62.533   5.113  1.00  0.00    -0.000 C 
BRANCH  13  14
ATOM     14  C   UNL     1     -22.533 -61.244   5.577  1.00  0.00    -0.000 C 
BRANCH  14  15
ATOM     15  C   UNL     1     -23.558 -60.211   6.058  1.00  0.00    -0.003 C 
ATOM     16  C   UNL     1     -23.046 -58.787   5.852  1.00  0.00     0.004 C 
ENDBRANCH  14  15
ENDBRANCH  13  14
ENDBRANCH  12  13
ENDBRANCH  11  12
ENDBRANCH  10  11
ENDBRANCH   1  10
TORSDOF 12
ENDMDL
MODEL 2
REMARK VINA RESULT:    -4.370      0.945      2.867
REMARK INTER + INTRA:          -9.271
REMARK INTER:                  -7.661
REMARK INTRA:                  -1.610
REMARK UNBOUND:                -1.836
REMARK SMILES CCCCCCCCCCCCCC(=O)[O-]
REMARK SMILES IDX 8 1 9 2 10 3 11 4 12 5 13 6 14 7 15 8 16 9 7 10 6 11 5 12
REMARK SMILES IDX 4 13 3 14 2 15 1 16
REMARK H PARENT
REMARK Flexibility Score: inf
ROOT
ATOM      1  C   UNL     1     -23.747 -58.668   4.364  1.00  0.00     0.000 C 
ENDROOT
BRANCH   1   2
ATOM      2  C   UNL     1     -23.100 -57.459   3.669  1.00  0.00     0.000 C 
BRANCH   2   3
ATOM      3  C   UNL     1     -22.583 -57.794   2.259  1.00  0.00     0.000 C 
BRANCH   3   4
ATOM      4  C   UNL     1     -23.016 -59.192   1.789  1.00  0.00     0.000 C 
BRANCH   4   5
ATOM      5  C   UNL     1     -21.966 -59.868   0.890  1.00  0.00     0.006 C 
BRANCH   5   6
ATOM      6  C   UNL     1     -22.598 -60.524  -0.345  1.00  0.00     0.053 C 
BRANCH   6   7
ATOM      7  C   UNL     1     -23.149 -59.503  -1.293  1.00  0.00     0.041 C 
ATOM      8  O   UNL     1     -24.240 -59.710  -1.885  1.00  0.00    -0.550 OA
ATOM      9  O   UNL     1     -22.473 -58.306  -1.495  1.00  0.00    -0.550 OA
ENDBRANCH   6   7
ENDBRANCH   5   6
ENDBRANCH   4   5
ENDBRANCH   3   4
ENDBRANCH   2   3
ENDBRANCH   1   2
BRANCH   1  10
ATOM     10  C   UNL     1     -22.861 -59.254   5.477  1.00  0.00     0.000 C 
BRANCH  10  11
ATOM     11  C   UNL     1     -23.376 -60.609   5.990  1.00  0.00    -0.000 C 
BRANCH  11  12
ATOM     12  C   UNL     1     -22.370 -61.749   5.760  1.00  0.00    -0.000 C 
BRANCH  12  13
ATOM     13  C   UNL     1     -22.928 -62.854   4.848  1.00  0.00    -0.000 C 
BRANCH  13  14
ATOM     14  C   UNL     1     -22.859 -62.487   3.359  1.00  0.00    -0.000 C 
BRANCH  14  15
ATOM     15  C   UNL     1     -24.169 -62.842   2.645  1.00  0.00    -0.003 C 
ATOM     16  C   UNL     1     -25.343 -62.056   3.223  1.00  0.00     0.004 C 
ENDBRANCH  14  15
ENDBRANCH  13  14
ENDBRANCH  12  13
ENDBRANCH  11  12
ENDBRANCH  10  11
ENDBRANCH   1  10
TORSDOF 12
ENDMDL
MODEL 3
REMARK VINA RESULT:    -4.288      1.351      1.635
REMARK INTER + INTRA:          -9.132
REMARK INTER:                  -7.708
REMARK INTRA:                  -1.424
REMARK UNBOUND:                -1.836
REMARK SMILES CCCCCCCCCCCCCC(=O)[O-]
REMARK SMILES IDX 8 1 9 2 10 3 11 4 12 5 13 6 14 7 15 8 16 9 7 10 6 11 5 12
REMARK SMILES IDX 4 13 3 14 2 15 1 16
REMARK H PARENT
REMARK Flexibility Score: inf
ROOT
ATOM      1  C   UNL     1     -24.744 -61.293   2.519  1.00  0.00     0.000 C 
ENDROOT
BRANCH   1   2
ATOM      2  C   UNL     1     -23.257 -61.195   2.138  1.00  0.00     0.000 C 
BRANCH   2   3
ATOM      3  C   UNL     1     -22.876 -59.808   1.594  1.00  0.00     0.000 C 
BRANCH   3   4
ATOM      4  C   UNL     1     -22.222 -59.879   0.204  1.00  0.00     0.000 C 
BRANCH   4   5
ATOM      5  C   UNL     1     -23.227 -60.230  -0.907  1.00  0.00     0.006 C 
BRANCH   5   6
ATOM      6  C   UNL     1     -24.551 -59.469  -0.751  1.00  0.00     0.053 C 
BRANCH   6   7
ATOM      7  C   UNL     1     -24.953 -58.791  -2.026  1.00  0.00     0.041 C 
ATOM      8  O   UNL     1     -24.684 -57.575  -2.209  1.00  0.00    -0.550 OA
ATOM      9  O   UNL     1     -25.594 -59.513  -3.024  1.00  0.00    -0.550 OA
ENDBRANCH   6   7
ENDBRANCH   5   6
ENDBRANCH   4   5
ENDBRANCH   3   4
ENDBRANCH   2   3
ENDBRANCH   1   2
BRANCH   1  10
ATOM     10  C   UNL     1     -25.113 -62.663   3.113  1.00  0.00     0.000 C 
BRANCH  10  11
ATOM     11  C   UNL     1     -23.942 -63.660   3.071  1.00  0.00    -0.000 C 
BRANCH  11  12
ATOM     12  C   UNL     1     -23.549 -64.169   4.468  1.00  0.00    -0.000 C 
BRANCH  12  13
ATOM     13  C   UNL     1     -22.467 -63.301   5.130  1.00  0.00    -0.000 C 
BRANCH  13  14
ATOM     14  C   UNL     1     -23.052 -62.241   6.076  1.00  0.00    -0.000 C 
BRANCH  14  15
ATOM     15  C   UNL     1     -22.486 -60.852   5.760  1.00  0.00    -0.003 C 
ATOM     16  C   UNL     1     -23.577 -59.786   5.813  1.00  0.00     0.004 C 
ENDBRANCH  14  15
ENDBRANCH  13  14
ENDBRANCH  12  13
ENDBRANCH  11  12
ENDBRANCH  10  11
ENDBRANCH   1  10
TORSDOF 12
ENDMDL
MODEL 4
REMARK VINA RESULT:    -4.286      2.235      3.923
REMARK INTER + INTRA:          -9.129
REMARK INTER:                  -6.847
REMARK INTRA:                  -2.283
REMARK UNBOUND:                -1.836
REMARK SMILES CCCCCCCCCCCCCC(=O)[O-]
REMARK SMILES IDX 8 1 9 2 10 3 11 4 12 5 13 6 14 7 15 8 16 9 7 10 6 11 5 12
REMARK SMILES IDX 4 13 3 14 2 15 1 16
REMARK H PARENT
REMARK Flexibility Score: inf
ROOT
ATOM      1  C   UNL     1     -22.970 -57.265   1.705  1.00  0.00     0.000 C 
ENDROOT
BRANCH   1   2
ATOM      2  C   UNL     1     -24.407 -57.706   2.029  1.00  0.00     0.000 C 
BRANCH   2   3
ATOM      3  C   UNL     1     -25.319 -57.705   0.790  1.00  0.00     0.000 C 
BRANCH   3   4
ATOM      4  C   UNL     1     -25.974 -59.073   0.538  1.00  0.00     0.000 C 
BRANCH   4   5
ATOM      5  C   UNL     1     -25.496 -59.728  -0.770  1.00  0.00     0.006 C 
BRANCH   5   6
ATOM      6  C   UNL     1     -25.005 -58.691  -1.790  1.00  0.00     0.053 C 
BRANCH   6   7
ATOM      7  C   UNL     1     -25.975 -58.525  -2.920  1.00  0.00     0.041 C 
ATOM      8  O   UNL     1     -26.768 -57.546  -2.937  1.00  0.00    -0.550 OA
ATOM      9  O   UNL     1     -25.978 -59.431  -3.972  1.00  0.00    -0.550 OA
ENDBRANCH   6   7
ENDBRANCH   5   6
ENDBRANCH   4   5
ENDBRANCH   3   4
ENDBRANCH   2   3
ENDBRANCH   1   2
BRANCH   1  10
ATOM     10  C   UNL     1     -21.995 -58.452   1.608  1.00  0.00     0.000 C 
BRANCH  10  11
ATOM     11  C   UNL     1     -21.899 -59.023   0.183  1.00  0.00    -0.000 C 
BRANCH  11  12
ATOM     12  C   UNL     1     -21.979 -60.559   0.155  1.00  0.00    -0.000 C 
BRANCH  12  13
ATOM     13  C   UNL     1     -22.292 -61.159   1.535  1.00  0.00    -0.000 C 
BRANCH  13  14
ATOM     14  C   UNL     1     -23.694 -61.782   1.608  1.00  0.00    -0.000 C 
BRANCH  14  15
ATOM     15  C   UNL     1     -24.353 -61.494   2.962  1.00  0.00    -0.003 C 
ATOM     16  C   UNL     1     -23.359 -60.872   3.938  1.00  0.00     0.004 C 
ENDBRANCH  14  15
ENDBRANCH  13  14
ENDBRANCH  12  13
ENDBRANCH  11  12
ENDBRANCH  10  11
ENDBRANCH   1  10
TORSDOF 12
ENDMDL
MODEL 5
REMARK VINA RESULT:    -4.266      2.031      3.167
REMARK INTER + INTRA:          -9.095
REMARK INTER:                  -7.739
REMARK INTRA:                  -1.355
REMARK UNBOUND:                -1.836
REMARK SMILES CCCCCCCCCCCCCC(=O)[O-]
REMARK SMILES IDX 8 1 9 2 10 3 11 4 12 5 13 6 14 7 15 8 16 9 7 10 6 11 5 12
REMARK SMILES IDX 4 13 3 14 2 15 1 16
REMARK H PARENT
REMARK Flexibility Score: inf
ROOT
ATOM      1  C   UNL     1     -21.916 -61.943   0.531  1.00  0.00     0.000 C 
ENDROOT
BRANCH   1   2
ATOM      2  C   UNL     1     -22.264 -60.556  -0.035  1.00  0.00     0.000 C 
BRANCH   2   3
ATOM      3  C   UNL     1     -23.291 -59.805   0.830  1.00  0.00     0.000 C 
BRANCH   3   4
ATOM      4  C   UNL     1     -24.647 -59.637   0.123  1.00  0.00     0.000 C 
BRANCH   4   5
ATOM      5  C   UNL     1     -24.516 -59.602  -1.410  1.00  0.00     0.006 C 
BRANCH   5   6
ATOM      6  C   UNL     1     -24.965 -58.257  -1.997  1.00  0.00     0.053 C 
BRANCH   6   7
ATOM      7  C   UNL     1     -26.015 -58.436  -3.051  1.00  0.00     0.041 C 
ATOM      8  O   UNL     1     -26.927 -57.578  -3.190  1.00  0.00    -0.550 OA
ATOM      9  O   UNL     1     -25.966 -59.532  -3.902  1.00  0.00    -0.550 OA
ENDBRANCH   6   7
ENDBRANCH   5   6
ENDBRANCH   4   5
ENDBRANCH   3   4
ENDBRANCH   2   3
ENDBRANCH   1   2
BRANCH   1  10
ATOM     10  C   UNL     1     -22.440 -62.144   1.964  1.00  0.00     0.000 C 
BRANCH  10  11
ATOM     11  C   UNL     1     -23.454 -63.297   2.066  1.00  0.00    -0.000 C 
BRANCH  11  12
ATOM     12  C   UNL     1     -24.096 -63.397   3.460  1.00  0.00    -0.000 C 
BRANCH  12  13
ATOM     13  C   UNL     1     -25.583 -63.008   3.454  1.00  0.00    -0.000 C 
BRANCH  13  14
ATOM     14  C   UNL     1     -25.804 -61.508   3.206  1.00  0.00    -0.000 C 
BRANCH  14  15
ATOM     15  C   UNL     1     -25.525 -60.696   4.477  1.00  0.00    -0.003 C 
ATOM     16  C   UNL     1     -24.294 -59.809   4.307  1.00  0.00     0.004 C 
ENDBRANCH  14  15
ENDBRANCH  13  14
ENDBRANCH  12  13
ENDBRANCH  11  12
ENDBRANCH  10  11
ENDBRANCH   1  10
TORSDOF 12
ENDMDL
MODEL 6
REMARK VINA RESULT:    -4.188      2.195      3.659
REMARK INTER + INTRA:          -8.961
REMARK INTER:                  -6.881
REMARK INTRA:                  -2.081
REMARK UNBOUND:                -1.836
REMARK SMILES CCCCCCCCCCCCCC(=O)[O-]
REMARK SMILES IDX 8 1 9 2 10 3 11 4 12 5 13 6 14 7 15 8 16 9 7 10 6 11 5 12
REMARK SMILES IDX 4 13 3 14 2 15 1 16
REMARK H PARENT
REMARK Flexibility Score: inf
ROOT
ATOM      1  C   UNL     1     -22.292 -61.044   0.727  1.00  0.00     0.000 C 
ENDROOT
BRANCH   1   2
ATOM      2  C   UNL     1     -21.875 -59.582   0.493  1.00  0.00     0.000 C 
BRANCH   2   3
ATOM      3  C   UNL     1     -22.786 -58.862  -0.516  1.00  0.00     0.000 C 
BRANCH   3   4
ATOM      4  C   UNL     1     -23.746 -59.824  -1.236  1.00  0.00     0.000 C 
BRANCH   4   5
ATOM      5  C   UNL     1     -25.225 -59.469  -1.006  1.00  0.00     0.006 C 
BRANCH   5   6
ATOM      6  C   UNL     1     -25.505 -57.979  -1.242  1.00  0.00     0.053 C 
BRANCH   6   7
ATOM      7  C   UNL     1     -25.523 -57.643  -2.702  1.00  0.00     0.041 C 
ATOM      8  O   UNL     1     -26.145 -58.378  -3.514  1.00  0.00    -0.550 OA
ATOM      9  O   UNL     1     -24.883 -56.499  -3.160  1.00  0.00    -0.550 OA
ENDBRANCH   6   7
ENDBRANCH   5   6
ENDBRANCH   4   5
ENDBRANCH   3   4
ENDBRANCH   2   3
ENDBRANCH   1   2
BRANCH   1  10
ATOM     10  C   UNL     1     -22.884 -61.272   2.129  1.00  0.00     0.000 C 
BRANCH  10  11
ATOM     11  C   UNL     1     -24.393 -61.568   2.092  1.00  0.00    -0.000 C 
BRANCH  11  12
ATOM     12  C   UNL     1     -25.239 -60.389   2.601  1.00  0.00    -0.000 C 
BRANCH  12  13
ATOM     13  C   UNL     1     -24.379 -59.233   3.137  1.00  0.00    -0.000 C 
BRANCH  13  14
ATOM     14  C   UNL     1     -24.702 -57.890   2.466  1.00  0.00    -0.000 C 
BRANCH  14  15
ATOM     15  C   UNL     1     -23.921 -56.746   3.124  1.00  0.00    -0.003 C 
ATOM     16  C   UNL     1     -22.622 -57.251   3.746  1.00  0.00     0.004 C 
ENDBRANCH  14  15
ENDBRANCH  13  14
ENDBRANCH  12  13
ENDBRANCH  11  12
ENDBRANCH  10  11
ENDBRANCH   1  10
TORSDOF 12
ENDMDL
MODEL 7
REMARK VINA RESULT:    -4.164      2.659      4.028
REMARK INTER + INTRA:          -8.922
REMARK INTER:                  -7.051
REMARK INTRA:                  -1.871
REMARK UNBOUND:                -1.836
REMARK SMILES CCCCCCCCCCCCCC(=O)[O-]
REMARK SMILES IDX 8 1 9 2 10 3 11 4 12 5 13 6 14 7 15 8 16 9 7 10 6 11 5 12
REMARK SMILES IDX 4 13 3 14 2 15 1 16
REMARK H PARENT
REMARK Flexibility Score: inf
ROOT
ATOM      1  C   UNL     1     -22.624 -60.206  -1.226  1.00  0.00     0.000 C 
ENDROOT
BRANCH   1   2
ATOM      2  C   UNL     1     -23.664 -59.074  -1.187  1.00  0.00     0.000 C 
BRANCH   2   3
ATOM      3  C   UNL     1     -25.022 -59.538  -0.634  1.00  0.00     0.000 C 
BRANCH   3   4
ATOM      4  C   UNL     1     -25.882 -58.369  -0.123  1.00  0.00     0.000 C 
BRANCH   4   5
ATOM      5  C   UNL     1     -25.211 -57.001  -0.339  1.00  0.00     0.006 C 
BRANCH   5   6
ATOM      6  C   UNL     1     -26.065 -56.070  -1.209  1.00  0.00     0.053 C 
BRANCH   6   7
ATOM      7  C   UNL     1     -26.204 -56.592  -2.607  1.00  0.00     0.041 C 
ATOM      8  O   UNL     1     -25.193 -56.690  -3.351  1.00  0.00    -0.550 OA
ATOM      9  O   UNL     1     -27.445 -57.002  -3.076  1.00  0.00    -0.550 OA
ENDBRANCH   6   7
ENDBRANCH   5   6
ENDBRANCH   4   5
ENDBRANCH   3   4
ENDBRANCH   2   3
ENDBRANCH   1   2
BRANCH   1  10
ATOM     10  C   UNL     1     -21.876 -60.366   0.109  1.00  0.00     0.000 C 
BRANCH  10  11
ATOM     11  C   UNL     1     -21.878 -61.818   0.617  1.00  0.00    -0.000 C 
BRANCH  11  12
ATOM     12  C   UNL     1     -22.548 -61.962   1.994  1.00  0.00    -0.000 C 
BRANCH  12  13
ATOM     13  C   UNL     1     -24.066 -61.730   1.938  1.00  0.00    -0.000 C 
BRANCH  13  14
ATOM     14  C   UNL     1     -24.540 -60.658   2.932  1.00  0.00    -0.000 C 
BRANCH  14  15
ATOM     15  C   UNL     1     -23.369 -59.779   3.390  1.00  0.00    -0.003 C 
ATOM     16  C   UNL     1     -23.455 -58.384   2.778  1.00  0.00     0.004 C 
ENDBRANCH  14  15
ENDBRANCH  13  14
ENDBRANCH  12  13
ENDBRANCH  11  12
ENDBRANCH  10  11
ENDBRANCH   1  10
TORSDOF 12
ENDMDL
MODEL 8
REMARK VINA RESULT:    -4.125      1.625      3.067
REMARK INTER + INTRA:          -8.854
REMARK INTER:                  -7.417
REMARK INTRA:                  -1.437
REMARK UNBOUND:                -1.836
REMARK SMILES CCCCCCCCCCCCCC(=O)[O-]
REMARK SMILES IDX 8 1 9 2 10 3 11 4 12 5 13 6 14 7 15 8 16 9 7 10 6 11 5 12
REMARK SMILES IDX 4 13 3 14 2 15 1 16
REMARK H PARENT
REMARK Flexibility Score: inf
ROOT
ATOM      1  C   UNL     1     -22.624 -61.246   1.920  1.00  0.00     0.000 C 
ENDROOT
BRANCH   1   2
ATOM      2  C   UNL     1     -22.103 -60.935   0.507  1.00  0.00     0.000 C 
BRANCH   2   3
ATOM      3  C   UNL     1     -21.877 -59.430   0.278  1.00  0.00     0.000 C 
BRANCH   3   4
ATOM      4  C   UNL     1     -22.737 -58.873  -0.869  1.00  0.00     0.000 C 
BRANCH   4   5
ATOM      5  C   UNL     1     -23.850 -59.842  -1.301  1.00  0.00     0.006 C 
BRANCH   5   6
ATOM      6  C   UNL     1     -25.225 -59.161  -1.345  1.00  0.00     0.053 C 
BRANCH   6   7
ATOM      7  C   UNL     1     -25.412 -58.372  -2.606  1.00  0.00     0.041 C 
ATOM      8  O   UNL     1     -25.979 -58.893  -3.602  1.00  0.00    -0.550 OA
ATOM      9  O   UNL     1     -24.990 -57.050  -2.667  1.00  0.00    -0.550 OA
ENDBRANCH   6   7
ENDBRANCH   5   6
ENDBRANCH   4   5
ENDBRANCH   3   4
ENDBRANCH   2   3
ENDBRANCH   1   2
BRANCH   1  10
ATOM     10  C   UNL     1     -24.144 -61.047   2.046  1.00  0.00     0.000 C 
BRANCH  10  11
ATOM     11  C   UNL     1     -24.514 -59.657   2.591  1.00  0.00    -0.000 C 
BRANCH  11  12
ATOM     12  C   UNL     1     -23.426 -59.071   3.506  1.00  0.00    -0.000 C 
BRANCH  12  13
ATOM     13  C   UNL     1     -23.664 -59.396   4.990  1.00  0.00    -0.000 C 
BRANCH  13  14
ATOM     14  C   UNL     1     -22.647 -60.402   5.549  1.00  0.00    -0.000 C 
BRANCH  14  15
ATOM     15  C   UNL     1     -23.299 -61.770   5.782  1.00  0.00    -0.003 C 
ATOM     16  C   UNL     1     -22.316 -62.904   5.509  1.00  0.00     0.004 C 
ENDBRANCH  14  15
ENDBRANCH  13  14
ENDBRANCH  12  13
ENDBRANCH  11  12
ENDBRANCH  10  11
ENDBRANCH   1  10
TORSDOF 12
ENDMDL
