MODEL 1
REMARK VINA RESULT:    -9.607      0.000      0.000
REMARK INTER + INTRA:          -9.888
REMARK INTER:                  -9.888
REMARK INTRA:                   0.000
REMARK UNBOUND:                 0.000
REMARK SMILES CC1(C)CC[C@@]2(C)CC[C@]3(C)C(=CC[C@H]4[C@@]5(C)CC[C@@H](O)C(C)(C)[C@@H]5CC[C@]43C)[C@H]2C1
REMARK SMILES IDX 1 1 2 2 4 3 5 4 6 5 8 6 9 7 10 8 12 9 13 10 14 11 15 12
REMARK SMILES IDX 28 13 27 14 26 15 25 16 16 17 18 18 19 19 20 20 22 21 23 22
REMARK SMILES IDX 24 23 17 24 29 25 30 26 31 27 11 28 7 29 3 30 21 31
REMARK H PARENT 21 32
REMARK Flexibility Score: inf
ROOT
ATOM      1  C   UNL     1      -1.389  27.041  54.125  1.00  0.00     0.011 C 
ATOM      2  C   UNL     1      -2.596  27.035  53.159  1.00  0.00    -0.035 C 
ATOM      3  C   UNL     1      -2.552  28.323  52.270  1.00  0.00     0.007 C 
ATOM      4  C   UNL     1      -2.404  28.029  50.765  1.00  0.00     0.008 C 
ATOM      5  C   UNL     1      -3.505  27.058  50.243  1.00  0.00    -0.026 C 
ATOM      6  C   UNL     1      -3.204  26.765  48.742  1.00  0.00     0.008 C 
ATOM      7  C   UNL     1      -4.106  25.666  48.115  1.00  0.00     0.012 C 
ATOM      8  C   UNL     1      -4.298  24.363  48.986  1.00  0.00    -0.006 C 
ATOM      9  C   UNL     1      -3.339  24.477  50.170  1.00  0.00    -0.064 C 
ATOM     10  C   UNL     1      -2.223  23.727  50.208  1.00  0.00    -0.027 C 
ATOM     11  C   UNL     1      -1.629  23.054  49.014  1.00  0.00     0.032 C 
ATOM     12  C   UNL     1      -2.542  22.808  47.768  1.00  0.00     0.006 C 
ATOM     13  C   UNL     1      -4.079  23.018  48.113  1.00  0.00    -0.020 C 
ATOM     14  C   UNL     1      -4.569  21.757  48.906  1.00  0.00     0.008 C 
ATOM     15  C   UNL     1      -4.249  20.405  48.244  1.00  0.00     0.005 C 
ATOM     16  C   UNL     1      -2.740  20.234  47.952  1.00  0.00     0.003 C 
ATOM     17  C   UNL     1      -2.178  21.411  47.061  1.00  0.00    -0.025 C 
ATOM     18  C   UNL     1      -0.607  21.270  46.874  1.00  0.00     0.010 C 
ATOM     19  C   UNL     1      -0.034  19.913  47.305  1.00  0.00     0.033 C 
ATOM     20  C   UNL     1      -0.917  18.764  46.802  1.00  0.00     0.120 C 
ATOM     21  C   UNL     1      -2.319  18.764  47.513  1.00  0.00    -0.006 C 
ATOM     22  C   UNL     1      -2.253  17.869  48.787  1.00  0.00     0.014 C 
ATOM     23  C   UNL     1      -3.351  18.110  46.558  1.00  0.00     0.014 C 
ATOM     24  C   UNL     1      -2.766  21.359  45.617  1.00  0.00     0.012 C 
ATOM     25  C   UNL     1      -4.938  23.158  46.801  1.00  0.00     0.012 C 
ATOM     26  C   UNL     1      -3.513  25.712  51.094  1.00  0.00     0.022 C 
ATOM     27  C   UNL     1      -2.512  25.748  52.292  1.00  0.00     0.015 C 
ATOM     28  C   UNL     1      -5.747  24.344  49.589  1.00  0.00     0.017 C 
ATOM     29  C   UNL     1      -4.865  27.815  50.324  1.00  0.00     0.012 C 
ATOM     30  C   UNL     1      -3.879  27.010  54.022  1.00  0.00     0.011 C 
ENDROOT
BRANCH  20  31
ATOM     31  O   UNL     1      -0.250  17.539  46.990  1.00  0.00    -0.393 OA
ATOM     32  H   UNL     1       0.724  17.732  46.999  1.00  0.00     0.210 HD
ENDBRANCH  20  31
TORSDOF 1
ENDMDL
MODEL 2
REMARK VINA RESULT:    -7.959      2.567      7.812
REMARK INTER + INTRA:          -8.191
REMARK INTER:                  -8.191
REMARK INTRA:                   0.000
REMARK UNBOUND:                 0.000
REMARK SMILES CC1(C)CC[C@@]2(C)CC[C@]3(C)C(=CC[C@H]4[C@@]5(C)CC[C@@H](O)C(C)(C)[C@@H]5CC[C@]43C)[C@H]2C1
REMARK SMILES IDX 1 1 2 2 4 3 5 4 6 5 8 6 9 7 10 8 12 9 13 10 14 11 15 12
REMARK SMILES IDX 28 13 27 14 26 15 25 16 16 17 18 18 19 19 20 20 22 21 23 22
REMARK SMILES IDX 24 23 17 24 29 25 30 26 31 27 11 28 7 29 3 30 21 31
REMARK H PARENT 21 32
REMARK Flexibility Score: inf
ROOT
ATOM      1  C   UNL     1       1.739  18.697  48.121  1.00  0.00     0.011 C 
ATOM      2  C   UNL     1       0.560  19.158  47.234  1.00  0.00    -0.035 C 
ATOM      3  C   UNL     1      -0.494  18.004  47.138  1.00  0.00     0.007 C 
ATOM      4  C   UNL     1      -1.870  18.376  47.722  1.00  0.00     0.008 C 
ATOM      5  C   UNL     1      -2.446  19.678  47.090  1.00  0.00    -0.026 C 
ATOM      6  C   UNL     1      -3.788  20.003  47.815  1.00  0.00     0.008 C 
ATOM      7  C   UNL     1      -4.403  21.376  47.428  1.00  0.00     0.012 C 
ATOM      8  C   UNL     1      -3.395  22.591  47.395  1.00  0.00    -0.006 C 
ATOM      9  C   UNL     1      -2.072  22.084  47.968  1.00  0.00    -0.064 C 
ATOM     10  C   UNL     1      -1.688  22.453  49.203  1.00  0.00    -0.027 C 
ATOM     11  C   UNL     1      -2.611  23.020  50.230  1.00  0.00     0.032 C 
ATOM     12  C   UNL     1      -3.963  23.645  49.750  1.00  0.00     0.006 C 
ATOM     13  C   UNL     1      -3.979  23.880  48.179  1.00  0.00    -0.020 C 
ATOM     14  C   UNL     1      -3.113  25.152  47.875  1.00  0.00     0.008 C 
ATOM     15  C   UNL     1      -3.472  26.398  48.704  1.00  0.00     0.005 C 
ATOM     16  C   UNL     1      -3.418  26.130  50.226  1.00  0.00     0.003 C 
ATOM     17  C   UNL     1      -4.349  24.924  50.644  1.00  0.00    -0.025 C 
ATOM     18  C   UNL     1      -4.185  24.599  52.189  1.00  0.00     0.010 C 
ATOM     19  C   UNL     1      -3.436  25.674  52.989  1.00  0.00     0.033 C 
ATOM     20  C   UNL     1      -3.920  27.077  52.604  1.00  0.00     0.120 C 
ATOM     21  C   UNL     1      -3.521  27.437  51.127  1.00  0.00    -0.006 C 
ATOM     22  C   UNL     1      -2.135  28.149  51.124  1.00  0.00     0.014 C 
ATOM     23  C   UNL     1      -4.552  28.457  50.578  1.00  0.00     0.014 C 
ATOM     24  C   UNL     1      -5.856  25.285  50.461  1.00  0.00     0.012 C 
ATOM     25  C   UNL     1      -5.444  24.128  47.660  1.00  0.00     0.012 C 
ATOM     26  C   UNL     1      -1.412  20.880  47.244  1.00  0.00     0.022 C 
ATOM     27  C   UNL     1      -0.056  20.433  47.875  1.00  0.00     0.015 C 
ATOM     28  C   UNL     1      -3.106  22.992  45.905  1.00  0.00     0.017 C 
ATOM     29  C   UNL     1      -2.767  19.364  45.597  1.00  0.00     0.012 C 
ATOM     30  C   UNL     1       1.134  19.491  45.837  1.00  0.00     0.011 C 
ENDROOT
BRANCH  20  31
ATOM     31  O   UNL     1      -3.408  28.021  53.515  1.00  0.00    -0.393 OA
ATOM     32  H   UNL     1      -2.857  27.523  54.176  1.00  0.00     0.210 HD
ENDBRANCH  20  31
TORSDOF 1
ENDMDL
MODEL 3
REMARK VINA RESULT:    -7.955      3.299      7.926
REMARK INTER + INTRA:          -8.188
REMARK INTER:                  -8.188
REMARK INTRA:                   0.000
REMARK UNBOUND:                 0.000
REMARK SMILES CC1(C)CC[C@@]2(C)CC[C@]3(C)C(=CC[C@H]4[C@@]5(C)CC[C@@H](O)C(C)(C)[C@@H]5CC[C@]43C)[C@H]2C1
REMARK SMILES IDX 1 1 2 2 4 3 5 4 6 5 8 6 9 7 10 8 12 9 13 10 14 11 15 12
REMARK SMILES IDX 28 13 27 14 26 15 25 16 16 17 18 18 19 19 20 20 22 21 23 22
REMARK SMILES IDX 24 23 17 24 29 25 30 26 31 27 11 28 7 29 3 30 21 31
REMARK H PARENT 21 32
REMARK Flexibility Score: inf
ROOT
ATOM      1  C   UNL     1      -1.394  16.876  44.742  1.00  0.00     0.011 C 
ATOM      2  C   UNL     1      -2.484  17.456  45.672  1.00  0.00    -0.035 C 
ATOM      3  C   UNL     1      -2.247  16.937  47.130  1.00  0.00     0.007 C 
ATOM      4  C   UNL     1      -1.956  18.060  48.144  1.00  0.00     0.008 C 
ATOM      5  C   UNL     1      -3.061  19.158  48.142  1.00  0.00    -0.026 C 
ATOM      6  C   UNL     1      -2.618  20.278  49.133  1.00  0.00     0.008 C 
ATOM      7  C   UNL     1      -3.523  21.539  49.113  1.00  0.00     0.012 C 
ATOM      8  C   UNL     1      -3.905  22.082  47.680  1.00  0.00    -0.006 C 
ATOM      9  C   UNL     1      -3.078  21.287  46.671  1.00  0.00    -0.064 C 
ATOM     10  C   UNL     1      -2.031  21.865  46.055  1.00  0.00    -0.027 C 
ATOM     11  C   UNL     1      -1.359  23.108  46.539  1.00  0.00     0.032 C 
ATOM     12  C   UNL     1      -2.145  24.046  47.515  1.00  0.00     0.006 C 
ATOM     13  C   UNL     1      -3.690  23.682  47.565  1.00  0.00    -0.020 C 
ATOM     14  C   UNL     1      -4.356  24.237  46.258  1.00  0.00     0.008 C 
ATOM     15  C   UNL     1      -4.065  25.718  45.956  1.00  0.00     0.005 C 
ATOM     16  C   UNL     1      -2.550  26.020  45.891  1.00  0.00     0.003 C 
ATOM     17  C   UNL     1      -1.807  25.589  47.217  1.00  0.00    -0.025 C 
ATOM     18  C   UNL     1      -0.240  25.804  47.076  1.00  0.00     0.010 C 
ATOM     19  C   UNL     1       0.180  26.644  45.862  1.00  0.00     0.033 C 
ATOM     20  C   UNL     1      -0.724  27.874  45.712  1.00  0.00     0.120 C 
ATOM     21  C   UNL     1      -2.192  27.464  45.328  1.00  0.00    -0.006 C 
ATOM     22  C   UNL     1      -2.333  27.437  43.776  1.00  0.00     0.014 C 
ATOM     23  C   UNL     1      -3.156  28.560  45.848  1.00  0.00     0.014 C 
ATOM     24  C   UNL     1      -2.235  26.484  48.421  1.00  0.00     0.012 C 
ATOM     25  C   UNL     1      -4.386  24.346  48.811  1.00  0.00     0.012 C 
ATOM     26  C   UNL     1      -3.262  19.746  46.675  1.00  0.00     0.022 C 
ATOM     27  C   UNL     1      -2.400  19.007  45.604  1.00  0.00     0.015 C 
ATOM     28  C   UNL     1      -5.409  21.750  47.378  1.00  0.00     0.017 C 
ATOM     29  C   UNL     1      -4.362  18.506  48.699  1.00  0.00     0.012 C 
ATOM     30  C   UNL     1      -3.853  16.976  45.137  1.00  0.00     0.011 C 
ENDROOT
BRANCH  20  31
ATOM     31  O   UNL     1      -0.173  28.751  44.757  1.00  0.00    -0.393 OA
ATOM     32  H   UNL     1      -0.084  29.640  45.191  1.00  0.00     0.210 HD
ENDBRANCH  20  31
TORSDOF 1
ENDMDL
MODEL 4
REMARK VINA RESULT:    -7.613      3.369      8.044
REMARK INTER + INTRA:          -7.835
REMARK INTER:                  -7.835
REMARK INTRA:                   0.000
REMARK UNBOUND:                 0.000
REMARK SMILES CC1(C)CC[C@@]2(C)CC[C@]3(C)C(=CC[C@H]4[C@@]5(C)CC[C@@H](O)C(C)(C)[C@@H]5CC[C@]43C)[C@H]2C1
REMARK SMILES IDX 1 1 2 2 4 3 5 4 6 5 8 6 9 7 10 8 12 9 13 10 14 11 15 12
REMARK SMILES IDX 28 13 27 14 26 15 25 16 16 17 18 18 19 19 20 20 22 21 23 22
REMARK SMILES IDX 24 23 17 24 29 25 30 26 31 27 11 28 7 29 3 30 21 31
REMARK H PARENT 21 32
REMARK Flexibility Score: inf
ROOT
ATOM      1  C   UNL     1      -5.088  18.002  48.122  1.00  0.00     0.011 C 
ATOM      2  C   UNL     1      -3.783  18.826  48.207  1.00  0.00    -0.035 C 
ATOM      3  C   UNL     1      -2.859  18.456  46.998  1.00  0.00     0.007 C 
ATOM      4  C   UNL     1      -2.569  19.642  46.059  1.00  0.00     0.008 C 
ATOM      5  C   UNL     1      -1.983  20.868  46.821  1.00  0.00    -0.026 C 
ATOM      6  C   UNL     1      -1.815  22.028  45.793  1.00  0.00     0.008 C 
ATOM      7  C   UNL     1      -1.411  23.387  46.428  1.00  0.00     0.012 C 
ATOM      8  C   UNL     1      -2.219  23.803  47.720  1.00  0.00    -0.006 C 
ATOM      9  C   UNL     1      -3.355  22.793  47.875  1.00  0.00    -0.064 C 
ATOM     10  C   UNL     1      -4.618  23.151  47.586  1.00  0.00    -0.027 C 
ATOM     11  C   UNL     1      -4.980  24.343  46.762  1.00  0.00     0.032 C 
ATOM     12  C   UNL     1      -3.923  25.485  46.600  1.00  0.00     0.006 C 
ATOM     13  C   UNL     1      -2.732  25.336  47.642  1.00  0.00    -0.020 C 
ATOM     14  C   UNL     1      -3.254  25.816  49.040  1.00  0.00     0.008 C 
ATOM     15  C   UNL     1      -3.928  27.200  49.044  1.00  0.00     0.005 C 
ATOM     16  C   UNL     1      -5.097  27.290  48.035  1.00  0.00     0.003 C 
ATOM     17  C   UNL     1      -4.637  26.924  46.569  1.00  0.00    -0.025 C 
ATOM     18  C   UNL     1      -5.879  26.913  45.579  1.00  0.00     0.010 C 
ATOM     19  C   UNL     1      -7.156  27.541  46.153  1.00  0.00     0.033 C 
ATOM     20  C   UNL     1      -6.837  28.853  46.881  1.00  0.00     0.120 C 
ATOM     21  C   UNL     1      -5.990  28.598  48.181  1.00  0.00    -0.006 C 
ATOM     22  C   UNL     1      -6.949  28.408  49.394  1.00  0.00     0.014 C 
ATOM     23  C   UNL     1      -5.146  29.865  48.470  1.00  0.00     0.014 C 
ATOM     24  C   UNL     1      -3.668  28.003  45.995  1.00  0.00     0.012 C 
ATOM     25  C   UNL     1      -1.503  26.227  47.225  1.00  0.00     0.012 C 
ATOM     26  C   UNL     1      -2.950  21.300  48.011  1.00  0.00     0.022 C 
ATOM     27  C   UNL     1      -4.163  20.333  48.187  1.00  0.00     0.015 C 
ATOM     28  C   UNL     1      -1.305  23.639  48.985  1.00  0.00     0.017 C 
ATOM     29  C   UNL     1      -0.567  20.463  47.330  1.00  0.00     0.012 C 
ATOM     30  C   UNL     1      -3.098  18.470  49.547  1.00  0.00     0.011 C 
ENDROOT
BRANCH  20  31
ATOM     31  O   UNL     1      -8.035  29.532  47.179  1.00  0.00    -0.393 OA
ATOM     32  H   UNL     1      -8.733  29.181  46.565  1.00  0.00     0.210 HD
ENDBRANCH  20  31
TORSDOF 1
ENDMDL
MODEL 5
REMARK VINA RESULT:    -7.599      3.533      6.020
REMARK INTER + INTRA:          -7.821
REMARK INTER:                  -7.821
REMARK INTRA:                   0.000
REMARK UNBOUND:                 0.000
REMARK SMILES CC1(C)CC[C@@]2(C)CC[C@]3(C)C(=CC[C@H]4[C@@]5(C)CC[C@@H](O)C(C)(C)[C@@H]5CC[C@]43C)[C@H]2C1
REMARK SMILES IDX 1 1 2 2 4 3 5 4 6 5 8 6 9 7 10 8 12 9 13 10 14 11 15 12
REMARK SMILES IDX 28 13 27 14 26 15 25 16 16 17 18 18 19 19 20 20 22 21 23 22
REMARK SMILES IDX 24 23 17 24 29 25 30 26 31 27 11 28 7 29 3 30 21 31
REMARK H PARENT 21 32
REMARK Flexibility Score: inf
ROOT
ATOM      1  C   UNL     1      -4.735  32.950  47.254  1.00  0.00     0.011 C 
ATOM      2  C   UNL     1      -5.741  31.819  47.568  1.00  0.00    -0.035 C 
ATOM      3  C   UNL     1      -6.350  31.285  46.228  1.00  0.00     0.007 C 
ATOM      4  C   UNL     1      -6.036  29.801  45.957  1.00  0.00     0.008 C 
ATOM      5  C   UNL     1      -6.463  28.882  47.140  1.00  0.00    -0.026 C 
ATOM      6  C   UNL     1      -6.018  27.428  46.794  1.00  0.00     0.008 C 
ATOM      7  C   UNL     1      -6.206  26.413  47.955  1.00  0.00     0.012 C 
ATOM      8  C   UNL     1      -5.715  26.901  49.374  1.00  0.00    -0.006 C 
ATOM      9  C   UNL     1      -4.981  28.224  49.158  1.00  0.00    -0.064 C 
ATOM     10  C   UNL     1      -3.640  28.271  49.237  1.00  0.00    -0.027 C 
ATOM     11  C   UNL     1      -2.755  27.071  49.149  1.00  0.00     0.032 C 
ATOM     12  C   UNL     1      -3.379  25.665  49.434  1.00  0.00     0.006 C 
ATOM     13  C   UNL     1      -4.810  25.782  50.116  1.00  0.00    -0.020 C 
ATOM     14  C   UNL     1      -4.594  26.156  51.623  1.00  0.00     0.008 C 
ATOM     15  C   UNL     1      -3.604  25.255  52.383  1.00  0.00     0.005 C 
ATOM     16  C   UNL     1      -2.219  25.192  51.699  1.00  0.00     0.003 C 
ATOM     17  C   UNL     1      -2.327  24.718  50.195  1.00  0.00    -0.025 C 
ATOM     18  C   UNL     1      -0.907  24.773  49.487  1.00  0.00     0.010 C 
ATOM     19  C   UNL     1       0.276  24.959  50.447  1.00  0.00     0.033 C 
ATOM     20  C   UNL     1       0.128  24.053  51.676  1.00  0.00     0.120 C 
ATOM     21  C   UNL     1      -1.087  24.493  52.571  1.00  0.00    -0.006 C 
ATOM     22  C   UNL     1      -0.596  25.508  53.646  1.00  0.00     0.014 C 
ATOM     23  C   UNL     1      -1.608  23.248  53.333  1.00  0.00     0.014 C 
ATOM     24  C   UNL     1      -2.770  23.224  50.104  1.00  0.00     0.012 C 
ATOM     25  C   UNL     1      -5.586  24.415  50.038  1.00  0.00     0.012 C 
ATOM     26  C   UNL     1      -5.792  29.373  48.499  1.00  0.00     0.022 C 
ATOM     27  C   UNL     1      -4.982  30.697  48.330  1.00  0.00     0.015 C 
ATOM     28  C   UNL     1      -6.957  27.226  50.276  1.00  0.00     0.017 C 
ATOM     29  C   UNL     1      -8.020  28.908  47.209  1.00  0.00     0.012 C 
ATOM     30  C   UNL     1      -6.845  32.419  48.469  1.00  0.00     0.011 C 
ENDROOT
BRANCH  20  31
ATOM     31  O   UNL     1       1.329  24.053  52.410  1.00  0.00    -0.393 OA
ATOM     32  H   UNL     1       1.104  23.792  53.342  1.00  0.00     0.210 HD
ENDBRANCH  20  31
TORSDOF 1
ENDMDL
MODEL 6
REMARK VINA RESULT:    -7.399      4.513      8.256
REMARK INTER + INTRA:          -7.616
REMARK INTER:                  -7.616
REMARK INTRA:                   0.000
REMARK UNBOUND:                 0.000
REMARK SMILES CC1(C)CC[C@@]2(C)CC[C@]3(C)C(=CC[C@H]4[C@@]5(C)CC[C@@H](O)C(C)(C)[C@@H]5CC[C@]43C)[C@H]2C1
REMARK SMILES IDX 1 1 2 2 4 3 5 4 6 5 8 6 9 7 10 8 12 9 13 10 14 11 15 12
REMARK SMILES IDX 28 13 27 14 26 15 25 16 16 17 18 18 19 19 20 20 22 21 23 22
REMARK SMILES IDX 24 23 17 24 29 25 30 26 31 27 11 28 7 29 3 30 21 31
REMARK H PARENT 21 32
REMARK Flexibility Score: inf
ROOT
ATOM      1  C   UNL     1      -2.357  26.260  39.782  1.00  0.00     0.011 C 
ATOM      2  C   UNL     1      -1.438  25.490  40.759  1.00  0.00    -0.035 C 
ATOM      3  C   UNL     1      -0.030  26.174  40.790  1.00  0.00     0.007 C 
ATOM      4  C   UNL     1       0.355  26.730  42.174  1.00  0.00     0.008 C 
ATOM      5  C   UNL     1       0.264  25.648  43.290  1.00  0.00    -0.026 C 
ATOM      6  C   UNL     1       0.585  26.341  44.649  1.00  0.00     0.008 C 
ATOM      7  C   UNL     1       0.359  25.439  45.893  1.00  0.00     0.012 C 
ATOM      8  C   UNL     1      -0.993  24.623  45.907  1.00  0.00    -0.006 C 
ATOM      9  C   UNL     1      -1.825  25.124  44.727  1.00  0.00    -0.064 C 
ATOM     10  C   UNL     1      -2.889  25.918  44.942  1.00  0.00    -0.027 C 
ATOM     11  C   UNL     1      -3.127  26.670  46.209  1.00  0.00     0.032 C 
ATOM     12  C   UNL     1      -2.392  26.195  47.506  1.00  0.00     0.006 C 
ATOM     13  C   UNL     1      -1.759  24.749  47.327  1.00  0.00    -0.020 C 
ATOM     14  C   UNL     1      -2.921  23.701  47.424  1.00  0.00     0.008 C 
ATOM     15  C   UNL     1      -3.828  23.846  48.660  1.00  0.00     0.005 C 
ATOM     16  C   UNL     1      -4.442  25.260  48.778  1.00  0.00     0.003 C 
ATOM     17  C   UNL     1      -3.331  26.383  48.796  1.00  0.00    -0.025 C 
ATOM     18  C   UNL     1      -3.994  27.826  48.802  1.00  0.00     0.010 C 
ATOM     19  C   UNL     1      -5.500  27.833  49.098  1.00  0.00     0.033 C 
ATOM     20  C   UNL     1      -5.830  26.893  50.265  1.00  0.00     0.120 C 
ATOM     21  C   UNL     1      -5.585  25.389  49.878  1.00  0.00    -0.006 C 
ATOM     22  C   UNL     1      -6.898  24.783  49.299  1.00  0.00     0.014 C 
ATOM     23  C   UNL     1      -5.256  24.600  51.171  1.00  0.00     0.014 C 
ATOM     24  C   UNL     1      -2.484  26.319  50.105  1.00  0.00     0.012 C 
ATOM     25  C   UNL     1      -0.709  24.448  48.460  1.00  0.00     0.012 C 
ATOM     26  C   UNL     1      -1.188  24.993  43.317  1.00  0.00     0.022 C 
ATOM     27  C   UNL     1      -2.105  25.507  42.163  1.00  0.00     0.015 C 
ATOM     28  C   UNL     1      -0.695  23.108  45.625  1.00  0.00     0.017 C 
ATOM     29  C   UNL     1       1.379  24.597  43.008  1.00  0.00     0.012 C 
ATOM     30  C   UNL     1      -1.328  24.036  40.242  1.00  0.00     0.011 C 
ENDROOT
BRANCH  20  31
ATOM     31  O   UNL     1      -7.160  27.102  50.678  1.00  0.00    -0.393 OA
ATOM     32  H   UNL     1      -7.133  27.360  51.638  1.00  0.00     0.210 HD
ENDBRANCH  20  31
TORSDOF 1
ENDMDL
MODEL 7
REMARK VINA RESULT:    -7.396      4.673      7.619
REMARK INTER + INTRA:          -7.613
REMARK INTER:                  -7.613
REMARK INTRA:                   0.000
REMARK UNBOUND:                 0.000
REMARK SMILES CC1(C)CC[C@@]2(C)CC[C@]3(C)C(=CC[C@H]4[C@@]5(C)CC[C@@H](O)C(C)(C)[C@@H]5CC[C@]43C)[C@H]2C1
REMARK SMILES IDX 1 1 2 2 4 3 5 4 6 5 8 6 9 7 10 8 12 9 13 10 14 11 15 12
REMARK SMILES IDX 28 13 27 14 26 15 25 16 16 17 18 18 19 19 20 20 22 21 23 22
REMARK SMILES IDX 24 23 17 24 29 25 30 26 31 27 11 28 7 29 3 30 21 31
REMARK H PARENT 21 32
REMARK Flexibility Score: inf
ROOT
ATOM      1  C   UNL     1      -6.407  35.495  48.555  1.00  0.00     0.011 C 
ATOM      2  C   UNL     1      -7.054  34.291  47.833  1.00  0.00    -0.035 C 
ATOM      3  C   UNL     1      -6.695  34.350  46.310  1.00  0.00     0.007 C 
ATOM      4  C   UNL     1      -5.874  33.141  45.823  1.00  0.00     0.008 C 
ATOM      5  C   UNL     1      -6.566  31.786  46.155  1.00  0.00    -0.026 C 
ATOM      6  C   UNL     1      -5.610  30.641  45.700  1.00  0.00     0.008 C 
ATOM      7  C   UNL     1      -6.070  29.221  46.126  1.00  0.00     0.012 C 
ATOM      8  C   UNL     1      -6.552  29.080  47.623  1.00  0.00    -0.006 C 
ATOM      9  C   UNL     1      -6.232  30.403  48.318  1.00  0.00    -0.064 C 
ATOM     10  C   UNL     1      -5.207  30.477  49.185  1.00  0.00    -0.027 C 
ATOM     11  C   UNL     1      -4.104  29.474  49.262  1.00  0.00     0.032 C 
ATOM     12  C   UNL     1      -4.348  28.052  48.657  1.00  0.00     0.006 C 
ATOM     13  C   UNL     1      -5.887  27.798  48.353  1.00  0.00    -0.020 C 
ATOM     14  C   UNL     1      -6.603  27.503  49.716  1.00  0.00     0.008 C 
ATOM     15  C   UNL     1      -5.941  26.413  50.579  1.00  0.00     0.005 C 
ATOM     16  C   UNL     1      -4.454  26.715  50.871  1.00  0.00     0.003 C 
ATOM     17  C   UNL     1      -3.624  26.923  49.542  1.00  0.00    -0.025 C 
ATOM     18  C   UNL     1      -2.129  27.344  49.876  1.00  0.00     0.010 C 
ATOM     19  C   UNL     1      -1.729  27.160  51.346  1.00  0.00     0.033 C 
ATOM     20  C   UNL     1      -2.225  25.811  51.881  1.00  0.00     0.120 C 
ATOM     21  C   UNL     1      -3.794  25.767  51.966  1.00  0.00    -0.006 C 
ATOM     22  C   UNL     1      -4.250  26.250  53.375  1.00  0.00     0.014 C 
ATOM     23  C   UNL     1      -4.250  24.292  51.826  1.00  0.00     0.014 C 
ATOM     24  C   UNL     1      -3.502  25.591  48.738  1.00  0.00     0.012 C 
ATOM     25  C   UNL     1      -6.077  26.559  47.401  1.00  0.00     0.012 C 
ATOM     26  C   UNL     1      -6.873  31.682  47.715  1.00  0.00     0.022 C 
ATOM     27  C   UNL     1      -6.516  32.989  48.489  1.00  0.00     0.015 C 
ATOM     28  C   UNL     1      -8.114  28.929  47.659  1.00  0.00     0.017 C 
ATOM     29  C   UNL     1      -7.862  31.705  45.293  1.00  0.00     0.012 C 
ATOM     30  C   UNL     1      -8.583  34.395  48.038  1.00  0.00     0.011 C 
ENDROOT
BRANCH  20  31
ATOM     31  O   UNL     1      -1.640  25.556  53.136  1.00  0.00    -0.393 OA
ATOM     32  H   UNL     1      -2.063  26.174  53.789  1.00  0.00     0.210 HD
ENDBRANCH  20  31
TORSDOF 1
ENDMDL
MODEL 8
REMARK VINA RESULT:    -7.361      4.036      7.076
REMARK INTER + INTRA:          -7.576
REMARK INTER:                  -7.576
REMARK INTRA:                   0.000
REMARK UNBOUND:                 0.000
REMARK SMILES CC1(C)CC[C@@]2(C)CC[C@]3(C)C(=CC[C@H]4[C@@]5(C)CC[C@@H](O)C(C)(C)[C@@H]5CC[C@]43C)[C@H]2C1
REMARK SMILES IDX 1 1 2 2 4 3 5 4 6 5 8 6 9 7 10 8 12 9 13 10 14 11 15 12
REMARK SMILES IDX 28 13 27 14 26 15 25 16 16 17 18 18 19 19 20 20 22 21 23 22
REMARK SMILES IDX 24 23 17 24 29 25 30 26 31 27 11 28 7 29 3 30 21 31
REMARK H PARENT 21 32
REMARK Flexibility Score: inf
ROOT
ATOM      1  C   UNL     1       2.620  26.276  52.311  1.00  0.00     0.011 C 
ATOM      2  C   UNL     1       1.538  25.179  52.196  1.00  0.00    -0.035 C 
ATOM      3  C   UNL     1       1.033  24.800  53.629  1.00  0.00     0.007 C 
ATOM      4  C   UNL     1      -0.463  25.089  53.851  1.00  0.00     0.008 C 
ATOM      5  C   UNL     1      -1.361  24.411  52.774  1.00  0.00    -0.026 C 
ATOM      6  C   UNL     1      -2.835  24.843  53.046  1.00  0.00     0.008 C 
ATOM      7  C   UNL     1      -3.840  24.400  51.948  1.00  0.00     0.012 C 
ATOM      8  C   UNL     1      -3.376  24.645  50.458  1.00  0.00    -0.006 C 
ATOM      9  C   UNL     1      -2.089  25.467  50.526  1.00  0.00    -0.064 C 
ATOM     10  C   UNL     1      -2.105  26.772  50.203  1.00  0.00    -0.027 C 
ATOM     11  C   UNL     1      -3.346  27.600  50.138  1.00  0.00     0.032 C 
ATOM     12  C   UNL     1      -4.721  26.870  49.984  1.00  0.00     0.006 C 
ATOM     13  C   UNL     1      -4.536  25.346  49.574  1.00  0.00    -0.020 C 
ATOM     14  C   UNL     1      -4.173  25.300  48.049  1.00  0.00     0.008 C 
ATOM     15  C   UNL     1      -5.120  26.092  47.129  1.00  0.00     0.005 C 
ATOM     16  C   UNL     1      -5.249  27.574  47.550  1.00  0.00     0.003 C 
ATOM     17  C   UNL     1      -5.717  27.720  49.052  1.00  0.00    -0.025 C 
ATOM     18  C   UNL     1      -5.728  29.247  49.489  1.00  0.00     0.010 C 
ATOM     19  C   UNL     1      -5.599  30.242  48.327  1.00  0.00     0.033 C 
ATOM     20  C   UNL     1      -6.497  29.830  47.154  1.00  0.00     0.120 C 
ATOM     21  C   UNL     1      -6.000  28.494  46.491  1.00  0.00    -0.006 C 
ATOM     22  C   UNL     1      -5.009  28.827  45.336  1.00  0.00     0.014 C 
ATOM     23  C   UNL     1      -7.219  27.785  45.848  1.00  0.00     0.014 C 
ATOM     24  C   UNL     1      -7.188  27.232  49.235  1.00  0.00     0.012 C 
ATOM     25  C   UNL     1      -5.864  24.535  49.804  1.00  0.00     0.012 C 
ATOM     26  C   UNL     1      -0.903  24.845  51.311  1.00  0.00     0.022 C 
ATOM     27  C   UNL     1       0.381  25.732  51.318  1.00  0.00     0.015 C 
ATOM     28  C   UNL     1      -2.992  23.275  49.796  1.00  0.00     0.017 C 
ATOM     29  C   UNL     1      -1.261  22.871  52.991  1.00  0.00     0.012 C 
ATOM     30  C   UNL     1       2.190  23.957  51.506  1.00  0.00     0.011 C 
ENDROOT
BRANCH  20  31
ATOM     31  O   UNL     1      -6.554  30.875  46.212  1.00  0.00    -0.393 OA
ATOM     32  H   UNL     1      -6.676  30.460  45.318  1.00  0.00     0.210 HD
ENDBRANCH  20  31
TORSDOF 1
ENDMDL
MODEL 9
REMARK VINA RESULT:    -7.315      4.875      8.727
REMARK INTER + INTRA:          -7.529
REMARK INTER:                  -7.529
REMARK INTRA:                   0.000
REMARK UNBOUND:                 0.000
REMARK SMILES CC1(C)CC[C@@]2(C)CC[C@]3(C)C(=CC[C@H]4[C@@]5(C)CC[C@@H](O)C(C)(C)[C@@H]5CC[C@]43C)[C@H]2C1
REMARK SMILES IDX 1 1 2 2 4 3 5 4 6 5 8 6 9 7 10 8 12 9 13 10 14 11 15 12
REMARK SMILES IDX 28 13 27 14 26 15 25 16 16 17 18 18 19 19 20 20 22 21 23 22
REMARK SMILES IDX 24 23 17 24 29 25 30 26 31 27 11 28 7 29 3 30 21 31
REMARK H PARENT 21 32
REMARK Flexibility Score: inf
ROOT
ATOM      1  C   UNL     1      -1.241  25.541  52.898  1.00  0.00     0.011 C 
ATOM      2  C   UNL     1      -1.996  24.945  51.688  1.00  0.00    -0.035 C 
ATOM      3  C   UNL     1      -3.184  24.065  52.203  1.00  0.00     0.007 C 
ATOM      4  C   UNL     1      -4.568  24.577  51.761  1.00  0.00     0.008 C 
ATOM      5  C   UNL     1      -4.666  24.751  50.216  1.00  0.00    -0.026 C 
ATOM      6  C   UNL     1      -6.067  25.354  49.895  1.00  0.00     0.008 C 
ATOM      7  C   UNL     1      -6.259  25.761  48.408  1.00  0.00     0.012 C 
ATOM      8  C   UNL     1      -5.064  26.567  47.762  1.00  0.00    -0.006 C 
ATOM      9  C   UNL     1      -4.093  26.901  48.894  1.00  0.00    -0.064 C 
ATOM     10  C   UNL     1      -4.018  28.157  49.368  1.00  0.00    -0.027 C 
ATOM     11  C   UNL     1      -5.068  29.196  49.149  1.00  0.00     0.032 C 
ATOM     12  C   UNL     1      -6.070  29.002  47.963  1.00  0.00     0.006 C 
ATOM     13  C   UNL     1      -5.583  27.872  46.958  1.00  0.00    -0.020 C 
ATOM     14  C   UNL     1      -4.432  28.475  46.080  1.00  0.00     0.008 C 
ATOM     15  C   UNL     1      -4.760  29.820  45.408  1.00  0.00     0.005 C 
ATOM     16  C   UNL     1      -5.205  30.896  46.426  1.00  0.00     0.003 C 
ATOM     17  C   UNL     1      -6.437  30.414  47.289  1.00  0.00    -0.025 C 
ATOM     18  C   UNL     1      -6.797  31.490  48.401  1.00  0.00     0.010 C 
ATOM     19  C   UNL     1      -6.113  32.852  48.212  1.00  0.00     0.033 C 
ATOM     20  C   UNL     1      -6.177  33.295  46.746  1.00  0.00     0.120 C 
ATOM     21  C   UNL     1      -5.303  32.366  45.826  1.00  0.00    -0.006 C 
ATOM     22  C   UNL     1      -3.864  32.952  45.717  1.00  0.00     0.014 C 
ATOM     23  C   UNL     1      -5.906  32.386  44.398  1.00  0.00     0.014 C 
ATOM     24  C   UNL     1      -7.723  30.286  46.415  1.00  0.00     0.012 C 
ATOM     25  C   UNL     1      -6.754  27.413  46.013  1.00  0.00     0.012 C 
ATOM     26  C   UNL     1      -3.503  25.703  49.686  1.00  0.00     0.022 C 
ATOM     27  C   UNL     1      -2.506  26.123  50.810  1.00  0.00     0.015 C 
ATOM     28  C   UNL     1      -4.282  25.638  46.768  1.00  0.00     0.017 C 
ATOM     29  C   UNL     1      -4.595  23.328  49.585  1.00  0.00     0.012 C 
ATOM     30  C   UNL     1      -0.987  24.087  50.889  1.00  0.00     0.011 C 
ENDROOT
BRANCH  20  31
ATOM     31  O   UNL     1      -5.774  34.640  46.640  1.00  0.00    -0.393 OA
ATOM     32  H   UNL     1      -5.475  34.785  45.704  1.00  0.00     0.210 HD
ENDBRANCH  20  31
TORSDOF 1
ENDMDL
