MODEL 1
REMARK VINA RESULT:    -3.007      0.000      0.000
REMARK INTER + INTRA:         -10.127
REMARK INTER:                  -6.522
REMARK INTRA:                  -3.605
REMARK UNBOUND:                -3.605
REMARK SMILES CCCCCCCCCCCCCCCCCCCCCC(=O)[O-]
REMARK SMILES IDX 12 1 11 2 10 3 9 4 8 5 7 6 6 7 5 8 4 9 3 10 2 11 1 12 13 13
REMARK SMILES IDX 14 14 15 15 16 16 17 17 18 18 19 19 20 20 21 21 22 22 23 23
REMARK SMILES IDX 24 24
REMARK H PARENT
REMARK Flexibility Score: inf
ROOT
ATOM      1  C   UNL     1       6.208  11.187   1.985  1.00  0.00     0.000 C 
ENDROOT
BRANCH   1   2
ATOM      2  C   UNL     1       4.888  11.976   1.961  1.00  0.00     0.000 C 
BRANCH   2   3
ATOM      3  C   UNL     1       3.974  11.557   0.796  1.00  0.00     0.000 C 
BRANCH   3   4
ATOM      4  C   UNL     1       3.636  10.058   0.821  1.00  0.00    -0.000 C 
BRANCH   4   5
ATOM      5  C   UNL     1       2.960   9.623   2.134  1.00  0.00    -0.000 C 
BRANCH   5   6
ATOM      6  C   UNL     1       3.432   8.239   2.608  1.00  0.00    -0.000 C 
BRANCH   6   7
ATOM      7  C   UNL     1       4.414   8.323   3.789  1.00  0.00    -0.000 C 
BRANCH   7   8
ATOM      8  C   UNL     1       5.817   7.794   3.439  1.00  0.00    -0.000 C 
BRANCH   8   9
ATOM      9  C   UNL     1       5.913   7.062   2.088  1.00  0.00    -0.000 C 
BRANCH   9  10
ATOM     10  C   UNL     1       6.790   7.806   1.066  1.00  0.00    -0.000 C 
BRANCH  10  11
ATOM     11  C   UNL     1       6.232   7.718  -0.363  1.00  0.00    -0.003 C 
ATOM     12  C   UNL     1       6.574   6.394  -1.047  1.00  0.00     0.004 C 
ENDBRANCH  10  11
ENDBRANCH   9  10
ENDBRANCH   8   9
ENDBRANCH   7   8
ENDBRANCH   6   7
ENDBRANCH   5   6
ENDBRANCH   4   5
ENDBRANCH   3   4
ENDBRANCH   2   3
ENDBRANCH   1   2
BRANCH   1  13
ATOM     13  C   UNL     1       7.345  11.906   1.241  1.00  0.00     0.000 C 
BRANCH  13  14
ATOM     14  C   UNL     1       7.594  11.260  -0.129  1.00  0.00     0.000 C 
BRANCH  14  15
ATOM     15  C   UNL     1       7.528  12.270  -1.289  1.00  0.00     0.000 C 
BRANCH  15  16
ATOM     16  C   UNL     1       6.220  12.239  -2.108  1.00  0.00     0.000 C 
BRANCH  16  17
ATOM     17  C   UNL     1       5.705  10.833  -2.466  1.00  0.00     0.000 C 
BRANCH  17  18
ATOM     18  C   UNL     1       4.202  10.755  -2.791  1.00  0.00     0.000 C 
BRANCH  18  19
ATOM     19  C   UNL     1       3.536  12.134  -2.987  1.00  0.00     0.000 C 
BRANCH  19  20
ATOM     20  C   UNL     1       3.422  12.530  -4.469  1.00  0.00     0.006 C 
BRANCH  20  21
ATOM     21  C   UNL     1       3.298  11.308  -5.388  1.00  0.00     0.053 C 
BRANCH  21  22
ATOM     22  C   UNL     1       4.396  11.269  -6.407  1.00  0.00     0.041 C 
ATOM     23  O   UNL     1       4.137  10.991  -7.608  1.00  0.00    -0.550 OA
ATOM     24  O   UNL     1       5.711  11.512  -6.025  1.00  0.00    -0.550 OA
ENDBRANCH  21  22
ENDBRANCH  20  21
ENDBRANCH  19  20
ENDBRANCH  18  19
ENDBRANCH  17  18
ENDBRANCH  16  17
ENDBRANCH  15  16
ENDBRANCH  14  15
ENDBRANCH  13  14
ENDBRANCH   1  13
TORSDOF 20
ENDMDL
MODEL 2
REMARK VINA RESULT:    -3.005      3.537      6.927
REMARK INTER + INTRA:         -10.123
REMARK INTER:                  -6.425
REMARK INTRA:                  -3.698
REMARK UNBOUND:                -3.605
REMARK SMILES CCCCCCCCCCCCCCCCCCCCCC(=O)[O-]
REMARK SMILES IDX 12 1 11 2 10 3 9 4 8 5 7 6 6 7 5 8 4 9 3 10 2 11 1 12 13 13
REMARK SMILES IDX 14 14 15 15 16 16 17 17 18 18 19 19 20 20 21 21 22 22 23 23
REMARK SMILES IDX 24 24
REMARK H PARENT
REMARK Flexibility Score: inf
ROOT
ATOM      1  C   UNL     1       7.849   9.763   1.065  1.00  0.00     0.000 C 
ENDROOT
BRANCH   1   2
ATOM      2  C   UNL     1       7.118  10.989   1.638  1.00  0.00     0.000 C 
BRANCH   2   3
ATOM      3  C   UNL     1       6.299  11.737   0.571  1.00  0.00     0.000 C 
BRANCH   3   4
ATOM      4  C   UNL     1       4.826  11.913   0.973  1.00  0.00    -0.000 C 
BRANCH   4   5
ATOM      5  C   UNL     1       3.856  11.659  -0.194  1.00  0.00    -0.000 C 
BRANCH   5   6
ATOM      6  C   UNL     1       4.446  12.079  -1.550  1.00  0.00    -0.000 C 
BRANCH   6   7
ATOM      7  C   UNL     1       4.448  10.932  -2.574  1.00  0.00    -0.000 C 
BRANCH   7   8
ATOM      8  C   UNL     1       5.858  10.600  -3.098  1.00  0.00    -0.000 C 
BRANCH   8   9
ATOM      9  C   UNL     1       6.812  11.805  -3.190  1.00  0.00    -0.000 C 
BRANCH   9  10
ATOM     10  C   UNL     1       6.562  12.671  -4.437  1.00  0.00    -0.000 C 
BRANCH  10  11
ATOM     11  C   UNL     1       7.004  11.978  -5.735  1.00  0.00    -0.003 C 
ATOM     12  C   UNL     1       5.821  11.537  -6.598  1.00  0.00     0.004 C 
ENDBRANCH  10  11
ENDBRANCH   9  10
ENDBRANCH   8   9
ENDBRANCH   7   8
ENDBRANCH   6   7
ENDBRANCH   5   6
ENDBRANCH   4   5
ENDBRANCH   3   4
ENDBRANCH   2   3
ENDBRANCH   1   2
BRANCH   1  13
ATOM     13  C   UNL     1       7.133   9.159  -0.154  1.00  0.00     0.000 C 
BRANCH  13  14
ATOM     14  C   UNL     1       7.026   7.633  -0.023  1.00  0.00     0.000 C 
BRANCH  14  15
ATOM     15  C   UNL     1       5.595   7.110  -0.244  1.00  0.00     0.000 C 
BRANCH  15  16
ATOM     16  C   UNL     1       4.477   8.148  -0.009  1.00  0.00     0.000 C 
BRANCH  16  17
ATOM     17  C   UNL     1       3.161   7.575   0.550  1.00  0.00     0.000 C 
BRANCH  17  18
ATOM     18  C   UNL     1       2.885   7.908   2.028  1.00  0.00     0.000 C 
BRANCH  18  19
ATOM     19  C   UNL     1       3.895   8.902   2.641  1.00  0.00     0.000 C 
BRANCH  19  20
ATOM     20  C   UNL     1       4.601   8.335   3.884  1.00  0.00     0.006 C 
BRANCH  20  21
ATOM     21  C   UNL     1       6.077   8.012   3.616  1.00  0.00     0.053 C 
BRANCH  21  22
ATOM     22  C   UNL     1       6.328   6.535   3.613  1.00  0.00     0.041 C 
ATOM     23  O   UNL     1       5.888   5.819   2.676  1.00  0.00    -0.550 OA
ATOM     24  O   UNL     1       7.026   5.945   4.661  1.00  0.00    -0.550 OA
ENDBRANCH  21  22
ENDBRANCH  20  21
ENDBRANCH  19  20
ENDBRANCH  18  19
ENDBRANCH  17  18
ENDBRANCH  16  17
ENDBRANCH  15  16
ENDBRANCH  14  15
ENDBRANCH  13  14
ENDBRANCH   1  13
TORSDOF 20
ENDMDL
MODEL 3
REMARK VINA RESULT:    -2.892      3.459      6.441
REMARK INTER + INTRA:          -9.879
REMARK INTER:                  -6.580
REMARK INTRA:                  -3.299
REMARK UNBOUND:                -3.605
REMARK SMILES CCCCCCCCCCCCCCCCCCCCCC(=O)[O-]
REMARK SMILES IDX 12 1 11 2 10 3 9 4 8 5 7 6 6 7 5 8 4 9 3 10 2 11 1 12 13 13
REMARK SMILES IDX 14 14 15 15 16 16 17 17 18 18 19 19 20 20 21 21 22 22 23 23
REMARK SMILES IDX 24 24
REMARK H PARENT
REMARK Flexibility Score: inf
ROOT
ATOM      1  C   UNL     1       7.738  11.612   0.948  1.00  0.00     0.000 C 
ENDROOT
BRANCH   1   2
ATOM      2  C   UNL     1       7.782  13.028   0.350  1.00  0.00     0.000 C 
BRANCH   2   3
ATOM      3  C   UNL     1       7.941  13.015  -1.180  1.00  0.00     0.000 C 
BRANCH   3   4
ATOM      4  C   UNL     1       6.591  12.971  -1.914  1.00  0.00    -0.000 C 
BRANCH   4   5
ATOM      5  C   UNL     1       6.676  12.255  -3.274  1.00  0.00    -0.000 C 
BRANCH   5   6
ATOM      6  C   UNL     1       6.058  10.848  -3.237  1.00  0.00    -0.000 C 
BRANCH   6   7
ATOM      7  C   UNL     1       4.638  10.842  -2.646  1.00  0.00    -0.000 C 
BRANCH   7   8
ATOM      8  C   UNL     1       4.534  10.023  -1.346  1.00  0.00    -0.000 C 
BRANCH   8   9
ATOM      9  C   UNL     1       5.848   9.357  -0.896  1.00  0.00    -0.000 C 
BRANCH   9  10
ATOM     10  C   UNL     1       5.677   7.867  -0.556  1.00  0.00    -0.000 C 
BRANCH  10  11
ATOM     11  C   UNL     1       7.007   7.098  -0.586  1.00  0.00    -0.003 C 
ATOM     12  C   UNL     1       7.232   6.364  -1.908  1.00  0.00     0.004 C 
ENDBRANCH  10  11
ENDBRANCH   9  10
ENDBRANCH   8   9
ENDBRANCH   7   8
ENDBRANCH   6   7
ENDBRANCH   5   6
ENDBRANCH   4   5
ENDBRANCH   3   4
ENDBRANCH   2   3
ENDBRANCH   1   2
BRANCH   1  13
ATOM     13  C   UNL     1       6.641  11.449   2.012  1.00  0.00     0.000 C 
BRANCH  13  14
ATOM     14  C   UNL     1       6.059  12.813   2.410  1.00  0.00     0.000 C 
BRANCH  14  15
ATOM     15  C   UNL     1       4.520  12.837   2.394  1.00  0.00     0.000 C 
BRANCH  15  16
ATOM     16  C   UNL     1       3.858  11.744   1.528  1.00  0.00     0.000 C 
BRANCH  16  17
ATOM     17  C   UNL     1       2.951  10.764   2.294  1.00  0.00     0.000 C 
BRANCH  17  18
ATOM     18  C   UNL     1       3.237   9.273   2.030  1.00  0.00     0.000 C 
BRANCH  18  19
ATOM     19  C   UNL     1       3.426   8.440   3.317  1.00  0.00     0.000 C 
BRANCH  19  20
ATOM     20  C   UNL     1       4.858   8.526   3.871  1.00  0.00     0.006 C 
BRANCH  20  21
ATOM     21  C   UNL     1       5.891   7.937   2.901  1.00  0.00     0.053 C 
BRANCH  21  22
ATOM     22  C   UNL     1       6.265   6.535   3.275  1.00  0.00     0.041 C 
ATOM     23  O   UNL     1       6.638   6.268   4.447  1.00  0.00    -0.550 OA
ATOM     24  O   UNL     1       6.227   5.526   2.318  1.00  0.00    -0.550 OA
ENDBRANCH  21  22
ENDBRANCH  20  21
ENDBRANCH  19  20
ENDBRANCH  18  19
ENDBRANCH  17  18
ENDBRANCH  16  17
ENDBRANCH  15  16
ENDBRANCH  14  15
ENDBRANCH  13  14
ENDBRANCH   1  13
TORSDOF 20
ENDMDL
MODEL 4
REMARK VINA RESULT:    -2.835      2.519      6.535
REMARK INTER + INTRA:          -9.753
REMARK INTER:                  -6.266
REMARK INTRA:                  -3.487
REMARK UNBOUND:                -3.605
REMARK SMILES CCCCCCCCCCCCCCCCCCCCCC(=O)[O-]
REMARK SMILES IDX 12 1 11 2 10 3 9 4 8 5 7 6 6 7 5 8 4 9 3 10 2 11 1 12 13 13
REMARK SMILES IDX 14 14 15 15 16 16 17 17 18 18 19 19 20 20 21 21 22 22 23 23
REMARK SMILES IDX 24 24
REMARK H PARENT
REMARK Flexibility Score: inf
ROOT
ATOM      1  C   UNL     1       3.563  10.023  -1.279  1.00  0.00     0.000 C 
ENDROOT
BRANCH   1   2
ATOM      2  C   UNL     1       3.459  11.555  -1.355  1.00  0.00     0.000 C 
BRANCH   2   3
ATOM      3  C   UNL     1       3.008  12.045  -2.743  1.00  0.00     0.000 C 
BRANCH   3   4
ATOM      4  C   UNL     1       3.404  11.076  -3.868  1.00  0.00    -0.000 C 
BRANCH   4   5
ATOM      5  C   UNL     1       4.228  11.756  -4.976  1.00  0.00    -0.000 C 
BRANCH   5   6
ATOM      6  C   UNL     1       5.447  12.511  -4.422  1.00  0.00    -0.000 C 
BRANCH   6   7
ATOM      7  C   UNL     1       6.560  11.563  -3.944  1.00  0.00    -0.000 C 
BRANCH   7   8
ATOM      8  C   UNL     1       7.723  12.305  -3.257  1.00  0.00    -0.000 C 
BRANCH   8   9
ATOM      9  C   UNL     1       7.567  12.482  -1.736  1.00  0.00    -0.000 C 
BRANCH   9  10
ATOM     10  C   UNL     1       6.879  11.282  -1.062  1.00  0.00    -0.000 C 
BRANCH  10  11
ATOM     11  C   UNL     1       6.712  11.473   0.454  1.00  0.00    -0.003 C 
ATOM     12  C   UNL     1       7.976  11.112   1.235  1.00  0.00     0.004 C 
ENDBRANCH  10  11
ENDBRANCH   9  10
ENDBRANCH   8   9
ENDBRANCH   7   8
ENDBRANCH   6   7
ENDBRANCH   5   6
ENDBRANCH   4   5
ENDBRANCH   3   4
ENDBRANCH   2   3
ENDBRANCH   1   2
BRANCH   1  13
ATOM     13  C   UNL     1       3.258   9.475   0.125  1.00  0.00     0.000 C 
BRANCH  13  14
ATOM     14  C   UNL     1       2.895  10.614   1.088  1.00  0.00     0.000 C 
BRANCH  14  15
ATOM     15  C   UNL     1       3.585  10.485   2.458  1.00  0.00     0.000 C 
BRANCH  15  16
ATOM     16  C   UNL     1       3.205   9.225   3.264  1.00  0.00     0.000 C 
BRANCH  16  17
ATOM     17  C   UNL     1       4.356   8.230   3.504  1.00  0.00     0.000 C 
BRANCH  17  18
ATOM     18  C   UNL     1       5.763   8.783   3.210  1.00  0.00     0.000 C 
BRANCH  18  19
ATOM     19  C   UNL     1       6.654   7.817   2.398  1.00  0.00     0.000 C 
BRANCH  19  20
ATOM     20  C   UNL     1       5.981   7.346   1.098  1.00  0.00     0.006 C 
BRANCH  20  21
ATOM     21  C   UNL     1       6.834   7.652  -0.140  1.00  0.00     0.053 C 
BRANCH  21  22
ATOM     22  C   UNL     1       6.984   6.448  -1.019  1.00  0.00     0.041 C 
ATOM     23  O   UNL     1       6.117   5.535  -0.998  1.00  0.00    -0.550 OA
ATOM     24  O   UNL     1       8.098   6.321  -1.843  1.00  0.00    -0.550 OA
ENDBRANCH  21  22
ENDBRANCH  20  21
ENDBRANCH  19  20
ENDBRANCH  18  19
ENDBRANCH  17  18
ENDBRANCH  16  17
ENDBRANCH  15  16
ENDBRANCH  14  15
ENDBRANCH  13  14
ENDBRANCH   1  13
TORSDOF 20
ENDMDL
MODEL 5
REMARK VINA RESULT:    -2.825      2.653      4.827
REMARK INTER + INTRA:          -9.733
REMARK INTER:                  -6.286
REMARK INTRA:                  -3.447
REMARK UNBOUND:                -3.605
REMARK SMILES CCCCCCCCCCCCCCCCCCCCCC(=O)[O-]
REMARK SMILES IDX 12 1 11 2 10 3 9 4 8 5 7 6 6 7 5 8 4 9 3 10 2 11 1 12 13 13
REMARK SMILES IDX 14 14 15 15 16 16 17 17 18 18 19 19 20 20 21 21 22 22 23 23
REMARK SMILES IDX 24 24
REMARK H PARENT
REMARK Flexibility Score: inf
ROOT
ATOM      1  C   UNL     1       4.893  10.594  -2.606  1.00  0.00     0.000 C 
ENDROOT
BRANCH   1   2
ATOM      2  C   UNL     1       3.884  11.725  -2.861  1.00  0.00     0.000 C 
BRANCH   2   3
ATOM      3  C   UNL     1       2.881  11.891  -1.705  1.00  0.00     0.000 C 
BRANCH   3   4
ATOM      4  C   UNL     1       3.573  12.139  -0.355  1.00  0.00    -0.000 C 
BRANCH   4   5
ATOM      5  C   UNL     1       3.091  11.177   0.745  1.00  0.00    -0.000 C 
BRANCH   5   6
ATOM      6  C   UNL     1       3.068   9.713   0.278  1.00  0.00    -0.000 C 
BRANCH   6   7
ATOM      7  C   UNL     1       3.738   8.762   1.283  1.00  0.00    -0.000 C 
BRANCH   7   8
ATOM      8  C   UNL     1       3.901   9.386   2.682  1.00  0.00    -0.000 C 
BRANCH   8   9
ATOM      9  C   UNL     1       4.733   8.549   3.670  1.00  0.00    -0.000 C 
BRANCH   9  10
ATOM     10  C   UNL     1       5.396   7.328   3.009  1.00  0.00    -0.000 C 
BRANCH  10  11
ATOM     11  C   UNL     1       6.518   6.728   3.870  1.00  0.00    -0.003 C 
ATOM     12  C   UNL     1       6.484   5.199   3.897  1.00  0.00     0.004 C 
ENDBRANCH  10  11
ENDBRANCH   9  10
ENDBRANCH   8   9
ENDBRANCH   7   8
ENDBRANCH   6   7
ENDBRANCH   5   6
ENDBRANCH   4   5
ENDBRANCH   3   4
ENDBRANCH   2   3
ENDBRANCH   1   2
BRANCH   1  13
ATOM     13  C   UNL     1       6.276  10.882  -3.211  1.00  0.00     0.000 C 
BRANCH  13  14
ATOM     14  C   UNL     1       6.530  12.394  -3.296  1.00  0.00     0.000 C 
BRANCH  14  15
ATOM     15  C   UNL     1       7.524  12.896  -2.233  1.00  0.00     0.000 C 
BRANCH  15  16
ATOM     16  C   UNL     1       6.985  12.905  -0.787  1.00  0.00     0.000 C 
BRANCH  16  17
ATOM     17  C   UNL     1       7.702  11.947   0.183  1.00  0.00     0.000 C 
BRANCH  17  18
ATOM     18  C   UNL     1       7.071  10.546   0.297  1.00  0.00     0.000 C 
BRANCH  18  19
ATOM     19  C   UNL     1       7.886   9.567   1.170  1.00  0.00     0.000 C 
BRANCH  19  20
ATOM     20  C   UNL     1       8.028   8.179   0.523  1.00  0.00     0.006 C 
BRANCH  20  21
ATOM     21  C   UNL     1       6.842   7.839  -0.388  1.00  0.00     0.053 C 
BRANCH  21  22
ATOM     22  C   UNL     1       7.044   6.534  -1.096  1.00  0.00     0.041 C 
ATOM     23  O   UNL     1       8.078   6.341  -1.788  1.00  0.00    -0.550 OA
ATOM     24  O   UNL     1       6.075   5.539  -1.013  1.00  0.00    -0.550 OA
ENDBRANCH  21  22
ENDBRANCH  20  21
ENDBRANCH  19  20
ENDBRANCH  18  19
ENDBRANCH  17  18
ENDBRANCH  16  17
ENDBRANCH  15  16
ENDBRANCH  14  15
ENDBRANCH  13  14
ENDBRANCH   1  13
TORSDOF 20
ENDMDL
MODEL 6
REMARK VINA RESULT:    -2.725      2.585      4.189
REMARK INTER + INTRA:          -9.516
REMARK INTER:                  -6.134
REMARK INTRA:                  -3.382
REMARK UNBOUND:                -3.605
REMARK SMILES CCCCCCCCCCCCCCCCCCCCCC(=O)[O-]
REMARK SMILES IDX 12 1 11 2 10 3 9 4 8 5 7 6 6 7 5 8 4 9 3 10 2 11 1 12 13 13
REMARK SMILES IDX 14 14 15 15 16 16 17 17 18 18 19 19 20 20 21 21 22 22 23 23
REMARK SMILES IDX 24 24
REMARK H PARENT
REMARK Flexibility Score: inf
ROOT
ATOM      1  C   UNL     1       7.941  11.672   0.422  1.00  0.00     0.000 C 
ENDROOT
BRANCH   1   2
ATOM      2  C   UNL     1       7.047  11.844   1.661  1.00  0.00     0.000 C 
BRANCH   2   3
ATOM      3  C   UNL     1       6.172  13.108   1.584  1.00  0.00     0.000 C 
BRANCH   3   4
ATOM      4  C   UNL     1       4.794  12.835   0.961  1.00  0.00    -0.000 C 
BRANCH   4   5
ATOM      5  C   UNL     1       3.646  12.966   1.978  1.00  0.00    -0.000 C 
BRANCH   5   6
ATOM      6  C   UNL     1       2.906  11.638   2.203  1.00  0.00    -0.000 C 
BRANCH   6   7
ATOM      7  C   UNL     1       3.866  10.457   2.422  1.00  0.00    -0.000 C 
BRANCH   7   8
ATOM      8  C   UNL     1       3.252   9.103   2.017  1.00  0.00    -0.000 C 
BRANCH   8   9
ATOM      9  C   UNL     1       3.812   7.887   2.776  1.00  0.00    -0.000 C 
BRANCH   9  10
ATOM     10  C   UNL     1       4.836   8.276   3.857  1.00  0.00    -0.000 C 
BRANCH  10  11
ATOM     11  C   UNL     1       6.237   7.713   3.573  1.00  0.00    -0.003 C 
ATOM     12  C   UNL     1       6.361   6.234   3.939  1.00  0.00     0.004 C 
ENDBRANCH  10  11
ENDBRANCH   9  10
ENDBRANCH   8   9
ENDBRANCH   7   8
ENDBRANCH   6   7
ENDBRANCH   5   6
ENDBRANCH   4   5
ENDBRANCH   3   4
ENDBRANCH   2   3
ENDBRANCH   1   2
BRANCH   1  13
ATOM     13  C   UNL     1       8.073  12.964  -0.401  1.00  0.00     0.000 C 
BRANCH  13  14
ATOM     14  C   UNL     1       7.790  12.696  -1.886  1.00  0.00     0.000 C 
BRANCH  14  15
ATOM     15  C   UNL     1       6.374  13.125  -2.314  1.00  0.00     0.000 C 
BRANCH  15  16
ATOM     16  C   UNL     1       5.859  12.471  -3.614  1.00  0.00     0.000 C 
BRANCH  16  17
ATOM     17  C   UNL     1       5.280  11.054  -3.448  1.00  0.00     0.000 C 
BRANCH  17  18
ATOM     18  C   UNL     1       4.199  10.918  -2.359  1.00  0.00     0.000 C 
BRANCH  18  19
ATOM     19  C   UNL     1       4.670  10.140  -1.110  1.00  0.00     0.000 C 
BRANCH  19  20
ATOM     20  C   UNL     1       5.815   9.161  -1.422  1.00  0.00     0.006 C 
BRANCH  20  21
ATOM     21  C   UNL     1       6.370   8.496  -0.156  1.00  0.00     0.053 C 
BRANCH  21  22
ATOM     22  C   UNL     1       6.725   7.060  -0.395  1.00  0.00     0.041 C 
ATOM     23  O   UNL     1       7.435   6.739  -1.384  1.00  0.00    -0.550 OA
ATOM     24  O   UNL     1       6.248   6.073   0.461  1.00  0.00    -0.550 OA
ENDBRANCH  21  22
ENDBRANCH  20  21
ENDBRANCH  19  20
ENDBRANCH  18  19
ENDBRANCH  17  18
ENDBRANCH  16  17
ENDBRANCH  15  16
ENDBRANCH  14  15
ENDBRANCH  13  14
ENDBRANCH   1  13
TORSDOF 20
ENDMDL
MODEL 7
REMARK VINA RESULT:    -2.717      2.651      7.247
REMARK INTER + INTRA:          -9.499
REMARK INTER:                  -6.351
REMARK INTRA:                  -3.147
REMARK UNBOUND:                -3.605
REMARK SMILES CCCCCCCCCCCCCCCCCCCCCC(=O)[O-]
REMARK SMILES IDX 12 1 11 2 10 3 9 4 8 5 7 6 6 7 5 8 4 9 3 10 2 11 1 12 13 13
REMARK SMILES IDX 14 14 15 15 16 16 17 17 18 18 19 19 20 20 21 21 22 22 23 23
REMARK SMILES IDX 24 24
REMARK H PARENT
REMARK Flexibility Score: inf
ROOT
ATOM      1  C   UNL     1       5.026  10.389  -1.170  1.00  0.00     0.000 C 
ENDROOT
BRANCH   1   2
ATOM      2  C   UNL     1       4.727  10.772  -2.629  1.00  0.00     0.000 C 
BRANCH   2   3
ATOM      3  C   UNL     1       4.024  12.136  -2.746  1.00  0.00     0.000 C 
BRANCH   3   4
ATOM      4  C   UNL     1       2.877  12.122  -3.769  1.00  0.00    -0.000 C 
BRANCH   4   5
ATOM      5  C   UNL     1       3.213  11.307  -5.030  1.00  0.00    -0.000 C 
BRANCH   5   6
ATOM      6  C   UNL     1       3.346  12.188  -6.282  1.00  0.00    -0.000 C 
BRANCH   6   7
ATOM      7  C   UNL     1       4.710  12.029  -6.974  1.00  0.00    -0.000 C 
BRANCH   7   8
ATOM      8  C   UNL     1       5.760  11.346  -6.078  1.00  0.00    -0.000 C 
BRANCH   8   9
ATOM      9  C   UNL     1       7.095  12.103  -5.956  1.00  0.00    -0.000 C 
BRANCH   9  10
ATOM     10  C   UNL     1       7.141  13.041  -4.738  1.00  0.00    -0.000 C 
BRANCH  10  11
ATOM     11  C   UNL     1       8.308  12.721  -3.790  1.00  0.00    -0.003 C 
ATOM     12  C   UNL     1       7.860  12.566  -2.337  1.00  0.00     0.004 C 
ENDBRANCH  10  11
ENDBRANCH   9  10
ENDBRANCH   8   9
ENDBRANCH   7   8
ENDBRANCH   6   7
ENDBRANCH   5   6
ENDBRANCH   4   5
ENDBRANCH   3   4
ENDBRANCH   2   3
ENDBRANCH   1   2
BRANCH   1  13
ATOM     13  C   UNL     1       4.253  11.250  -0.158  1.00  0.00     0.000 C 
BRANCH  13  14
ATOM     14  C   UNL     1       3.244  10.399   0.625  1.00  0.00     0.000 C 
BRANCH  14  15
ATOM     15  C   UNL     1       3.164   8.947   0.120  1.00  0.00     0.000 C 
BRANCH  15  16
ATOM     16  C   UNL     1       3.397   7.866   1.198  1.00  0.00     0.000 C 
BRANCH  16  17
ATOM     17  C   UNL     1       3.505   8.394   2.640  1.00  0.00     0.000 C 
BRANCH  17  18
ATOM     18  C   UNL     1       4.898   8.252   3.281  1.00  0.00     0.000 C 
BRANCH  18  19
ATOM     19  C   UNL     1       5.969   9.170   2.649  1.00  0.00     0.000 C 
BRANCH  19  20
ATOM     20  C   UNL     1       7.166   8.382   2.091  1.00  0.00     0.006 C 
BRANCH  20  21
ATOM     21  C   UNL     1       7.201   8.389   0.558  1.00  0.00     0.053 C 
BRANCH  21  22
ATOM     22  C   UNL     1       6.838   7.051  -0.010  1.00  0.00     0.041 C 
ATOM     23  O   UNL     1       6.942   6.837  -1.246  1.00  0.00    -0.550 OA
ATOM     24  O   UNL     1       6.359   6.047   0.824  1.00  0.00    -0.550 OA
ENDBRANCH  21  22
ENDBRANCH  20  21
ENDBRANCH  19  20
ENDBRANCH  18  19
ENDBRANCH  17  18
ENDBRANCH  16  17
ENDBRANCH  15  16
ENDBRANCH  14  15
ENDBRANCH  13  14
ENDBRANCH   1  13
TORSDOF 20
ENDMDL
MODEL 8
REMARK VINA RESULT:    -2.704      2.678      6.621
REMARK INTER + INTRA:          -9.469
REMARK INTER:                  -6.153
REMARK INTRA:                  -3.316
REMARK UNBOUND:                -3.605
REMARK SMILES CCCCCCCCCCCCCCCCCCCCCC(=O)[O-]
REMARK SMILES IDX 12 1 11 2 10 3 9 4 8 5 7 6 6 7 5 8 4 9 3 10 2 11 1 12 13 13
REMARK SMILES IDX 14 14 15 15 16 16 17 17 18 18 19 19 20 20 21 21 22 22 23 23
REMARK SMILES IDX 24 24
REMARK H PARENT
REMARK Flexibility Score: inf
ROOT
ATOM      1  C   UNL     1       6.738   7.515   1.382  1.00  0.00     0.000 C 
ENDROOT
BRANCH   1   2
ATOM      2  C   UNL     1       6.204   7.492  -0.059  1.00  0.00     0.000 C 
BRANCH   2   3
ATOM      3  C   UNL     1       5.191   8.619  -0.329  1.00  0.00     0.000 C 
BRANCH   3   4
ATOM      4  C   UNL     1       5.760   9.719  -1.239  1.00  0.00    -0.000 C 
BRANCH   4   5
ATOM      5  C   UNL     1       4.663  10.586  -1.882  1.00  0.00    -0.000 C 
BRANCH   5   6
ATOM      6  C   UNL     1       5.113  12.039  -2.097  1.00  0.00    -0.000 C 
BRANCH   6   7
ATOM      7  C   UNL     1       6.631  12.163  -2.307  1.00  0.00    -0.000 C 
BRANCH   7   8
ATOM      8  C   UNL     1       7.002  12.660  -3.717  1.00  0.00    -0.000 C 
BRANCH   8   9
ATOM      9  C   UNL     1       6.756  11.643  -4.846  1.00  0.00    -0.000 C 
BRANCH   9  10
ATOM     10  C   UNL     1       5.921  12.221  -6.001  1.00  0.00    -0.000 C 
BRANCH  10  11
ATOM     11  C   UNL     1       4.767  11.295  -6.415  1.00  0.00    -0.003 C 
ATOM     12  C   UNL     1       3.595  11.341  -5.435  1.00  0.00     0.004 C 
ENDBRANCH  10  11
ENDBRANCH   9  10
ENDBRANCH   8   9
ENDBRANCH   7   8
ENDBRANCH   6   7
ENDBRANCH   5   6
ENDBRANCH   4   5
ENDBRANCH   3   4
ENDBRANCH   2   3
ENDBRANCH   1   2
BRANCH   1  13
ATOM     13  C   UNL     1       5.687   7.072   2.413  1.00  0.00     0.000 C 
BRANCH  13  14
ATOM     14  C   UNL     1       5.560   8.106   3.541  1.00  0.00     0.000 C 
BRANCH  14  15
ATOM     15  C   UNL     1       4.099   8.479   3.852  1.00  0.00     0.000 C 
BRANCH  15  16
ATOM     16  C   UNL     1       3.303   9.052   2.660  1.00  0.00     0.000 C 
BRANCH  16  17
ATOM     17  C   UNL     1       3.015  10.562   2.732  1.00  0.00     0.000 C 
BRANCH  17  18
ATOM     18  C   UNL     1       3.525  11.379   1.530  1.00  0.00     0.000 C 
BRANCH  18  19
ATOM     19  C   UNL     1       4.235  12.692   1.927  1.00  0.00     0.000 C 
BRANCH  19  20
ATOM     20  C   UNL     1       5.702  12.733   1.466  1.00  0.00     0.006 C 
BRANCH  20  21
ATOM     21  C   UNL     1       6.476  11.476   1.884  1.00  0.00     0.053 C 
BRANCH  21  22
ATOM     22  C   UNL     1       7.842  11.438   1.269  1.00  0.00     0.041 C 
ATOM     23  O   UNL     1       8.448  12.509   1.003  1.00  0.00    -0.550 OA
ATOM     24  O   UNL     1       8.434  10.218   0.964  1.00  0.00    -0.550 OA
ENDBRANCH  21  22
ENDBRANCH  20  21
ENDBRANCH  19  20
ENDBRANCH  18  19
ENDBRANCH  17  18
ENDBRANCH  16  17
ENDBRANCH  15  16
ENDBRANCH  14  15
ENDBRANCH  13  14
ENDBRANCH   1  13
TORSDOF 20
ENDMDL
