MODEL 1
REMARK VINA RESULT:    -4.493      0.000      0.000
REMARK INTER + INTRA:         -15.326
REMARK INTER:                 -11.322
REMARK INTRA:                  -4.004
REMARK UNBOUND:                -4.004
REMARK SMILES CCCCCCCCCCCCCCCCCCCCCCCCCCCC(=O)[O-]
REMARK SMILES IDX 15 1 16 2 17 3 18 4 19 5 20 6 21 7 22 8 23 9 24 10 25 11
REMARK SMILES IDX 26 12 27 13 28 14 29 15 30 16 14 17 13 18 12 19 11 20 10 21
REMARK SMILES IDX 9 22 8 23 7 24 6 25 5 26 4 27 3 28 2 29 1 30
REMARK H PARENT
REMARK Flexibility Score: inf
ROOT
ATOM      1  C   UNL     1     -10.528 -13.120  17.593  1.00  0.00     0.000 C 
ENDROOT
BRANCH   1   2
ATOM      2  C   UNL     1     -11.567 -12.943  16.474  1.00  0.00     0.000 C 
BRANCH   2   3
ATOM      3  C   UNL     1     -11.622 -14.189  15.579  1.00  0.00     0.000 C 
BRANCH   3   4
ATOM      4  C   UNL     1     -11.373 -13.868  14.095  1.00  0.00     0.000 C 
BRANCH   4   5
ATOM      5  C   UNL     1     -10.059 -13.115  13.806  1.00  0.00     0.000 C 
BRANCH   5   6
ATOM      6  C   UNL     1      -8.781 -13.978  13.855  1.00  0.00     0.000 C 
BRANCH   6   7
ATOM      7  C   UNL     1      -8.014 -14.088  12.525  1.00  0.00     0.000 C 
BRANCH   7   8
ATOM      8  C   UNL     1      -8.926 -14.426  11.334  1.00  0.00     0.000 C 
BRANCH   8   9
ATOM      9  C   UNL     1      -8.274 -15.399  10.335  1.00  0.00     0.000 C 
BRANCH   9  10
ATOM     10  C   UNL     1      -9.146 -16.601   9.931  1.00  0.00     0.000 C 
BRANCH  10  11
ATOM     11  C   UNL     1      -9.093 -16.899   8.422  1.00  0.00     0.000 C 
BRANCH  11  12
ATOM     12  C   UNL     1     -10.485 -16.896   7.766  1.00  0.00     0.006 C 
BRANCH  12  13
ATOM     13  C   UNL     1     -11.643 -16.661   8.750  1.00  0.00     0.053 C 
BRANCH  13  14
ATOM     14  C   UNL     1     -12.972 -16.641   8.059  1.00  0.00     0.041 C 
ATOM     15  O   UNL     1     -13.106 -17.182   6.930  1.00  0.00    -0.550 OA
ATOM     16  O   UNL     1     -14.069 -16.053   8.675  1.00  0.00    -0.550 OA
ENDBRANCH  13  14
ENDBRANCH  12  13
ENDBRANCH  11  12
ENDBRANCH  10  11
ENDBRANCH   9  10
ENDBRANCH   8   9
ENDBRANCH   7   8
ENDBRANCH   6   7
ENDBRANCH   5   6
ENDBRANCH   4   5
ENDBRANCH   3   4
ENDBRANCH   2   3
ENDBRANCH   1   2
BRANCH   1  17
ATOM     17  C   UNL     1      -9.732 -14.429  17.465  1.00  0.00     0.000 C 
BRANCH  17  18
ATOM     18  C   UNL     1      -8.212 -14.200  17.516  1.00  0.00     0.000 C 
BRANCH  18  19
ATOM     19  C   UNL     1      -7.814 -13.070  18.479  1.00  0.00     0.000 C 
BRANCH  19  20
ATOM     20  C   UNL     1      -6.512 -12.367  18.060  1.00  0.00     0.000 C 
BRANCH  20  21
ATOM     21  C   UNL     1      -6.004 -12.820  16.679  1.00  0.00     0.000 C 
BRANCH  21  22
ATOM     22  C   UNL     1      -6.195 -11.800  15.536  1.00  0.00    -0.000 C 
BRANCH  22  23
ATOM     23  C   UNL     1      -6.987 -10.533  15.907  1.00  0.00    -0.000 C 
BRANCH  23  24
ATOM     24  C   UNL     1      -8.507 -10.714  15.764  1.00  0.00    -0.000 C 
BRANCH  24  25
ATOM     25  C   UNL     1      -9.294  -9.466  16.192  1.00  0.00    -0.000 C 
BRANCH  25  26
ATOM     26  C   UNL     1      -9.671  -9.476  17.681  1.00  0.00    -0.000 C 
BRANCH  26  27
ATOM     27  C   UNL     1      -9.174  -8.205  18.383  1.00  0.00    -0.000 C 
BRANCH  27  28
ATOM     28  C   UNL     1      -8.062  -8.481  19.408  1.00  0.00    -0.000 C 
BRANCH  28  29
ATOM     29  C   UNL     1      -8.239  -9.809  20.173  1.00  0.00    -0.003 C 
ATOM     30  C   UNL     1      -7.064 -10.109  21.104  1.00  0.00     0.004 C 
ENDBRANCH  28  29
ENDBRANCH  27  28
ENDBRANCH  26  27
ENDBRANCH  25  26
ENDBRANCH  24  25
ENDBRANCH  23  24
ENDBRANCH  22  23
ENDBRANCH  21  22
ENDBRANCH  20  21
ENDBRANCH  19  20
ENDBRANCH  18  19
ENDBRANCH  17  18
ENDBRANCH   1  17
TORSDOF 26
ENDMDL
MODEL 2
REMARK VINA RESULT:    -4.461      3.987      8.234
REMARK INTER + INTRA:         -15.245
REMARK INTER:                 -10.013
REMARK INTRA:                  -5.232
REMARK UNBOUND:                -4.004
REMARK SMILES CCCCCCCCCCCCCCCCCCCCCCCCCCCC(=O)[O-]
REMARK SMILES IDX 15 1 16 2 17 3 18 4 19 5 20 6 21 7 22 8 23 9 24 10 25 11
REMARK SMILES IDX 26 12 27 13 28 14 29 15 30 16 14 17 13 18 12 19 11 20 10 21
REMARK SMILES IDX 9 22 8 23 7 24 6 25 5 26 4 27 3 28 2 29 1 30
REMARK H PARENT
REMARK Flexibility Score: inf
ROOT
ATOM      1  C   UNL     1      -7.552 -10.121  21.042  1.00  0.00     0.000 C 
ENDROOT
BRANCH   1   2
ATOM      2  C   UNL     1      -8.338  -9.071  21.843  1.00  0.00     0.000 C 
BRANCH   2   3
ATOM      3  C   UNL     1      -7.917  -7.650  21.438  1.00  0.00     0.000 C 
BRANCH   3   4
ATOM      4  C   UNL     1      -8.602  -7.171  20.146  1.00  0.00     0.000 C 
BRANCH   4   5
ATOM      5  C   UNL     1      -7.652  -6.566  19.093  1.00  0.00     0.000 C 
BRANCH   5   6
ATOM      6  C   UNL     1      -6.176  -6.996  19.215  1.00  0.00     0.000 C 
BRANCH   6   7
ATOM      7  C   UNL     1      -5.462  -7.270  17.880  1.00  0.00     0.000 C 
BRANCH   7   8
ATOM      8  C   UNL     1      -6.344  -6.969  16.657  1.00  0.00     0.000 C 
BRANCH   8   9
ATOM      9  C   UNL     1      -6.162  -7.989  15.518  1.00  0.00     0.000 C 
BRANCH   9  10
ATOM     10  C   UNL     1      -7.465  -8.612  14.986  1.00  0.00     0.000 C 
BRANCH  10  11
ATOM     11  C   UNL     1      -7.702 -10.041  15.507  1.00  0.00     0.000 C 
BRANCH  11  12
ATOM     12  C   UNL     1      -9.106 -10.228  16.111  1.00  0.00     0.006 C 
BRANCH  12  13
ATOM     13  C   UNL     1      -9.287  -9.577  17.493  1.00  0.00     0.053 C 
BRANCH  13  14
ATOM     14  C   UNL     1     -10.344 -10.263  18.302  1.00  0.00     0.041 C 
ATOM     15  O   UNL     1     -10.748  -9.750  19.379  1.00  0.00    -0.550 OA
ATOM     16  O   UNL     1     -10.906 -11.450  17.852  1.00  0.00    -0.550 OA
ENDBRANCH  13  14
ENDBRANCH  12  13
ENDBRANCH  11  12
ENDBRANCH  10  11
ENDBRANCH   9  10
ENDBRANCH   8   9
ENDBRANCH   7   8
ENDBRANCH   6   7
ENDBRANCH   5   6
ENDBRANCH   4   5
ENDBRANCH   3   4
ENDBRANCH   2   3
ENDBRANCH   1   2
BRANCH   1  17
ATOM     17  C   UNL     1      -6.046 -10.102  21.352  1.00  0.00     0.000 C 
BRANCH  17  18
ATOM     18  C   UNL     1      -5.188 -10.428  20.118  1.00  0.00     0.000 C 
BRANCH  18  19
ATOM     19  C   UNL     1      -6.033 -10.809  18.891  1.00  0.00     0.000 C 
BRANCH  19  20
ATOM     20  C   UNL     1      -5.188 -11.411  17.755  1.00  0.00     0.000 C 
BRANCH  20  21
ATOM     21  C   UNL     1      -5.414 -12.924  17.579  1.00  0.00     0.000 C 
BRANCH  21  22
ATOM     22  C   UNL     1      -6.041 -13.348  16.233  1.00  0.00    -0.000 C 
BRANCH  22  23
ATOM     23  C   UNL     1      -7.557 -13.608  16.264  1.00  0.00    -0.000 C 
BRANCH  23  24
ATOM     24  C   UNL     1      -8.108 -13.770  17.690  1.00  0.00    -0.000 C 
BRANCH  24  25
ATOM     25  C   UNL     1      -9.381 -14.629  17.739  1.00  0.00    -0.000 C 
BRANCH  25  26
ATOM     26  C   UNL     1      -9.948 -14.939  16.345  1.00  0.00    -0.000 C 
BRANCH  26  27
ATOM     27  C   UNL     1     -11.391 -14.433  16.212  1.00  0.00    -0.000 C 
BRANCH  27  28
ATOM     28  C   UNL     1     -11.693 -13.837  14.827  1.00  0.00    -0.000 C 
BRANCH  28  29
ATOM     29  C   UNL     1     -10.513 -13.047  14.222  1.00  0.00    -0.003 C 
ATOM     30  C   UNL     1     -10.024 -13.649  12.904  1.00  0.00     0.004 C 
ENDBRANCH  28  29
ENDBRANCH  27  28
ENDBRANCH  26  27
ENDBRANCH  25  26
ENDBRANCH  24  25
ENDBRANCH  23  24
ENDBRANCH  22  23
ENDBRANCH  21  22
ENDBRANCH  20  21
ENDBRANCH  19  20
ENDBRANCH  18  19
ENDBRANCH  17  18
ENDBRANCH   1  17
TORSDOF 26
ENDMDL
MODEL 3
REMARK VINA RESULT:    -4.434      5.419     10.097
REMARK INTER + INTRA:         -15.177
REMARK INTER:                 -10.542
REMARK INTRA:                  -4.635
REMARK UNBOUND:                -4.004
REMARK SMILES CCCCCCCCCCCCCCCCCCCCCCCCCCCC(=O)[O-]
REMARK SMILES IDX 15 1 16 2 17 3 18 4 19 5 20 6 21 7 22 8 23 9 24 10 25 11
REMARK SMILES IDX 26 12 27 13 28 14 29 15 30 16 14 17 13 18 12 19 11 20 10 21
REMARK SMILES IDX 9 22 8 23 7 24 6 25 5 26 4 27 3 28 2 29 1 30
REMARK H PARENT
REMARK Flexibility Score: inf
ROOT
ATOM      1  C   UNL     1      -9.893  -9.397  18.008  1.00  0.00     0.000 C 
ENDROOT
BRANCH   1   2
ATOM      2  C   UNL     1      -8.974  -8.359  18.671  1.00  0.00     0.000 C 
BRANCH   2   3
ATOM      3  C   UNL     1      -8.328  -7.449  17.615  1.00  0.00     0.000 C 
BRANCH   3   4
ATOM      4  C   UNL     1      -6.836  -7.756  17.397  1.00  0.00     0.000 C 
BRANCH   4   5
ATOM      5  C   UNL     1      -5.950  -7.590  18.648  1.00  0.00     0.000 C 
BRANCH   5   6
ATOM      6  C   UNL     1      -5.053  -8.799  18.984  1.00  0.00     0.000 C 
BRANCH   6   7
ATOM      7  C   UNL     1      -5.706 -10.177  18.774  1.00  0.00     0.000 C 
BRANCH   7   8
ATOM      8  C   UNL     1      -6.519 -10.646  19.993  1.00  0.00     0.000 C 
BRANCH   8   9
ATOM      9  C   UNL     1      -5.760 -10.477  21.322  1.00  0.00     0.000 C 
BRANCH   9  10
ATOM     10  C   UNL     1      -6.570  -9.824  22.457  1.00  0.00     0.000 C 
BRANCH  10  11
ATOM     11  C   UNL     1      -7.341  -8.573  22.000  1.00  0.00     0.000 C 
BRANCH  11  12
ATOM     12  C   UNL     1      -8.854  -8.678  22.263  1.00  0.00     0.006 C 
BRANCH  12  13
ATOM     13  C   UNL     1      -9.361  -7.759  23.387  1.00  0.00     0.053 C 
BRANCH  13  14
ATOM     14  C   UNL     1     -10.812  -7.980  23.681  1.00  0.00     0.041 C 
ATOM     15  O   UNL     1     -11.477  -7.097  24.286  1.00  0.00    -0.550 OA
ATOM     16  O   UNL     1     -11.440  -9.145  23.260  1.00  0.00    -0.550 OA
ENDBRANCH  13  14
ENDBRANCH  12  13
ENDBRANCH  11  12
ENDBRANCH  10  11
ENDBRANCH   9  10
ENDBRANCH   8   9
ENDBRANCH   7   8
ENDBRANCH   6   7
ENDBRANCH   5   6
ENDBRANCH   4   5
ENDBRANCH   3   4
ENDBRANCH   2   3
ENDBRANCH   1   2
BRANCH   1  17
ATOM     17  C   UNL     1      -9.113 -10.526  17.314  1.00  0.00     0.000 C 
BRANCH  17  18
ATOM     18  C   UNL     1      -9.182 -10.432  15.781  1.00  0.00     0.000 C 
BRANCH  18  19
ATOM     19  C   UNL     1     -10.281 -11.324  15.180  1.00  0.00     0.000 C 
BRANCH  19  20
ATOM     20  C   UNL     1      -9.711 -12.490  14.355  1.00  0.00     0.000 C 
BRANCH  20  21
ATOM     21  C   UNL     1     -10.778 -13.530  13.970  1.00  0.00     0.000 C 
BRANCH  21  22
ATOM     22  C   UNL     1     -12.052 -13.527  14.844  1.00  0.00    -0.000 C 
BRANCH  22  23
ATOM     23  C   UNL     1     -12.036 -14.501  16.036  1.00  0.00    -0.000 C 
BRANCH  23  24
ATOM     24  C   UNL     1     -11.238 -13.964  17.236  1.00  0.00    -0.000 C 
BRANCH  24  25
ATOM     25  C   UNL     1      -9.825 -14.560  17.322  1.00  0.00    -0.000 C 
BRANCH  25  26
ATOM     26  C   UNL     1      -8.932 -13.842  18.345  1.00  0.00    -0.000 C 
BRANCH  26  27
ATOM     27  C   UNL     1      -7.450 -13.972  17.969  1.00  0.00    -0.000 C 
BRANCH  27  28
ATOM     28  C   UNL     1      -7.168 -13.609  16.502  1.00  0.00    -0.000 C 
BRANCH  28  29
ATOM     29  C   UNL     1      -5.786 -12.961  16.278  1.00  0.00    -0.003 C 
ATOM     30  C   UNL     1      -5.841 -11.793  15.293  1.00  0.00     0.004 C 
ENDBRANCH  28  29
ENDBRANCH  27  28
ENDBRANCH  26  27
ENDBRANCH  25  26
ENDBRANCH  24  25
ENDBRANCH  23  24
ENDBRANCH  22  23
ENDBRANCH  21  22
ENDBRANCH  20  21
ENDBRANCH  19  20
ENDBRANCH  18  19
ENDBRANCH  17  18
ENDBRANCH   1  17
TORSDOF 26
ENDMDL
MODEL 4
REMARK VINA RESULT:    -4.398      5.095      9.105
REMARK INTER + INTRA:         -15.088
REMARK INTER:                 -10.391
REMARK INTRA:                  -4.697
REMARK UNBOUND:                -4.004
REMARK SMILES CCCCCCCCCCCCCCCCCCCCCCCCCCCC(=O)[O-]
REMARK SMILES IDX 15 1 16 2 17 3 18 4 19 5 20 6 21 7 22 8 23 9 24 10 25 11
REMARK SMILES IDX 26 12 27 13 28 14 29 15 30 16 14 17 13 18 12 19 11 20 10 21
REMARK SMILES IDX 9 22 8 23 7 24 6 25 5 26 4 27 3 28 2 29 1 30
REMARK H PARENT
REMARK Flexibility Score: inf
ROOT
ATOM      1  C   UNL     1     -10.410 -11.544  17.750  1.00  0.00     0.000 C 
ENDROOT
BRANCH   1   2
ATOM      2  C   UNL     1      -9.581 -10.296  17.409  1.00  0.00     0.000 C 
BRANCH   2   3
ATOM      3  C   UNL     1      -9.394 -10.164  15.890  1.00  0.00     0.000 C 
BRANCH   3   4
ATOM      4  C   UNL     1      -7.932  -9.892  15.492  1.00  0.00     0.000 C 
BRANCH   4   5
ATOM      5  C   UNL     1      -7.655  -8.468  14.972  1.00  0.00     0.000 C 
BRANCH   5   6
ATOM      6  C   UNL     1      -6.366  -7.811  15.508  1.00  0.00     0.000 C 
BRANCH   6   7
ATOM      7  C   UNL     1      -6.245  -6.299  15.246  1.00  0.00     0.000 C 
BRANCH   7   8
ATOM      8  C   UNL     1      -6.243  -5.466  16.538  1.00  0.00     0.000 C 
BRANCH   8   9
ATOM      9  C   UNL     1      -6.608  -6.291  17.786  1.00  0.00     0.000 C 
BRANCH   9  10
ATOM     10  C   UNL     1      -8.116  -6.411  18.070  1.00  0.00     0.000 C 
BRANCH  10  11
ATOM     11  C   UNL     1      -8.425  -7.252  19.322  1.00  0.00     0.000 C 
BRANCH  11  12
ATOM     12  C   UNL     1      -7.257  -7.277  20.324  1.00  0.00     0.006 C 
BRANCH  12  13
ATOM     13  C   UNL     1      -7.674  -7.612  21.766  1.00  0.00     0.053 C 
BRANCH  13  14
ATOM     14  C   UNL     1      -8.438  -8.897  21.845  1.00  0.00     0.041 C 
ATOM     15  O   UNL     1      -7.856  -9.994  21.631  1.00  0.00    -0.550 OA
ATOM     16  O   UNL     1      -9.784  -8.888  22.187  1.00  0.00    -0.550 OA
ENDBRANCH  13  14
ENDBRANCH  12  13
ENDBRANCH  11  12
ENDBRANCH  10  11
ENDBRANCH   9  10
ENDBRANCH   8   9
ENDBRANCH   7   8
ENDBRANCH   6   7
ENDBRANCH   5   6
ENDBRANCH   4   5
ENDBRANCH   3   4
ENDBRANCH   2   3
ENDBRANCH   1   2
BRANCH   1  17
ATOM     17  C   UNL     1      -9.540 -12.788  17.994  1.00  0.00     0.000 C 
BRANCH  17  18
ATOM     18  C   UNL     1     -10.168 -14.067  17.416  1.00  0.00     0.000 C 
BRANCH  18  19
ATOM     19  C   UNL     1     -11.648 -13.884  17.040  1.00  0.00     0.000 C 
BRANCH  19  20
ATOM     20  C   UNL     1     -12.001 -14.536  15.693  1.00  0.00     0.000 C 
BRANCH  20  21
ATOM     21  C   UNL     1     -11.912 -13.554  14.511  1.00  0.00     0.000 C 
BRANCH  21  22
ATOM     22  C   UNL     1     -10.695 -13.747  13.580  1.00  0.00    -0.000 C 
BRANCH  22  23
ATOM     23  C   UNL     1      -9.389 -13.086  14.056  1.00  0.00    -0.000 C 
BRANCH  23  24
ATOM     24  C   UNL     1      -8.196 -14.056  14.064  1.00  0.00    -0.000 C 
BRANCH  24  25
ATOM     25  C   UNL     1      -6.903 -13.399  14.572  1.00  0.00    -0.000 C 
BRANCH  25  26
ATOM     26  C   UNL     1      -6.793 -13.398  16.104  1.00  0.00    -0.000 C 
BRANCH  26  27
ATOM     27  C   UNL     1      -5.628 -12.515  16.572  1.00  0.00    -0.000 C 
BRANCH  27  28
ATOM     28  C   UNL     1      -5.393 -12.586  18.090  1.00  0.00    -0.000 C 
BRANCH  28  29
ATOM     29  C   UNL     1      -6.171 -11.521  18.889  1.00  0.00    -0.003 C 
ATOM     30  C   UNL     1      -5.826 -10.097  18.454  1.00  0.00     0.004 C 
ENDBRANCH  28  29
ENDBRANCH  27  28
ENDBRANCH  26  27
ENDBRANCH  25  26
ENDBRANCH  24  25
ENDBRANCH  23  24
ENDBRANCH  22  23
ENDBRANCH  21  22
ENDBRANCH  20  21
ENDBRANCH  19  20
ENDBRANCH  18  19
ENDBRANCH  17  18
ENDBRANCH   1  17
TORSDOF 26
ENDMDL
MODEL 5
REMARK VINA RESULT:    -4.392      4.196      6.727
REMARK INTER + INTRA:         -15.073
REMARK INTER:                 -10.043
REMARK INTRA:                  -5.030
REMARK UNBOUND:                -4.004
REMARK SMILES CCCCCCCCCCCCCCCCCCCCCCCCCCCC(=O)[O-]
REMARK SMILES IDX 15 1 16 2 17 3 18 4 19 5 20 6 21 7 22 8 23 9 24 10 25 11
REMARK SMILES IDX 26 12 27 13 28 14 29 15 30 16 14 17 13 18 12 19 11 20 10 21
REMARK SMILES IDX 9 22 8 23 7 24 6 25 5 26 4 27 3 28 2 29 1 30
REMARK H PARENT
REMARK Flexibility Score: inf
ROOT
ATOM      1  C   UNL     1     -11.663 -13.417  16.927  1.00  0.00     0.000 C 
ENDROOT
BRANCH   1   2
ATOM      2  C   UNL     1     -11.748 -12.817  15.515  1.00  0.00     0.000 C 
BRANCH   2   3
ATOM      3  C   UNL     1     -11.455 -13.884  14.450  1.00  0.00     0.000 C 
BRANCH   3   4
ATOM      4  C   UNL     1     -10.126 -13.641  13.713  1.00  0.00     0.000 C 
BRANCH   4   5
ATOM      5  C   UNL     1      -9.105 -12.779  14.482  1.00  0.00     0.000 C 
BRANCH   5   6
ATOM      6  C   UNL     1      -7.963 -13.562  15.162  1.00  0.00     0.000 C 
BRANCH   6   7
ATOM      7  C   UNL     1      -8.338 -14.247  16.488  1.00  0.00     0.000 C 
BRANCH   7   8
ATOM      8  C   UNL     1      -7.588 -13.663  17.697  1.00  0.00     0.000 C 
BRANCH   8   9
ATOM      9  C   UNL     1      -6.076 -13.508  17.448  1.00  0.00     0.000 C 
BRANCH   9  10
ATOM     10  C   UNL     1      -5.435 -12.264  18.088  1.00  0.00     0.000 C 
BRANCH  10  11
ATOM     11  C   UNL     1      -6.104 -10.950  17.647  1.00  0.00     0.000 C 
BRANCH  11  12
ATOM     12  C   UNL     1      -5.981 -10.698  16.133  1.00  0.00     0.006 C 
BRANCH  12  13
ATOM     13  C   UNL     1      -5.959  -9.211  15.743  1.00  0.00     0.053 C 
BRANCH  13  14
ATOM     14  C   UNL     1      -7.198  -8.807  15.006  1.00  0.00     0.041 C 
ATOM     15  O   UNL     1      -7.177  -7.814  14.230  1.00  0.00    -0.550 OA
ATOM     16  O   UNL     1      -8.366  -9.544  15.147  1.00  0.00    -0.550 OA
ENDBRANCH  13  14
ENDBRANCH  12  13
ENDBRANCH  11  12
ENDBRANCH  10  11
ENDBRANCH   9  10
ENDBRANCH   8   9
ENDBRANCH   7   8
ENDBRANCH   6   7
ENDBRANCH   5   6
ENDBRANCH   4   5
ENDBRANCH   3   4
ENDBRANCH   2   3
ENDBRANCH   1   2
BRANCH   1  17
ATOM     17  C   UNL     1     -11.295 -12.376  17.996  1.00  0.00     0.000 C 
BRANCH  17  18
ATOM     18  C   UNL     1     -10.533 -11.175  17.408  1.00  0.00     0.000 C 
BRANCH  18  19
ATOM     19  C   UNL     1      -9.476 -10.613  18.373  1.00  0.00     0.000 C 
BRANCH  19  20
ATOM     20  C   UNL     1      -9.838  -9.213  18.897  1.00  0.00     0.000 C 
BRANCH  20  21
ATOM     21  C   UNL     1      -9.249  -8.081  18.036  1.00  0.00     0.000 C 
BRANCH  21  22
ATOM     22  C   UNL     1      -8.440  -7.015  18.807  1.00  0.00    -0.000 C 
BRANCH  22  23
ATOM     23  C   UNL     1      -6.914  -7.087  18.626  1.00  0.00    -0.000 C 
BRANCH  23  24
ATOM     24  C   UNL     1      -6.161  -7.266  19.954  1.00  0.00    -0.000 C 
BRANCH  24  25
ATOM     25  C   UNL     1      -6.258  -8.699  20.502  1.00  0.00    -0.000 C 
BRANCH  25  26
ATOM     26  C   UNL     1      -6.825  -8.758  21.928  1.00  0.00    -0.000 C 
BRANCH  26  27
ATOM     27  C   UNL     1      -8.268  -9.282  21.926  1.00  0.00    -0.000 C 
BRANCH  27  28
ATOM     28  C   UNL     1      -9.277  -8.263  22.482  1.00  0.00    -0.000 C 
BRANCH  28  29
ATOM     29  C   UNL     1      -8.624  -6.970  23.012  1.00  0.00    -0.003 C 
ATOM     30  C   UNL     1      -8.923  -5.760  22.128  1.00  0.00     0.004 C 
ENDBRANCH  28  29
ENDBRANCH  27  28
ENDBRANCH  26  27
ENDBRANCH  25  26
ENDBRANCH  24  25
ENDBRANCH  23  24
ENDBRANCH  22  23
ENDBRANCH  21  22
ENDBRANCH  20  21
ENDBRANCH  19  20
ENDBRANCH  18  19
ENDBRANCH  17  18
ENDBRANCH   1  17
TORSDOF 26
ENDMDL
MODEL 6
REMARK VINA RESULT:    -4.349      4.282      6.295
REMARK INTER + INTRA:         -14.963
REMARK INTER:                  -9.332
REMARK INTRA:                  -5.631
REMARK UNBOUND:                -4.004
REMARK SMILES CCCCCCCCCCCCCCCCCCCCCCCCCCCC(=O)[O-]
REMARK SMILES IDX 15 1 16 2 17 3 18 4 19 5 20 6 21 7 22 8 23 9 24 10 25 11
REMARK SMILES IDX 26 12 27 13 28 14 29 15 30 16 14 17 13 18 12 19 11 20 10 21
REMARK SMILES IDX 9 22 8 23 7 24 6 25 5 26 4 27 3 28 2 29 1 30
REMARK H PARENT
REMARK Flexibility Score: inf
ROOT
ATOM      1  C   UNL     1      -9.546 -10.380  16.784  1.00  0.00     0.000 C 
ENDROOT
BRANCH   1   2
ATOM      2  C   UNL     1     -10.135 -10.281  18.199  1.00  0.00     0.000 C 
BRANCH   2   3
ATOM      3  C   UNL     1      -9.121  -9.658  19.170  1.00  0.00     0.000 C 
BRANCH   3   4
ATOM      4  C   UNL     1      -7.970 -10.616  19.525  1.00  0.00     0.000 C 
BRANCH   4   5
ATOM      5  C   UNL     1      -6.604 -10.244  18.914  1.00  0.00     0.000 C 
BRANCH   5   6
ATOM      6  C   UNL     1      -5.526 -11.345  18.993  1.00  0.00     0.000 C 
BRANCH   6   7
ATOM      7  C   UNL     1      -5.154 -11.994  17.648  1.00  0.00     0.000 C 
BRANCH   7   8
ATOM      8  C   UNL     1      -6.287 -11.914  16.611  1.00  0.00     0.000 C 
BRANCH   8   9
ATOM      9  C   UNL     1      -7.032 -13.250  16.430  1.00  0.00     0.000 C 
BRANCH   9  10
ATOM     10  C   UNL     1      -7.392 -13.978  17.737  1.00  0.00     0.000 C 
BRANCH  10  11
ATOM     11  C   UNL     1      -8.874 -13.820  18.123  1.00  0.00     0.000 C 
BRANCH  11  12
ATOM     12  C   UNL     1      -9.819 -14.575  17.171  1.00  0.00     0.006 C 
BRANCH  12  13
ATOM     13  C   UNL     1     -11.125 -13.826  16.859  1.00  0.00     0.053 C 
BRANCH  13  14
ATOM     14  C   UNL     1     -11.248 -13.495  15.403  1.00  0.00     0.041 C 
ATOM     15  O   UNL     1     -12.312 -12.989  14.957  1.00  0.00    -0.550 OA
ATOM     16  O   UNL     1     -10.178 -13.714  14.546  1.00  0.00    -0.550 OA
ENDBRANCH  13  14
ENDBRANCH  12  13
ENDBRANCH  11  12
ENDBRANCH  10  11
ENDBRANCH   9  10
ENDBRANCH   8   9
ENDBRANCH   7   8
ENDBRANCH   6   7
ENDBRANCH   5   6
ENDBRANCH   4   5
ENDBRANCH   3   4
ENDBRANCH   2   3
ENDBRANCH   1   2
BRANCH   1  17
ATOM     17  C   UNL     1      -8.991  -9.039  16.275  1.00  0.00     0.000 C 
BRANCH  17  18
ATOM     18  C   UNL     1      -7.983  -9.218  15.127  1.00  0.00     0.000 C 
BRANCH  18  19
ATOM     19  C   UNL     1      -7.105  -7.975  14.908  1.00  0.00     0.000 C 
BRANCH  19  20
ATOM     20  C   UNL     1      -5.616  -8.247  15.180  1.00  0.00     0.000 C 
BRANCH  20  21
ATOM     21  C   UNL     1      -5.206  -7.936  16.631  1.00  0.00     0.000 C 
BRANCH  21  22
ATOM     22  C   UNL     1      -5.674  -6.567  17.173  1.00  0.00    -0.000 C 
BRANCH  22  23
ATOM     23  C   UNL     1      -6.443  -6.613  18.506  1.00  0.00    -0.000 C 
BRANCH  23  24
ATOM     24  C   UNL     1      -7.923  -6.227  18.356  1.00  0.00    -0.000 C 
BRANCH  24  25
ATOM     25  C   UNL     1      -8.649  -6.128  19.707  1.00  0.00    -0.000 C 
BRANCH  25  26
ATOM     26  C   UNL     1      -7.786  -6.602  20.887  1.00  0.00    -0.000 C 
BRANCH  26  27
ATOM     27  C   UNL     1      -8.602  -7.477  21.848  1.00  0.00    -0.000 C 
BRANCH  27  28
ATOM     28  C   UNL     1      -7.727  -8.222  22.870  1.00  0.00    -0.000 C 
BRANCH  28  29
ATOM     29  C   UNL     1      -6.344  -8.631  22.322  1.00  0.00    -0.003 C 
ATOM     30  C   UNL     1      -5.989 -10.080  22.653  1.00  0.00     0.004 C 
ENDBRANCH  28  29
ENDBRANCH  27  28
ENDBRANCH  26  27
ENDBRANCH  25  26
ENDBRANCH  24  25
ENDBRANCH  23  24
ENDBRANCH  22  23
ENDBRANCH  21  22
ENDBRANCH  20  21
ENDBRANCH  19  20
ENDBRANCH  18  19
ENDBRANCH  17  18
ENDBRANCH   1  17
TORSDOF 26
ENDMDL
MODEL 7
REMARK VINA RESULT:    -4.336      5.620      9.103
REMARK INTER + INTRA:         -14.932
REMARK INTER:                  -9.778
REMARK INTRA:                  -5.154
REMARK UNBOUND:                -4.004
REMARK SMILES CCCCCCCCCCCCCCCCCCCCCCCCCCCC(=O)[O-]
REMARK SMILES IDX 15 1 16 2 17 3 18 4 19 5 20 6 21 7 22 8 23 9 24 10 25 11
REMARK SMILES IDX 26 12 27 13 28 14 29 15 30 16 14 17 13 18 12 19 11 20 10 21
REMARK SMILES IDX 9 22 8 23 7 24 6 25 5 26 4 27 3 28 2 29 1 30
REMARK H PARENT
REMARK Flexibility Score: inf
ROOT
ATOM      1  C   UNL     1     -11.410 -14.155  15.107  1.00  0.00     0.000 C 
ENDROOT
BRANCH   1   2
ATOM      2  C   UNL     1     -10.768 -13.523  13.862  1.00  0.00     0.000 C 
BRANCH   2   3
ATOM      3  C   UNL     1      -9.360 -12.998  14.181  1.00  0.00     0.000 C 
BRANCH   3   4
ATOM      4  C   UNL     1      -8.421 -14.096  14.713  1.00  0.00     0.000 C 
BRANCH   4   5
ATOM      5  C   UNL     1      -6.958 -13.655  14.918  1.00  0.00     0.000 C 
BRANCH   5   6
ATOM      6  C   UNL     1      -6.771 -12.215  15.438  1.00  0.00     0.000 C 
BRANCH   6   7
ATOM      7  C   UNL     1      -6.232 -12.104  16.876  1.00  0.00     0.000 C 
BRANCH   7   8
ATOM      8  C   UNL     1      -6.240 -10.661  17.407  1.00  0.00     0.000 C 
BRANCH   8   9
ATOM      9  C   UNL     1      -5.960 -10.576  18.919  1.00  0.00     0.000 C 
BRANCH   9  10
ATOM     10  C   UNL     1      -7.200 -10.712  19.820  1.00  0.00     0.000 C 
BRANCH  10  11
ATOM     11  C   UNL     1      -6.976 -10.153  21.236  1.00  0.00     0.000 C 
BRANCH  11  12
ATOM     12  C   UNL     1      -8.228  -9.466  21.810  1.00  0.00     0.006 C 
BRANCH  12  13
ATOM     13  C   UNL     1      -8.007  -8.002  22.225  1.00  0.00     0.053 C 
BRANCH  13  14
ATOM     14  C   UNL     1      -8.779  -7.645  23.457  1.00  0.00     0.041 C 
ATOM     15  O   UNL     1      -8.237  -6.965  24.369  1.00  0.00    -0.550 OA
ATOM     16  O   UNL     1     -10.106  -8.033  23.585  1.00  0.00    -0.550 OA
ENDBRANCH  13  14
ENDBRANCH  12  13
ENDBRANCH  11  12
ENDBRANCH  10  11
ENDBRANCH   9  10
ENDBRANCH   8   9
ENDBRANCH   7   8
ENDBRANCH   6   7
ENDBRANCH   5   6
ENDBRANCH   4   5
ENDBRANCH   3   4
ENDBRANCH   2   3
ENDBRANCH   1   2
BRANCH   1  17
ATOM     17  C   UNL     1     -11.645 -13.138  16.236  1.00  0.00     0.000 C 
BRANCH  17  18
ATOM     18  C   UNL     1     -10.926 -13.530  17.538  1.00  0.00     0.000 C 
BRANCH  18  19
ATOM     19  C   UNL     1      -9.831 -12.526  17.937  1.00  0.00     0.000 C 
BRANCH  19  20
ATOM     20  C   UNL     1      -9.953 -11.189  17.186  1.00  0.00     0.000 C 
BRANCH  20  21
ATOM     21  C   UNL     1     -10.111  -9.984  18.131  1.00  0.00     0.000 C 
BRANCH  21  22
ATOM     22  C   UNL     1      -9.363  -8.703  17.703  1.00  0.00    -0.000 C 
BRANCH  22  23
ATOM     23  C   UNL     1      -9.289  -7.595  18.768  1.00  0.00    -0.000 C 
BRANCH  23  24
ATOM     24  C   UNL     1      -8.248  -6.514  18.436  1.00  0.00    -0.000 C 
BRANCH  24  25
ATOM     25  C   UNL     1      -6.827  -6.907  18.869  1.00  0.00    -0.000 C 
BRANCH  25  26
ATOM     26  C   UNL     1      -5.841  -6.982  17.694  1.00  0.00    -0.000 C 
BRANCH  26  27
ATOM     27  C   UNL     1      -6.419  -6.302  16.446  1.00  0.00    -0.000 C 
BRANCH  27  28
ATOM     28  C   UNL     1      -5.640  -6.639  15.163  1.00  0.00    -0.000 C 
BRANCH  28  29
ATOM     29  C   UNL     1      -5.962  -8.034  14.590  1.00  0.00    -0.003 C 
ATOM     30  C   UNL     1      -7.430  -8.417  14.776  1.00  0.00     0.004 C 
ENDBRANCH  28  29
ENDBRANCH  27  28
ENDBRANCH  26  27
ENDBRANCH  25  26
ENDBRANCH  24  25
ENDBRANCH  23  24
ENDBRANCH  22  23
ENDBRANCH  21  22
ENDBRANCH  20  21
ENDBRANCH  19  20
ENDBRANCH  18  19
ENDBRANCH  17  18
ENDBRANCH   1  17
TORSDOF 26
ENDMDL
MODEL 8
REMARK VINA RESULT:    -4.299      3.696      6.285
REMARK INTER + INTRA:         -14.837
REMARK INTER:                 -10.250
REMARK INTRA:                  -4.587
REMARK UNBOUND:                -4.004
REMARK SMILES CCCCCCCCCCCCCCCCCCCCCCCCCCCC(=O)[O-]
REMARK SMILES IDX 15 1 16 2 17 3 18 4 19 5 20 6 21 7 22 8 23 9 24 10 25 11
REMARK SMILES IDX 26 12 27 13 28 14 29 15 30 16 14 17 13 18 12 19 11 20 10 21
REMARK SMILES IDX 9 22 8 23 7 24 6 25 5 26 4 27 3 28 2 29 1 30
REMARK H PARENT
REMARK Flexibility Score: inf
ROOT
ATOM      1  C   UNL     1      -7.980  -9.065  15.261  1.00  0.00     0.000 C 
ENDROOT
BRANCH   1   2
ATOM      2  C   UNL     1      -7.899  -9.399  16.759  1.00  0.00     0.000 C 
BRANCH   2   3
ATOM      3  C   UNL     1      -9.300  -9.433  17.387  1.00  0.00     0.000 C 
BRANCH   3   4
ATOM      4  C   UNL     1      -9.475 -10.589  18.389  1.00  0.00     0.000 C 
BRANCH   4   5
ATOM      5  C   UNL     1      -8.253 -11.519  18.527  1.00  0.00     0.000 C 
BRANCH   5   6
ATOM      6  C   UNL     1      -8.566 -13.028  18.471  1.00  0.00     0.000 C 
BRANCH   6   7
ATOM      7  C   UNL     1      -7.713 -13.836  17.476  1.00  0.00     0.000 C 
BRANCH   7   8
ATOM      8  C   UNL     1      -6.741 -12.958  16.670  1.00  0.00     0.000 C 
BRANCH   8   9
ATOM      9  C   UNL     1      -7.182 -12.758  15.208  1.00  0.00     0.000 C 
BRANCH   9  10
ATOM     10  C   UNL     1      -7.956 -13.938  14.593  1.00  0.00     0.000 C 
BRANCH  10  11
ATOM     11  C   UNL     1      -9.389 -13.562  14.178  1.00  0.00     0.000 C 
BRANCH  11  12
ATOM     12  C   UNL     1      -9.869 -12.247  14.819  1.00  0.00     0.006 C 
BRANCH  12  13
ATOM     13  C   UNL     1     -11.006 -12.422  15.837  1.00  0.00     0.053 C 
BRANCH  13  14
ATOM     14  C   UNL     1     -11.882 -13.591  15.506  1.00  0.00     0.041 C 
ATOM     15  O   UNL     1     -12.598 -13.571  14.470  1.00  0.00    -0.550 OA
ATOM     16  O   UNL     1     -11.882 -14.715  16.321  1.00  0.00    -0.550 OA
ENDBRANCH  13  14
ENDBRANCH  12  13
ENDBRANCH  11  12
ENDBRANCH  10  11
ENDBRANCH   9  10
ENDBRANCH   8   9
ENDBRANCH   7   8
ENDBRANCH   6   7
ENDBRANCH   5   6
ENDBRANCH   4   5
ENDBRANCH   3   4
ENDBRANCH   2   3
ENDBRANCH   1   2
BRANCH   1  17
ATOM     17  C   UNL     1      -6.759  -8.278  14.759  1.00  0.00     0.000 C 
BRANCH  17  18
ATOM     18  C   UNL     1      -7.152  -7.082  13.875  1.00  0.00     0.000 C 
BRANCH  18  19
ATOM     19  C   UNL     1      -6.691  -5.736  14.458  1.00  0.00     0.000 C 
BRANCH  19  20
ATOM     20  C   UNL     1      -5.686  -5.903  15.610  1.00  0.00     0.000 C 
BRANCH  20  21
ATOM     21  C   UNL     1      -6.166  -5.259  16.922  1.00  0.00     0.000 C 
BRANCH  21  22
ATOM     22  C   UNL     1      -6.782  -6.231  17.951  1.00  0.00    -0.000 C 
BRANCH  22  23
ATOM     23  C   UNL     1      -8.145  -5.806  18.527  1.00  0.00    -0.000 C 
BRANCH  23  24
ATOM     24  C   UNL     1      -8.635  -6.733  19.651  1.00  0.00    -0.000 C 
BRANCH  24  25
ATOM     25  C   UNL     1      -7.496  -7.210  20.565  1.00  0.00    -0.000 C 
BRANCH  25  26
ATOM     26  C   UNL     1      -7.531  -8.723  20.827  1.00  0.00    -0.000 C 
BRANCH  26  27
ATOM     27  C   UNL     1      -8.389  -9.049  22.057  1.00  0.00    -0.000 C 
BRANCH  27  28
ATOM     28  C   UNL     1      -8.234  -8.018  23.187  1.00  0.00    -0.000 C 
BRANCH  28  29
ATOM     29  C   UNL     1      -9.577  -7.513  23.755  1.00  0.00    -0.003 C 
ATOM     30  C   UNL     1     -10.747  -8.422  23.380  1.00  0.00     0.004 C 
ENDBRANCH  28  29
ENDBRANCH  27  28
ENDBRANCH  26  27
ENDBRANCH  25  26
ENDBRANCH  24  25
ENDBRANCH  23  24
ENDBRANCH  22  23
ENDBRANCH  21  22
ENDBRANCH  20  21
ENDBRANCH  19  20
ENDBRANCH  18  19
ENDBRANCH  17  18
ENDBRANCH   1  17
TORSDOF 26
ENDMDL
MODEL 9
REMARK VINA RESULT:    -4.264      4.696      9.242
REMARK INTER + INTRA:         -14.750
REMARK INTER:                  -9.060
REMARK INTRA:                  -5.690
REMARK UNBOUND:                -4.004
REMARK SMILES CCCCCCCCCCCCCCCCCCCCCCCCCCCC(=O)[O-]
REMARK SMILES IDX 15 1 16 2 17 3 18 4 19 5 20 6 21 7 22 8 23 9 24 10 25 11
REMARK SMILES IDX 26 12 27 13 28 14 29 15 30 16 14 17 13 18 12 19 11 20 10 21
REMARK SMILES IDX 9 22 8 23 7 24 6 25 5 26 4 27 3 28 2 29 1 30
REMARK H PARENT
REMARK Flexibility Score: inf
ROOT
ATOM      1  C   UNL     1      -7.675 -10.269  20.439  1.00  0.00     0.000 C 
ENDROOT
BRANCH   1   2
ATOM      2  C   UNL     1      -8.706  -9.130  20.475  1.00  0.00     0.000 C 
BRANCH   2   3
ATOM      3  C   UNL     1      -9.315  -8.990  21.878  1.00  0.00     0.000 C 
BRANCH   3   4
ATOM      4  C   UNL     1      -8.828  -7.730  22.616  1.00  0.00     0.000 C 
BRANCH   4   5
ATOM      5  C   UNL     1      -7.470  -7.881  23.330  1.00  0.00     0.000 C 
BRANCH   5   6
ATOM      6  C   UNL     1      -6.338  -6.985  22.786  1.00  0.00     0.000 C 
BRANCH   6   7
ATOM      7  C   UNL     1      -5.359  -7.680  21.823  1.00  0.00     0.000 C 
BRANCH   7   8
ATOM      8  C   UNL     1      -5.432  -7.124  20.391  1.00  0.00     0.000 C 
BRANCH   8   9
ATOM      9  C   UNL     1      -6.545  -6.077  20.209  1.00  0.00     0.000 C 
BRANCH   9  10
ATOM     10  C   UNL     1      -6.941  -5.793  18.749  1.00  0.00     0.000 C 
BRANCH  10  11
ATOM     11  C   UNL     1      -8.321  -6.366  18.380  1.00  0.00     0.000 C 
BRANCH  11  12
ATOM     12  C   UNL     1      -8.252  -7.394  17.236  1.00  0.00     0.006 C 
BRANCH  12  13
ATOM     13  C   UNL     1      -6.884  -7.464  16.537  1.00  0.00     0.053 C 
BRANCH  13  14
ATOM     14  C   UNL     1      -6.944  -6.944  15.134  1.00  0.00     0.041 C 
ATOM     15  O   UNL     1      -7.196  -7.726  14.179  1.00  0.00    -0.550 OA
ATOM     16  O   UNL     1      -6.753  -5.591  14.884  1.00  0.00    -0.550 OA
ENDBRANCH  13  14
ENDBRANCH  12  13
ENDBRANCH  11  12
ENDBRANCH  10  11
ENDBRANCH   9  10
ENDBRANCH   8   9
ENDBRANCH   7   8
ENDBRANCH   6   7
ENDBRANCH   5   6
ENDBRANCH   4   5
ENDBRANCH   3   4
ENDBRANCH   2   3
ENDBRANCH   1   2
BRANCH   1  17
ATOM     17  C   UNL     1      -6.796 -10.236  19.178  1.00  0.00     0.000 C 
BRANCH  17  18
ATOM     18  C   UNL     1      -6.307 -11.635  18.766  1.00  0.00     0.000 C 
BRANCH  18  19
ATOM     19  C   UNL     1      -5.106 -11.586  17.807  1.00  0.00     0.000 C 
BRANCH  19  20
ATOM     20  C   UNL     1      -5.512 -11.801  16.340  1.00  0.00     0.000 C 
BRANCH  20  21
ATOM     21  C   UNL     1      -6.728 -12.731  16.185  1.00  0.00     0.000 C 
BRANCH  21  22
ATOM     22  C   UNL     1      -7.852 -12.205  15.266  1.00  0.00    -0.000 C 
BRANCH  22  23
ATOM     23  C   UNL     1      -8.267 -10.741  15.502  1.00  0.00    -0.000 C 
BRANCH  23  24
ATOM     24  C   UNL     1      -9.752 -10.593  15.871  1.00  0.00    -0.000 C 
BRANCH  24  25
ATOM     25  C   UNL     1      -9.994 -10.653  17.388  1.00  0.00    -0.000 C 
BRANCH  25  26
ATOM     26  C   UNL     1     -10.846 -11.859  17.811  1.00  0.00    -0.000 C 
BRANCH  26  27
ATOM     27  C   UNL     1      -9.982 -13.119  17.958  1.00  0.00    -0.000 C 
BRANCH  27  28
ATOM     28  C   UNL     1     -10.411 -14.255  17.014  1.00  0.00    -0.000 C 
BRANCH  28  29
ATOM     29  C   UNL     1     -11.642 -13.911  16.150  1.00  0.00    -0.003 C 
ATOM     30  C   UNL     1     -11.298 -13.794  14.665  1.00  0.00     0.004 C 
ENDBRANCH  28  29
ENDBRANCH  27  28
ENDBRANCH  26  27
ENDBRANCH  25  26
ENDBRANCH  24  25
ENDBRANCH  23  24
ENDBRANCH  22  23
ENDBRANCH  21  22
ENDBRANCH  20  21
ENDBRANCH  19  20
ENDBRANCH  18  19
ENDBRANCH  17  18
ENDBRANCH   1  17
TORSDOF 26
ENDMDL
