MODEL 1
REMARK VINA RESULT:    -4.765      0.000      0.000
REMARK INTER + INTRA:         -13.072
REMARK INTER:                 -10.894
REMARK INTRA:                  -2.178
REMARK UNBOUND:                -2.178
REMARK SMILES CCCCCCCCCCCCCCCCCCCCCCCC(=O)[O-]
REMARK SMILES IDX 13 1 14 2 15 3 16 4 17 5 18 6 19 7 20 8 21 9 22 10 23 11
REMARK SMILES IDX 24 12 25 13 26 14 12 15 11 16 10 17 9 18 8 19 7 20 6 21 5 22
REMARK SMILES IDX 4 23 3 24 2 25 1 26
REMARK H PARENT
REMARK Flexibility Score: inf
ROOT
ATOM      1  C   UNL     1       2.299  -2.633  -8.004  1.00  0.00     0.000 C 
ENDROOT
BRANCH   1   2
ATOM      2  C   UNL     1       3.824  -2.434  -8.040  1.00  0.00     0.000 C 
BRANCH   2   3
ATOM      3  C   UNL     1       4.437  -2.799  -9.401  1.00  0.00     0.000 C 
BRANCH   3   4
ATOM      4  C   UNL     1       5.952  -2.548  -9.459  1.00  0.00     0.000 C 
BRANCH   4   5
ATOM      5  C   UNL     1       6.256  -1.068  -9.717  1.00  0.00     0.000 C 
BRANCH   5   6
ATOM      6  C   UNL     1       7.162  -0.494  -8.617  1.00  0.00     0.000 C 
BRANCH   6   7
ATOM      7  C   UNL     1       6.385   0.316  -7.568  1.00  0.00     0.000 C 
BRANCH   7   8
ATOM      8  C   UNL     1       6.586   1.835  -7.719  1.00  0.00     0.000 C 
BRANCH   8   9
ATOM      9  C   UNL     1       6.841   2.242  -9.186  1.00  0.00     0.000 C 
BRANCH   9  10
ATOM     10  C   UNL     1       6.119   3.537  -9.598  1.00  0.00     0.006 C 
BRANCH  10  11
ATOM     11  C   UNL     1       5.876   4.486  -8.419  1.00  0.00     0.053 C 
BRANCH  11  12
ATOM     12  C   UNL     1       5.444   5.831  -8.911  1.00  0.00     0.041 C 
ATOM     13  O   UNL     1       4.245   6.031  -9.235  1.00  0.00    -0.550 OA
ATOM     14  O   UNL     1       6.377   6.851  -9.053  1.00  0.00    -0.550 OA
ENDBRANCH  11  12
ENDBRANCH  10  11
ENDBRANCH   9  10
ENDBRANCH   8   9
ENDBRANCH   7   8
ENDBRANCH   6   7
ENDBRANCH   5   6
ENDBRANCH   4   5
ENDBRANCH   3   4
ENDBRANCH   2   3
ENDBRANCH   1   2
BRANCH   1  15
ATOM     15  C   UNL     1       1.719  -3.060  -9.364  1.00  0.00     0.000 C 
BRANCH  15  16
ATOM     16  C   UNL     1       1.065  -4.454  -9.388  1.00  0.00     0.000 C 
BRANCH  16  17
ATOM     17  C   UNL     1       1.941  -5.518 -10.067  1.00  0.00     0.000 C 
BRANCH  17  18
ATOM     18  C   UNL     1       2.349  -6.610  -9.068  1.00  0.00    -0.000 C 
BRANCH  18  19
ATOM     19  C   UNL     1       3.446  -6.146  -8.096  1.00  0.00    -0.000 C 
BRANCH  19  20
ATOM     20  C   UNL     1       2.932  -5.999  -6.652  1.00  0.00    -0.000 C 
BRANCH  20  21
ATOM     21  C   UNL     1       4.073  -5.877  -5.629  1.00  0.00    -0.000 C 
BRANCH  21  22
ATOM     22  C   UNL     1       3.967  -6.917  -4.501  1.00  0.00    -0.000 C 
BRANCH  22  23
ATOM     23  C   UNL     1       5.340  -7.442  -4.050  1.00  0.00    -0.000 C 
BRANCH  23  24
ATOM     24  C   UNL     1       6.503  -6.567  -4.545  1.00  0.00    -0.000 C 
BRANCH  24  25
ATOM     25  C   UNL     1       7.502  -7.397  -5.360  1.00  0.00    -0.003 C 
ATOM     26  C   UNL     1       7.801  -8.729  -4.678  1.00  0.00     0.004 C 
ENDBRANCH  24  25
ENDBRANCH  23  24
ENDBRANCH  22  23
ENDBRANCH  21  22
ENDBRANCH  20  21
ENDBRANCH  19  20
ENDBRANCH  18  19
ENDBRANCH  17  18
ENDBRANCH  16  17
ENDBRANCH  15  16
ENDBRANCH   1  15
TORSDOF 22
ENDMDL
MODEL 2
REMARK VINA RESULT:    -4.709      4.341      9.723
REMARK INTER + INTRA:         -12.945
REMARK INTER:                 -10.357
REMARK INTRA:                  -2.588
REMARK UNBOUND:                -2.178
REMARK SMILES CCCCCCCCCCCCCCCCCCCCCCCC(=O)[O-]
REMARK SMILES IDX 13 1 14 2 15 3 16 4 17 5 18 6 19 7 20 8 21 9 22 10 23 11
REMARK SMILES IDX 24 12 25 13 26 14 12 15 11 16 10 17 9 18 8 19 7 20 6 21 5 22
REMARK SMILES IDX 4 23 3 24 2 25 1 26
REMARK H PARENT
REMARK Flexibility Score: inf
ROOT
ATOM      1  C   UNL     1       3.730  -2.776  -7.776  1.00  0.00     0.000 C 
ENDROOT
BRANCH   1   2
ATOM      2  C   UNL     1       2.206  -2.605  -7.908  1.00  0.00     0.000 C 
BRANCH   2   3
ATOM      3  C   UNL     1       1.468  -3.949  -8.022  1.00  0.00     0.000 C 
BRANCH   3   4
ATOM      4  C   UNL     1       1.221  -4.370  -9.480  1.00  0.00     0.000 C 
BRANCH   4   5
ATOM      5  C   UNL     1       2.287  -5.366  -9.953  1.00  0.00     0.000 C 
BRANCH   5   6
ATOM      6  C   UNL     1       1.995  -6.777  -9.421  1.00  0.00     0.000 C 
BRANCH   6   7
ATOM      7  C   UNL     1       3.118  -7.321  -8.526  1.00  0.00     0.000 C 
BRANCH   7   8
ATOM      8  C   UNL     1       4.275  -6.320  -8.348  1.00  0.00     0.000 C 
BRANCH   8   9
ATOM      9  C   UNL     1       4.772  -6.262  -6.887  1.00  0.00     0.000 C 
BRANCH   9  10
ATOM     10  C   UNL     1       3.634  -6.156  -5.857  1.00  0.00     0.006 C 
BRANCH  10  11
ATOM     11  C   UNL     1       4.025  -6.699  -4.477  1.00  0.00     0.053 C 
BRANCH  11  12
ATOM     12  C   UNL     1       4.928  -7.884  -4.618  1.00  0.00     0.041 C 
ATOM     13  O   UNL     1       4.470  -8.983  -5.024  1.00  0.00    -0.550 OA
ATOM     14  O   UNL     1       6.266  -7.784  -4.257  1.00  0.00    -0.550 OA
ENDBRANCH  11  12
ENDBRANCH  10  11
ENDBRANCH   9  10
ENDBRANCH   8   9
ENDBRANCH   7   8
ENDBRANCH   6   7
ENDBRANCH   5   6
ENDBRANCH   4   5
ENDBRANCH   3   4
ENDBRANCH   2   3
ENDBRANCH   1   2
BRANCH   1  15
ATOM     15  C   UNL     1       4.496  -2.286  -9.018  1.00  0.00     0.000 C 
BRANCH  15  16
ATOM     16  C   UNL     1       5.690  -3.163  -9.437  1.00  0.00     0.000 C 
BRANCH  16  17
ATOM     17  C   UNL     1       6.983  -2.360  -9.645  1.00  0.00     0.000 C 
BRANCH  17  18
ATOM     18  C   UNL     1       6.771  -0.881  -9.289  1.00  0.00    -0.000 C 
BRANCH  18  19
ATOM     19  C   UNL     1       7.903  -0.313  -8.417  1.00  0.00    -0.000 C 
BRANCH  19  20
ATOM     20  C   UNL     1       7.381   0.349  -7.128  1.00  0.00    -0.000 C 
BRANCH  20  21
ATOM     21  C   UNL     1       6.325   1.431  -7.406  1.00  0.00    -0.000 C 
BRANCH  21  22
ATOM     22  C   UNL     1       6.900   2.629  -8.182  1.00  0.00    -0.000 C 
BRANCH  22  23
ATOM     23  C   UNL     1       5.844   3.708  -8.471  1.00  0.00    -0.000 C 
BRANCH  23  24
ATOM     24  C   UNL     1       6.352   5.130  -8.188  1.00  0.00    -0.000 C 
BRANCH  24  25
ATOM     25  C   UNL     1       5.486   6.173  -8.904  1.00  0.00    -0.003 C 
ATOM     26  C   UNL     1       4.595   5.521  -9.958  1.00  0.00     0.004 C 
ENDBRANCH  24  25
ENDBRANCH  23  24
ENDBRANCH  22  23
ENDBRANCH  21  22
ENDBRANCH  20  21
ENDBRANCH  19  20
ENDBRANCH  18  19
ENDBRANCH  17  18
ENDBRANCH  16  17
ENDBRANCH  15  16
ENDBRANCH   1  15
TORSDOF 22
ENDMDL
MODEL 3
REMARK VINA RESULT:    -4.700      1.956      3.879
REMARK INTER + INTRA:         -12.922
REMARK INTER:                 -11.088
REMARK INTRA:                  -1.835
REMARK UNBOUND:                -2.178
REMARK SMILES CCCCCCCCCCCCCCCCCCCCCCCC(=O)[O-]
REMARK SMILES IDX 13 1 14 2 15 3 16 4 17 5 18 6 19 7 20 8 21 9 22 10 23 11
REMARK SMILES IDX 24 12 25 13 26 14 12 15 11 16 10 17 9 18 8 19 7 20 6 21 5 22
REMARK SMILES IDX 4 23 3 24 2 25 1 26
REMARK H PARENT
REMARK Flexibility Score: inf
ROOT
ATOM      1  C   UNL     1       5.823  -1.504  -8.993  1.00  0.00     0.000 C 
ENDROOT
BRANCH   1   2
ATOM      2  C   UNL     1       5.669  -0.461  -7.873  1.00  0.00     0.000 C 
BRANCH   2   3
ATOM      3  C   UNL     1       6.894   0.460  -7.750  1.00  0.00     0.000 C 
BRANCH   3   4
ATOM      4  C   UNL     1       6.522   1.951  -7.777  1.00  0.00     0.000 C 
BRANCH   4   5
ATOM      5  C   UNL     1       7.248   2.679  -8.915  1.00  0.00     0.000 C 
BRANCH   5   6
ATOM      6  C   UNL     1       6.249   3.413  -9.822  1.00  0.00     0.000 C 
BRANCH   6   7
ATOM      7  C   UNL     1       5.483   4.524  -9.086  1.00  0.00     0.000 C 
BRANCH   7   8
ATOM      8  C   UNL     1       5.962   5.934  -9.475  1.00  0.00     0.000 C 
BRANCH   8   9
ATOM      9  C   UNL     1       5.584   6.988  -8.411  1.00  0.00     0.000 C 
BRANCH   9  10
ATOM     10  C   UNL     1       6.229   6.732  -7.038  1.00  0.00     0.006 C 
BRANCH  10  11
ATOM     11  C   UNL     1       6.660   8.021  -6.331  1.00  0.00     0.053 C 
BRANCH  11  12
ATOM     12  C   UNL     1       6.116   8.061  -4.938  1.00  0.00     0.041 C 
ATOM     13  O   UNL     1       6.501   8.948  -4.133  1.00  0.00    -0.550 OA
ATOM     14  O   UNL     1       5.214   7.091  -4.517  1.00  0.00    -0.550 OA
ENDBRANCH  11  12
ENDBRANCH  10  11
ENDBRANCH   9  10
ENDBRANCH   8   9
ENDBRANCH   7   8
ENDBRANCH   6   7
ENDBRANCH   5   6
ENDBRANCH   4   5
ENDBRANCH   3   4
ENDBRANCH   2   3
ENDBRANCH   1   2
BRANCH   1  15
ATOM     15  C   UNL     1       4.570  -2.380  -9.172  1.00  0.00     0.000 C 
BRANCH  15  16
ATOM     16  C   UNL     1       3.746  -2.611  -7.893  1.00  0.00     0.000 C 
BRANCH  16  17
ATOM     17  C   UNL     1       2.230  -2.600  -8.144  1.00  0.00     0.000 C 
BRANCH  17  18
ATOM     18  C   UNL     1       1.895  -3.243  -9.498  1.00  0.00    -0.000 C 
BRANCH  18  19
ATOM     19  C   UNL     1       1.305  -4.655  -9.355  1.00  0.00    -0.000 C 
BRANCH  19  20
ATOM     20  C   UNL     1       2.385  -5.752  -9.376  1.00  0.00    -0.000 C 
BRANCH  20  21
ATOM     21  C   UNL     1       2.702  -6.295  -7.973  1.00  0.00    -0.000 C 
BRANCH  21  22
ATOM     22  C   UNL     1       4.202  -6.226  -7.639  1.00  0.00    -0.000 C 
BRANCH  22  23
ATOM     23  C   UNL     1       4.467  -5.755  -6.200  1.00  0.00    -0.000 C 
BRANCH  23  24
ATOM     24  C   UNL     1       3.833  -6.677  -5.147  1.00  0.00    -0.000 C 
BRANCH  24  25
ATOM     25  C   UNL     1       4.879  -7.140  -4.126  1.00  0.00    -0.003 C 
ATOM     26  C   UNL     1       6.279  -6.677  -4.520  1.00  0.00     0.004 C 
ENDBRANCH  24  25
ENDBRANCH  23  24
ENDBRANCH  22  23
ENDBRANCH  21  22
ENDBRANCH  20  21
ENDBRANCH  19  20
ENDBRANCH  18  19
ENDBRANCH  17  18
ENDBRANCH  16  17
ENDBRANCH  15  16
ENDBRANCH   1  15
TORSDOF 22
ENDMDL
MODEL 4
REMARK VINA RESULT:    -4.690      2.601      5.570
REMARK INTER + INTRA:         -12.900
REMARK INTER:                  -8.908
REMARK INTRA:                  -3.992
REMARK UNBOUND:                -2.178
REMARK SMILES CCCCCCCCCCCCCCCCCCCCCCCC(=O)[O-]
REMARK SMILES IDX 13 1 14 2 15 3 16 4 17 5 18 6 19 7 20 8 21 9 22 10 23 11
REMARK SMILES IDX 24 12 25 13 26 14 12 15 11 16 10 17 9 18 8 19 7 20 6 21 5 22
REMARK SMILES IDX 4 23 3 24 2 25 1 26
REMARK H PARENT
REMARK Flexibility Score: inf
ROOT
ATOM      1  C   UNL     1       3.819  -6.729  -5.115  1.00  0.00     0.000 C 
ENDROOT
BRANCH   1   2
ATOM      2  C   UNL     1       2.843  -6.052  -6.092  1.00  0.00     0.000 C 
BRANCH   2   3
ATOM      3  C   UNL     1       3.428  -4.780  -6.726  1.00  0.00     0.000 C 
BRANCH   3   4
ATOM      4  C   UNL     1       2.346  -3.830  -7.264  1.00  0.00     0.000 C 
BRANCH   4   5
ATOM      5  C   UNL     1       1.881  -4.260  -8.660  1.00  0.00     0.000 C 
BRANCH   5   6
ATOM      6  C   UNL     1       3.028  -4.157  -9.676  1.00  0.00     0.000 C 
BRANCH   6   7
ATOM      7  C   UNL     1       3.502  -2.712  -9.894  1.00  0.00     0.000 C 
BRANCH   7   8
ATOM      8  C   UNL     1       4.985  -2.510  -9.532  1.00  0.00     0.000 C 
BRANCH   8   9
ATOM      9  C   UNL     1       5.166  -1.515  -8.366  1.00  0.00     0.000 C 
BRANCH   9  10
ATOM     10  C   UNL     1       6.330  -0.531  -8.575  1.00  0.00     0.006 C 
BRANCH  10  11
ATOM     11  C   UNL     1       6.536   0.412  -7.384  1.00  0.00     0.053 C 
BRANCH  11  12
ATOM     12  C   UNL     1       7.995   0.620  -7.127  1.00  0.00     0.041 C 
ATOM     13  O   UNL     1       8.474   1.783  -7.100  1.00  0.00    -0.550 OA
ATOM     14  O   UNL     1       8.834  -0.476  -6.962  1.00  0.00    -0.550 OA
ENDBRANCH  11  12
ENDBRANCH  10  11
ENDBRANCH   9  10
ENDBRANCH   8   9
ENDBRANCH   7   8
ENDBRANCH   6   7
ENDBRANCH   5   6
ENDBRANCH   4   5
ENDBRANCH   3   4
ENDBRANCH   2   3
ENDBRANCH   1   2
BRANCH   1  15
ATOM     15  C   UNL     1       5.189  -6.031  -5.056  1.00  0.00     0.000 C 
BRANCH  15  16
ATOM     16  C   UNL     1       6.353  -6.913  -4.570  1.00  0.00     0.000 C 
BRANCH  16  17
ATOM     17  C   UNL     1       6.245  -8.369  -5.050  1.00  0.00     0.000 C 
BRANCH  17  18
ATOM     18  C   UNL     1       7.453  -8.751  -5.918  1.00  0.00    -0.000 C 
BRANCH  18  19
ATOM     19  C   UNL     1       8.429  -7.580  -6.125  1.00  0.00    -0.000 C 
BRANCH  19  20
ATOM     20  C   UNL     1       8.559  -7.176  -7.605  1.00  0.00    -0.000 C 
BRANCH  20  21
ATOM     21  C   UNL     1       7.366  -7.646  -8.453  1.00  0.00    -0.000 C 
BRANCH  21  22
ATOM     22  C   UNL     1       6.293  -6.555  -8.616  1.00  0.00    -0.000 C 
BRANCH  22  23
ATOM     23  C   UNL     1       4.916  -7.131  -8.983  1.00  0.00    -0.000 C 
BRANCH  23  24
ATOM     24  C   UNL     1       4.694  -8.545  -8.423  1.00  0.00    -0.000 C 
BRANCH  24  25
ATOM     25  C   UNL     1       3.200  -8.886  -8.375  1.00  0.00    -0.003 C 
ATOM     26  C   UNL     1       2.383  -7.905  -9.212  1.00  0.00     0.004 C 
ENDBRANCH  24  25
ENDBRANCH  23  24
ENDBRANCH  22  23
ENDBRANCH  21  22
ENDBRANCH  20  21
ENDBRANCH  19  20
ENDBRANCH  18  19
ENDBRANCH  17  18
ENDBRANCH  16  17
ENDBRANCH  15  16
ENDBRANCH   1  15
TORSDOF 22
ENDMDL
MODEL 5
REMARK VINA RESULT:    -4.602      4.633      8.870
REMARK INTER + INTRA:         -12.699
REMARK INTER:                  -9.197
REMARK INTRA:                  -3.502
REMARK UNBOUND:                -2.178
REMARK SMILES CCCCCCCCCCCCCCCCCCCCCCCC(=O)[O-]
REMARK SMILES IDX 13 1 14 2 15 3 16 4 17 5 18 6 19 7 20 8 21 9 22 10 23 11
REMARK SMILES IDX 24 12 25 13 26 14 12 15 11 16 10 17 9 18 8 19 7 20 6 21 5 22
REMARK SMILES IDX 4 23 3 24 2 25 1 26
REMARK H PARENT
REMARK Flexibility Score: inf
ROOT
ATOM      1  C   UNL     1       4.989  -7.487  -4.288  1.00  0.00     0.000 C 
ENDROOT
BRANCH   1   2
ATOM      2  C   UNL     1       4.675  -8.947  -4.659  1.00  0.00     0.000 C 
BRANCH   2   3
ATOM      3  C   UNL     1       5.730  -9.559  -5.596  1.00  0.00     0.000 C 
BRANCH   3   4
ATOM      4  C   UNL     1       5.170  -9.889  -6.988  1.00  0.00     0.000 C 
BRANCH   4   5
ATOM      5  C   UNL     1       3.745  -9.345  -7.152  1.00  0.00     0.000 C 
BRANCH   5   6
ATOM      6  C   UNL     1       3.622  -8.507  -8.433  1.00  0.00     0.000 C 
BRANCH   6   7
ATOM      7  C   UNL     1       4.986  -8.087  -9.003  1.00  0.00     0.000 C 
BRANCH   7   8
ATOM      8  C   UNL     1       5.108  -6.565  -9.195  1.00  0.00     0.000 C 
BRANCH   8   9
ATOM      9  C   UNL     1       6.534  -6.055  -8.896  1.00  0.00     0.000 C 
BRANCH   9  10
ATOM     10  C   UNL     1       7.466  -7.139  -8.326  1.00  0.00     0.006 C 
BRANCH  10  11
ATOM     11  C   UNL     1       7.667  -7.018  -6.811  1.00  0.00     0.053 C 
BRANCH  11  12
ATOM     12  C   UNL     1       8.878  -7.784  -6.382  1.00  0.00     0.041 C 
ATOM     13  O   UNL     1       9.161  -8.880  -6.931  1.00  0.00    -0.550 OA
ATOM     14  O   UNL     1       9.670  -7.307  -5.344  1.00  0.00    -0.550 OA
ENDBRANCH  11  12
ENDBRANCH  10  11
ENDBRANCH   9  10
ENDBRANCH   8   9
ENDBRANCH   7   8
ENDBRANCH   6   7
ENDBRANCH   5   6
ENDBRANCH   4   5
ENDBRANCH   3   4
ENDBRANCH   2   3
ENDBRANCH   1   2
BRANCH   1  15
ATOM     15  C   UNL     1       3.861  -6.515  -4.676  1.00  0.00     0.000 C 
BRANCH  15  16
ATOM     16  C   UNL     1       4.138  -5.657  -5.925  1.00  0.00     0.000 C 
BRANCH  16  17
ATOM     17  C   UNL     1       2.870  -5.343  -6.732  1.00  0.00     0.000 C 
BRANCH  17  18
ATOM     18  C   UNL     1       2.820  -3.857  -7.117  1.00  0.00    -0.000 C 
BRANCH  18  19
ATOM     19  C   UNL     1       2.353  -3.634  -8.565  1.00  0.00    -0.000 C 
BRANCH  19  20
ATOM     20  C   UNL     1       3.450  -3.014  -9.450  1.00  0.00    -0.000 C 
BRANCH  20  21
ATOM     21  C   UNL     1       4.530  -2.289  -8.631  1.00  0.00    -0.000 C 
BRANCH  21  22
ATOM     22  C   UNL     1       5.818  -2.048  -9.437  1.00  0.00    -0.000 C 
BRANCH  22  23
ATOM     23  C   UNL     1       6.646  -0.873  -8.891  1.00  0.00    -0.000 C 
BRANCH  23  24
ATOM     24  C   UNL     1       5.963  -0.162  -7.712  1.00  0.00    -0.000 C 
BRANCH  24  25
ATOM     25  C   UNL     1       6.825   1.000  -7.202  1.00  0.00    -0.003 C 
ATOM     26  C   UNL     1       6.533   2.284  -7.973  1.00  0.00     0.004 C 
ENDBRANCH  24  25
ENDBRANCH  23  24
ENDBRANCH  22  23
ENDBRANCH  21  22
ENDBRANCH  20  21
ENDBRANCH  19  20
ENDBRANCH  18  19
ENDBRANCH  17  18
ENDBRANCH  16  17
ENDBRANCH  15  16
ENDBRANCH   1  15
TORSDOF 22
ENDMDL
MODEL 6
REMARK VINA RESULT:    -4.601      4.153     10.370
REMARK INTER + INTRA:         -12.697
REMARK INTER:                 -10.617
REMARK INTRA:                  -2.080
REMARK UNBOUND:                -2.178
REMARK SMILES CCCCCCCCCCCCCCCCCCCCCCCC(=O)[O-]
REMARK SMILES IDX 13 1 14 2 15 3 16 4 17 5 18 6 19 7 20 8 21 9 22 10 23 11
REMARK SMILES IDX 24 12 25 13 26 14 12 15 11 16 10 17 9 18 8 19 7 20 6 21 5 22
REMARK SMILES IDX 4 23 3 24 2 25 1 26
REMARK H PARENT
REMARK Flexibility Score: inf
ROOT
ATOM      1  C   UNL     1       3.799  -2.245  -8.232  1.00  0.00     0.000 C 
ENDROOT
BRANCH   1   2
ATOM      2  C   UNL     1       3.418  -3.548  -7.509  1.00  0.00     0.000 C 
BRANCH   2   3
ATOM      3  C   UNL     1       1.904  -3.811  -7.521  1.00  0.00     0.000 C 
BRANCH   3   4
ATOM      4  C   UNL     1       1.380  -4.216  -8.908  1.00  0.00     0.000 C 
BRANCH   4   5
ATOM      5  C   UNL     1       2.370  -5.145  -9.620  1.00  0.00     0.000 C 
BRANCH   5   6
ATOM      6  C   UNL     1       1.991  -6.618  -9.405  1.00  0.00     0.000 C 
BRANCH   6   7
ATOM      7  C   UNL     1       3.216  -7.526  -9.213  1.00  0.00     0.000 C 
BRANCH   7   8
ATOM      8  C   UNL     1       4.494  -6.738  -8.875  1.00  0.00     0.000 C 
BRANCH   8   9
ATOM      9  C   UNL     1       4.938  -6.953  -7.412  1.00  0.00     0.000 C 
BRANCH   9  10
ATOM     10  C   UNL     1       3.763  -7.129  -6.434  1.00  0.00     0.006 C 
BRANCH  10  11
ATOM     11  C   UNL     1       3.968  -6.379  -5.113  1.00  0.00     0.053 C 
BRANCH  11  12
ATOM     12  C   UNL     1       5.170  -6.905  -4.394  1.00  0.00     0.041 C 
ATOM     13  O   UNL     1       6.269  -6.297  -4.471  1.00  0.00    -0.550 OA
ATOM     14  O   UNL     1       5.086  -8.090  -3.674  1.00  0.00    -0.550 OA
ENDBRANCH  11  12
ENDBRANCH  10  11
ENDBRANCH   9  10
ENDBRANCH   8   9
ENDBRANCH   7   8
ENDBRANCH   6   7
ENDBRANCH   5   6
ENDBRANCH   4   5
ENDBRANCH   3   4
ENDBRANCH   2   3
ENDBRANCH   1   2
BRANCH   1  15
ATOM     15  C   UNL     1       5.054  -2.392  -9.111  1.00  0.00     0.000 C 
BRANCH  15  16
ATOM     16  C   UNL     1       6.080  -1.252  -8.981  1.00  0.00     0.000 C 
BRANCH  16  17
ATOM     17  C   UNL     1       5.793  -0.315  -7.797  1.00  0.00     0.000 C 
BRANCH  17  18
ATOM     18  C   UNL     1       6.973   0.637  -7.554  1.00  0.00    -0.000 C 
BRANCH  18  19
ATOM     19  C   UNL     1       6.647   2.093  -7.923  1.00  0.00    -0.000 C 
BRANCH  19  20
ATOM     20  C   UNL     1       6.725   2.350  -9.439  1.00  0.00    -0.000 C 
BRANCH  20  21
ATOM     21  C   UNL     1       5.977   3.625  -9.861  1.00  0.00    -0.000 C 
BRANCH  21  22
ATOM     22  C   UNL     1       5.589   4.505  -8.661  1.00  0.00    -0.000 C 
BRANCH  22  23
ATOM     23  C   UNL     1       5.280   5.955  -9.066  1.00  0.00    -0.000 C 
BRANCH  23  24
ATOM     24  C   UNL     1       6.461   6.907  -8.817  1.00  0.00    -0.000 C 
BRANCH  24  25
ATOM     25  C   UNL     1       6.065   8.026  -7.847  1.00  0.00    -0.003 C 
ATOM     26  C   UNL     1       6.958   8.025  -6.609  1.00  0.00     0.004 C 
ENDBRANCH  24  25
ENDBRANCH  23  24
ENDBRANCH  22  23
ENDBRANCH  21  22
ENDBRANCH  20  21
ENDBRANCH  19  20
ENDBRANCH  18  19
ENDBRANCH  17  18
ENDBRANCH  16  17
ENDBRANCH  15  16
ENDBRANCH   1  15
TORSDOF 22
ENDMDL
MODEL 7
REMARK VINA RESULT:    -4.588      1.544      2.390
REMARK INTER + INTRA:         -12.667
REMARK INTER:                 -10.098
REMARK INTRA:                  -2.569
REMARK UNBOUND:                -2.178
REMARK SMILES CCCCCCCCCCCCCCCCCCCCCCCC(=O)[O-]
REMARK SMILES IDX 13 1 14 2 15 3 16 4 17 5 18 6 19 7 20 8 21 9 22 10 23 11
REMARK SMILES IDX 24 12 25 13 26 14 12 15 11 16 10 17 9 18 8 19 7 20 6 21 5 22
REMARK SMILES IDX 4 23 3 24 2 25 1 26
REMARK H PARENT
REMARK Flexibility Score: inf
ROOT
ATOM      1  C   UNL     1       3.413  -4.734  -6.756  1.00  0.00     0.000 C 
ENDROOT
BRANCH   1   2
ATOM      2  C   UNL     1       2.379  -3.747  -7.324  1.00  0.00     0.000 C 
BRANCH   2   3
ATOM      3  C   UNL     1       3.027  -2.598  -8.113  1.00  0.00     0.000 C 
BRANCH   3   4
ATOM      4  C   UNL     1       3.683  -3.070  -9.421  1.00  0.00     0.000 C 
BRANCH   4   5
ATOM      5  C   UNL     1       5.113  -2.532  -9.545  1.00  0.00     0.000 C 
BRANCH   5   6
ATOM      6  C   UNL     1       5.399  -1.481  -8.461  1.00  0.00     0.000 C 
BRANCH   6   7
ATOM      7  C   UNL     1       6.547  -0.532  -8.840  1.00  0.00     0.000 C 
BRANCH   7   8
ATOM      8  C   UNL     1       7.101   0.244  -7.631  1.00  0.00     0.000 C 
BRANCH   8   9
ATOM      9  C   UNL     1       6.337   1.564  -7.391  1.00  0.00     0.000 C 
BRANCH   9  10
ATOM     10  C   UNL     1       6.954   2.771  -8.120  1.00  0.00     0.006 C 
BRANCH  10  11
ATOM     11  C   UNL     1       6.055   3.319  -9.234  1.00  0.00     0.053 C 
BRANCH  11  12
ATOM     12  C   UNL     1       5.427   4.609  -8.813  1.00  0.00     0.041 C 
ATOM     13  O   UNL     1       4.408   5.042  -9.411  1.00  0.00    -0.550 OA
ATOM     14  O   UNL     1       5.993   5.355  -7.786  1.00  0.00    -0.550 OA
ENDBRANCH  11  12
ENDBRANCH  10  11
ENDBRANCH   9  10
ENDBRANCH   8   9
ENDBRANCH   7   8
ENDBRANCH   6   7
ENDBRANCH   5   6
ENDBRANCH   4   5
ENDBRANCH   3   4
ENDBRANCH   2   3
ENDBRANCH   1   2
BRANCH   1  15
ATOM     15  C   UNL     1       2.970  -6.202  -6.880  1.00  0.00     0.000 C 
BRANCH  15  16
ATOM     16  C   UNL     1       2.854  -6.732  -8.321  1.00  0.00     0.000 C 
BRANCH  16  17
ATOM     17  C   UNL     1       3.445  -8.139  -8.494  1.00  0.00     0.000 C 
BRANCH  17  18
ATOM     18  C   UNL     1       4.979  -8.085  -8.554  1.00  0.00    -0.000 C 
BRANCH  18  19
ATOM     19  C   UNL     1       5.647  -9.011  -7.524  1.00  0.00    -0.000 C 
BRANCH  19  20
ATOM     20  C   UNL     1       4.632  -9.898  -6.781  1.00  0.00    -0.000 C 
BRANCH  20  21
ATOM     21  C   UNL     1       4.778  -9.811  -5.253  1.00  0.00    -0.000 C 
BRANCH  21  22
ATOM     22  C   UNL     1       4.393  -8.427  -4.703  1.00  0.00    -0.000 C 
BRANCH  22  23
ATOM     23  C   UNL     1       5.532  -7.769  -3.909  1.00  0.00    -0.000 C 
BRANCH  23  24
ATOM     24  C   UNL     1       6.359  -6.789  -4.756  1.00  0.00    -0.000 C 
BRANCH  24  25
ATOM     25  C   UNL     1       7.764  -7.344  -5.018  1.00  0.00    -0.003 C 
ATOM     26  C   UNL     1       8.054  -8.554  -4.134  1.00  0.00     0.004 C 
ENDBRANCH  24  25
ENDBRANCH  23  24
ENDBRANCH  22  23
ENDBRANCH  21  22
ENDBRANCH  20  21
ENDBRANCH  19  20
ENDBRANCH  18  19
ENDBRANCH  17  18
ENDBRANCH  16  17
ENDBRANCH  15  16
ENDBRANCH   1  15
TORSDOF 22
ENDMDL
MODEL 8
REMARK VINA RESULT:    -4.584      1.418      2.786
REMARK INTER + INTRA:         -12.657
REMARK INTER:                  -9.572
REMARK INTRA:                  -3.085
REMARK UNBOUND:                -2.178
REMARK SMILES CCCCCCCCCCCCCCCCCCCCCCCC(=O)[O-]
REMARK SMILES IDX 13 1 14 2 15 3 16 4 17 5 18 6 19 7 20 8 21 9 22 10 23 11
REMARK SMILES IDX 24 12 25 13 26 14 12 15 11 16 10 17 9 18 8 19 7 20 6 21 5 22
REMARK SMILES IDX 4 23 3 24 2 25 1 26
REMARK H PARENT
REMARK Flexibility Score: inf
ROOT
ATOM      1  C   UNL     1       2.481  -4.409  -7.159  1.00  0.00     0.000 C 
ENDROOT
BRANCH   1   2
ATOM      2  C   UNL     1       2.721  -2.965  -7.635  1.00  0.00     0.000 C 
BRANCH   2   3
ATOM      3  C   UNL     1       2.590  -2.815  -9.159  1.00  0.00     0.000 C 
BRANCH   3   4
ATOM      4  C   UNL     1       3.943  -2.601  -9.855  1.00  0.00     0.000 C 
BRANCH   4   5
ATOM      5  C   UNL     1       5.010  -2.142  -8.854  1.00  0.00     0.000 C 
BRANCH   5   6
ATOM      6  C   UNL     1       6.283  -1.683  -9.581  1.00  0.00     0.000 C 
BRANCH   6   7
ATOM      7  C   UNL     1       6.802  -0.328  -9.074  1.00  0.00     0.000 C 
BRANCH   7   8
ATOM      8  C   UNL     1       6.349  -0.017  -7.636  1.00  0.00     0.000 C 
BRANCH   8   9
ATOM      9  C   UNL     1       6.288   1.501  -7.364  1.00  0.00     0.000 C 
BRANCH   9  10
ATOM     10  C   UNL     1       7.139   2.334  -8.338  1.00  0.00     0.006 C 
BRANCH  10  11
ATOM     11  C   UNL     1       6.315   3.355  -9.129  1.00  0.00     0.053 C 
BRANCH  11  12
ATOM     12  C   UNL     1       6.640   4.746  -8.686  1.00  0.00     0.041 C 
ATOM     13  O   UNL     1       7.762   5.249  -8.953  1.00  0.00    -0.550 OA
ATOM     14  O   UNL     1       5.718   5.472  -7.941  1.00  0.00    -0.550 OA
ENDBRANCH  11  12
ENDBRANCH  10  11
ENDBRANCH   9  10
ENDBRANCH   8   9
ENDBRANCH   7   8
ENDBRANCH   6   7
ENDBRANCH   5   6
ENDBRANCH   4   5
ENDBRANCH   3   4
ENDBRANCH   2   3
ENDBRANCH   1   2
BRANCH   1  15
ATOM     15  C   UNL     1       2.269  -5.394  -8.322  1.00  0.00     0.000 C 
BRANCH  15  16
ATOM     16  C   UNL     1       3.305  -6.529  -8.415  1.00  0.00     0.000 C 
BRANCH  16  17
ATOM     17  C   UNL     1       4.549  -6.143  -9.230  1.00  0.00     0.000 C 
BRANCH  17  18
ATOM     18  C   UNL     1       5.747  -5.879  -8.306  1.00  0.00    -0.000 C 
BRANCH  18  19
ATOM     19  C   UNL     1       7.008  -6.648  -8.735  1.00  0.00    -0.000 C 
BRANCH  19  20
ATOM     20  C   UNL     1       7.378  -7.772  -7.749  1.00  0.00    -0.000 C 
BRANCH  20  21
ATOM     21  C   UNL     1       8.558  -7.394  -6.839  1.00  0.00    -0.000 C 
BRANCH  21  22
ATOM     22  C   UNL     1       8.228  -7.565  -5.346  1.00  0.00    -0.000 C 
BRANCH  22  23
ATOM     23  C   UNL     1       6.726  -7.771  -5.092  1.00  0.00    -0.000 C 
BRANCH  23  24
ATOM     24  C   UNL     1       6.022  -6.490  -4.617  1.00  0.00    -0.000 C 
BRANCH  24  25
ATOM     25  C   UNL     1       4.505  -6.593  -4.818  1.00  0.00    -0.003 C 
ATOM     26  C   UNL     1       4.097  -8.006  -5.227  1.00  0.00     0.004 C 
ENDBRANCH  24  25
ENDBRANCH  23  24
ENDBRANCH  22  23
ENDBRANCH  21  22
ENDBRANCH  20  21
ENDBRANCH  19  20
ENDBRANCH  18  19
ENDBRANCH  17  18
ENDBRANCH  16  17
ENDBRANCH  15  16
ENDBRANCH   1  15
TORSDOF 22
ENDMDL
MODEL 9
REMARK VINA RESULT:    -4.540      2.720      5.185
REMARK INTER + INTRA:         -12.558
REMARK INTER:                  -8.483
REMARK INTRA:                  -4.074
REMARK UNBOUND:                -2.178
REMARK SMILES CCCCCCCCCCCCCCCCCCCCCCCC(=O)[O-]
REMARK SMILES IDX 13 1 14 2 15 3 16 4 17 5 18 6 19 7 20 8 21 9 22 10 23 11
REMARK SMILES IDX 24 12 25 13 26 14 12 15 11 16 10 17 9 18 8 19 7 20 6 21 5 22
REMARK SMILES IDX 4 23 3 24 2 25 1 26
REMARK H PARENT
REMARK Flexibility Score: inf
ROOT
ATOM      1  C   UNL     1       5.229  -6.251  -5.209  1.00  0.00     0.000 C 
ENDROOT
BRANCH   1   2
ATOM      2  C   UNL     1       4.528  -5.589  -6.408  1.00  0.00     0.000 C 
BRANCH   2   3
ATOM      3  C   UNL     1       2.996  -5.695  -6.330  1.00  0.00     0.000 C 
BRANCH   3   4
ATOM      4  C   UNL     1       2.282  -4.562  -7.084  1.00  0.00     0.000 C 
BRANCH   4   5
ATOM      5  C   UNL     1       2.273  -4.826  -8.594  1.00  0.00     0.000 C 
BRANCH   5   6
ATOM      6  C   UNL     1       2.632  -3.553  -9.375  1.00  0.00     0.000 C 
BRANCH   6   7
ATOM      7  C   UNL     1       3.919  -2.886  -8.866  1.00  0.00     0.000 C 
BRANCH   7   8
ATOM      8  C   UNL     1       5.183  -3.421  -9.562  1.00  0.00     0.000 C 
BRANCH   8   9
ATOM      9  C   UNL     1       6.341  -2.400  -9.527  1.00  0.00     0.000 C 
BRANCH   9  10
ATOM     10  C   UNL     1       5.956  -1.059  -8.878  1.00  0.00     0.006 C 
BRANCH  10  11
ATOM     11  C   UNL     1       7.167  -0.161  -8.599  1.00  0.00     0.053 C 
BRANCH  11  12
ATOM     12  C   UNL     1       7.023   0.512  -7.271  1.00  0.00     0.041 C 
ATOM     13  O   UNL     1       6.132   1.384  -7.097  1.00  0.00    -0.550 OA
ATOM     14  O   UNL     1       7.902   0.207  -6.238  1.00  0.00    -0.550 OA
ENDBRANCH  11  12
ENDBRANCH  10  11
ENDBRANCH   9  10
ENDBRANCH   8   9
ENDBRANCH   7   8
ENDBRANCH   6   7
ENDBRANCH   5   6
ENDBRANCH   4   5
ENDBRANCH   3   4
ENDBRANCH   2   3
ENDBRANCH   1   2
BRANCH   1  15
ATOM     15  C   UNL     1       4.319  -7.234  -4.451  1.00  0.00     0.000 C 
BRANCH  15  16
ATOM     16  C   UNL     1       4.658  -8.723  -4.646  1.00  0.00     0.000 C 
BRANCH  16  17
ATOM     17  C   UNL     1       5.853  -8.949  -5.585  1.00  0.00     0.000 C 
BRANCH  17  18
ATOM     18  C   UNL     1       5.421  -9.708  -6.848  1.00  0.00    -0.000 C 
BRANCH  18  19
ATOM     19  C   UNL     1       3.898  -9.690  -7.060  1.00  0.00    -0.000 C 
BRANCH  19  20
ATOM     20  C   UNL     1       3.467  -8.710  -8.167  1.00  0.00    -0.000 C 
BRANCH  20  21
ATOM     21  C   UNL     1       4.440  -8.698  -9.357  1.00  0.00    -0.000 C 
BRANCH  21  22
ATOM     22  C   UNL     1       5.052  -7.309  -9.603  1.00  0.00    -0.000 C 
BRANCH  22  23
ATOM     23  C   UNL     1       6.589  -7.337  -9.639  1.00  0.00    -0.000 C 
BRANCH  23  24
ATOM     24  C   UNL     1       7.225  -6.309  -8.690  1.00  0.00    -0.000 C 
BRANCH  24  25
ATOM     25  C   UNL     1       8.141  -6.999  -7.672  1.00  0.00    -0.003 C 
ATOM     26  C   UNL     1       8.698  -8.307  -8.227  1.00  0.00     0.004 C 
ENDBRANCH  24  25
ENDBRANCH  23  24
ENDBRANCH  22  23
ENDBRANCH  21  22
ENDBRANCH  20  21
ENDBRANCH  19  20
ENDBRANCH  18  19
ENDBRANCH  17  18
ENDBRANCH  16  17
ENDBRANCH  15  16
ENDBRANCH   1  15
TORSDOF 22
ENDMDL
