MODEL 1
REMARK VINA RESULT:    -5.850      0.000      0.000
REMARK INTER + INTRA:          -6.851
REMARK INTER:                  -6.705
REMARK INTRA:                  -0.146
REMARK UNBOUND:                -0.146
REMARK SMILES O=C([O-])C=Cc1ccc(O)cc1
REMARK SMILES IDX 6 1 7 2 12 3 8 4 11 5 9 6 5 7 4 8 2 9 1 10 3 11 10 12
REMARK H PARENT 10 13
REMARK Flexibility Score: inf
ROOT
ATOM      1  C   UNL     1      61.272 152.248   2.966  1.00  0.00    -0.025 A 
ATOM      2  C   UNL     1      61.541 152.685   1.658  1.00  0.00     0.012 A 
ATOM      3  C   UNL     1      60.015 152.542   3.535  1.00  0.00     0.012 A 
ATOM      4  C   UNL     1      60.591 153.421   0.943  1.00  0.00     0.047 A 
ATOM      5  C   UNL     1      59.068 153.278   2.815  1.00  0.00     0.047 A 
ATOM      6  C   UNL     1      59.352 153.721   1.521  1.00  0.00     0.115 A 
ENDROOT
BRANCH   1   7
ATOM      7  C   UNL     1      62.309 151.462   3.680  1.00  0.00     0.010 C 
ATOM      8  C   UNL     1      63.626 151.636   3.507  1.00  0.00     0.025 C 
BRANCH   8   9
ATOM      9  C   UNL     1      64.619 150.824   4.229  1.00  0.00     0.064 C 
ATOM     10  O   UNL     1      65.030 151.204   5.356  1.00  0.00    -0.545 OA
ATOM     11  O   UNL     1      65.110 149.642   3.686  1.00  0.00    -0.545 OA
ENDBRANCH   8   9
ENDBRANCH   1   7
BRANCH   6  12
ATOM     12  O   UNL     1      58.398 154.453   0.819  1.00  0.00    -0.508 OA
ATOM     13  H   UNL     1      58.255 154.319  -0.175  1.00  0.00     0.293 HD
ENDBRANCH   6  12
TORSDOF 3
ENDMDL
MODEL 2
REMARK VINA RESULT:    -5.840      0.131      1.402
REMARK INTER + INTRA:          -6.839
REMARK INTER:                  -6.700
REMARK INTRA:                  -0.140
REMARK UNBOUND:                -0.146
REMARK SMILES O=C([O-])C=Cc1ccc(O)cc1
REMARK SMILES IDX 6 1 7 2 12 3 8 4 11 5 9 6 5 7 4 8 2 9 1 10 3 11 10 12
REMARK H PARENT 10 13
REMARK Flexibility Score: inf
ROOT
ATOM      1  C   UNL     1      61.255 152.244   2.971  1.00  0.00    -0.025 A 
ATOM      2  C   UNL     1      60.044 152.520   3.627  1.00  0.00     0.012 A 
ATOM      3  C   UNL     1      61.442 152.726   1.658  1.00  0.00     0.012 A 
ATOM      4  C   UNL     1      59.031 153.237   2.981  1.00  0.00     0.047 A 
ATOM      5  C   UNL     1      60.427 153.444   1.017  1.00  0.00     0.047 A 
ATOM      6  C   UNL     1      59.221 153.700   1.674  1.00  0.00     0.115 A 
ENDROOT
BRANCH   1   7
ATOM      7  C   UNL     1      62.302 151.487   3.701  1.00  0.00     0.010 C 
ATOM      8  C   UNL     1      63.615 151.624   3.473  1.00  0.00     0.025 C 
BRANCH   8   9
ATOM      9  C   UNL     1      64.619 150.843   4.213  1.00  0.00     0.064 C 
ATOM     10  O   UNL     1      65.028 151.257   5.329  1.00  0.00    -0.545 OA
ATOM     11  O   UNL     1      65.122 149.652   3.701  1.00  0.00    -0.545 OA
ENDBRANCH   8   9
ENDBRANCH   1   7
BRANCH   6  12
ATOM     12  O   UNL     1      58.220 154.415   1.020  1.00  0.00    -0.508 OA
ATOM     13  H   UNL     1      57.407 153.952   0.631  1.00  0.00     0.293 HD
ENDBRANCH   6  12
TORSDOF 3
ENDMDL
MODEL 3
REMARK VINA RESULT:    -5.773      1.564      5.846
REMARK INTER + INTRA:          -6.763
REMARK INTER:                  -6.617
REMARK INTRA:                  -0.146
REMARK UNBOUND:                -0.146
REMARK SMILES O=C([O-])C=Cc1ccc(O)cc1
REMARK SMILES IDX 6 1 7 2 12 3 8 4 11 5 9 6 5 7 4 8 2 9 1 10 3 11 10 12
REMARK H PARENT 10 13
REMARK Flexibility Score: inf
ROOT
ATOM      1  C   UNL     1      62.558 151.112   4.109  1.00  0.00    -0.025 A 
ATOM      2  C   UNL     1      63.888 151.322   3.706  1.00  0.00     0.012 A 
ATOM      3  C   UNL     1      62.294 150.150   5.106  1.00  0.00     0.012 A 
ATOM      4  C   UNL     1      64.928 150.572   4.266  1.00  0.00     0.047 A 
ATOM      5  C   UNL     1      63.338 149.404   5.663  1.00  0.00     0.047 A 
ATOM      6  C   UNL     1      64.654 149.610   5.245  1.00  0.00     0.115 A 
ENDROOT
BRANCH   1   7
ATOM      7  C   UNL     1      61.491 151.939   3.493  1.00  0.00     0.010 C 
ATOM      8  C   UNL     1      61.442 152.242   2.189  1.00  0.00     0.025 C 
BRANCH   8   9
ATOM      9  C   UNL     1      60.370 153.076   1.623  1.00  0.00     0.064 C 
ATOM     10  O   UNL     1      59.234 153.078   2.165  1.00  0.00    -0.545 OA
ATOM     11  O   UNL     1      60.592 153.865   0.500  1.00  0.00    -0.545 OA
ENDBRANCH   8   9
ENDBRANCH   1   7
BRANCH   6  12
ATOM     12  O   UNL     1      65.682 148.857   5.809  1.00  0.00    -0.508 OA
ATOM     13  H   UNL     1      65.525 148.277   6.625  1.00  0.00     0.293 HD
ENDBRANCH   6  12
TORSDOF 3
ENDMDL
MODEL 4
REMARK VINA RESULT:    -5.748      1.563      6.005
REMARK INTER + INTRA:          -6.735
REMARK INTER:                  -6.593
REMARK INTRA:                  -0.142
REMARK UNBOUND:                -0.146
REMARK SMILES O=C([O-])C=Cc1ccc(O)cc1
REMARK SMILES IDX 6 1 7 2 12 3 8 4 11 5 9 6 5 7 4 8 2 9 1 10 3 11 10 12
REMARK H PARENT 10 13
REMARK Flexibility Score: inf
ROOT
ATOM      1  C   UNL     1      62.601 151.123   4.076  1.00  0.00    -0.025 A 
ATOM      2  C   UNL     1      62.302 150.152   5.046  1.00  0.00     0.012 A 
ATOM      3  C   UNL     1      63.944 151.300   3.683  1.00  0.00     0.012 A 
ATOM      4  C   UNL     1      63.320 149.391   5.630  1.00  0.00     0.047 A 
ATOM      5  C   UNL     1      64.958 150.536   4.269  1.00  0.00     0.047 A 
ATOM      6  C   UNL     1      64.651 149.583   5.244  1.00  0.00     0.115 A 
ENDROOT
BRANCH   1   7
ATOM      7  C   UNL     1      61.485 151.898   3.479  1.00  0.00     0.010 C 
ATOM      8  C   UNL     1      61.432 152.255   2.189  1.00  0.00     0.025 C 
BRANCH   8   9
ATOM      9  C   UNL     1      60.310 153.035   1.642  1.00  0.00     0.064 C 
ATOM     10  O   UNL     1      59.183 152.974   2.197  1.00  0.00    -0.545 OA
ATOM     11  O   UNL     1      60.477 153.841   0.521  1.00  0.00    -0.545 OA
ENDBRANCH   8   9
ENDBRANCH   1   7
BRANCH   6  12
ATOM     12  O   UNL     1      65.674 148.832   5.818  1.00  0.00    -0.508 OA
ATOM     13  H   UNL     1      66.641 149.133   5.773  1.00  0.00     0.293 HD
ENDBRANCH   6  12
TORSDOF 3
ENDMDL
MODEL 5
REMARK VINA RESULT:    -5.355      3.552      4.381
REMARK INTER + INTRA:          -6.284
REMARK INTER:                  -6.144
REMARK INTRA:                  -0.140
REMARK UNBOUND:                -0.146
REMARK SMILES O=C([O-])C=Cc1ccc(O)cc1
REMARK SMILES IDX 6 1 7 2 12 3 8 4 11 5 9 6 5 7 4 8 2 9 1 10 3 11 10 12
REMARK H PARENT 10 13
REMARK Flexibility Score: inf
ROOT
ATOM      1  C   UNL     1      59.375 153.284   2.631  1.00  0.00    -0.025 A 
ATOM      2  C   UNL     1      60.659 152.825   2.292  1.00  0.00     0.012 A 
ATOM      3  C   UNL     1      58.681 154.099   1.712  1.00  0.00     0.012 A 
ATOM      4  C   UNL     1      61.248 153.189   1.077  1.00  0.00     0.047 A 
ATOM      5  C   UNL     1      59.274 154.460   0.498  1.00  0.00     0.047 A 
ATOM      6  C   UNL     1      60.558 154.010   0.178  1.00  0.00     0.115 A 
ENDROOT
BRANCH   1   7
ATOM      7  C   UNL     1      58.788 152.862   3.927  1.00  0.00     0.010 C 
ATOM      8  C   UNL     1      59.388 153.044   5.111  1.00  0.00     0.025 C 
BRANCH   8   9
ATOM      9  C   UNL     1      58.774 152.598   6.372  1.00  0.00     0.064 C 
ATOM     10  O   UNL     1      58.720 151.369   6.636  1.00  0.00    -0.545 OA
ATOM     11  O   UNL     1      58.252 153.515   7.278  1.00  0.00    -0.545 OA
ENDBRANCH   8   9
ENDBRANCH   1   7
BRANCH   6  12
ATOM     12  O   UNL     1      61.134 154.380  -1.034  1.00  0.00    -0.508 OA
ATOM     13  H   UNL     1      61.904 155.038  -1.075  1.00  0.00     0.293 HD
ENDBRANCH   6  12
TORSDOF 3
ENDMDL
MODEL 6
REMARK VINA RESULT:    -5.150      1.503      1.877
REMARK INTER + INTRA:          -6.049
REMARK INTER:                  -5.906
REMARK INTRA:                  -0.143
REMARK UNBOUND:                -0.146
REMARK SMILES O=C([O-])C=Cc1ccc(O)cc1
REMARK SMILES IDX 6 1 7 2 12 3 8 4 11 5 9 6 5 7 4 8 2 9 1 10 3 11 10 12
REMARK H PARENT 10 13
REMARK Flexibility Score: inf
ROOT
ATOM      1  C   UNL     1      60.921 152.311   2.915  1.00  0.00    -0.025 A 
ATOM      2  C   UNL     1      61.360 152.673   1.630  1.00  0.00     0.012 A 
ATOM      3  C   UNL     1      59.678 152.798   3.371  1.00  0.00     0.012 A 
ATOM      4  C   UNL     1      60.590 153.521   0.827  1.00  0.00     0.047 A 
ATOM      5  C   UNL     1      58.911 153.645   2.563  1.00  0.00     0.047 A 
ATOM      6  C   UNL     1      59.364 154.010   1.293  1.00  0.00     0.115 A 
ENDROOT
BRANCH   1   7
ATOM      7  C   UNL     1      61.768 151.401   3.725  1.00  0.00     0.010 C 
ATOM      8  C   UNL     1      61.534 151.115   5.013  1.00  0.00     0.025 C 
BRANCH   8   9
ATOM      9  C   UNL     1      62.409 150.215   5.782  1.00  0.00     0.064 C 
ATOM     10  O   UNL     1      63.212 149.461   5.174  1.00  0.00    -0.545 OA
ATOM     11  O   UNL     1      62.363 150.185   7.171  1.00  0.00    -0.545 OA
ENDBRANCH   8   9
ENDBRANCH   1   7
BRANCH   6  12
ATOM     12  O   UNL     1      58.589 154.856   0.503  1.00  0.00    -0.508 OA
ATOM     13  H   UNL     1      57.790 154.510  -0.015  1.00  0.00     0.293 HD
ENDBRANCH   6  12
TORSDOF 3
ENDMDL
MODEL 7
REMARK VINA RESULT:    -4.687      4.362      6.192
REMARK INTER + INTRA:          -5.518
REMARK INTER:                  -5.386
REMARK INTRA:                  -0.133
REMARK UNBOUND:                -0.146
REMARK SMILES O=C([O-])C=Cc1ccc(O)cc1
REMARK SMILES IDX 6 1 7 2 12 3 8 4 11 5 9 6 5 7 4 8 2 9 1 10 3 11 10 12
REMARK H PARENT 10 13
REMARK Flexibility Score: inf
ROOT
ATOM      1  C   UNL     1      62.890 149.973   6.313  1.00  0.00    -0.025 A 
ATOM      2  C   UNL     1      62.640 151.346   6.152  1.00  0.00     0.012 A 
ATOM      3  C   UNL     1      64.084 149.433   5.789  1.00  0.00     0.012 A 
ATOM      4  C   UNL     1      63.546 152.158   5.462  1.00  0.00     0.047 A 
ATOM      5  C   UNL     1      64.987 150.251   5.101  1.00  0.00     0.047 A 
ATOM      6  C   UNL     1      64.721 151.612   4.933  1.00  0.00     0.115 A 
ENDROOT
BRANCH   1   7
ATOM      7  C   UNL     1      61.904 149.154   7.061  1.00  0.00     0.010 C 
ATOM      8  C   UNL     1      61.021 148.333   6.476  1.00  0.00     0.025 C 
BRANCH   8   9
ATOM      9  C   UNL     1      60.053 147.548   7.258  1.00  0.00     0.064 C 
ATOM     10  O   UNL     1      60.138 146.292   7.272  1.00  0.00    -0.545 OA
ATOM     11  O   UNL     1      59.044 148.172   7.984  1.00  0.00    -0.545 OA
ENDBRANCH   8   9
ENDBRANCH   1   7
BRANCH   6  12
ATOM     12  O   UNL     1      65.630 152.411   4.244  1.00  0.00    -0.508 OA
ATOM     13  H   UNL     1      65.378 153.337   3.917  1.00  0.00     0.293 HD
ENDBRANCH   6  12
TORSDOF 3
ENDMDL
MODEL 8
REMARK VINA RESULT:    -4.569      2.301      3.122
REMARK INTER + INTRA:          -5.383
REMARK INTER:                  -5.245
REMARK INTRA:                  -0.138
REMARK UNBOUND:                -0.146
REMARK SMILES O=C([O-])C=Cc1ccc(O)cc1
REMARK SMILES IDX 6 1 7 2 12 3 8 4 11 5 9 6 5 7 4 8 2 9 1 10 3 11 10 12
REMARK H PARENT 10 13
REMARK Flexibility Score: inf
ROOT
ATOM      1  C   UNL     1      59.268 153.361   3.755  1.00  0.00    -0.025 A 
ATOM      2  C   UNL     1      58.616 154.553   4.111  1.00  0.00     0.012 A 
ATOM      3  C   UNL     1      59.467 153.077   2.387  1.00  0.00     0.012 A 
ATOM      4  C   UNL     1      58.149 155.431   3.128  1.00  0.00     0.047 A 
ATOM      5  C   UNL     1      58.999 153.960   1.407  1.00  0.00     0.047 A 
ATOM      6  C   UNL     1      58.338 155.135   1.773  1.00  0.00     0.115 A 
ENDROOT
BRANCH   1   7
ATOM      7  C   UNL     1      59.754 152.466   4.834  1.00  0.00     0.010 C 
ATOM      8  C   UNL     1      61.012 152.012   4.916  1.00  0.00     0.025 C 
BRANCH   8   9
ATOM      9  C   UNL     1      61.447 151.116   5.999  1.00  0.00     0.064 C 
ATOM     10  O   UNL     1      62.667 151.054   6.302  1.00  0.00    -0.545 OA
ATOM     11  O   UNL     1      60.530 150.336   6.696  1.00  0.00    -0.545 OA
ENDBRANCH   8   9
ENDBRANCH   1   7
BRANCH   6  12
ATOM     12  O   UNL     1      57.877 156.002   0.785  1.00  0.00    -0.508 OA
ATOM     13  H   UNL     1      58.253 155.978  -0.156  1.00  0.00     0.293 HD
ENDBRANCH   6  12
TORSDOF 3
ENDMDL
MODEL 9
REMARK VINA RESULT:    -4.507      3.393      6.157
REMARK INTER + INTRA:          -5.311
REMARK INTER:                  -5.174
REMARK INTRA:                  -0.137
REMARK UNBOUND:                -0.146
REMARK SMILES O=C([O-])C=Cc1ccc(O)cc1
REMARK SMILES IDX 6 1 7 2 12 3 8 4 11 5 9 6 5 7 4 8 2 9 1 10 3 11 10 12
REMARK H PARENT 10 13
REMARK Flexibility Score: inf
ROOT
ATOM      1  C   UNL     1      63.014 151.715   5.639  1.00  0.00    -0.025 A 
ATOM      2  C   UNL     1      63.016 150.445   6.241  1.00  0.00     0.012 A 
ATOM      3  C   UNL     1      63.823 151.930   4.504  1.00  0.00     0.012 A 
ATOM      4  C   UNL     1      63.824 149.420   5.739  1.00  0.00     0.047 A 
ATOM      5  C   UNL     1      64.629 150.901   4.005  1.00  0.00     0.047 A 
ATOM      6  C   UNL     1      64.634 149.647   4.620  1.00  0.00     0.115 A 
ENDROOT
BRANCH   1   7
ATOM      7  C   UNL     1      62.132 152.767   6.203  1.00  0.00     0.010 C 
ATOM      8  C   UNL     1      60.844 152.919   5.865  1.00  0.00     0.025 C 
BRANCH   8   9
ATOM      9  C   UNL     1      60.009 153.985   6.441  1.00  0.00     0.064 C 
ATOM     10  O   UNL     1      60.502 155.128   6.625  1.00  0.00    -0.545 OA
ATOM     11  O   UNL     1      58.682 153.750   6.784  1.00  0.00    -0.545 OA
ENDBRANCH   8   9
ENDBRANCH   1   7
BRANCH   6  12
ATOM     12  O   UNL     1      65.444 148.634   4.111  1.00  0.00    -0.508 OA
ATOM     13  H   UNL     1      66.273 148.843   3.567  1.00  0.00     0.293 HD
ENDBRANCH   6  12
TORSDOF 3
ENDMDL
