MODEL 1
REMARK VINA RESULT:    -7.426      0.000      0.000
REMARK INTER + INTRA:          -9.008
REMARK INTER:                  -8.728
REMARK INTRA:                  -0.280
REMARK UNBOUND:                -0.280
REMARK SMILES O=c1cc(-c2ccc(O)c(O)c2)oc2cc(O)cc(O)c12
REMARK SMILES IDX 4 1 3 2 2 3 1 4 21 5 19 6 18 7 16 8 15 9 14 10 13 11 5 12
REMARK SMILES IDX 6 13 7 14 8 15 12 16 10 17 9 18 11 20 20 22 17 24
REMARK H PARENT 9 19 11 21 20 23 17 25
REMARK Flexibility Score: inf
ROOT
ATOM      1  C   UNL     1       2.464  -8.342   6.667  1.00  0.00     0.138 A 
ATOM      2  C   UNL     1       1.735  -9.529   6.819  1.00  0.00     0.100 A 
ATOM      3  C   UNL     1       1.783 -10.501   5.819  1.00  0.00     0.197 A 
ATOM      4  O   UNL     1       1.169 -11.583   6.011  1.00  0.00    -0.289 OA
ATOM      5  C   UNL     1       2.540 -10.267   4.646  1.00  0.00     0.107 A 
ATOM      6  C   UNL     1       2.629 -11.167   3.543  1.00  0.00     0.134 A 
ATOM      7  C   UNL     1       3.502 -10.880   2.486  1.00  0.00     0.093 A 
ATOM      8  C   UNL     1       4.242  -9.699   2.463  1.00  0.00     0.123 A 
ATOM      9  C   UNL     1       4.121  -8.785   3.511  1.00  0.00     0.094 A 
ATOM     10  C   UNL     1       3.285  -9.059   4.596  1.00  0.00     0.146 A 
ATOM     11  O   UNL     1       3.209  -8.170   5.581  1.00  0.00    -0.456 OA
ENDROOT
BRANCH   1  12
ATOM     12  C   UNL     1       2.447  -7.274   7.699  1.00  0.00     0.021 A 
ATOM     13  C   UNL     1       3.609  -6.555   8.039  1.00  0.00     0.016 A 
ATOM     14  C   UNL     1       3.565  -5.561   9.020  1.00  0.00     0.051 A 
ATOM     15  C   UNL     1       2.370  -5.273   9.684  1.00  0.00     0.157 A 
ATOM     16  C   UNL     1       1.249  -6.988   8.380  1.00  0.00     0.062 A 
ATOM     17  C   UNL     1       1.206  -5.990   9.365  1.00  0.00     0.158 A 
BRANCH  15  18
ATOM     18  O   UNL     1       2.359  -4.275  10.658  1.00  0.00    -0.504 OA
ATOM     19  H   UNL     1       2.601  -3.314  10.446  1.00  0.00     0.293 HD
ENDBRANCH  15  18
BRANCH  17  20
ATOM     20  O   UNL     1       0.011  -5.710  10.026  1.00  0.00    -0.504 OA
ATOM     21  H   UNL     1      -0.564  -4.916   9.769  1.00  0.00     0.293 HD
ENDBRANCH  17  20
ENDBRANCH   1  12
BRANCH   6  22
ATOM     22  O   UNL     1       1.870 -12.336   3.425  1.00  0.00    -0.507 OA
ATOM     23  H   UNL     1       1.006 -12.413   2.910  1.00  0.00     0.293 HD
ENDBRANCH   6  22
BRANCH   8  24
ATOM     24  O   UNL     1       5.089  -9.439   1.388  1.00  0.00    -0.508 OA
ATOM     25  H   UNL     1       5.142  -8.519   0.965  1.00  0.00     0.293 HD
ENDBRANCH   8  24
TORSDOF 5
ENDMDL
MODEL 2
REMARK VINA RESULT:    -6.737      1.425      7.443
REMARK INTER + INTRA:          -8.198
REMARK INTER:                  -7.919
REMARK INTRA:                  -0.280
REMARK UNBOUND:                -0.280
REMARK SMILES O=c1cc(-c2ccc(O)c(O)c2)oc2cc(O)cc(O)c12
REMARK SMILES IDX 4 1 3 2 2 3 1 4 21 5 19 6 18 7 16 8 15 9 14 10 13 11 5 12
REMARK SMILES IDX 6 13 7 14 8 15 12 16 10 17 9 18 11 20 20 22 17 24
REMARK H PARENT 9 19 11 21 20 23 17 25
REMARK Flexibility Score: inf
ROOT
ATOM      1  C   UNL     1       2.492  -8.083   6.736  1.00  0.00     0.138 A 
ATOM      2  C   UNL     1       3.686  -7.541   7.229  1.00  0.00     0.100 A 
ATOM      3  C   UNL     1       3.649  -6.646   8.299  1.00  0.00     0.197 A 
ATOM      4  O   UNL     1       4.741  -6.224   8.760  1.00  0.00    -0.289 OA
ATOM      5  C   UNL     1       2.404  -6.268   8.856  1.00  0.00     0.107 A 
ATOM      6  C   UNL     1       2.242  -5.333   9.922  1.00  0.00     0.134 A 
ATOM      7  C   UNL     1       0.970  -5.125  10.469  1.00  0.00     0.093 A 
ATOM      8  C   UNL     1      -0.153  -5.771   9.952  1.00  0.00     0.123 A 
ATOM      9  C   UNL     1      -0.012  -6.647   8.874  1.00  0.00     0.094 A 
ATOM     10  C   UNL     1       1.248  -6.901   8.329  1.00  0.00     0.146 A 
ATOM     11  O   UNL     1       1.341  -7.753   7.313  1.00  0.00    -0.456 OA
ENDROOT
BRANCH   1  12
ATOM     12  C   UNL     1       2.474  -9.038   5.599  1.00  0.00     0.021 A 
ATOM     13  C   UNL     1       1.622 -10.160   5.588  1.00  0.00     0.016 A 
ATOM     14  C   UNL     1       1.633 -11.047   4.508  1.00  0.00     0.051 A 
ATOM     15  C   UNL     1       2.495 -10.837   3.428  1.00  0.00     0.157 A 
ATOM     16  C   UNL     1       3.348  -8.840   4.514  1.00  0.00     0.062 A 
ATOM     17  C   UNL     1       3.358  -9.730   3.430  1.00  0.00     0.158 A 
BRANCH  15  18
ATOM     18  O   UNL     1       2.481 -11.740   2.366  1.00  0.00    -0.504 OA
ATOM     19  H   UNL     1       2.703 -12.721   2.491  1.00  0.00     0.293 HD
ENDBRANCH  15  18
BRANCH  17  20
ATOM     20  O   UNL     1       4.223  -9.518   2.358  1.00  0.00    -0.504 OA
ATOM     21  H   UNL     1       5.229  -9.554   2.474  1.00  0.00     0.293 HD
ENDBRANCH  17  20
ENDBRANCH   1  12
BRANCH   6  22
ATOM     22  O   UNL     1       3.284  -4.569  10.458  1.00  0.00    -0.507 OA
ATOM     23  H   UNL     1       3.375  -3.570  10.359  1.00  0.00     0.293 HD
ENDBRANCH   6  22
BRANCH   8  24
ATOM     24  O   UNL     1      -1.405  -5.528  10.512  1.00  0.00    -0.508 OA
ATOM     25  H   UNL     1      -1.889  -6.234  11.055  1.00  0.00     0.293 HD
ENDBRANCH   8  24
TORSDOF 5
ENDMDL
MODEL 3
REMARK VINA RESULT:    -6.333      1.252      2.503
REMARK INTER + INTRA:          -7.724
REMARK INTER:                  -7.408
REMARK INTRA:                  -0.316
REMARK UNBOUND:                -0.280
REMARK SMILES O=c1cc(-c2ccc(O)c(O)c2)oc2cc(O)cc(O)c12
REMARK SMILES IDX 4 1 3 2 2 3 1 4 21 5 19 6 18 7 16 8 15 9 14 10 13 11 5 12
REMARK SMILES IDX 6 13 7 14 8 15 12 16 10 17 9 18 11 20 20 22 17 24
REMARK H PARENT 9 19 11 21 20 23 17 25
REMARK Flexibility Score: inf
ROOT
ATOM      1  C   UNL     1       3.046  -8.085   6.271  1.00  0.00     0.138 A 
ATOM      2  C   UNL     1       4.301  -8.122   5.650  1.00  0.00     0.100 A 
ATOM      3  C   UNL     1       4.487  -8.911   4.513  1.00  0.00     0.197 A 
ATOM      4  O   UNL     1       5.606  -8.875   3.940  1.00  0.00    -0.289 OA
ATOM      5  C   UNL     1       3.415  -9.693   4.018  1.00  0.00     0.107 A 
ATOM      6  C   UNL     1       3.499 -10.565   2.892  1.00  0.00     0.134 A 
ATOM      7  C   UNL     1       2.343 -11.200   2.423  1.00  0.00     0.093 A 
ATOM      8  C   UNL     1       1.119 -11.041   3.073  1.00  0.00     0.123 A 
ATOM      9  C   UNL     1       1.037 -10.232   4.208  1.00  0.00     0.094 A 
ATOM     10  C   UNL     1       2.166  -9.559   4.680  1.00  0.00     0.146 A 
ATOM     11  O   UNL     1       2.043  -8.787   5.754  1.00  0.00    -0.456 OA
ENDROOT
BRANCH   1  12
ATOM     12  C   UNL     1       2.795  -7.265   7.483  1.00  0.00     0.021 A 
ATOM     13  C   UNL     1       3.849  -6.692   8.220  1.00  0.00     0.016 A 
ATOM     14  C   UNL     1       3.583  -5.931   9.362  1.00  0.00     0.051 A 
ATOM     15  C   UNL     1       2.268  -5.736   9.793  1.00  0.00     0.157 A 
ATOM     16  C   UNL     1       1.474  -7.076   7.930  1.00  0.00     0.062 A 
ATOM     17  C   UNL     1       1.207  -6.312   9.075  1.00  0.00     0.158 A 
BRANCH  15  18
ATOM     18  O   UNL     1       2.036  -4.972  10.936  1.00  0.00    -0.504 OA
ATOM     19  H   UNL     1       1.548  -4.085  10.899  1.00  0.00     0.293 HD
ENDBRANCH  15  18
BRANCH  17  20
ATOM     20  O   UNL     1      -0.107  -6.125   9.503  1.00  0.00    -0.504 OA
ATOM     21  H   UNL     1      -0.891  -6.501   8.983  1.00  0.00     0.293 HD
ENDBRANCH  17  20
ENDBRANCH   1  12
BRANCH   6  22
ATOM     22  O   UNL     1       4.689 -10.861   2.219  1.00  0.00    -0.507 OA
ATOM     23  H   UNL     1       4.790 -10.900   1.217  1.00  0.00     0.293 HD
ENDBRANCH   6  22
BRANCH   8  24
ATOM     24  O   UNL     1      -0.008 -11.700   2.587  1.00  0.00    -0.508 OA
ATOM     25  H   UNL     1       0.053 -12.358   1.817  1.00  0.00     0.293 HD
ENDBRANCH   8  24
TORSDOF 5
ENDMDL
MODEL 4
REMARK VINA RESULT:    -6.026     10.332     11.937
REMARK INTER + INTRA:          -7.363
REMARK INTER:                  -7.059
REMARK INTRA:                  -0.303
REMARK UNBOUND:                -0.280
REMARK SMILES O=c1cc(-c2ccc(O)c(O)c2)oc2cc(O)cc(O)c12
REMARK SMILES IDX 4 1 3 2 2 3 1 4 21 5 19 6 18 7 16 8 15 9 14 10 13 11 5 12
REMARK SMILES IDX 6 13 7 14 8 15 12 16 10 17 9 18 11 20 20 22 17 24
REMARK H PARENT 9 19 11 21 20 23 17 25
REMARK Flexibility Score: inf
ROOT
ATOM      1  C   UNL     1      -3.373  -0.084  10.508  1.00  0.00     0.138 A 
ATOM      2  C   UNL     1      -4.631   0.386  10.106  1.00  0.00     0.100 A 
ATOM      3  C   UNL     1      -5.758  -0.416  10.289  1.00  0.00     0.197 A 
ATOM      4  O   UNL     1      -6.882   0.056   9.976  1.00  0.00    -0.289 OA
ATOM      5  C   UNL     1      -5.618  -1.709  10.848  1.00  0.00     0.107 A 
ATOM      6  C   UNL     1      -6.690  -2.630  11.044  1.00  0.00     0.134 A 
ATOM      7  C   UNL     1      -6.450  -3.836  11.714  1.00  0.00     0.093 A 
ATOM      8  C   UNL     1      -5.168  -4.181  12.141  1.00  0.00     0.123 A 
ATOM      9  C   UNL     1      -4.102  -3.311  11.906  1.00  0.00     0.094 A 
ATOM     10  C   UNL     1      -4.316  -2.086  11.271  1.00  0.00     0.146 A 
ATOM     11  O   UNL     1      -3.277  -1.279  11.080  1.00  0.00    -0.456 OA
ENDROOT
BRANCH   1  12
ATOM     12  C   UNL     1      -2.141   0.727  10.334  1.00  0.00     0.021 A 
ATOM     13  C   UNL     1      -2.165   2.133  10.408  1.00  0.00     0.016 A 
ATOM     14  C   UNL     1      -0.992   2.871  10.232  1.00  0.00     0.051 A 
ATOM     15  C   UNL     1       0.220   2.225   9.973  1.00  0.00     0.157 A 
ATOM     16  C   UNL     1      -0.921   0.083  10.060  1.00  0.00     0.062 A 
ATOM     17  C   UNL     1       0.257   0.824   9.884  1.00  0.00     0.158 A 
BRANCH  15  18
ATOM     18  O   UNL     1       1.373   2.990   9.802  1.00  0.00    -0.504 OA
ATOM     19  H   UNL     1       2.289   2.568   9.708  1.00  0.00     0.293 HD
ENDBRANCH  15  18
BRANCH  17  20
ATOM     20  O   UNL     1       1.461   0.173   9.621  1.00  0.00    -0.504 OA
ATOM     21  H   UNL     1       1.555  -0.830   9.727  1.00  0.00     0.293 HD
ENDBRANCH  17  20
ENDBRANCH   1  12
BRANCH   6  22
ATOM     22  O   UNL     1      -7.994  -2.423  10.582  1.00  0.00    -0.507 OA
ATOM     23  H   UNL     1      -8.483  -1.541  10.613  1.00  0.00     0.293 HD
ENDBRANCH   6  22
BRANCH   8  24
ATOM     24  O   UNL     1      -4.964  -5.396  12.791  1.00  0.00    -0.508 OA
ATOM     25  H   UNL     1      -4.424  -5.456  13.647  1.00  0.00     0.293 HD
ENDBRANCH   8  24
TORSDOF 5
ENDMDL
MODEL 5
REMARK VINA RESULT:    -5.958      9.981     12.596
REMARK INTER + INTRA:          -7.283
REMARK INTER:                  -7.006
REMARK INTRA:                  -0.277
REMARK UNBOUND:                -0.280
REMARK SMILES O=c1cc(-c2ccc(O)c(O)c2)oc2cc(O)cc(O)c12
REMARK SMILES IDX 4 1 3 2 2 3 1 4 21 5 19 6 18 7 16 8 15 9 14 10 13 11 5 12
REMARK SMILES IDX 6 13 7 14 8 15 12 16 10 17 9 18 11 20 20 22 17 24
REMARK H PARENT 9 19 11 21 20 23 17 25
REMARK Flexibility Score: inf
ROOT
ATOM      1  C   UNL     1      -3.271  -0.366  11.192  1.00  0.00     0.138 A 
ATOM      2  C   UNL     1      -4.081   0.706  11.592  1.00  0.00     0.100 A 
ATOM      3  C   UNL     1      -3.581   2.008  11.536  1.00  0.00     0.197 A 
ATOM      4  O   UNL     1      -4.351   2.954  11.842  1.00  0.00    -0.289 OA
ATOM      5  C   UNL     1      -2.251   2.232  11.106  1.00  0.00     0.107 A 
ATOM      6  C   UNL     1      -1.621   3.511  11.046  1.00  0.00     0.134 A 
ATOM      7  C   UNL     1      -0.339   3.624  10.495  1.00  0.00     0.093 A 
ATOM      8  C   UNL     1       0.359   2.500  10.055  1.00  0.00     0.123 A 
ATOM      9  C   UNL     1      -0.227   1.237  10.159  1.00  0.00     0.094 A 
ATOM     10  C   UNL     1      -1.517   1.095  10.674  1.00  0.00     0.146 A 
ATOM     11  O   UNL     1      -2.045  -0.122  10.742  1.00  0.00    -0.456 OA
ENDROOT
BRANCH   1  12
ATOM     12  C   UNL     1      -3.752  -1.770  11.234  1.00  0.00     0.021 A 
ATOM     13  C   UNL     1      -2.926  -2.822  11.677  1.00  0.00     0.016 A 
ATOM     14  C   UNL     1      -3.403  -4.135  11.697  1.00  0.00     0.051 A 
ATOM     15  C   UNL     1      -4.702  -4.424  11.270  1.00  0.00     0.157 A 
ATOM     16  C   UNL     1      -5.054  -2.070  10.794  1.00  0.00     0.062 A 
ATOM     17  C   UNL     1      -5.532  -3.388  10.815  1.00  0.00     0.158 A 
BRANCH  15  18
ATOM     18  O   UNL     1      -5.148  -5.746  11.303  1.00  0.00    -0.504 OA
ATOM     19  H   UNL     1      -4.832  -6.401  12.008  1.00  0.00     0.293 HD
ENDBRANCH  15  18
BRANCH  17  20
ATOM     20  O   UNL     1      -6.828  -3.670  10.384  1.00  0.00    -0.504 OA
ATOM     21  H   UNL     1      -7.110  -4.611  10.133  1.00  0.00     0.293 HD
ENDBRANCH  17  20
ENDBRANCH   1  12
BRANCH   6  22
ATOM     22  O   UNL     1      -2.195   4.689  11.535  1.00  0.00    -0.507 OA
ATOM     23  H   UNL     1      -2.124   5.592  11.092  1.00  0.00     0.293 HD
ENDBRANCH   6  22
BRANCH   8  24
ATOM     24  O   UNL     1       1.639   2.648   9.526  1.00  0.00    -0.508 OA
ATOM     25  H   UNL     1       2.392   3.057  10.067  1.00  0.00     0.293 HD
ENDBRANCH   8  24
TORSDOF 5
ENDMDL
MODEL 6
REMARK VINA RESULT:    -5.938      9.913     11.941
REMARK INTER + INTRA:          -7.260
REMARK INTER:                  -6.974
REMARK INTRA:                  -0.286
REMARK UNBOUND:                -0.280
REMARK SMILES O=c1cc(-c2ccc(O)c(O)c2)oc2cc(O)cc(O)c12
REMARK SMILES IDX 4 1 3 2 2 3 1 4 21 5 19 6 18 7 16 8 15 9 14 10 13 11 5 12
REMARK SMILES IDX 6 13 7 14 8 15 12 16 10 17 9 18 11 20 20 22 17 24
REMARK H PARENT 9 19 11 21 20 23 17 25
REMARK Flexibility Score: inf
ROOT
ATOM      1  C   UNL     1      -1.989   0.293  10.458  1.00  0.00     0.138 A 
ATOM      2  C   UNL     1      -3.118   1.113  10.590  1.00  0.00     0.100 A 
ATOM      3  C   UNL     1      -4.312   0.573  11.071  1.00  0.00     0.197 A 
ATOM      4  O   UNL     1      -5.290   1.346  11.237  1.00  0.00    -0.289 OA
ATOM      5  C   UNL     1      -4.382  -0.805  11.389  1.00  0.00     0.107 A 
ATOM      6  C   UNL     1      -5.556  -1.474  11.848  1.00  0.00     0.134 A 
ATOM      7  C   UNL     1      -5.476  -2.815  12.243  1.00  0.00     0.093 A 
ATOM      8  C   UNL     1      -4.281  -3.527  12.141  1.00  0.00     0.123 A 
ATOM      9  C   UNL     1      -3.140  -2.897  11.642  1.00  0.00     0.094 A 
ATOM     10  C   UNL     1      -3.179  -1.551  11.272  1.00  0.00     0.146 A 
ATOM     11  O   UNL     1      -2.067  -0.984  10.816  1.00  0.00    -0.456 OA
ENDROOT
BRANCH   1  12
ATOM     12  C   UNL     1      -0.695   0.816   9.951  1.00  0.00     0.021 A 
ATOM     13  C   UNL     1       0.231  -0.015   9.292  1.00  0.00     0.016 A 
ATOM     14  C   UNL     1       1.445   0.502   8.833  1.00  0.00     0.051 A 
ATOM     15  C   UNL     1       1.760   1.850   9.029  1.00  0.00     0.157 A 
ATOM     16  C   UNL     1      -0.366   2.169  10.156  1.00  0.00     0.062 A 
ATOM     17  C   UNL     1       0.852   2.688   9.694  1.00  0.00     0.158 A 
BRANCH  15  18
ATOM     18  O   UNL     1       2.980   2.336   8.558  1.00  0.00    -0.504 OA
ATOM     19  H   UNL     1       3.033   3.071   7.863  1.00  0.00     0.293 HD
ENDBRANCH  15  18
BRANCH  17  20
ATOM     20  O   UNL     1       1.162   4.032   9.896  1.00  0.00    -0.504 OA
ATOM     21  H   UNL     1       0.534   4.652  10.395  1.00  0.00     0.293 HD
ENDBRANCH  17  20
ENDBRANCH   1  12
BRANCH   6  22
ATOM     22  O   UNL     1      -6.820  -0.880  11.910  1.00  0.00    -0.507 OA
ATOM     23  H   UNL     1      -7.487  -1.021  12.653  1.00  0.00     0.293 HD
ENDBRANCH   6  22
BRANCH   8  24
ATOM     24  O   UNL     1      -4.243  -4.864  12.529  1.00  0.00    -0.508 OA
ATOM     25  H   UNL     1      -5.092  -5.388  12.713  1.00  0.00     0.293 HD
ENDBRANCH   8  24
TORSDOF 5
ENDMDL
MODEL 7
REMARK VINA RESULT:    -5.910     10.444     12.625
REMARK INTER + INTRA:          -7.226
REMARK INTER:                  -6.937
REMARK INTRA:                  -0.290
REMARK UNBOUND:                -0.280
REMARK SMILES O=c1cc(-c2ccc(O)c(O)c2)oc2cc(O)cc(O)c12
REMARK SMILES IDX 4 1 3 2 2 3 1 4 21 5 19 6 18 7 16 8 15 9 14 10 13 11 5 12
REMARK SMILES IDX 6 13 7 14 8 15 12 16 10 17 9 18 11 20 20 22 17 24
REMARK H PARENT 9 19 11 21 20 23 17 25
REMARK Flexibility Score: inf
ROOT
ATOM      1  C   UNL     1      -1.286   1.311  10.650  1.00  0.00     0.138 A 
ATOM      2  C   UNL     1      -0.353   0.395  10.147  1.00  0.00     0.100 A 
ATOM      3  C   UNL     1       0.852   0.857   9.616  1.00  0.00     0.197 A 
ATOM      4  O   UNL     1       1.696   0.008   9.230  1.00  0.00    -0.289 OA
ATOM      5  C   UNL     1       1.107   2.248   9.559  1.00  0.00     0.107 A 
ATOM      6  C   UNL     1       2.282   2.836   9.002  1.00  0.00     0.134 A 
ATOM      7  C   UNL     1       2.477   4.219   9.106  1.00  0.00     0.093 A 
ATOM      8  C   UNL     1       1.516   5.041   9.692  1.00  0.00     0.123 A 
ATOM      9  C   UNL     1       0.338   4.482  10.192  1.00  0.00     0.094 A 
ATOM     10  C   UNL     1       0.129   3.103  10.133  1.00  0.00     0.146 A 
ATOM     11  O   UNL     1      -0.998   2.609  10.633  1.00  0.00    -0.456 OA
ENDROOT
BRANCH   1  12
ATOM     12  C   UNL     1      -2.584   0.874  11.224  1.00  0.00     0.021 A 
ATOM     13  C   UNL     1      -3.307   1.685  12.120  1.00  0.00     0.016 A 
ATOM     14  C   UNL     1      -4.522   1.244  12.651  1.00  0.00     0.051 A 
ATOM     15  C   UNL     1      -5.031  -0.011  12.308  1.00  0.00     0.157 A 
ATOM     16  C   UNL     1      -3.096  -0.394  10.893  1.00  0.00     0.062 A 
ATOM     17  C   UNL     1      -4.315  -0.836  11.427  1.00  0.00     0.158 A 
BRANCH  15  18
ATOM     18  O   UNL     1      -6.246  -0.422  12.856  1.00  0.00    -0.504 OA
ATOM     19  H   UNL     1      -7.095   0.119  12.746  1.00  0.00     0.293 HD
ENDBRANCH  15  18
BRANCH  17  20
ATOM     20  O   UNL     1      -4.815  -2.092  11.084  1.00  0.00    -0.504 OA
ATOM     21  H   UNL     1      -4.368  -2.944  11.400  1.00  0.00     0.293 HD
ENDBRANCH  17  20
ENDBRANCH   1  12
BRANCH   6  22
ATOM     22  O   UNL     1       3.268   2.117   8.319  1.00  0.00    -0.507 OA
ATOM     23  H   UNL     1       4.239   2.070   8.590  1.00  0.00     0.293 HD
ENDBRANCH   6  22
BRANCH   8  24
ATOM     24  O   UNL     1       1.737   6.414   9.765  1.00  0.00    -0.508 OA
ATOM     25  H   UNL     1       2.648   6.793  10.000  1.00  0.00     0.293 HD
ENDBRANCH   8  24
TORSDOF 5
ENDMDL
MODEL 8
REMARK VINA RESULT:    -5.798     10.303     11.781
REMARK INTER + INTRA:          -7.095
REMARK INTER:                  -6.824
REMARK INTRA:                  -0.272
REMARK UNBOUND:                -0.280
REMARK SMILES O=c1cc(-c2ccc(O)c(O)c2)oc2cc(O)cc(O)c12
REMARK SMILES IDX 4 1 3 2 2 3 1 4 21 5 19 6 18 7 16 8 15 9 14 10 13 11 5 12
REMARK SMILES IDX 6 13 7 14 8 15 12 16 10 17 9 18 11 20 20 22 17 24
REMARK H PARENT 9 19 11 21 20 23 17 25
REMARK Flexibility Score: inf
ROOT
ATOM      1  C   UNL     1      -3.575  -1.219  11.130  1.00  0.00     0.138 A 
ATOM      2  C   UNL     1      -2.862  -2.261  11.739  1.00  0.00     0.100 A 
ATOM      3  C   UNL     1      -3.521  -3.444  12.075  1.00  0.00     0.197 A 
ATOM      4  O   UNL     1      -2.843  -4.385  12.563  1.00  0.00    -0.289 OA
ATOM      5  C   UNL     1      -4.909  -3.571  11.828  1.00  0.00     0.107 A 
ATOM      6  C   UNL     1      -5.693  -4.714  12.165  1.00  0.00     0.134 A 
ATOM      7  C   UNL     1      -7.034  -4.773  11.767  1.00  0.00     0.093 A 
ATOM      8  C   UNL     1      -7.635  -3.708  11.098  1.00  0.00     0.123 A 
ATOM      9  C   UNL     1      -6.891  -2.562  10.811  1.00  0.00     0.094 A 
ATOM     10  C   UNL     1      -5.543  -2.487  11.164  1.00  0.00     0.146 A 
ATOM     11  O   UNL     1      -4.865  -1.385  10.860  1.00  0.00    -0.456 OA
ENDROOT
BRANCH   1  12
ATOM     12  C   UNL     1      -2.924   0.061  10.753  1.00  0.00     0.021 A 
ATOM     13  C   UNL     1      -3.487   1.306  11.096  1.00  0.00     0.016 A 
ATOM     14  C   UNL     1      -2.856   2.495  10.721  1.00  0.00     0.051 A 
ATOM     15  C   UNL     1      -1.664   2.466   9.993  1.00  0.00     0.157 A 
ATOM     16  C   UNL     1      -1.730   0.039  10.009  1.00  0.00     0.062 A 
ATOM     17  C   UNL     1      -1.097   1.233   9.633  1.00  0.00     0.158 A 
BRANCH  15  18
ATOM     18  O   UNL     1      -1.059   3.671   9.634  1.00  0.00    -0.504 OA
ATOM     19  H   UNL     1      -0.376   4.126  10.227  1.00  0.00     0.293 HD
ENDBRANCH  15  18
BRANCH  17  20
ATOM     20  O   UNL     1       0.090   1.197   8.903  1.00  0.00    -0.504 OA
ATOM     21  H   UNL     1       0.839   0.557   9.141  1.00  0.00     0.293 HD
ENDBRANCH  17  20
ENDBRANCH   1  12
BRANCH   6  22
ATOM     22  O   UNL     1      -5.215  -5.799  12.907  1.00  0.00    -0.507 OA
ATOM     23  H   UNL     1      -5.076  -5.798  13.906  1.00  0.00     0.293 HD
ENDBRANCH   6  22
BRANCH   8  24
ATOM     24  O   UNL     1      -8.976  -3.795  10.730  1.00  0.00    -0.508 OA
ATOM     25  H   UNL     1      -9.362  -4.643  10.331  1.00  0.00     0.293 HD
ENDBRANCH   8  24
TORSDOF 5
ENDMDL
MODEL 9
REMARK VINA RESULT:    -5.716     10.291     12.797
REMARK INTER + INTRA:          -6.998
REMARK INTER:                  -6.714
REMARK INTRA:                  -0.285
REMARK UNBOUND:                -0.280
REMARK SMILES O=c1cc(-c2ccc(O)c(O)c2)oc2cc(O)cc(O)c12
REMARK SMILES IDX 4 1 3 2 2 3 1 4 21 5 19 6 18 7 16 8 15 9 14 10 13 11 5 12
REMARK SMILES IDX 6 13 7 14 8 15 12 16 10 17 9 18 11 20 20 22 17 24
REMARK H PARENT 9 19 11 21 20 23 17 25
REMARK Flexibility Score: inf
ROOT
ATOM      1  C   UNL     1      -2.545  -0.012  10.737  1.00  0.00     0.138 A 
ATOM      2  C   UNL     1      -1.183  -0.260  10.522  1.00  0.00     0.100 A 
ATOM      3  C   UNL     1      -0.304   0.810  10.350  1.00  0.00     0.197 A 
ATOM      4  O   UNL     1       0.922   0.558  10.221  1.00  0.00    -0.289 OA
ATOM      5  C   UNL     1      -0.800   2.136  10.361  1.00  0.00     0.107 A 
ATOM      6  C   UNL     1      -0.005   3.303  10.156  1.00  0.00     0.134 A 
ATOM      7  C   UNL     1      -0.585   4.568  10.306  1.00  0.00     0.093 A 
ATOM      8  C   UNL     1      -1.942   4.710  10.594  1.00  0.00     0.123 A 
ATOM      9  C   UNL     1      -2.740   3.575  10.743  1.00  0.00     0.094 A 
ATOM     10  C   UNL     1      -2.184   2.299  10.634  1.00  0.00     0.146 A 
ATOM     11  O   UNL     1      -2.975   1.244  10.798  1.00  0.00    -0.456 OA
ENDROOT
BRANCH   1  12
ATOM     12  C   UNL     1      -3.523  -1.113  10.924  1.00  0.00     0.021 A 
ATOM     13  C   UNL     1      -4.871  -0.978  10.540  1.00  0.00     0.016 A 
ATOM     14  C   UNL     1      -5.772  -2.028  10.737  1.00  0.00     0.051 A 
ATOM     15  C   UNL     1      -5.349  -3.223  11.324  1.00  0.00     0.157 A 
ATOM     16  C   UNL     1      -3.107  -2.314  11.527  1.00  0.00     0.062 A 
ATOM     17  C   UNL     1      -4.011  -3.368  11.723  1.00  0.00     0.158 A 
BRANCH  15  18
ATOM     18  O   UNL     1      -6.273  -4.253  11.506  1.00  0.00    -0.504 OA
ATOM     19  H   UNL     1      -6.118  -5.184  11.139  1.00  0.00     0.293 HD
ENDBRANCH  15  18
BRANCH  17  20
ATOM     20  O   UNL     1      -3.584  -4.556  12.314  1.00  0.00    -0.504 OA
ATOM     21  H   UNL     1      -3.809  -4.781  13.276  1.00  0.00     0.293 HD
ENDBRANCH  17  20
ENDBRANCH   1  12
BRANCH   6  22
ATOM     22  O   UNL     1       1.342   3.275   9.781  1.00  0.00    -0.507 OA
ATOM     23  H   UNL     1       1.978   2.515   9.972  1.00  0.00     0.293 HD
ENDBRANCH   6  22
BRANCH   8  24
ATOM     24  O   UNL     1      -2.488   5.985  10.720  1.00  0.00    -0.508 OA
ATOM     25  H   UNL     1      -2.153   6.639  11.420  1.00  0.00     0.293 HD
ENDBRANCH   8  24
TORSDOF 5
ENDMDL
