MODEL 1
REMARK VINA RESULT:     0.119      0.000      0.000
REMARK INTER + INTRA:          -0.472
REMARK INTER:                   0.188
REMARK INTRA:                  -0.660
REMARK UNBOUND:                -0.660
REMARK SMILES CCCCCCCCCCCC(=O)[O-]
REMARK SMILES IDX 7 1 8 2 9 3 10 4 11 5 12 6 13 7 14 8 6 9 5 10 4 11 3 12 2 13
REMARK SMILES IDX 1 14
REMARK H PARENT
REMARK Flexibility Score: inf
ROOT
ATOM      1  C   UNL     1      53.813 147.929   1.072  1.00  0.00     0.000 C 
ENDROOT
BRANCH   1   2
ATOM      2  C   UNL     1      54.425 148.081  -0.331  1.00  0.00     0.000 C 
BRANCH   2   3
ATOM      3  C   UNL     1      54.626 146.733  -1.048  1.00  0.00     0.000 C 
BRANCH   3   4
ATOM      4  C   UNL     1      54.984 146.833  -2.543  1.00  0.00     0.006 C 
BRANCH   4   5
ATOM      5  C   UNL     1      54.469 148.121  -3.198  1.00  0.00     0.053 C 
BRANCH   5   6
ATOM      6  C   UNL     1      53.347 147.815  -4.139  1.00  0.00     0.041 C 
ATOM      7  O   UNL     1      52.165 147.731  -3.711  1.00  0.00    -0.550 OA
ATOM      8  O   UNL     1      53.612 147.574  -5.481  1.00  0.00    -0.550 OA
ENDBRANCH   5   6
ENDBRANCH   4   5
ENDBRANCH   3   4
ENDBRANCH   2   3
ENDBRANCH   1   2
BRANCH   1   9
ATOM      9  C   UNL     1      52.760 146.809   1.150  1.00  0.00     0.000 C 
BRANCH   9  10
ATOM     10  C   UNL     1      51.296 147.285   1.190  1.00  0.00    -0.000 C 
BRANCH  10  11
ATOM     11  C   UNL     1      50.902 148.124  -0.034  1.00  0.00    -0.000 C 
BRANCH  11  12
ATOM     12  C   UNL     1      49.379 148.124  -0.232  1.00  0.00    -0.000 C 
BRANCH  12  13
ATOM     13  C   UNL     1      48.613 147.846   1.071  1.00  0.00    -0.003 C 
ATOM     14  C   UNL     1      47.101 147.999   0.914  1.00  0.00     0.004 C 
ENDBRANCH  12  13
ENDBRANCH  11  12
ENDBRANCH  10  11
ENDBRANCH   9  10
ENDBRANCH   1   9
TORSDOF 10
ENDMDL
MODEL 2
REMARK VINA RESULT:     0.297      1.431      2.532
REMARK INTER + INTRA:          -0.190
REMARK INTER:                  -0.693
REMARK INTRA:                   0.503
REMARK UNBOUND:                -0.660
REMARK SMILES CCCCCCCCCCCC(=O)[O-]
REMARK SMILES IDX 7 1 8 2 9 3 10 4 11 5 12 6 13 7 14 8 6 9 5 10 4 11 3 12 2 13
REMARK SMILES IDX 1 14
REMARK H PARENT
REMARK Flexibility Score: inf
ROOT
ATOM      1  C   UNL     1      54.528 147.334  -1.078  1.00  0.00     0.000 C 
ENDROOT
BRANCH   1   2
ATOM      2  C   UNL     1      55.592 147.130  -2.169  1.00  0.00     0.000 C 
BRANCH   2   3
ATOM      3  C   UNL     1      55.344 147.992  -3.420  1.00  0.00     0.000 C 
BRANCH   3   4
ATOM      4  C   UNL     1      53.995 147.755  -4.123  1.00  0.00     0.006 C 
BRANCH   4   5
ATOM      5  C   UNL     1      54.083 147.883  -5.649  1.00  0.00     0.053 C 
BRANCH   5   6
ATOM      6  C   UNL     1      52.714 147.905  -6.252  1.00  0.00     0.041 C 
ATOM      7  O   UNL     1      52.568 147.794  -7.498  1.00  0.00    -0.550 OA
ATOM      8  O   UNL     1      51.602 148.096  -5.443  1.00  0.00    -0.550 OA
ENDBRANCH   5   6
ENDBRANCH   4   5
ENDBRANCH   3   4
ENDBRANCH   2   3
ENDBRANCH   1   2
BRANCH   1   9
ATOM      9  C   UNL     1      53.304 148.125  -1.573  1.00  0.00     0.000 C 
BRANCH   9  10
ATOM     10  C   UNL     1      52.068 148.067  -0.654  1.00  0.00    -0.000 C 
BRANCH  10  11
ATOM     11  C   UNL     1      52.425 148.125   0.838  1.00  0.00    -0.000 C 
BRANCH  11  12
ATOM     12  C   UNL     1      51.570 147.136   1.644  1.00  0.00    -0.000 C 
BRANCH  12  13
ATOM     13  C   UNL     1      50.471 147.834   2.462  1.00  0.00    -0.003 C 
ATOM     14  C   UNL     1      49.155 147.964   1.696  1.00  0.00     0.004 C 
ENDBRANCH  12  13
ENDBRANCH  11  12
ENDBRANCH  10  11
ENDBRANCH   9  10
ENDBRANCH   1   9
TORSDOF 10
ENDMDL
MODEL 3
REMARK VINA RESULT:     0.420     21.075     22.636
REMARK INTER + INTRA:           0.005
REMARK INTER:                   0.871
REMARK INTRA:                  -0.865
REMARK UNBOUND:                -0.660
REMARK SMILES CCCCCCCCCCCC(=O)[O-]
REMARK SMILES IDX 7 1 8 2 9 3 10 4 11 5 12 6 13 7 14 8 6 9 5 10 4 11 3 12 2 13
REMARK SMILES IDX 1 14
REMARK H PARENT
REMARK Flexibility Score: inf
ROOT
ATOM      1  C   UNL     1      62.751 130.256  -7.279  1.00  0.00     0.000 C 
ENDROOT
BRANCH   1   2
ATOM      2  C   UNL     1      64.003 131.148  -7.294  1.00  0.00     0.000 C 
BRANCH   2   3
ATOM      3  C   UNL     1      65.159 130.549  -8.117  1.00  0.00     0.000 C 
BRANCH   3   4
ATOM      4  C   UNL     1      66.408 130.158  -7.306  1.00  0.00     0.006 C 
BRANCH   4   5
ATOM      5  C   UNL     1      66.405 128.688  -6.871  1.00  0.00     0.053 C 
BRANCH   5   6
ATOM      6  C   UNL     1      66.118 128.577  -5.407  1.00  0.00     0.041 C 
ATOM      7  O   UNL     1      66.995 128.130  -4.620  1.00  0.00    -0.550 OA
ATOM      8  O   UNL     1      64.865 128.921  -4.915  1.00  0.00    -0.550 OA
ENDBRANCH   5   6
ENDBRANCH   4   5
ENDBRANCH   3   4
ENDBRANCH   2   3
ENDBRANCH   1   2
BRANCH   1   9
ATOM      9  C   UNL     1      62.935 128.947  -8.068  1.00  0.00     0.000 C 
BRANCH   9  10
ATOM     10  C   UNL     1      61.768 127.948  -7.966  1.00  0.00    -0.000 C 
BRANCH  10  11
ATOM     11  C   UNL     1      60.430 128.617  -7.620  1.00  0.00    -0.000 C 
BRANCH  11  12
ATOM     12  C   UNL     1      59.727 127.876  -6.474  1.00  0.00    -0.000 C 
BRANCH  12  13
ATOM     13  C   UNL     1      60.437 128.066  -5.123  1.00  0.00    -0.003 C 
ATOM     14  C   UNL     1      59.527 128.672  -4.056  1.00  0.00     0.004 C 
ENDBRANCH  12  13
ENDBRANCH  11  12
ENDBRANCH  10  11
ENDBRANCH   9  10
ENDBRANCH   1   9
TORSDOF 10
ENDMDL
MODEL 4
REMARK VINA RESULT:     0.568      1.342      2.211
REMARK INTER + INTRA:           0.241
REMARK INTER:                   0.948
REMARK INTRA:                  -0.708
REMARK UNBOUND:                -0.660
REMARK SMILES CCCCCCCCCCCC(=O)[O-]
REMARK SMILES IDX 7 1 8 2 9 3 10 4 11 5 12 6 13 7 14 8 6 9 5 10 4 11 3 12 2 13
REMARK SMILES IDX 1 14
REMARK H PARENT
REMARK Flexibility Score: inf
ROOT
ATOM      1  C   UNL     1      51.697 147.602   2.064  1.00  0.00     0.000 C 
ENDROOT
BRANCH   1   2
ATOM      2  C   UNL     1      52.587 148.009   0.878  1.00  0.00     0.000 C 
BRANCH   2   3
ATOM      3  C   UNL     1      53.310 146.813   0.230  1.00  0.00     0.000 C 
BRANCH   3   4
ATOM      4  C   UNL     1      54.090 147.138  -1.057  1.00  0.00     0.006 C 
BRANCH   4   5
ATOM      5  C   UNL     1      53.353 148.123  -1.972  1.00  0.00     0.053 C 
BRANCH   5   6
ATOM      6  C   UNL     1      53.629 147.809  -3.408  1.00  0.00     0.041 C 
ATOM      7  O   UNL     1      54.756 148.069  -3.909  1.00  0.00    -0.550 OA
ATOM      8  O   UNL     1      52.627 147.275  -4.209  1.00  0.00    -0.550 OA
ENDBRANCH   5   6
ENDBRANCH   4   5
ENDBRANCH   3   4
ENDBRANCH   2   3
ENDBRANCH   1   2
BRANCH   1   9
ATOM      9  C   UNL     1      50.641 146.547   1.689  1.00  0.00     0.000 C 
BRANCH   9  10
ATOM     10  C   UNL     1      49.186 147.053   1.666  1.00  0.00    -0.000 C 
BRANCH  10  11
ATOM     11  C   UNL     1      48.938 148.124   0.595  1.00  0.00    -0.000 C 
BRANCH  11  12
ATOM     12  C   UNL     1      47.609 147.875  -0.133  1.00  0.00    -0.000 C 
BRANCH  12  13
ATOM     13  C   UNL     1      47.807 147.446  -1.595  1.00  0.00    -0.003 C 
ATOM     14  C   UNL     1      49.139 147.917  -2.176  1.00  0.00     0.004 C 
ENDBRANCH  12  13
ENDBRANCH  11  12
ENDBRANCH  10  11
ENDBRANCH   9  10
ENDBRANCH   1   9
TORSDOF 10
ENDMDL
MODEL 5
REMARK VINA RESULT:     0.804     21.316     23.053
REMARK INTER + INTRA:           0.615
REMARK INTER:                  -0.356
REMARK INTRA:                   0.970
REMARK UNBOUND:                -0.660
REMARK SMILES CCCCCCCCCCCC(=O)[O-]
REMARK SMILES IDX 7 1 8 2 9 3 10 4 11 5 12 6 13 7 14 8 6 9 5 10 4 11 3 12 2 13
REMARK SMILES IDX 1 14
REMARK H PARENT
REMARK Flexibility Score: inf
ROOT
ATOM      1  C   UNL     1      63.467 130.081  -6.401  1.00  0.00     0.000 C 
ENDROOT
BRANCH   1   2
ATOM      2  C   UNL     1      63.455 128.773  -7.209  1.00  0.00     0.000 C 
BRANCH   2   3
ATOM      3  C   UNL     1      62.199 128.619  -8.087  1.00  0.00     0.000 C 
BRANCH   3   4
ATOM      4  C   UNL     1      60.984 127.984  -7.386  1.00  0.00     0.006 C 
BRANCH   4   5
ATOM      5  C   UNL     1      61.155 127.881  -5.865  1.00  0.00     0.053 C 
BRANCH   5   6
ATOM      6  C   UNL     1      59.824 127.945  -5.185  1.00  0.00     0.041 C 
ATOM      7  O   UNL     1      59.756 128.016  -3.929  1.00  0.00    -0.550 OA
ATOM      8  O   UNL     1      58.656 127.877  -5.934  1.00  0.00    -0.550 OA
ENDBRANCH   5   6
ENDBRANCH   4   5
ENDBRANCH   3   4
ENDBRANCH   2   3
ENDBRANCH   1   2
BRANCH   1   9
ATOM      9  C   UNL     1      64.027 131.274  -7.196  1.00  0.00     0.000 C 
BRANCH   9  10
ATOM     10  C   UNL     1      65.451 131.084  -7.751  1.00  0.00    -0.000 C 
BRANCH  10  11
ATOM     11  C   UNL     1      65.810 129.611  -7.996  1.00  0.00    -0.000 C 
BRANCH  11  12
ATOM     12  C   UNL     1      67.101 129.231  -7.257  1.00  0.00    -0.000 C 
BRANCH  12  13
ATOM     13  C   UNL     1      66.876 129.003  -5.753  1.00  0.00    -0.003 C 
ATOM     14  C   UNL     1      65.866 127.893  -5.468  1.00  0.00     0.004 C 
ENDBRANCH  12  13
ENDBRANCH  11  12
ENDBRANCH  10  11
ENDBRANCH   9  10
ENDBRANCH   1   9
TORSDOF 10
ENDMDL
