MODEL 1
REMARK VINA RESULT:     4.806      0.000      0.000
REMARK INTER + INTRA:          10.251
REMARK INTER:                  10.987
REMARK INTRA:                  -0.736
REMARK UNBOUND:                -0.736
REMARK SMILES CCCCCCCCCCCCCCCCCCCCCCCC(=O)[O-]
REMARK SMILES IDX 13 1 14 2 15 3 16 4 17 5 18 6 19 7 20 8 21 9 22 10 23 11
REMARK SMILES IDX 24 12 25 13 26 14 12 15 11 16 10 17 9 18 8 19 7 20 6 21 5 22
REMARK SMILES IDX 4 23 3 24 2 25 1 26
REMARK H PARENT
REMARK Flexibility Score: inf
ROOT
ATOM      1  C   UNL     1     -24.508  -2.341 -26.501  1.00  0.00     0.000 C 
ENDROOT
BRANCH   1   2
ATOM      2  C   UNL     1     -25.841  -3.023 -26.854  1.00  0.00     0.000 C 
BRANCH   2   3
ATOM      3  C   UNL     1     -26.202  -2.894 -28.346  1.00  0.00     0.000 C 
BRANCH   3   4
ATOM      4  C   UNL     1     -27.594  -2.294 -28.633  1.00  0.00     0.000 C 
BRANCH   4   5
ATOM      5  C   UNL     1     -28.664  -2.587 -27.565  1.00  0.00     0.000 C 
BRANCH   5   6
ATOM      6  C   UNL     1     -30.119  -2.520 -28.073  1.00  0.00     0.000 C 
BRANCH   6   7
ATOM      7  C   UNL     1     -31.184  -2.339 -26.972  1.00  0.00     0.000 C 
BRANCH   7   8
ATOM      8  C   UNL     1     -31.572  -0.879 -26.676  1.00  0.00     0.000 C 
BRANCH   8   9
ATOM      9  C   UNL     1     -31.136  -0.416 -25.279  1.00  0.00     0.000 C 
BRANCH   9  10
ATOM     10  C   UNL     1     -31.044   1.117 -25.207  1.00  0.00     0.006 C 
BRANCH  10  11
ATOM     11  C   UNL     1     -31.916   1.799 -26.271  1.00  0.00     0.053 C 
BRANCH  11  12
ATOM     12  C   UNL     1     -31.800   3.290 -26.209  1.00  0.00     0.041 C 
ATOM     13  O   UNL     1     -31.665   3.870 -25.098  1.00  0.00    -0.550 OA
ATOM     14  O   UNL     1     -31.906   4.048 -27.368  1.00  0.00    -0.550 OA
ENDBRANCH  11  12
ENDBRANCH  10  11
ENDBRANCH   9  10
ENDBRANCH   8   9
ENDBRANCH   7   8
ENDBRANCH   6   7
ENDBRANCH   5   6
ENDBRANCH   4   5
ENDBRANCH   3   4
ENDBRANCH   2   3
ENDBRANCH   1   2
BRANCH   1  15
ATOM     15  C   UNL     1     -23.951  -1.489 -27.662  1.00  0.00     0.000 C 
BRANCH  15  16
ATOM     16  C   UNL     1     -22.772  -0.583 -27.261  1.00  0.00     0.000 C 
BRANCH  16  17
ATOM     17  C   UNL     1     -23.128   0.901 -27.059  1.00  0.00     0.000 C 
BRANCH  17  18
ATOM     18  C   UNL     1     -22.759   1.485 -25.680  1.00  0.00    -0.000 C 
BRANCH  18  19
ATOM     19  C   UNL     1     -21.619   2.519 -25.692  1.00  0.00    -0.000 C 
BRANCH  19  20
ATOM     20  C   UNL     1     -20.626   2.298 -26.842  1.00  0.00    -0.000 C 
BRANCH  20  21
ATOM     21  C   UNL     1     -20.167   3.637 -27.433  1.00  0.00    -0.000 C 
BRANCH  21  22
ATOM     22  C   UNL     1     -21.292   4.681 -27.379  1.00  0.00    -0.000 C 
BRANCH  22  23
ATOM     23  C   UNL     1     -21.112   5.809 -28.410  1.00  0.00    -0.000 C 
BRANCH  23  24
ATOM     24  C   UNL     1     -19.649   6.125 -28.784  1.00  0.00    -0.000 C 
BRANCH  24  25
ATOM     25  C   UNL     1     -18.658   6.110 -27.606  1.00  0.00    -0.003 C 
ATOM     26  C   UNL     1     -17.236   5.743 -28.028  1.00  0.00     0.004 C 
ENDBRANCH  24  25
ENDBRANCH  23  24
ENDBRANCH  22  23
ENDBRANCH  21  22
ENDBRANCH  20  21
ENDBRANCH  19  20
ENDBRANCH  18  19
ENDBRANCH  17  18
ENDBRANCH  16  17
ENDBRANCH  15  16
ENDBRANCH   1  15
TORSDOF 22
ENDMDL
MODEL 2
REMARK VINA RESULT:     5.433      4.086     10.113
REMARK INTER + INTRA:          11.684
REMARK INTER:                  10.812
REMARK INTRA:                   0.872
REMARK UNBOUND:                -0.736
REMARK SMILES CCCCCCCCCCCCCCCCCCCCCCCC(=O)[O-]
REMARK SMILES IDX 13 1 14 2 15 3 16 4 17 5 18 6 19 7 20 8 21 9 22 10 23 11
REMARK SMILES IDX 24 12 25 13 26 14 12 15 11 16 10 17 9 18 8 19 7 20 6 21 5 22
REMARK SMILES IDX 4 23 3 24 2 25 1 26
REMARK H PARENT
REMARK Flexibility Score: inf
ROOT
ATOM      1  C   UNL     1     -27.696  -2.846 -27.826  1.00  0.00     0.000 C 
ENDROOT
BRANCH   1   2
ATOM      2  C   UNL     1     -26.897  -1.633 -28.334  1.00  0.00     0.000 C 
BRANCH   2   3
ATOM      3  C   UNL     1     -25.440  -1.624 -27.836  1.00  0.00     0.000 C 
BRANCH   3   4
ATOM      4  C   UNL     1     -24.609  -0.398 -28.266  1.00  0.00     0.000 C 
BRANCH   4   5
ATOM      5  C   UNL     1     -23.135  -0.417 -27.815  1.00  0.00     0.000 C 
BRANCH   5   6
ATOM      6  C   UNL     1     -22.256   0.687 -28.435  1.00  0.00     0.000 C 
BRANCH   6   7
ATOM      7  C   UNL     1     -21.775   1.767 -27.446  1.00  0.00     0.000 C 
BRANCH   7   8
ATOM      8  C   UNL     1     -22.019   3.218 -27.897  1.00  0.00     0.000 C 
BRANCH   8   9
ATOM      9  C   UNL     1     -21.031   4.213 -27.271  1.00  0.00     0.000 C 
BRANCH   9  10
ATOM     10  C   UNL     1     -21.278   5.639 -27.788  1.00  0.00     0.006 C 
BRANCH  10  11
ATOM     11  C   UNL     1     -20.151   6.122 -28.712  1.00  0.00     0.053 C 
BRANCH  11  12
ATOM     12  C   UNL     1     -18.801   5.763 -28.173  1.00  0.00     0.041 C 
ATOM     13  O   UNL     1     -18.688   5.297 -27.006  1.00  0.00    -0.550 OA
ATOM     14  O   UNL     1     -17.661   6.003 -28.928  1.00  0.00    -0.550 OA
ENDBRANCH  11  12
ENDBRANCH  10  11
ENDBRANCH   9  10
ENDBRANCH   8   9
ENDBRANCH   7   8
ENDBRANCH   6   7
ENDBRANCH   5   6
ENDBRANCH   4   5
ENDBRANCH   3   4
ENDBRANCH   2   3
ENDBRANCH   1   2
BRANCH   1  15
ATOM     15  C   UNL     1     -29.066  -2.449 -27.236  1.00  0.00     0.000 C 
BRANCH  15  16
ATOM     16  C   UNL     1     -30.244  -2.646 -28.208  1.00  0.00     0.000 C 
BRANCH  16  17
ATOM     17  C   UNL     1     -31.614  -2.188 -27.675  1.00  0.00     0.000 C 
BRANCH  17  18
ATOM     18  C   UNL     1     -32.082  -0.802 -28.167  1.00  0.00    -0.000 C 
BRANCH  18  19
ATOM     19  C   UNL     1     -32.125   0.293 -27.087  1.00  0.00    -0.000 C 
BRANCH  19  20
ATOM     20  C   UNL     1     -30.974   0.181 -26.077  1.00  0.00    -0.000 C 
BRANCH  20  21
ATOM     21  C   UNL     1     -31.268   1.006 -24.818  1.00  0.00    -0.000 C 
BRANCH  21  22
ATOM     22  C   UNL     1     -31.226   2.512 -25.120  1.00  0.00    -0.000 C 
BRANCH  22  23
ATOM     23  C   UNL     1     -31.493   2.832 -26.602  1.00  0.00    -0.000 C 
BRANCH  23  24
ATOM     24  C   UNL     1     -30.722   4.048 -27.156  1.00  0.00    -0.000 C 
BRANCH  24  25
ATOM     25  C   UNL     1     -30.822   4.243 -28.680  1.00  0.00    -0.003 C 
ATOM     26  C   UNL     1     -30.716   5.707 -29.101  1.00  0.00     0.004 C 
ENDBRANCH  24  25
ENDBRANCH  23  24
ENDBRANCH  22  23
ENDBRANCH  21  22
ENDBRANCH  20  21
ENDBRANCH  19  20
ENDBRANCH  18  19
ENDBRANCH  17  18
ENDBRANCH  16  17
ENDBRANCH  15  16
ENDBRANCH   1  15
TORSDOF 22
ENDMDL
MODEL 3
REMARK VINA RESULT:     5.630      3.986     10.129
REMARK INTER + INTRA:          12.134
REMARK INTER:                  13.327
REMARK INTRA:                  -1.193
REMARK UNBOUND:                -0.736
REMARK SMILES CCCCCCCCCCCCCCCCCCCCCCCC(=O)[O-]
REMARK SMILES IDX 13 1 14 2 15 3 16 4 17 5 18 6 19 7 20 8 21 9 22 10 23 11
REMARK SMILES IDX 24 12 25 13 26 14 12 15 11 16 10 17 9 18 8 19 7 20 6 21 5 22
REMARK SMILES IDX 4 23 3 24 2 25 1 26
REMARK H PARENT
REMARK Flexibility Score: inf
ROOT
ATOM      1  C   UNL     1     -26.100  -2.772 -27.324  1.00  0.00     0.000 C 
ENDROOT
BRANCH   1   2
ATOM      2  C   UNL     1     -24.592  -2.468 -27.370  1.00  0.00     0.000 C 
BRANCH   2   3
ATOM      3  C   UNL     1     -24.150  -1.465 -26.288  1.00  0.00     0.000 C 
BRANCH   3   4
ATOM      4  C   UNL     1     -22.966  -0.558 -26.681  1.00  0.00     0.000 C 
BRANCH   4   5
ATOM      5  C   UNL     1     -23.051   0.050 -28.095  1.00  0.00     0.000 C 
BRANCH   5   6
ATOM      6  C   UNL     1     -22.463   1.470 -28.223  1.00  0.00     0.000 C 
BRANCH   6   7
ATOM      7  C   UNL     1     -21.950   2.082 -26.904  1.00  0.00     0.000 C 
BRANCH   7   8
ATOM      8  C   UNL     1     -21.165   3.397 -27.058  1.00  0.00     0.000 C 
BRANCH   8   9
ATOM      9  C   UNL     1     -21.805   4.361 -28.068  1.00  0.00     0.000 C 
BRANCH   9  10
ATOM     10  C   UNL     1     -21.233   5.780 -27.917  1.00  0.00     0.006 C 
BRANCH  10  11
ATOM     11  C   UNL     1     -19.985   5.808 -27.023  1.00  0.00     0.053 C 
BRANCH  11  12
ATOM     12  C   UNL     1     -18.731   5.601 -27.816  1.00  0.00     0.041 C 
ATOM     13  O   UNL     1     -18.609   6.125 -28.956  1.00  0.00    -0.550 OA
ATOM     14  O   UNL     1     -17.726   4.778 -27.328  1.00  0.00    -0.550 OA
ENDBRANCH  11  12
ENDBRANCH  10  11
ENDBRANCH   9  10
ENDBRANCH   8   9
ENDBRANCH   7   8
ENDBRANCH   6   7
ENDBRANCH   5   6
ENDBRANCH   4   5
ENDBRANCH   3   4
ENDBRANCH   2   3
ENDBRANCH   1   2
BRANCH   1  15
ATOM     15  C   UNL     1     -26.800  -2.510 -28.675  1.00  0.00     0.000 C 
BRANCH  15  16
ATOM     16  C   UNL     1     -28.338  -2.505 -28.590  1.00  0.00     0.000 C 
BRANCH  16  17
ATOM     17  C   UNL     1     -28.917  -2.924 -27.227  1.00  0.00     0.000 C 
BRANCH  17  18
ATOM     18  C   UNL     1     -30.380  -2.500 -26.975  1.00  0.00    -0.000 C 
BRANCH  18  19
ATOM     19  C   UNL     1     -31.070  -1.801 -28.159  1.00  0.00    -0.000 C 
BRANCH  19  20
ATOM     20  C   UNL     1     -32.036  -0.693 -27.717  1.00  0.00    -0.000 C 
BRANCH  20  21
ATOM     21  C   UNL     1     -31.630  -0.125 -26.352  1.00  0.00    -0.000 C 
BRANCH  21  22
ATOM     22  C   UNL     1     -32.028   1.354 -26.228  1.00  0.00    -0.000 C 
BRANCH  22  23
ATOM     23  C   UNL     1     -31.068   2.159 -25.334  1.00  0.00    -0.000 C 
BRANCH  23  24
ATOM     24  C   UNL     1     -30.464   3.417 -25.992  1.00  0.00    -0.000 C 
BRANCH  24  25
ATOM     25  C   UNL     1     -31.422   4.194 -26.913  1.00  0.00    -0.003 C 
ATOM     26  C   UNL     1     -30.805   4.525 -28.270  1.00  0.00     0.004 C 
ENDBRANCH  24  25
ENDBRANCH  23  24
ENDBRANCH  22  23
ENDBRANCH  21  22
ENDBRANCH  20  21
ENDBRANCH  19  20
ENDBRANCH  18  19
ENDBRANCH  17  18
ENDBRANCH  16  17
ENDBRANCH  15  16
ENDBRANCH   1  15
TORSDOF 22
ENDMDL
MODEL 4
REMARK VINA RESULT:     6.554      3.400      9.600
REMARK INTER + INTRA:          14.248
REMARK INTER:                  14.354
REMARK INTRA:                  -0.106
REMARK UNBOUND:                -0.736
REMARK SMILES CCCCCCCCCCCCCCCCCCCCCCCC(=O)[O-]
REMARK SMILES IDX 13 1 14 2 15 3 16 4 17 5 18 6 19 7 20 8 21 9 22 10 23 11
REMARK SMILES IDX 24 12 25 13 26 14 12 15 11 16 10 17 9 18 8 19 7 20 6 21 5 22
REMARK SMILES IDX 4 23 3 24 2 25 1 26
REMARK H PARENT
REMARK Flexibility Score: inf
ROOT
ATOM      1  C   UNL     1     -29.124  -2.065 -27.923  1.00  0.00     0.000 C 
ENDROOT
BRANCH   1   2
ATOM      2  C   UNL     1     -27.812  -2.816 -27.636  1.00  0.00     0.000 C 
BRANCH   2   3
ATOM      3  C   UNL     1     -26.659  -2.383 -28.562  1.00  0.00     0.000 C 
BRANCH   3   4
ATOM      4  C   UNL     1     -25.268  -2.339 -27.897  1.00  0.00     0.000 C 
BRANCH   4   5
ATOM      5  C   UNL     1     -24.749  -0.927 -27.563  1.00  0.00     0.000 C 
BRANCH   5   6
ATOM      6  C   UNL     1     -23.311  -0.639 -28.037  1.00  0.00     0.000 C 
BRANCH   6   7
ATOM      7  C   UNL     1     -23.006   0.846 -28.322  1.00  0.00     0.000 C 
BRANCH   7   8
ATOM      8  C   UNL     1     -21.628   1.332 -27.837  1.00  0.00     0.000 C 
BRANCH   8   9
ATOM      9  C   UNL     1     -21.563   2.855 -27.651  1.00  0.00     0.000 C 
BRANCH   9  10
ATOM     10  C   UNL     1     -20.222   3.281 -27.033  1.00  0.00     0.006 C 
BRANCH  10  11
ATOM     11  C   UNL     1     -20.220   4.759 -26.618  1.00  0.00     0.053 C 
BRANCH  11  12
ATOM     12  C   UNL     1     -20.695   5.646 -27.727  1.00  0.00     0.041 C 
ATOM     13  O   UNL     1     -19.896   6.012 -28.632  1.00  0.00    -0.550 OA
ATOM     14  O   UNL     1     -21.999   6.123 -27.731  1.00  0.00    -0.550 OA
ENDBRANCH  11  12
ENDBRANCH  10  11
ENDBRANCH   9  10
ENDBRANCH   8   9
ENDBRANCH   7   8
ENDBRANCH   6   7
ENDBRANCH   5   6
ENDBRANCH   4   5
ENDBRANCH   3   4
ENDBRANCH   2   3
ENDBRANCH   1   2
BRANCH   1  15
ATOM     15  C   UNL     1     -30.134  -2.917 -28.720  1.00  0.00     0.000 C 
BRANCH  15  16
ATOM     16  C   UNL     1     -31.572  -2.854 -28.172  1.00  0.00     0.000 C 
BRANCH  16  17
ATOM     17  C   UNL     1     -31.684  -2.772 -26.639  1.00  0.00     0.000 C 
BRANCH  17  18
ATOM     18  C   UNL     1     -31.857  -1.349 -26.068  1.00  0.00    -0.000 C 
BRANCH  18  19
ATOM     19  C   UNL     1     -31.859  -0.221 -27.114  1.00  0.00    -0.000 C 
BRANCH  19  20
ATOM     20  C   UNL     1     -32.124   1.162 -26.501  1.00  0.00    -0.000 C 
BRANCH  20  21
ATOM     21  C   UNL     1     -30.940   1.613 -25.636  1.00  0.00    -0.000 C 
BRANCH  21  22
ATOM     22  C   UNL     1     -30.780   3.141 -25.672  1.00  0.00    -0.000 C 
BRANCH  22  23
ATOM     23  C   UNL     1     -31.677   3.812 -26.727  1.00  0.00    -0.000 C 
BRANCH  23  24
ATOM     24  C   UNL     1     -31.446   3.339 -28.177  1.00  0.00    -0.000 C 
BRANCH  24  25
ATOM     25  C   UNL     1     -30.666   4.325 -29.066  1.00  0.00    -0.003 C 
ATOM     26  C   UNL     1     -29.765   5.265 -28.266  1.00  0.00     0.004 C 
ENDBRANCH  24  25
ENDBRANCH  23  24
ENDBRANCH  22  23
ENDBRANCH  21  22
ENDBRANCH  20  21
ENDBRANCH  19  20
ENDBRANCH  18  19
ENDBRANCH  17  18
ENDBRANCH  16  17
ENDBRANCH  15  16
ENDBRANCH   1  15
TORSDOF 22
ENDMDL
MODEL 5
REMARK VINA RESULT:     6.809      3.580      9.493
REMARK INTER + INTRA:          14.831
REMARK INTER:                  15.388
REMARK INTRA:                  -0.557
REMARK UNBOUND:                -0.736
REMARK SMILES CCCCCCCCCCCCCCCCCCCCCCCC(=O)[O-]
REMARK SMILES IDX 13 1 14 2 15 3 16 4 17 5 18 6 19 7 20 8 21 9 22 10 23 11
REMARK SMILES IDX 24 12 25 13 26 14 12 15 11 16 10 17 9 18 8 19 7 20 6 21 5 22
REMARK SMILES IDX 4 23 3 24 2 25 1 26
REMARK H PARENT
REMARK Flexibility Score: inf
ROOT
ATOM      1  C   UNL     1     -31.316  -0.179 -27.186  1.00  0.00     0.000 C 
ENDROOT
BRANCH   1   2
ATOM      2  C   UNL     1     -32.036  -1.402 -27.782  1.00  0.00     0.000 C 
BRANCH   2   3
ATOM      3  C   UNL     1     -31.197  -2.690 -27.699  1.00  0.00     0.000 C 
BRANCH   3   4
ATOM      4  C   UNL     1     -29.996  -2.752 -28.664  1.00  0.00     0.000 C 
BRANCH   4   5
ATOM      5  C   UNL     1     -28.795  -1.870 -28.270  1.00  0.00     0.000 C 
BRANCH   5   6
ATOM      6  C   UNL     1     -27.516  -2.648 -27.901  1.00  0.00     0.000 C 
BRANCH   6   7
ATOM      7  C   UNL     1     -26.258  -2.244 -28.696  1.00  0.00     0.000 C 
BRANCH   7   8
ATOM      8  C   UNL     1     -24.994  -2.022 -27.846  1.00  0.00     0.000 C 
BRANCH   8   9
ATOM      9  C   UNL     1     -24.452  -0.589 -27.944  1.00  0.00     0.000 C 
BRANCH   9  10
ATOM     10  C   UNL     1     -23.107  -0.454 -27.213  1.00  0.00     0.006 C 
BRANCH  10  11
ATOM     11  C   UNL     1     -22.150   0.504 -27.937  1.00  0.00     0.053 C 
BRANCH  11  12
ATOM     12  C   UNL     1     -21.850   1.716 -27.109  1.00  0.00     0.041 C 
ATOM     13  O   UNL     1     -20.957   1.671 -26.220  1.00  0.00    -0.550 OA
ATOM     14  O   UNL     1     -22.597   2.875 -27.272  1.00  0.00    -0.550 OA
ENDBRANCH  11  12
ENDBRANCH  10  11
ENDBRANCH   9  10
ENDBRANCH   8   9
ENDBRANCH   7   8
ENDBRANCH   6   7
ENDBRANCH   5   6
ENDBRANCH   4   5
ENDBRANCH   3   4
ENDBRANCH   2   3
ENDBRANCH   1   2
BRANCH   1  15
ATOM     15  C   UNL     1     -32.111   1.130 -27.379  1.00  0.00     0.000 C 
BRANCH  15  16
ATOM     16  C   UNL     1     -32.108   1.653 -28.828  1.00  0.00     0.000 C 
BRANCH  16  17
ATOM     17  C   UNL     1     -31.903   3.172 -28.973  1.00  0.00     0.000 C 
BRANCH  17  18
ATOM     18  C   UNL     1     -32.034   3.982 -27.666  1.00  0.00    -0.000 C 
BRANCH  18  19
ATOM     19  C   UNL     1     -30.722   4.180 -26.886  1.00  0.00    -0.000 C 
BRANCH  19  20
ATOM     20  C   UNL     1     -30.656   3.334 -25.607  1.00  0.00    -0.000 C 
BRANCH  20  21
ATOM     21  C   UNL     1     -32.059   3.091 -25.037  1.00  0.00    -0.000 C 
BRANCH  21  22
ATOM     22  C   UNL     1     -32.040   1.983 -23.973  1.00  0.00    -0.000 C 
BRANCH  22  23
ATOM     23  C   UNL     1     -30.831   1.040 -24.113  1.00  0.00    -0.000 C 
BRANCH  23  24
ATOM     24  C   UNL     1     -31.012  -0.353 -23.476  1.00  0.00    -0.000 C 
BRANCH  24  25
ATOM     25  C   UNL     1     -30.357  -0.528 -22.094  1.00  0.00    -0.003 C 
ATOM     26  C   UNL     1     -29.327  -1.656 -22.062  1.00  0.00     0.004 C 
ENDBRANCH  24  25
ENDBRANCH  23  24
ENDBRANCH  22  23
ENDBRANCH  21  22
ENDBRANCH  20  21
ENDBRANCH  19  20
ENDBRANCH  18  19
ENDBRANCH  17  18
ENDBRANCH  16  17
ENDBRANCH  15  16
ENDBRANCH   1  15
TORSDOF 22
ENDMDL
MODEL 6
REMARK VINA RESULT:     7.050      4.220     10.608
REMARK INTER + INTRA:          15.382
REMARK INTER:                  15.760
REMARK INTRA:                  -0.378
REMARK UNBOUND:                -0.736
REMARK SMILES CCCCCCCCCCCCCCCCCCCCCCCC(=O)[O-]
REMARK SMILES IDX 13 1 14 2 15 3 16 4 17 5 18 6 19 7 20 8 21 9 22 10 23 11
REMARK SMILES IDX 24 12 25 13 26 14 12 15 11 16 10 17 9 18 8 19 7 20 6 21 5 22
REMARK SMILES IDX 4 23 3 24 2 25 1 26
REMARK H PARENT
REMARK Flexibility Score: inf
ROOT
ATOM      1  C   UNL     1     -27.579  -2.820 -27.673  1.00  0.00     0.000 C 
ENDROOT
BRANCH   1   2
ATOM      2  C   UNL     1     -26.731  -1.807 -28.461  1.00  0.00     0.000 C 
BRANCH   2   3
ATOM      3  C   UNL     1     -25.289  -1.692 -27.931  1.00  0.00     0.000 C 
BRANCH   3   4
ATOM      4  C   UNL     1     -24.494  -0.478 -28.455  1.00  0.00     0.000 C 
BRANCH   4   5
ATOM      5  C   UNL     1     -23.056  -0.357 -27.915  1.00  0.00     0.000 C 
BRANCH   5   6
ATOM      6  C   UNL     1     -22.290   0.893 -28.391  1.00  0.00     0.000 C 
BRANCH   6   7
ATOM      7  C   UNL     1     -21.711   1.770 -27.263  1.00  0.00     0.000 C 
BRANCH   7   8
ATOM      8  C   UNL     1     -22.110   3.255 -27.321  1.00  0.00     0.000 C 
BRANCH   8   9
ATOM      9  C   UNL     1     -20.901   4.201 -27.285  1.00  0.00     0.000 C 
BRANCH   9  10
ATOM     10  C   UNL     1     -21.190   5.499 -28.056  1.00  0.00     0.006 C 
BRANCH  10  11
ATOM     11  C   UNL     1     -19.956   6.006 -28.817  1.00  0.00     0.053 C 
BRANCH  11  12
ATOM     12  C   UNL     1     -18.713   5.906 -27.987  1.00  0.00     0.041 C 
ATOM     13  O   UNL     1     -18.793   5.878 -26.729  1.00  0.00    -0.550 OA
ATOM     14  O   UNL     1     -17.465   5.909 -28.595  1.00  0.00    -0.550 OA
ENDBRANCH  11  12
ENDBRANCH  10  11
ENDBRANCH   9  10
ENDBRANCH   8   9
ENDBRANCH   7   8
ENDBRANCH   6   7
ENDBRANCH   5   6
ENDBRANCH   4   5
ENDBRANCH   3   4
ENDBRANCH   2   3
ENDBRANCH   1   2
BRANCH   1  15
ATOM     15  C   UNL     1     -28.940  -2.239 -27.233  1.00  0.00     0.000 C 
BRANCH  15  16
ATOM     16  C   UNL     1     -30.143  -2.825 -27.995  1.00  0.00     0.000 C 
BRANCH  16  17
ATOM     17  C   UNL     1     -31.518  -2.285 -27.561  1.00  0.00     0.000 C 
BRANCH  17  18
ATOM     18  C   UNL     1     -31.992  -1.018 -28.303  1.00  0.00    -0.000 C 
BRANCH  18  19
ATOM     19  C   UNL     1     -32.123   0.241 -27.427  1.00  0.00    -0.000 C 
BRANCH  19  20
ATOM     20  C   UNL     1     -30.943   0.422 -26.462  1.00  0.00    -0.000 C 
BRANCH  20  21
ATOM     21  C   UNL     1     -31.238   1.525 -25.438  1.00  0.00    -0.000 C 
BRANCH  21  22
ATOM     22  C   UNL     1     -31.489   0.931 -24.043  1.00  0.00    -0.000 C 
BRANCH  22  23
ATOM     23  C   UNL     1     -30.316   0.071 -23.539  1.00  0.00    -0.000 C 
BRANCH  23  24
ATOM     24  C   UNL     1     -30.724  -1.201 -22.768  1.00  0.00    -0.000 C 
BRANCH  24  25
ATOM     25  C   UNL     1     -29.657  -1.747 -21.802  1.00  0.00    -0.003 C 
ATOM     26  C   UNL     1     -29.672  -1.050 -20.442  1.00  0.00     0.004 C 
ENDBRANCH  24  25
ENDBRANCH  23  24
ENDBRANCH  22  23
ENDBRANCH  21  22
ENDBRANCH  20  21
ENDBRANCH  19  20
ENDBRANCH  18  19
ENDBRANCH  17  18
ENDBRANCH  16  17
ENDBRANCH  15  16
ENDBRANCH   1  15
TORSDOF 22
ENDMDL
MODEL 7
REMARK VINA RESULT:     7.123     15.043     17.838
REMARK INTER + INTRA:          15.547
REMARK INTER:                  16.143
REMARK INTRA:                  -0.596
REMARK UNBOUND:                -0.736
REMARK SMILES CCCCCCCCCCCCCCCCCCCCCCCC(=O)[O-]
REMARK SMILES IDX 13 1 14 2 15 3 16 4 17 5 18 6 19 7 20 8 21 9 22 10 23 11
REMARK SMILES IDX 24 12 25 13 26 14 12 15 11 16 10 17 9 18 8 19 7 20 6 21 5 22
REMARK SMILES IDX 4 23 3 24 2 25 1 26
REMARK H PARENT
REMARK Flexibility Score: inf
ROOT
ATOM      1  C   UNL     1     -14.397  -3.790 -17.008  1.00  0.00     0.000 C 
ENDROOT
BRANCH   1   2
ATOM      2  C   UNL     1     -14.337  -5.326 -17.079  1.00  0.00     0.000 C 
BRANCH   2   3
ATOM      3  C   UNL     1     -14.925  -5.888 -18.387  1.00  0.00     0.000 C 
BRANCH   3   4
ATOM      4  C   UNL     1     -15.667  -4.860 -19.266  1.00  0.00     0.000 C 
BRANCH   4   5
ATOM      5  C   UNL     1     -17.147  -5.186 -19.544  1.00  0.00     0.000 C 
BRANCH   5   6
ATOM      6  C   UNL     1     -17.383  -6.199 -20.682  1.00  0.00     0.000 C 
BRANCH   6   7
ATOM      7  C   UNL     1     -16.998  -5.698 -22.088  1.00  0.00     0.000 C 
BRANCH   7   8
ATOM      8  C   UNL     1     -17.590  -6.510 -23.254  1.00  0.00     0.000 C 
BRANCH   8   9
ATOM      9  C   UNL     1     -17.218  -5.939 -24.630  1.00  0.00     0.000 C 
BRANCH   9  10
ATOM     10  C   UNL     1     -16.546  -7.006 -25.509  1.00  0.00     0.006 C 
BRANCH  10  11
ATOM     11  C   UNL     1     -17.570  -7.950 -26.157  1.00  0.00     0.053 C 
BRANCH  11  12
ATOM     12  C   UNL     1     -17.074  -8.494 -27.461  1.00  0.00     0.041 C 
ATOM     13  O   UNL     1     -16.186  -7.876 -28.109  1.00  0.00    -0.550 OA
ATOM     14  O   UNL     1     -17.636  -9.645 -27.996  1.00  0.00    -0.550 OA
ENDBRANCH  11  12
ENDBRANCH  10  11
ENDBRANCH   9  10
ENDBRANCH   8   9
ENDBRANCH   7   8
ENDBRANCH   6   7
ENDBRANCH   5   6
ENDBRANCH   4   5
ENDBRANCH   3   4
ENDBRANCH   2   3
ENDBRANCH   1   2
BRANCH   1  15
ATOM     15  C   UNL     1     -14.300  -3.260 -15.561  1.00  0.00     0.000 C 
BRANCH  15  16
ATOM     16  C   UNL     1     -13.571  -1.908 -15.440  1.00  0.00     0.000 C 
BRANCH  16  17
ATOM     17  C   UNL     1     -12.933  -1.631 -14.066  1.00  0.00     0.000 C 
BRANCH  17  18
ATOM     18  C   UNL     1     -11.875  -2.658 -13.613  1.00  0.00    -0.000 C 
BRANCH  18  19
ATOM     19  C   UNL     1     -11.937  -3.046 -12.125  1.00  0.00    -0.000 C 
BRANCH  19  20
ATOM     20  C   UNL     1     -12.573  -1.957 -11.250  1.00  0.00    -0.000 C 
BRANCH  20  21
ATOM     21  C   UNL     1     -11.875  -1.873  -9.887  1.00  0.00    -0.000 C 
BRANCH  21  22
ATOM     22  C   UNL     1     -12.283  -3.047  -8.984  1.00  0.00    -0.000 C 
BRANCH  22  23
ATOM     23  C   UNL     1     -13.809  -3.217  -8.876  1.00  0.00    -0.000 C 
BRANCH  23  24
ATOM     24  C   UNL     1     -14.452  -4.072  -9.987  1.00  0.00    -0.000 C 
BRANCH  24  25
ATOM     25  C   UNL     1     -13.738  -5.404 -10.278  1.00  0.00    -0.003 C 
ATOM     26  C   UNL     1     -13.392  -6.184  -9.011  1.00  0.00     0.004 C 
ENDBRANCH  24  25
ENDBRANCH  23  24
ENDBRANCH  22  23
ENDBRANCH  21  22
ENDBRANCH  20  21
ENDBRANCH  19  20
ENDBRANCH  18  19
ENDBRANCH  17  18
ENDBRANCH  16  17
ENDBRANCH  15  16
ENDBRANCH   1  15
TORSDOF 22
ENDMDL
MODEL 8
REMARK VINA RESULT:     7.185     15.519     18.903
REMARK INTER + INTRA:          15.689
REMARK INTER:                  16.405
REMARK INTRA:                  -0.717
REMARK UNBOUND:                -0.736
REMARK SMILES CCCCCCCCCCCCCCCCCCCCCCCC(=O)[O-]
REMARK SMILES IDX 13 1 14 2 15 3 16 4 17 5 18 6 19 7 20 8 21 9 22 10 23 11
REMARK SMILES IDX 24 12 25 13 26 14 12 15 11 16 10 17 9 18 8 19 7 20 6 21 5 22
REMARK SMILES IDX 4 23 3 24 2 25 1 26
REMARK H PARENT
REMARK Flexibility Score: inf
ROOT
ATOM      1  C   UNL     1     -14.276  -7.020 -16.085  1.00  0.00     0.000 C 
ENDROOT
BRANCH   1   2
ATOM      2  C   UNL     1     -13.824  -6.925 -14.617  1.00  0.00     0.000 C 
BRANCH   2   3
ATOM      3  C   UNL     1     -13.367  -5.509 -14.221  1.00  0.00     0.000 C 
BRANCH   3   4
ATOM      4  C   UNL     1     -14.489  -4.575 -13.723  1.00  0.00     0.000 C 
BRANCH   4   5
ATOM      5  C   UNL     1     -14.244  -3.073 -13.967  1.00  0.00     0.000 C 
BRANCH   5   6
ATOM      6  C   UNL     1     -12.760  -2.667 -14.059  1.00  0.00     0.000 C 
BRANCH   6   7
ATOM      7  C   UNL     1     -12.060  -2.450 -12.703  1.00  0.00     0.000 C 
BRANCH   7   8
ATOM      8  C   UNL     1     -12.889  -2.851 -11.470  1.00  0.00     0.000 C 
BRANCH   8   9
ATOM      9  C   UNL     1     -12.022  -3.331 -10.297  1.00  0.00     0.000 C 
BRANCH   9  10
ATOM     10  C   UNL     1     -12.809  -3.298  -8.977  1.00  0.00     0.006 C 
BRANCH  10  11
ATOM     11  C   UNL     1     -14.123  -4.088  -9.068  1.00  0.00     0.053 C 
BRANCH  11  12
ATOM     12  C   UNL     1     -13.886  -5.566  -9.031  1.00  0.00     0.041 C 
ATOM     13  O   UNL     1     -14.854  -6.360  -8.880  1.00  0.00    -0.550 OA
ATOM     14  O   UNL     1     -12.593  -6.067  -9.098  1.00  0.00    -0.550 OA
ENDBRANCH  11  12
ENDBRANCH  10  11
ENDBRANCH   9  10
ENDBRANCH   8   9
ENDBRANCH   7   8
ENDBRANCH   6   7
ENDBRANCH   5   6
ENDBRANCH   4   5
ENDBRANCH   3   4
ENDBRANCH   2   3
ENDBRANCH   1   2
BRANCH   1  15
ATOM     15  C   UNL     1     -14.188  -5.666 -16.821  1.00  0.00     0.000 C 
BRANCH  15  16
ATOM     16  C   UNL     1     -14.638  -5.726 -18.293  1.00  0.00     0.000 C 
BRANCH  16  17
ATOM     17  C   UNL     1     -15.843  -4.834 -18.644  1.00  0.00     0.000 C 
BRANCH  17  18
ATOM     18  C   UNL     1     -16.786  -5.398 -19.728  1.00  0.00    -0.000 C 
BRANCH  18  19
ATOM     19  C   UNL     1     -16.231  -5.353 -21.162  1.00  0.00    -0.000 C 
BRANCH  19  20
ATOM     20  C   UNL     1     -17.211  -5.921 -22.199  1.00  0.00    -0.000 C 
BRANCH  20  21
ATOM     21  C   UNL     1     -17.630  -4.842 -23.205  1.00  0.00    -0.000 C 
BRANCH  21  22
ATOM     22  C   UNL     1     -17.438  -5.329 -24.650  1.00  0.00    -0.000 C 
BRANCH  22  23
ATOM     23  C   UNL     1     -17.018  -6.807 -24.732  1.00  0.00    -0.000 C 
BRANCH  23  24
ATOM     24  C   UNL     1     -16.123  -7.166 -25.937  1.00  0.00    -0.000 C 
BRANCH  24  25
ATOM     25  C   UNL     1     -16.442  -8.515 -26.606  1.00  0.00    -0.003 C 
ATOM     26  C   UNL     1     -17.553  -8.414 -27.650  1.00  0.00     0.004 C 
ENDBRANCH  24  25
ENDBRANCH  23  24
ENDBRANCH  22  23
ENDBRANCH  21  22
ENDBRANCH  20  21
ENDBRANCH  19  20
ENDBRANCH  18  19
ENDBRANCH  17  18
ENDBRANCH  16  17
ENDBRANCH  15  16
ENDBRANCH   1  15
TORSDOF 22
ENDMDL
