MODEL 1
REMARK VINA RESULT:    -3.482      0.000      0.000
REMARK INTER + INTRA:          -6.757
REMARK INTER:                  -5.518
REMARK INTRA:                  -1.239
REMARK UNBOUND:                -1.239
REMARK SMILES CCCCCCCCCCCC(=O)[O-]
REMARK SMILES IDX 7 1 8 2 9 3 10 4 11 5 12 6 13 7 14 8 6 9 5 10 4 11 3 12 2 13
REMARK SMILES IDX 1 14
REMARK H PARENT
REMARK Flexibility Score: inf
ROOT
ATOM      1  C   UNL     1      59.395  23.825  23.986  1.00  0.00     0.000 C 
ENDROOT
BRANCH   1   2
ATOM      2  C   UNL     1      59.059  22.674  24.950  1.00  0.00     0.000 C 
BRANCH   2   3
ATOM      3  C   UNL     1      58.965  21.316  24.235  1.00  0.00     0.000 C 
BRANCH   3   4
ATOM      4  C   UNL     1      58.198  21.400  22.903  1.00  0.00     0.006 C 
BRANCH   4   5
ATOM      5  C   UNL     1      56.753  20.899  23.035  1.00  0.00     0.053 C 
BRANCH   5   6
ATOM      6  C   UNL     1      55.767  22.023  22.958  1.00  0.00     0.041 C 
ATOM      7  O   UNL     1      56.013  23.035  22.251  1.00  0.00    -0.550 OA
ATOM      8  O   UNL     1      54.590  21.969  23.695  1.00  0.00    -0.550 OA
ENDBRANCH   5   6
ENDBRANCH   4   5
ENDBRANCH   3   4
ENDBRANCH   2   3
ENDBRANCH   1   2
BRANCH   1   9
ATOM      9  C   UNL     1      60.846  24.321  24.122  1.00  0.00     0.000 C 
BRANCH   9  10
ATOM     10  C   UNL     1      61.759  24.030  22.916  1.00  0.00    -0.000 C 
BRANCH  10  11
ATOM     11  C   UNL     1      62.307  22.592  22.910  1.00  0.00    -0.000 C 
BRANCH  11  12
ATOM     12  C   UNL     1      61.744  21.742  21.756  1.00  0.00    -0.000 C 
BRANCH  12  13
ATOM     13  C   UNL     1      61.163  22.544  20.578  1.00  0.00    -0.003 C 
ATOM     14  C   UNL     1      61.768  22.156  19.230  1.00  0.00     0.004 C 
ENDBRANCH  12  13
ENDBRANCH  11  12
ENDBRANCH  10  11
ENDBRANCH   9  10
ENDBRANCH   1   9
TORSDOF 10
ENDMDL
MODEL 2
REMARK VINA RESULT:    -3.362      3.265      4.503
REMARK INTER + INTRA:          -6.567
REMARK INTER:                  -5.059
REMARK INTRA:                  -1.508
REMARK UNBOUND:                -1.239
REMARK SMILES CCCCCCCCCCCC(=O)[O-]
REMARK SMILES IDX 7 1 8 2 9 3 10 4 11 5 12 6 13 7 14 8 6 9 5 10 4 11 3 12 2 13
REMARK SMILES IDX 1 14
REMARK H PARENT
REMARK Flexibility Score: inf
ROOT
ATOM      1  C   UNL     1      58.124  22.765  24.074  1.00  0.00     0.000 C 
ENDROOT
BRANCH   1   2
ATOM      2  C   UNL     1      58.476  22.301  22.650  1.00  0.00     0.000 C 
BRANCH   2   3
ATOM      3  C   UNL     1      59.232  20.963  22.637  1.00  0.00     0.000 C 
BRANCH   3   4
ATOM      4  C   UNL     1      60.438  20.973  21.681  1.00  0.00     0.006 C 
BRANCH   4   5
ATOM      5  C   UNL     1      60.486  22.246  20.824  1.00  0.00     0.053 C 
BRANCH   5   6
ATOM      6  C   UNL     1      61.778  22.365  20.076  1.00  0.00     0.041 C 
ATOM      7  O   UNL     1      62.861  22.511  20.701  1.00  0.00    -0.550 OA
ATOM      8  O   UNL     1      61.782  22.349  18.687  1.00  0.00    -0.550 OA
ENDBRANCH   5   6
ENDBRANCH   4   5
ENDBRANCH   3   4
ENDBRANCH   2   3
ENDBRANCH   1   2
BRANCH   1   9
ATOM      9  C   UNL     1      59.092  22.220  25.141  1.00  0.00     0.000 C 
BRANCH   9  10
ATOM     10  C   UNL     1      60.063  23.255  25.742  1.00  0.00    -0.000 C 
BRANCH  10  11
ATOM     11  C   UNL     1      61.532  22.978  25.382  1.00  0.00    -0.000 C 
BRANCH  11  12
ATOM     12  C   UNL     1      61.919  23.508  23.989  1.00  0.00    -0.000 C 
BRANCH  12  13
ATOM     13  C   UNL     1      61.214  24.811  23.568  1.00  0.00    -0.003 C 
ATOM     14  C   UNL     1      62.100  25.729  22.729  1.00  0.00     0.004 C 
ENDBRANCH  12  13
ENDBRANCH  11  12
ENDBRANCH  10  11
ENDBRANCH   9  10
ENDBRANCH   1   9
TORSDOF 10
ENDMDL
MODEL 3
REMARK VINA RESULT:    -3.350      3.068      5.999
REMARK INTER + INTRA:          -6.548
REMARK INTER:                  -5.588
REMARK INTRA:                  -0.961
REMARK UNBOUND:                -1.239
REMARK SMILES CCCCCCCCCCCC(=O)[O-]
REMARK SMILES IDX 7 1 8 2 9 3 10 4 11 5 12 6 13 7 14 8 6 9 5 10 4 11 3 12 2 13
REMARK SMILES IDX 1 14
REMARK H PARENT
REMARK Flexibility Score: inf
ROOT
ATOM      1  C   UNL     1      60.628  22.136  20.482  1.00  0.00     0.000 C 
ENDROOT
BRANCH   1   2
ATOM      2  C   UNL     1      61.794  22.012  19.485  1.00  0.00     0.000 C 
BRANCH   2   3
ATOM      3  C   UNL     1      63.076  21.476  20.143  1.00  0.00     0.000 C 
BRANCH   3   4
ATOM      4  C   UNL     1      63.933  22.591  20.767  1.00  0.00     0.006 C 
BRANCH   4   5
ATOM      5  C   UNL     1      63.949  22.518  22.300  1.00  0.00     0.053 C 
BRANCH   5   6
ATOM      6  C   UNL     1      62.934  23.436  22.910  1.00  0.00     0.041 C 
ATOM      7  O   UNL     1      62.410  23.153  24.020  1.00  0.00    -0.550 OA
ATOM      8  O   UNL     1      62.541  24.585  22.237  1.00  0.00    -0.550 OA
ENDBRANCH   5   6
ENDBRANCH   4   5
ENDBRANCH   3   4
ENDBRANCH   2   3
ENDBRANCH   1   2
BRANCH   1   9
ATOM      9  C   UNL     1      60.571  20.972  21.489  1.00  0.00     0.000 C 
BRANCH   9  10
ATOM     10  C   UNL     1      59.715  21.227  22.744  1.00  0.00    -0.000 C 
BRANCH  10  11
ATOM     11  C   UNL     1      58.879  22.515  22.650  1.00  0.00    -0.000 C 
BRANCH  11  12
ATOM     12  C   UNL     1      57.659  22.508  23.589  1.00  0.00    -0.000 C 
BRANCH  12  13
ATOM     13  C   UNL     1      56.600  21.436  23.274  1.00  0.00    -0.003 C 
ATOM     14  C   UNL     1      55.170  21.975  23.313  1.00  0.00     0.004 C 
ENDBRANCH  12  13
ENDBRANCH  11  12
ENDBRANCH  10  11
ENDBRANCH   9  10
ENDBRANCH   1   9
TORSDOF 10
ENDMDL
MODEL 4
REMARK VINA RESULT:    -3.326      2.845      5.649
REMARK INTER + INTRA:          -6.509
REMARK INTER:                  -5.546
REMARK INTRA:                  -0.963
REMARK UNBOUND:                -1.239
REMARK SMILES CCCCCCCCCCCC(=O)[O-]
REMARK SMILES IDX 7 1 8 2 9 3 10 4 11 5 12 6 13 7 14 8 6 9 5 10 4 11 3 12 2 13
REMARK SMILES IDX 1 14
REMARK H PARENT
REMARK Flexibility Score: inf
ROOT
ATOM      1  C   UNL     1      60.431  23.260  22.570  1.00  0.00     0.000 C 
ENDROOT
BRANCH   1   2
ATOM      2  C   UNL     1      61.959  23.183  22.727  1.00  0.00     0.000 C 
BRANCH   2   3
ATOM      3  C   UNL     1      62.471  21.736  22.814  1.00  0.00     0.000 C 
BRANCH   3   4
ATOM      4  C   UNL     1      62.207  20.936  21.526  1.00  0.00     0.006 C 
BRANCH   4   5
ATOM      5  C   UNL     1      63.128  21.370  20.377  1.00  0.00     0.053 C 
BRANCH   5   6
ATOM      6  C   UNL     1      62.360  21.996  19.254  1.00  0.00     0.041 C 
ATOM      7  O   UNL     1      61.100  21.992  19.269  1.00  0.00    -0.550 OA
ATOM      8  O   UNL     1      63.034  22.552  18.174  1.00  0.00    -0.550 OA
ENDBRANCH   5   6
ENDBRANCH   4   5
ENDBRANCH   3   4
ENDBRANCH   2   3
ENDBRANCH   1   2
BRANCH   1   9
ATOM      9  C   UNL     1      59.682  23.154  23.912  1.00  0.00     0.000 C 
BRANCH   9  10
ATOM     10  C   UNL     1      59.003  21.798  24.184  1.00  0.00    -0.000 C 
BRANCH  10  11
ATOM     11  C   UNL     1      58.540  21.090  22.899  1.00  0.00    -0.000 C 
BRANCH  11  12
ATOM     12  C   UNL     1      57.016  20.875  22.849  1.00  0.00    -0.000 C 
BRANCH  12  13
ATOM     13  C   UNL     1      56.177  22.165  22.806  1.00  0.00    -0.003 C 
ATOM     14  C   UNL     1      54.781  21.993  23.403  1.00  0.00     0.004 C 
ENDBRANCH  12  13
ENDBRANCH  11  12
ENDBRANCH  10  11
ENDBRANCH   9  10
ENDBRANCH   1   9
TORSDOF 10
ENDMDL
MODEL 5
REMARK VINA RESULT:    -3.306      1.083      2.111
REMARK INTER + INTRA:          -6.478
REMARK INTER:                  -5.309
REMARK INTRA:                  -1.170
REMARK UNBOUND:                -1.239
REMARK SMILES CCCCCCCCCCCC(=O)[O-]
REMARK SMILES IDX 7 1 8 2 9 3 10 4 11 5 12 6 13 7 14 8 6 9 5 10 4 11 3 12 2 13
REMARK SMILES IDX 1 14
REMARK H PARENT
REMARK Flexibility Score: inf
ROOT
ATOM      1  C   UNL     1      61.137  25.063  23.472  1.00  0.00     0.000 C 
ENDROOT
BRANCH   1   2
ATOM      2  C   UNL     1      60.719  24.242  24.704  1.00  0.00     0.000 C 
BRANCH   2   3
ATOM      3  C   UNL     1      59.196  24.223  24.911  1.00  0.00     0.000 C 
BRANCH   3   4
ATOM      4  C   UNL     1      58.686  22.871  25.440  1.00  0.00     0.006 C 
BRANCH   4   5
ATOM      5  C   UNL     1      58.841  21.749  24.404  1.00  0.00     0.053 C 
BRANCH   5   6
ATOM      6  C   UNL     1      57.643  21.649  23.511  1.00  0.00     0.041 C 
ATOM      7  O   UNL     1      57.703  20.990  22.440  1.00  0.00    -0.550 OA
ATOM      8  O   UNL     1      56.469  22.314  23.844  1.00  0.00    -0.550 OA
ENDBRANCH   5   6
ENDBRANCH   4   5
ENDBRANCH   3   4
ENDBRANCH   2   3
ENDBRANCH   1   2
BRANCH   1   9
ATOM      9  C   UNL     1      61.896  24.230  22.423  1.00  0.00     0.000 C 
BRANCH   9  10
ATOM     10  C   UNL     1      62.237  22.788  22.846  1.00  0.00    -0.000 C 
BRANCH  10  11
ATOM     11  C   UNL     1      61.554  21.727  21.966  1.00  0.00    -0.000 C 
BRANCH  11  12
ATOM     12  C   UNL     1      60.710  22.341  20.833  1.00  0.00    -0.000 C 
BRANCH  12  13
ATOM     13  C   UNL     1      61.181  21.996  19.409  1.00  0.00    -0.003 C 
ATOM     14  C   UNL     1      62.702  21.967  19.270  1.00  0.00     0.004 C 
ENDBRANCH  12  13
ENDBRANCH  11  12
ENDBRANCH  10  11
ENDBRANCH   9  10
ENDBRANCH   1   9
TORSDOF 10
ENDMDL
MODEL 6
REMARK VINA RESULT:    -3.169      2.774      5.695
REMARK INTER + INTRA:          -6.261
REMARK INTER:                  -5.141
REMARK INTRA:                  -1.120
REMARK UNBOUND:                -1.239
REMARK SMILES CCCCCCCCCCCC(=O)[O-]
REMARK SMILES IDX 7 1 8 2 9 3 10 4 11 5 12 6 13 7 14 8 6 9 5 10 4 11 3 12 2 13
REMARK SMILES IDX 1 14
REMARK H PARENT
REMARK Flexibility Score: inf
ROOT
ATOM      1  C   UNL     1      61.104  22.017  20.093  1.00  0.00     0.000 C 
ENDROOT
BRANCH   1   2
ATOM      2  C   UNL     1      62.577  21.580  20.190  1.00  0.00     0.000 C 
BRANCH   2   3
ATOM      3  C   UNL     1      63.200  21.908  21.557  1.00  0.00     0.000 C 
BRANCH   3   4
ATOM      4  C   UNL     1      63.170  23.413  21.876  1.00  0.00     0.006 C 
BRANCH   4   5
ATOM      5  C   UNL     1      62.601  23.697  23.273  1.00  0.00     0.053 C 
BRANCH   5   6
ATOM      6  C   UNL     1      62.071  25.093  23.384  1.00  0.00     0.041 C 
ATOM      7  O   UNL     1      60.830  25.297  23.443  1.00  0.00    -0.550 OA
ATOM      8  O   UNL     1      62.947  26.172  23.387  1.00  0.00    -0.550 OA
ENDBRANCH   5   6
ENDBRANCH   4   5
ENDBRANCH   3   4
ENDBRANCH   2   3
ENDBRANCH   1   2
BRANCH   1   9
ATOM      9  C   UNL     1      60.224  21.414  21.203  1.00  0.00     0.000 C 
BRANCH   9  10
ATOM     10  C   UNL     1      59.340  22.420  21.965  1.00  0.00    -0.000 C 
BRANCH  10  11
ATOM     11  C   UNL     1      58.701  21.821  23.229  1.00  0.00    -0.000 C 
BRANCH  11  12
ATOM     12  C   UNL     1      59.688  21.710  24.405  1.00  0.00    -0.000 C 
BRANCH  12  13
ATOM     13  C   UNL     1      59.313  22.533  25.651  1.00  0.00    -0.003 C 
ATOM     14  C   UNL     1      58.313  23.650  25.355  1.00  0.00     0.004 C 
ENDBRANCH  12  13
ENDBRANCH  11  12
ENDBRANCH  10  11
ENDBRANCH   9  10
ENDBRANCH   1   9
TORSDOF 10
ENDMDL
MODEL 7
REMARK VINA RESULT:    -3.113      3.369      6.202
REMARK INTER + INTRA:          -6.172
REMARK INTER:                  -5.512
REMARK INTRA:                  -0.660
REMARK UNBOUND:                -1.239
REMARK SMILES CCCCCCCCCCCC(=O)[O-]
REMARK SMILES IDX 7 1 8 2 9 3 10 4 11 5 12 6 13 7 14 8 6 9 5 10 4 11 3 12 2 13
REMARK SMILES IDX 1 14
REMARK H PARENT
REMARK Flexibility Score: inf
ROOT
ATOM      1  C   UNL     1      59.904  22.730  22.112  1.00  0.00     0.000 C 
ENDROOT
BRANCH   1   2
ATOM      2  C   UNL     1      60.039  21.378  21.391  1.00  0.00     0.000 C 
BRANCH   2   3
ATOM      3  C   UNL     1      61.482  21.087  20.950  1.00  0.00     0.000 C 
BRANCH   3   4
ATOM      4  C   UNL     1      62.177  22.320  20.344  1.00  0.00     0.006 C 
BRANCH   4   5
ATOM      5  C   UNL     1      63.609  22.492  20.869  1.00  0.00     0.053 C 
BRANCH   5   6
ATOM      6  C   UNL     1      63.642  23.278  22.143  1.00  0.00     0.041 C 
ATOM      7  O   UNL     1      63.869  24.517  22.118  1.00  0.00    -0.550 OA
ATOM      8  O   UNL     1      63.458  22.637  23.362  1.00  0.00    -0.550 OA
ENDBRANCH   5   6
ENDBRANCH   4   5
ENDBRANCH   3   4
ENDBRANCH   2   3
ENDBRANCH   1   2
BRANCH   1   9
ATOM      9  C   UNL     1      59.807  22.590  23.642  1.00  0.00     0.000 C 
BRANCH   9  10
ATOM     10  C   UNL     1      58.456  22.075  24.174  1.00  0.00    -0.000 C 
BRANCH  10  11
ATOM     11  C   UNL     1      57.257  22.579  23.354  1.00  0.00    -0.000 C 
BRANCH  11  12
ATOM     12  C   UNL     1      56.148  21.522  23.201  1.00  0.00    -0.000 C 
BRANCH  12  13
ATOM     13  C   UNL     1      54.724  22.022  23.505  1.00  0.00    -0.003 C 
ATOM     14  C   UNL     1      53.706  20.890  23.643  1.00  0.00     0.004 C 
ENDBRANCH  12  13
ENDBRANCH  11  12
ENDBRANCH  10  11
ENDBRANCH   9  10
ENDBRANCH   1   9
TORSDOF 10
ENDMDL
MODEL 8
REMARK VINA RESULT:    -2.989      3.433      4.986
REMARK INTER + INTRA:          -5.976
REMARK INTER:                  -4.749
REMARK INTRA:                  -1.226
REMARK UNBOUND:                -1.239
REMARK SMILES CCCCCCCCCCCC(=O)[O-]
REMARK SMILES IDX 7 1 8 2 9 3 10 4 11 5 12 6 13 7 14 8 6 9 5 10 4 11 3 12 2 13
REMARK SMILES IDX 1 14
REMARK H PARENT
REMARK Flexibility Score: inf
ROOT
ATOM      1  C   UNL     1      59.693  22.885  22.614  1.00  0.00     0.000 C 
ENDROOT
BRANCH   1   2
ATOM      2  C   UNL     1      60.113  22.959  24.093  1.00  0.00     0.000 C 
BRANCH   2   3
ATOM      3  C   UNL     1      61.507  22.360  24.340  1.00  0.00     0.000 C 
BRANCH   3   4
ATOM      4  C   UNL     1      62.561  23.430  24.678  1.00  0.00     0.006 C 
BRANCH   4   5
ATOM      5  C   UNL     1      61.942  24.829  24.807  1.00  0.00     0.053 C 
BRANCH   5   6
ATOM      6  C   UNL     1      62.476  25.770  23.770  1.00  0.00     0.041 C 
ATOM      7  O   UNL     1      61.884  25.898  22.666  1.00  0.00    -0.550 OA
ATOM      8  O   UNL     1      63.646  26.478  24.010  1.00  0.00    -0.550 OA
ENDBRANCH   5   6
ENDBRANCH   4   5
ENDBRANCH   3   4
ENDBRANCH   2   3
ENDBRANCH   1   2
BRANCH   1   9
ATOM      9  C   UNL     1      60.442  21.791  21.830  1.00  0.00     0.000 C 
BRANCH   9  10
ATOM     10  C   UNL     1      60.465  21.974  20.301  1.00  0.00    -0.000 C 
BRANCH  10  11
ATOM     11  C   UNL     1      61.872  22.266  19.752  1.00  0.00    -0.000 C 
BRANCH  11  12
ATOM     12  C   UNL     1      62.912  21.214  20.180  1.00  0.00    -0.000 C 
BRANCH  12  13
ATOM     13  C   UNL     1      64.125  21.770  20.948  1.00  0.00    -0.003 C 
ATOM     14  C   UNL     1      63.979  23.246  21.313  1.00  0.00     0.004 C 
ENDBRANCH  12  13
ENDBRANCH  11  12
ENDBRANCH  10  11
ENDBRANCH   9  10
ENDBRANCH   1   9
TORSDOF 10
ENDMDL
MODEL 9
REMARK VINA RESULT:    -2.876      2.299      5.191
REMARK INTER + INTRA:          -5.796
REMARK INTER:                  -5.136
REMARK INTRA:                  -0.660
REMARK UNBOUND:                -1.239
REMARK SMILES CCCCCCCCCCCC(=O)[O-]
REMARK SMILES IDX 7 1 8 2 9 3 10 4 11 5 12 6 13 7 14 8 6 9 5 10 4 11 3 12 2 13
REMARK SMILES IDX 1 14
REMARK H PARENT
REMARK Flexibility Score: inf
ROOT
ATOM      1  C   UNL     1      60.442  24.193  23.821  1.00  0.00     0.000 C 
ENDROOT
BRANCH   1   2
ATOM      2  C   UNL     1      61.954  23.910  23.781  1.00  0.00     0.000 C 
BRANCH   2   3
ATOM      3  C   UNL     1      62.626  24.472  22.518  1.00  0.00     0.000 C 
BRANCH   3   4
ATOM      4  C   UNL     1      63.348  23.387  21.698  1.00  0.00     0.006 C 
BRANCH   4   5
ATOM      5  C   UNL     1      62.510  22.107  21.570  1.00  0.00     0.053 C 
BRANCH   5   6
ATOM      6  C   UNL     1      61.465  22.232  20.504  1.00  0.00     0.041 C 
ATOM      7  O   UNL     1      61.796  22.235  19.289  1.00  0.00    -0.550 OA
ATOM      8  O   UNL     1      60.129  22.380  20.854  1.00  0.00    -0.550 OA
ENDBRANCH   5   6
ENDBRANCH   4   5
ENDBRANCH   3   4
ENDBRANCH   2   3
ENDBRANCH   1   2
BRANCH   1   9
ATOM      9  C   UNL     1      59.850  24.106  25.239  1.00  0.00     0.000 C 
BRANCH   9  10
ATOM     10  C   UNL     1      58.809  22.991  25.453  1.00  0.00    -0.000 C 
BRANCH  10  11
ATOM     11  C   UNL     1      57.752  22.935  24.337  1.00  0.00    -0.000 C 
BRANCH  11  12
ATOM     12  C   UNL     1      57.785  21.614  23.546  1.00  0.00    -0.000 C 
BRANCH  12  13
ATOM     13  C   UNL     1      56.411  21.097  23.083  1.00  0.00    -0.003 C 
ATOM     14  C   UNL     1      55.291  22.121  23.262  1.00  0.00     0.004 C 
ENDBRANCH  12  13
ENDBRANCH  11  12
ENDBRANCH  10  11
ENDBRANCH   9  10
ENDBRANCH   1   9
TORSDOF 10
ENDMDL
