MODEL 1
REMARK VINA RESULT:    -5.361      0.000      0.000
REMARK INTER + INTRA:          -9.427
REMARK INTER:                  -7.398
REMARK INTRA:                  -2.029
REMARK UNBOUND:                -2.029
REMARK SMILES CC[C@@H](CC[C@@H](C)[C@@H]1CC[C@H]2[C@H]3CC=C4C[C@@H](O)CC[C@]4(C)[C@@H]3CC[C@]21C)C(C)C
REMARK SMILES IDX 5 1 4 2 3 3 2 4 1 5 28 6 29 7 30 8 6 9 7 10 8 11 9 12 26 13
REMARK SMILES IDX 10 14 11 15 25 16 27 17 12 18 24 19 23 20 13 21 21 22 14 23
REMARK SMILES IDX 15 24 20 25 22 26 16 27 19 28 17 29 18 30
REMARK H PARENT 18 31
REMARK Flexibility Score: inf
ROOT
ATOM      1  C   UNL     1      -5.639  29.970  47.097  1.00  0.00     0.004 C 
ENDROOT
BRANCH   1   2
ATOM      2  C   UNL     1      -4.645  30.438  46.008  1.00  0.00     0.004 C 
BRANCH   2   3
ATOM      3  C   UNL     1      -4.304  31.955  46.088  1.00  0.00    -0.009 C 
BRANCH   3   4
ATOM      4  C   UNL     1      -4.808  32.577  47.419  1.00  0.00     0.000 C 
ATOM      5  C   UNL     1      -3.882  33.628  48.041  1.00  0.00     0.004 C 
ENDBRANCH   3   4
BRANCH   3   6
ATOM      6  C   UNL     1      -4.698  32.815  44.834  1.00  0.00    -0.014 C 
ATOM      7  C   UNL     1      -6.064  33.515  44.945  1.00  0.00     0.007 C 
ATOM      8  C   UNL     1      -4.643  32.002  43.529  1.00  0.00     0.007 C 
ENDBRANCH   3   6
ENDBRANCH   2   3
ENDBRANCH   1   2
BRANCH   1   9
ATOM      9  C   UNL     1      -7.081  29.759  46.559  1.00  0.00    -0.011 C 
ATOM     10  C   UNL     1      -7.965  30.989  46.873  1.00  0.00     0.008 C 
BRANCH   9  11
ATOM     11  C   UNL     1      -7.042  29.352  45.038  1.00  0.00    -0.002 C 
ATOM     12  C   UNL     1      -7.857  30.305  44.141  1.00  0.00     0.005 C 
ATOM     13  C   UNL     1      -7.530  27.919  44.642  1.00  0.00    -0.026 C 
ATOM     14  C   UNL     1      -9.106  29.542  43.684  1.00  0.00     0.005 C 
ATOM     15  C   UNL     1      -9.020  28.132  44.296  1.00  0.00    -0.001 C 
ATOM     16  C   UNL     1      -6.732  27.466  43.372  1.00  0.00     0.007 C 
ATOM     17  C   UNL     1      -7.335  26.865  45.761  1.00  0.00     0.012 C 
ATOM     18  C   UNL     1      -9.646  26.984  43.451  1.00  0.00     0.000 C 
ATOM     19  C   UNL     1      -7.366  26.289  42.618  1.00  0.00     0.005 C 
ATOM     20  C   UNL     1      -8.822  26.605  42.200  1.00  0.00     0.003 C 
ATOM     21  C   UNL     1     -11.079  27.310  43.016  1.00  0.00     0.031 C 
ATOM     22  C   UNL     1      -9.539  25.496  41.282  1.00  0.00    -0.008 C 
ATOM     23  C   UNL     1     -11.701  26.072  42.460  1.00  0.00    -0.027 C 
ATOM     24  C   UNL     1     -10.989  25.198  41.721  1.00  0.00    -0.065 C 
ATOM     25  C   UNL     1      -8.778  24.140  41.290  1.00  0.00     0.014 C 
ATOM     26  C   UNL     1      -9.581  26.057  39.837  1.00  0.00     0.016 C 
ATOM     27  C   UNL     1     -11.594  23.814  41.547  1.00  0.00     0.063 C 
ATOM     28  C   UNL     1      -9.404  23.038  40.411  1.00  0.00     0.033 C 
ATOM     29  C   UNL     1     -10.946  22.974  40.435  1.00  0.00     0.118 C 
BRANCH  29  30
ATOM     30  O   UNL     1     -11.455  23.369  39.183  1.00  0.00    -0.393 OA
ATOM     31  H   UNL     1     -11.882  24.255  39.314  1.00  0.00     0.210 HD
ENDBRANCH  29  30
ENDBRANCH   9  11
ENDBRANCH   1   9
TORSDOF 7
ENDMDL
MODEL 2
REMARK VINA RESULT:    -5.333      2.033      3.307
REMARK INTER + INTRA:          -9.389
REMARK INTER:                  -7.879
REMARK INTRA:                  -1.510
REMARK UNBOUND:                -2.029
REMARK SMILES CC[C@@H](CC[C@@H](C)[C@@H]1CC[C@H]2[C@H]3CC=C4C[C@@H](O)CC[C@]4(C)[C@@H]3CC[C@]21C)C(C)C
REMARK SMILES IDX 5 1 4 2 3 3 2 4 1 5 28 6 29 7 30 8 6 9 7 10 8 11 9 12 26 13
REMARK SMILES IDX 10 14 11 15 25 16 27 17 12 18 24 19 23 20 13 21 21 22 14 23
REMARK SMILES IDX 15 24 20 25 22 26 16 27 19 28 17 29 18 30
REMARK H PARENT 18 31
REMARK Flexibility Score: inf
ROOT
ATOM      1  C   UNL     1      -5.573  30.487  46.880  1.00  0.00     0.004 C 
ENDROOT
BRANCH   1   2
ATOM      2  C   UNL     1      -6.199  31.637  47.701  1.00  0.00     0.004 C 
BRANCH   2   3
ATOM      3  C   UNL     1      -5.493  33.009  47.490  1.00  0.00    -0.009 C 
BRANCH   3   4
ATOM      4  C   UNL     1      -4.928  33.564  48.827  1.00  0.00     0.000 C 
ATOM      5  C   UNL     1      -5.963  33.780  49.935  1.00  0.00     0.004 C 
ENDBRANCH   3   4
BRANCH   3   6
ATOM      6  C   UNL     1      -6.307  34.085  46.687  1.00  0.00    -0.014 C 
ATOM      7  C   UNL     1      -7.761  33.686  46.379  1.00  0.00     0.007 C 
ATOM      8  C   UNL     1      -5.600  34.496  45.383  1.00  0.00     0.007 C 
ENDBRANCH   3   6
ENDBRANCH   2   3
ENDBRANCH   1   2
BRANCH   1   9
ATOM      9  C   UNL     1      -5.834  30.612  45.353  1.00  0.00    -0.011 C 
ATOM     10  C   UNL     1      -4.543  31.030  44.612  1.00  0.00     0.008 C 
BRANCH   9  11
ATOM     11  C   UNL     1      -6.508  29.298  44.806  1.00  0.00    -0.002 C 
ATOM     12  C   UNL     1      -5.906  28.829  43.466  1.00  0.00     0.005 C 
ATOM     13  C   UNL     1      -8.054  29.302  44.567  1.00  0.00    -0.026 C 
ATOM     14  C   UNL     1      -6.956  29.091  42.380  1.00  0.00     0.005 C 
ATOM     15  C   UNL     1      -8.185  29.698  43.081  1.00  0.00    -0.001 C 
ATOM     16  C   UNL     1      -8.586  27.846  44.796  1.00  0.00     0.007 C 
ATOM     17  C   UNL     1      -8.824  30.270  45.500  1.00  0.00     0.012 C 
ATOM     18  C   UNL     1      -9.567  29.353  42.451  1.00  0.00     0.000 C 
ATOM     19  C   UNL     1      -9.980  27.587  44.207  1.00  0.00     0.005 C 
ATOM     20  C   UNL     1     -10.019  27.896  42.691  1.00  0.00     0.003 C 
ATOM     21  C   UNL     1      -9.595  29.635  40.945  1.00  0.00     0.031 C 
ATOM     22  C   UNL     1     -11.393  27.528  41.941  1.00  0.00    -0.008 C 
ATOM     23  C   UNL     1     -11.008  29.548  40.471  1.00  0.00    -0.027 C 
ATOM     24  C   UNL     1     -11.862  28.631  40.968  1.00  0.00    -0.065 C 
ATOM     25  C   UNL     1     -12.561  27.278  42.936  1.00  0.00     0.014 C 
ATOM     26  C   UNL     1     -11.133  26.240  41.116  1.00  0.00     0.016 C 
ATOM     27  C   UNL     1     -13.340  28.881  40.717  1.00  0.00     0.063 C 
ATOM     28  C   UNL     1     -13.905  26.900  42.280  1.00  0.00     0.033 C 
ATOM     29  C   UNL     1     -14.243  27.666  40.984  1.00  0.00     0.118 C 
BRANCH  29  30
ATOM     30  O   UNL     1     -14.191  26.786  39.886  1.00  0.00    -0.393 OA
ATOM     31  H   UNL     1     -14.397  25.881  40.235  1.00  0.00     0.210 HD
ENDBRANCH  29  30
ENDBRANCH   9  11
ENDBRANCH   1   9
TORSDOF 7
ENDMDL
MODEL 3
REMARK VINA RESULT:    -5.286      2.073      4.376
REMARK INTER + INTRA:          -9.324
REMARK INTER:                  -7.191
REMARK INTRA:                  -2.132
REMARK UNBOUND:                -2.029
REMARK SMILES CC[C@@H](CC[C@@H](C)[C@@H]1CC[C@H]2[C@H]3CC=C4C[C@@H](O)CC[C@]4(C)[C@@H]3CC[C@]21C)C(C)C
REMARK SMILES IDX 5 1 4 2 3 3 2 4 1 5 28 6 29 7 30 8 6 9 7 10 8 11 9 12 26 13
REMARK SMILES IDX 10 14 11 15 25 16 27 17 12 18 24 19 23 20 13 21 21 22 14 23
REMARK SMILES IDX 15 24 20 25 22 26 16 27 19 28 17 29 18 30
REMARK H PARENT 18 31
REMARK Flexibility Score: inf
ROOT
ATOM      1  C   UNL     1      -4.790  28.837  43.820  1.00  0.00     0.004 C 
ENDROOT
BRANCH   1   2
ATOM      2  C   UNL     1      -4.603  27.980  45.093  1.00  0.00     0.004 C 
BRANCH   2   3
ATOM      3  C   UNL     1      -5.561  28.375  46.255  1.00  0.00    -0.009 C 
BRANCH   3   4
ATOM      4  C   UNL     1      -6.615  27.264  46.520  1.00  0.00     0.000 C 
ATOM      5  C   UNL     1      -6.093  25.828  46.404  1.00  0.00     0.004 C 
ENDBRANCH   3   4
BRANCH   3   6
ATOM      6  C   UNL     1      -6.205  29.805  46.160  1.00  0.00    -0.014 C 
ATOM      7  C   UNL     1      -5.734  30.788  47.247  1.00  0.00     0.007 C 
ATOM      8  C   UNL     1      -7.742  29.752  46.147  1.00  0.00     0.007 C 
ENDBRANCH   3   6
ENDBRANCH   2   3
ENDBRANCH   1   2
BRANCH   1   9
ATOM      9  C   UNL     1      -5.412  28.046  42.636  1.00  0.00    -0.011 C 
ATOM     10  C   UNL     1      -4.332  27.203  41.918  1.00  0.00     0.008 C 
BRANCH   9  11
ATOM     11  C   UNL     1      -6.664  27.227  43.125  1.00  0.00    -0.002 C 
ATOM     12  C   UNL     1      -6.593  25.736  42.741  1.00  0.00     0.005 C 
ATOM     13  C   UNL     1      -8.083  27.691  42.655  1.00  0.00    -0.026 C 
ATOM     14  C   UNL     1      -7.634  25.500  41.638  1.00  0.00     0.005 C 
ATOM     15  C   UNL     1      -8.332  26.848  41.385  1.00  0.00    -0.001 C 
ATOM     16  C   UNL     1      -9.114  27.315  43.773  1.00  0.00     0.007 C 
ATOM     17  C   UNL     1      -8.177  29.211  42.375  1.00  0.00     0.012 C 
ATOM     18  C   UNL     1      -9.827  26.771  40.958  1.00  0.00     0.000 C 
ATOM     19  C   UNL     1     -10.576  27.318  43.306  1.00  0.00     0.005 C 
ATOM     20  C   UNL     1     -10.786  26.370  42.101  1.00  0.00     0.003 C 
ATOM     21  C   UNL     1     -10.036  25.811  39.782  1.00  0.00     0.031 C 
ATOM     22  C   UNL     1     -12.309  26.187  41.616  1.00  0.00    -0.008 C 
ATOM     23  C   UNL     1     -11.421  25.997  39.256  1.00  0.00    -0.027 C 
ATOM     24  C   UNL     1     -12.460  26.237  40.080  1.00  0.00    -0.065 C 
ATOM     25  C   UNL     1     -13.250  27.278  42.199  1.00  0.00     0.014 C 
ATOM     26  C   UNL     1     -12.777  24.789  42.098  1.00  0.00     0.016 C 
ATOM     27  C   UNL     1     -13.718  26.794  39.433  1.00  0.00     0.063 C 
ATOM     28  C   UNL     1     -14.730  27.148  41.787  1.00  0.00     0.033 C 
ATOM     29  C   UNL     1     -14.971  26.727  40.322  1.00  0.00     0.118 C 
BRANCH  29  30
ATOM     30  O   UNL     1     -15.510  25.427  40.285  1.00  0.00    -0.393 OA
ATOM     31  H   UNL     1     -16.359  25.454  40.797  1.00  0.00     0.210 HD
ENDBRANCH  29  30
ENDBRANCH   9  11
ENDBRANCH   1   9
TORSDOF 7
ENDMDL
MODEL 4
REMARK VINA RESULT:    -5.233      1.757      3.587
REMARK INTER + INTRA:          -9.251
REMARK INTER:                  -7.461
REMARK INTRA:                  -1.789
REMARK UNBOUND:                -2.029
REMARK SMILES CC[C@@H](CC[C@@H](C)[C@@H]1CC[C@H]2[C@H]3CC=C4C[C@@H](O)CC[C@]4(C)[C@@H]3CC[C@]21C)C(C)C
REMARK SMILES IDX 5 1 4 2 3 3 2 4 1 5 28 6 29 7 30 8 6 9 7 10 8 11 9 12 26 13
REMARK SMILES IDX 10 14 11 15 25 16 27 17 12 18 24 19 23 20 13 21 21 22 14 23
REMARK SMILES IDX 15 24 20 25 22 26 16 27 19 28 17 29 18 30
REMARK H PARENT 18 31
REMARK Flexibility Score: inf
ROOT
ATOM      1  C   UNL     1      -4.609  28.957  45.021  1.00  0.00     0.004 C 
ENDROOT
BRANCH   1   2
ATOM      2  C   UNL     1      -5.478  29.151  46.285  1.00  0.00     0.004 C 
BRANCH   2   3
ATOM      3  C   UNL     1      -5.420  30.595  46.864  1.00  0.00    -0.009 C 
BRANCH   3   4
ATOM      4  C   UNL     1      -6.812  31.053  47.378  1.00  0.00     0.000 C 
ATOM      5  C   UNL     1      -8.007  30.298  46.789  1.00  0.00     0.004 C 
ENDBRANCH   3   4
BRANCH   3   6
ATOM      6  C   UNL     1      -4.727  31.673  45.956  1.00  0.00    -0.014 C 
ATOM      7  C   UNL     1      -3.875  32.700  46.723  1.00  0.00     0.007 C 
ATOM      8  C   UNL     1      -5.735  32.411  45.057  1.00  0.00     0.007 C 
ENDBRANCH   3   6
ENDBRANCH   2   3
ENDBRANCH   1   2
BRANCH   1   9
ATOM      9  C   UNL     1      -5.445  28.708  43.736  1.00  0.00    -0.011 C 
ATOM     10  C   UNL     1      -4.540  28.212  42.585  1.00  0.00     0.008 C 
BRANCH   9  11
ATOM     11  C   UNL     1      -6.671  27.772  44.055  1.00  0.00    -0.002 C 
ATOM     12  C   UNL     1      -6.438  26.311  43.622  1.00  0.00     0.005 C 
ATOM     13  C   UNL     1      -8.066  28.147  43.454  1.00  0.00    -0.026 C 
ATOM     14  C   UNL     1      -7.335  26.049  42.406  1.00  0.00     0.005 C 
ATOM     15  C   UNL     1      -8.112  27.349  42.133  1.00  0.00    -0.001 C 
ATOM     16  C   UNL     1      -9.173  27.639  44.440  1.00  0.00     0.007 C 
ATOM     17  C   UNL     1      -8.255  29.667  43.226  1.00  0.00     0.012 C 
ATOM     18  C   UNL     1      -9.543  27.177  41.545  1.00  0.00     0.000 C 
ATOM     19  C   UNL     1     -10.574  27.551  43.819  1.00  0.00     0.005 C 
ATOM     20  C   UNL     1     -10.579  26.648  42.562  1.00  0.00     0.003 C 
ATOM     21  C   UNL     1      -9.550  26.261  40.316  1.00  0.00     0.031 C 
ATOM     22  C   UNL     1     -12.023  26.371  41.909  1.00  0.00    -0.008 C 
ATOM     23  C   UNL     1     -10.883  26.364  39.653  1.00  0.00    -0.027 C 
ATOM     24  C   UNL     1     -12.018  26.484  40.370  1.00  0.00    -0.065 C 
ATOM     25  C   UNL     1     -13.106  27.358  42.430  1.00  0.00     0.014 C 
ATOM     26  C   UNL     1     -12.423  24.920  42.284  1.00  0.00     0.016 C 
ATOM     27  C   UNL     1     -13.244  26.971  39.614  1.00  0.00     0.063 C 
ATOM     28  C   UNL     1     -14.520  27.133  41.857  1.00  0.00     0.033 C 
ATOM     29  C   UNL     1     -14.572  26.765  40.360  1.00  0.00     0.118 C 
BRANCH  29  30
ATOM     30  O   UNL     1     -14.996  25.430  40.214  1.00  0.00    -0.393 OA
ATOM     31  H   UNL     1     -15.258  25.113  41.116  1.00  0.00     0.210 HD
ENDBRANCH  29  30
ENDBRANCH   9  11
ENDBRANCH   1   9
TORSDOF 7
ENDMDL
MODEL 5
REMARK VINA RESULT:    -5.201      3.159      8.607
REMARK INTER + INTRA:          -9.206
REMARK INTER:                  -7.013
REMARK INTRA:                  -2.193
REMARK UNBOUND:                -2.029
REMARK SMILES CC[C@@H](CC[C@@H](C)[C@@H]1CC[C@H]2[C@H]3CC=C4C[C@@H](O)CC[C@]4(C)[C@@H]3CC[C@]21C)C(C)C
REMARK SMILES IDX 5 1 4 2 3 3 2 4 1 5 28 6 29 7 30 8 6 9 7 10 8 11 9 12 26 13
REMARK SMILES IDX 10 14 11 15 25 16 27 17 12 18 24 19 23 20 13 21 21 22 14 23
REMARK SMILES IDX 15 24 20 25 22 26 16 27 19 28 17 29 18 30
REMARK H PARENT 18 31
REMARK Flexibility Score: inf
ROOT
ATOM      1  C   UNL     1     -11.606  25.181  40.300  1.00  0.00     0.004 C 
ENDROOT
BRANCH   1   2
ATOM      2  C   UNL     1     -11.734  26.534  39.564  1.00  0.00     0.004 C 
BRANCH   2   3
ATOM      3  C   UNL     1     -13.035  27.313  39.917  1.00  0.00    -0.009 C 
BRANCH   3   4
ATOM      4  C   UNL     1     -12.713  28.729  40.469  1.00  0.00     0.000 C 
ATOM      5  C   UNL     1     -11.989  29.661  39.494  1.00  0.00     0.004 C 
ENDBRANCH   3   4
BRANCH   3   6
ATOM      6  C   UNL     1     -14.078  26.543  40.803  1.00  0.00    -0.014 C 
ATOM      7  C   UNL     1     -15.369  26.144  40.067  1.00  0.00     0.007 C 
ATOM      8  C   UNL     1     -14.437  27.316  42.085  1.00  0.00     0.007 C 
ENDBRANCH   3   6
ENDBRANCH   2   3
ENDBRANCH   1   2
BRANCH   1   9
ATOM      9  C   UNL     1     -10.501  25.180  41.393  1.00  0.00    -0.011 C 
ATOM     10  C   UNL     1      -9.655  23.888  41.313  1.00  0.00     0.008 C 
BRANCH   9  11
ATOM     11  C   UNL     1      -9.667  26.515  41.325  1.00  0.00    -0.002 C 
ATOM     12  C   UNL     1      -8.180  26.276  40.999  1.00  0.00     0.005 C 
ATOM     13  C   UNL     1      -9.653  27.445  42.584  1.00  0.00    -0.026 C 
ATOM     14  C   UNL     1      -7.382  26.559  42.278  1.00  0.00     0.005 C 
ATOM     15  C   UNL     1      -8.397  26.983  43.355  1.00  0.00    -0.001 C 
ATOM     16  C   UNL     1      -9.485  28.923  42.096  1.00  0.00     0.007 C 
ATOM     17  C   UNL     1     -10.936  27.343  43.446  1.00  0.00     0.012 C 
ATOM     18  C   UNL     1      -7.884  28.011  44.406  1.00  0.00     0.000 C 
ATOM     19  C   UNL     1      -9.038  29.900  43.193  1.00  0.00     0.005 C 
ATOM     20  C   UNL     1      -7.715  29.444  43.852  1.00  0.00     0.003 C 
ATOM     21  C   UNL     1      -6.559  27.570  45.038  1.00  0.00     0.031 C 
ATOM     22  C   UNL     1      -7.080  30.465  44.920  1.00  0.00    -0.008 C 
ATOM     23  C   UNL     1      -6.278  28.446  46.213  1.00  0.00    -0.027 C 
ATOM     24  C   UNL     1      -6.573  29.761  46.197  1.00  0.00    -0.065 C 
ATOM     25  C   UNL     1      -8.096  31.550  45.375  1.00  0.00     0.014 C 
ATOM     26  C   UNL     1      -5.868  31.147  44.235  1.00  0.00     0.016 C 
ATOM     27  C   UNL     1      -6.615  30.458  47.547  1.00  0.00     0.063 C 
ATOM     28  C   UNL     1      -7.543  32.575  46.386  1.00  0.00     0.033 C 
ATOM     29  C   UNL     1      -6.609  31.994  47.468  1.00  0.00     0.118 C 
BRANCH  29  30
ATOM     30  O   UNL     1      -5.295  32.452  47.257  1.00  0.00    -0.393 OA
ATOM     31  H   UNL     1      -4.758  31.666  46.978  1.00  0.00     0.210 HD
ENDBRANCH  29  30
ENDBRANCH   9  11
ENDBRANCH   1   9
TORSDOF 7
ENDMDL
MODEL 6
REMARK VINA RESULT:    -5.161      2.874      8.739
REMARK INTER + INTRA:          -9.150
REMARK INTER:                  -7.060
REMARK INTRA:                  -2.091
REMARK UNBOUND:                -2.029
REMARK SMILES CC[C@@H](CC[C@@H](C)[C@@H]1CC[C@H]2[C@H]3CC=C4C[C@@H](O)CC[C@]4(C)[C@@H]3CC[C@]21C)C(C)C
REMARK SMILES IDX 5 1 4 2 3 3 2 4 1 5 28 6 29 7 30 8 6 9 7 10 8 11 9 12 26 13
REMARK SMILES IDX 10 14 11 15 25 16 27 17 12 18 24 19 23 20 13 21 21 22 14 23
REMARK SMILES IDX 15 24 20 25 22 26 16 27 19 28 17 29 18 30
REMARK H PARENT 18 31
REMARK Flexibility Score: inf
ROOT
ATOM      1  C   UNL     1     -12.740  26.353  39.327  1.00  0.00     0.004 C 
ENDROOT
BRANCH   1   2
ATOM      2  C   UNL     1     -11.841  25.114  39.113  1.00  0.00     0.004 C 
BRANCH   2   3
ATOM      3  C   UNL     1     -12.467  23.791  39.645  1.00  0.00    -0.009 C 
BRANCH   3   4
ATOM      4  C   UNL     1     -13.813  24.057  40.374  1.00  0.00     0.000 C 
ATOM      5  C   UNL     1     -15.043  23.409  39.731  1.00  0.00     0.004 C 
ENDBRANCH   3   4
BRANCH   3   6
ATOM      6  C   UNL     1     -11.509  22.859  40.470  1.00  0.00    -0.014 C 
ATOM      7  C   UNL     1     -11.763  22.869  41.987  1.00  0.00     0.007 C 
ATOM      8  C   UNL     1     -10.025  23.160  40.195  1.00  0.00     0.007 C 
ENDBRANCH   3   6
ENDBRANCH   2   3
ENDBRANCH   1   2
BRANCH   1   9
ATOM      9  C   UNL     1     -12.166  27.354  40.368  1.00  0.00    -0.011 C 
ATOM     10  C   UNL     1     -13.307  28.139  41.055  1.00  0.00     0.008 C 
BRANCH   9  11
ATOM     11  C   UNL     1     -11.192  26.611  41.358  1.00  0.00    -0.002 C 
ATOM     12  C   UNL     1     -11.821  26.364  42.744  1.00  0.00     0.005 C 
ATOM     13  C   UNL     1      -9.804  27.266  41.663  1.00  0.00    -0.026 C 
ATOM     14  C   UNL     1     -11.125  27.308  43.733  1.00  0.00     0.005 C 
ATOM     15  C   UNL     1     -10.073  28.099  42.935  1.00  0.00    -0.001 C 
ATOM     16  C   UNL     1      -8.780  26.120  41.964  1.00  0.00     0.007 C 
ATOM     17  C   UNL     1      -9.260  28.134  40.501  1.00  0.00     0.012 C 
ATOM     18  C   UNL     1      -8.787  28.499  43.715  1.00  0.00     0.000 C 
ATOM     19  C   UNL     1      -7.505  26.589  42.677  1.00  0.00     0.005 C 
ATOM     20  C   UNL     1      -7.834  27.318  44.002  1.00  0.00     0.003 C 
ATOM     21  C   UNL     1      -9.116  29.198  45.039  1.00  0.00     0.031 C 
ATOM     22  C   UNL     1      -6.567  27.731  44.903  1.00  0.00    -0.008 C 
ATOM     23  C   UNL     1      -7.861  29.792  45.588  1.00  0.00    -0.027 C 
ATOM     24  C   UNL     1      -6.675  29.161  45.473  1.00  0.00    -0.065 C 
ATOM     25  C   UNL     1      -5.231  27.660  44.112  1.00  0.00     0.014 C 
ATOM     26  C   UNL     1      -6.514  26.741  46.096  1.00  0.00     0.016 C 
ATOM     27  C   UNL     1      -5.436  30.011  45.703  1.00  0.00     0.063 C 
ATOM     28  C   UNL     1      -3.973  28.025  44.926  1.00  0.00     0.033 C 
ATOM     29  C   UNL     1      -4.143  29.204  45.906  1.00  0.00     0.118 C 
BRANCH  29  30
ATOM     30  O   UNL     1      -4.082  28.732  47.231  1.00  0.00    -0.393 OA
ATOM     31  H   UNL     1      -5.004  28.773  47.592  1.00  0.00     0.210 HD
ENDBRANCH  29  30
ENDBRANCH   9  11
ENDBRANCH   1   9
TORSDOF 7
ENDMDL
MODEL 7
REMARK VINA RESULT:    -5.114      2.061      3.724
REMARK INTER + INTRA:          -9.086
REMARK INTER:                  -6.952
REMARK INTRA:                  -2.134
REMARK UNBOUND:                -2.029
REMARK SMILES CC[C@@H](CC[C@@H](C)[C@@H]1CC[C@H]2[C@H]3CC=C4C[C@@H](O)CC[C@]4(C)[C@@H]3CC[C@]21C)C(C)C
REMARK SMILES IDX 5 1 4 2 3 3 2 4 1 5 28 6 29 7 30 8 6 9 7 10 8 11 9 12 26 13
REMARK SMILES IDX 10 14 11 15 25 16 27 17 12 18 24 19 23 20 13 21 21 22 14 23
REMARK SMILES IDX 15 24 20 25 22 26 16 27 19 28 17 29 18 30
REMARK H PARENT 18 31
REMARK Flexibility Score: inf
ROOT
ATOM      1  C   UNL     1      -4.516  32.176  44.508  1.00  0.00     0.004 C 
ENDROOT
BRANCH   1   2
ATOM      2  C   UNL     1      -4.411  30.922  45.405  1.00  0.00     0.004 C 
BRANCH   2   3
ATOM      3  C   UNL     1      -4.922  31.151  46.858  1.00  0.00    -0.009 C 
BRANCH   3   4
ATOM      4  C   UNL     1      -6.007  30.110  47.246  1.00  0.00     0.000 C 
ATOM      5  C   UNL     1      -5.775  28.694  46.710  1.00  0.00     0.004 C 
ENDBRANCH   3   4
BRANCH   3   6
ATOM      6  C   UNL     1      -5.342  32.622  47.215  1.00  0.00    -0.014 C 
ATOM      7  C   UNL     1      -4.510  33.268  48.337  1.00  0.00     0.007 C 
ATOM      8  C   UNL     1      -6.839  32.732  47.556  1.00  0.00     0.007 C 
ENDBRANCH   3   6
ENDBRANCH   2   3
ENDBRANCH   1   2
BRANCH   1   9
ATOM      9  C   UNL     1      -5.842  32.242  43.701  1.00  0.00    -0.011 C 
ATOM     10  C   UNL     1      -5.727  33.265  42.547  1.00  0.00     0.008 C 
BRANCH   9  11
ATOM     11  C   UNL     1      -6.281  30.797  43.254  1.00  0.00    -0.002 C 
ATOM     12  C   UNL     1      -6.021  30.527  41.759  1.00  0.00     0.005 C 
ATOM     13  C   UNL     1      -7.770  30.371  43.481  1.00  0.00    -0.026 C 
ATOM     14  C   UNL     1      -7.384  30.495  41.058  1.00  0.00     0.005 C 
ATOM     15  C   UNL     1      -8.452  30.729  42.143  1.00  0.00    -0.001 C 
ATOM     16  C   UNL     1      -7.803  28.823  43.718  1.00  0.00     0.007 C 
ATOM     17  C   UNL     1      -8.441  31.078  44.686  1.00  0.00     0.012 C 
ATOM     18  C   UNL     1      -9.818  30.018  41.917  1.00  0.00     0.000 C 
ATOM     19  C   UNL     1      -9.191  28.191  43.542  1.00  0.00     0.005 C 
ATOM     20  C   UNL     1      -9.775  28.490  42.141  1.00  0.00     0.003 C 
ATOM     21  C   UNL     1     -10.382  30.294  40.519  1.00  0.00     0.031 C 
ATOM     22  C   UNL     1     -11.166  27.759  41.796  1.00  0.00    -0.008 C 
ATOM     23  C   UNL     1     -11.798  29.821  40.475  1.00  0.00    -0.027 C 
ATOM     24  C   UNL     1     -12.184  28.697  41.111  1.00  0.00    -0.065 C 
ATOM     25  C   UNL     1     -11.862  27.185  43.062  1.00  0.00     0.014 C 
ATOM     26  C   UNL     1     -10.843  26.603  40.814  1.00  0.00     0.016 C 
ATOM     27  C   UNL     1     -13.678  28.527  41.330  1.00  0.00     0.063 C 
ATOM     28  C   UNL     1     -13.193  26.453  42.796  1.00  0.00     0.033 C 
ATOM     29  C   UNL     1     -14.102  27.106  41.735  1.00  0.00     0.118 C 
BRANCH  29  30
ATOM     30  O   UNL     1     -14.162  26.285  40.592  1.00  0.00    -0.393 OA
ATOM     31  H   UNL     1     -13.412  26.559  40.004  1.00  0.00     0.210 HD
ENDBRANCH  29  30
ENDBRANCH   9  11
ENDBRANCH   1   9
TORSDOF 7
ENDMDL
MODEL 8
REMARK VINA RESULT:    -5.083     11.460     13.971
REMARK INTER + INTRA:          -9.043
REMARK INTER:                  -7.388
REMARK INTRA:                  -1.656
REMARK UNBOUND:                -2.029
REMARK SMILES CC[C@@H](CC[C@@H](C)[C@@H]1CC[C@H]2[C@H]3CC=C4C[C@@H](O)CC[C@]4(C)[C@@H]3CC[C@]21C)C(C)C
REMARK SMILES IDX 5 1 4 2 3 3 2 4 1 5 28 6 29 7 30 8 6 9 7 10 8 11 9 12 26 13
REMARK SMILES IDX 10 14 11 15 25 16 27 17 12 18 24 19 23 20 13 21 21 22 14 23
REMARK SMILES IDX 15 24 20 25 22 26 16 27 19 28 17 29 18 30
REMARK H PARENT 18 31
REMARK Flexibility Score: inf
ROOT
ATOM      1  C   UNL     1     -10.135  22.108  34.951  1.00  0.00     0.004 C 
ENDROOT
BRANCH   1   2
ATOM      2  C   UNL     1     -11.092  20.898  34.854  1.00  0.00     0.004 C 
BRANCH   2   3
ATOM      3  C   UNL     1     -10.370  19.559  34.522  1.00  0.00    -0.009 C 
BRANCH   3   4
ATOM      4  C   UNL     1      -8.981  19.481  35.215  1.00  0.00     0.000 C 
ATOM      5  C   UNL     1      -8.977  18.826  36.599  1.00  0.00     0.004 C 
ENDBRANCH   3   4
BRANCH   3   6
ATOM      6  C   UNL     1     -10.308  19.169  33.002  1.00  0.00    -0.014 C 
ATOM      7  C   UNL     1      -8.927  19.360  32.351  1.00  0.00     0.007 C 
ATOM      8  C   UNL     1     -11.374  19.900  32.169  1.00  0.00     0.007 C 
ENDBRANCH   3   6
ENDBRANCH   2   3
ENDBRANCH   1   2
BRANCH   1   9
ATOM      9  C   UNL     1     -10.744  23.419  34.380  1.00  0.00    -0.011 C 
ATOM     10  C   UNL     1      -9.733  24.129  33.450  1.00  0.00     0.008 C 
BRANCH   9  11
ATOM     11  C   UNL     1     -12.145  23.127  33.723  1.00  0.00    -0.002 C 
ATOM     12  C   UNL     1     -12.231  23.599  32.258  1.00  0.00     0.005 C 
ATOM     13  C   UNL     1     -13.422  23.720  34.406  1.00  0.00    -0.026 C 
ATOM     14  C   UNL     1     -13.154  24.823  32.228  1.00  0.00     0.005 C 
ATOM     15  C   UNL     1     -13.629  25.063  33.673  1.00  0.00    -0.001 C 
ATOM     16  C   UNL     1     -14.620  22.751  34.125  1.00  0.00     0.007 C 
ATOM     17  C   UNL     1     -13.276  23.908  35.937  1.00  0.00     0.012 C 
ATOM     18  C   UNL     1     -15.059  25.658  33.829  1.00  0.00     0.000 C 
ATOM     19  C   UNL     1     -16.002  23.377  34.359  1.00  0.00     0.005 C 
ATOM     20  C   UNL     1     -16.193  24.658  33.511  1.00  0.00     0.003 C 
ATOM     21  C   UNL     1     -15.254  26.911  32.968  1.00  0.00     0.031 C 
ATOM     22  C   UNL     1     -17.657  25.321  33.571  1.00  0.00    -0.008 C 
ATOM     23  C   UNL     1     -16.528  27.574  33.375  1.00  0.00    -0.027 C 
ATOM     24  C   UNL     1     -17.616  26.857  33.719  1.00  0.00    -0.065 C 
ATOM     25  C   UNL     1     -18.505  24.776  34.754  1.00  0.00     0.014 C 
ATOM     26  C   UNL     1     -18.364  24.987  32.231  1.00  0.00     0.016 C 
ATOM     27  C   UNL     1     -18.701  27.602  34.480  1.00  0.00     0.063 C 
ATOM     28  C   UNL     1     -19.930  25.357  34.856  1.00  0.00     0.033 C 
ATOM     29  C   UNL     1     -20.049  26.864  34.547  1.00  0.00     0.118 C 
BRANCH  29  30
ATOM     30  O   UNL     1     -20.750  27.047  33.340  1.00  0.00    -0.393 OA
ATOM     31  H   UNL     1     -20.075  27.262  32.646  1.00  0.00     0.210 HD
ENDBRANCH  29  30
ENDBRANCH   9  11
ENDBRANCH   1   9
TORSDOF 7
ENDMDL
MODEL 9
REMARK VINA RESULT:    -5.038     10.890     13.935
REMARK INTER + INTRA:          -8.981
REMARK INTER:                  -6.819
REMARK INTRA:                  -2.162
REMARK UNBOUND:                -2.029
REMARK SMILES CC[C@@H](CC[C@@H](C)[C@@H]1CC[C@H]2[C@H]3CC=C4C[C@@H](O)CC[C@]4(C)[C@@H]3CC[C@]21C)C(C)C
REMARK SMILES IDX 5 1 4 2 3 3 2 4 1 5 28 6 29 7 30 8 6 9 7 10 8 11 9 12 26 13
REMARK SMILES IDX 10 14 11 15 25 16 27 17 12 18 24 19 23 20 13 21 21 22 14 23
REMARK SMILES IDX 15 24 20 25 22 26 16 27 19 28 17 29 18 30
REMARK H PARENT 18 31
REMARK Flexibility Score: inf
ROOT
ATOM      1  C   UNL     1     -16.504  26.222  33.285  1.00  0.00     0.004 C 
ENDROOT
BRANCH   1   2
ATOM      2  C   UNL     1     -17.136  24.897  32.801  1.00  0.00     0.004 C 
BRANCH   2   3
ATOM      3  C   UNL     1     -18.369  24.452  33.642  1.00  0.00    -0.009 C 
BRANCH   3   4
ATOM      4  C   UNL     1     -18.718  25.504  34.731  1.00  0.00     0.000 C 
ATOM      5  C   UNL     1     -18.319  25.121  36.159  1.00  0.00     0.004 C 
ENDBRANCH   3   4
BRANCH   3   6
ATOM      6  C   UNL     1     -18.323  22.989  34.210  1.00  0.00    -0.014 C 
ATOM      7  C   UNL     1     -17.383  22.039  33.447  1.00  0.00     0.007 C 
ATOM      8  C   UNL     1     -19.723  22.358  34.307  1.00  0.00     0.007 C 
ENDBRANCH   3   6
ENDBRANCH   2   3
ENDBRANCH   1   2
BRANCH   1   9
ATOM      9  C   UNL     1     -15.141  26.024  34.004  1.00  0.00    -0.011 C 
ATOM     10  C   UNL     1     -15.098  26.832  35.322  1.00  0.00     0.008 C 
BRANCH   9  11
ATOM     11  C   UNL     1     -14.827  24.489  34.165  1.00  0.00    -0.002 C 
ATOM     12  C   UNL     1     -14.737  24.048  35.639  1.00  0.00     0.005 C 
ATOM     13  C   UNL     1     -13.528  23.924  33.501  1.00  0.00    -0.026 C 
ATOM     14  C   UNL     1     -13.261  23.757  35.937  1.00  0.00     0.005 C 
ATOM     15  C   UNL     1     -12.482  24.009  34.634  1.00  0.00    -0.001 C 
ATOM     16  C   UNL     1     -13.791  22.431  33.108  1.00  0.00     0.007 C 
ATOM     17  C   UNL     1     -13.086  24.706  32.238  1.00  0.00     0.012 C 
ATOM     18  C   UNL     1     -11.227  23.116  34.407  1.00  0.00     0.000 C 
ATOM     19  C   UNL     1     -12.517  21.620  32.836  1.00  0.00     0.005 C 
ATOM     20  C   UNL     1     -11.557  21.650  34.049  1.00  0.00     0.003 C 
ATOM     21  C   UNL     1     -10.291  23.127  35.621  1.00  0.00     0.031 C 
ATOM     22  C   UNL     1     -10.252  20.718  33.929  1.00  0.00    -0.008 C 
ATOM     23  C   UNL     1      -9.000  22.486  35.232  1.00  0.00    -0.027 C 
ATOM     24  C   UNL     1      -8.963  21.424  34.403  1.00  0.00    -0.065 C 
ATOM     25  C   UNL     1      -9.996  20.245  32.470  1.00  0.00     0.014 C 
ATOM     26  C   UNL     1     -10.486  19.484  34.838  1.00  0.00     0.016 C 
ATOM     27  C   UNL     1      -7.617  21.108  33.772  1.00  0.00     0.063 C 
ATOM     28  C   UNL     1      -8.768  19.330  32.288  1.00  0.00     0.033 C 
ATOM     29  C   UNL     1      -7.530  19.717  33.125  1.00  0.00     0.118 C 
BRANCH  29  30
ATOM     30  O   UNL     1      -7.308  18.745  34.118  1.00  0.00    -0.393 OA
ATOM     31  H   UNL     1      -7.921  18.956  34.869  1.00  0.00     0.210 HD
ENDBRANCH  29  30
ENDBRANCH   9  11
ENDBRANCH   1   9
TORSDOF 7
ENDMDL
