MODEL 1
REMARK VINA RESULT:    -4.407      0.000      0.000
REMARK INTER + INTRA:         -10.291
REMARK INTER:                  -8.014
REMARK INTRA:                  -2.277
REMARK UNBOUND:                -2.277
REMARK SMILES CCCCCCCCCCCCCCCC(=O)[O-]
REMARK SMILES IDX 9 1 10 2 11 3 12 4 13 5 14 6 15 7 16 8 17 9 18 10 8 11 7 12
REMARK SMILES IDX 6 13 5 14 4 15 3 16 2 17 1 18
REMARK H PARENT
REMARK Flexibility Score: inf
ROOT
ATOM      1  C   UNL     1      19.708 -23.820  -9.263  1.00  0.00     0.000 C 
ENDROOT
BRANCH   1   2
ATOM      2  C   UNL     1      18.621 -22.808  -9.659  1.00  0.00     0.000 C 
BRANCH   2   3
ATOM      3  C   UNL     1      17.209 -23.421  -9.647  1.00  0.00     0.000 C 
BRANCH   3   4
ATOM      4  C   UNL     1      17.102 -24.637  -8.713  1.00  0.00     0.000 C 
BRANCH   4   5
ATOM      5  C   UNL     1      16.244 -24.353  -7.469  1.00  0.00     0.000 C 
BRANCH   5   6
ATOM      6  C   UNL     1      14.824 -23.874  -7.823  1.00  0.00     0.006 C 
BRANCH   6   7
ATOM      7  C   UNL     1      13.705 -24.841  -7.404  1.00  0.00     0.053 C 
BRANCH   7   8
ATOM      8  C   UNL     1      13.298 -24.645  -5.976  1.00  0.00     0.041 C 
ATOM      9  O   UNL     1      12.368 -23.847  -5.687  1.00  0.00    -0.550 OA
ATOM     10  O   UNL     1      13.967 -25.319  -4.964  1.00  0.00    -0.550 OA
ENDBRANCH   7   8
ENDBRANCH   6   7
ENDBRANCH   5   6
ENDBRANCH   4   5
ENDBRANCH   3   4
ENDBRANCH   2   3
ENDBRANCH   1   2
BRANCH   1  11
ATOM     11  C   UNL     1      20.616 -23.302  -8.134  1.00  0.00     0.000 C 
BRANCH  11  12
ATOM     12  C   UNL     1      20.292 -23.935  -6.769  1.00  0.00    -0.000 C 
BRANCH  12  13
ATOM     13  C   UNL     1      19.360 -23.104  -5.862  1.00  0.00    -0.000 C 
BRANCH  13  14
ATOM     14  C   UNL     1      19.314 -21.599  -6.181  1.00  0.00    -0.000 C 
BRANCH  14  15
ATOM     15  C   UNL     1      17.915 -21.126  -6.615  1.00  0.00    -0.000 C 
BRANCH  15  16
ATOM     16  C   UNL     1      17.051 -20.672  -5.428  1.00  0.00    -0.000 C 
BRANCH  16  17
ATOM     17  C   UNL     1      15.960 -21.691  -5.069  1.00  0.00    -0.003 C 
ATOM     18  C   UNL     1      14.568 -21.102  -5.281  1.00  0.00     0.004 C 
ENDBRANCH  16  17
ENDBRANCH  15  16
ENDBRANCH  14  15
ENDBRANCH  13  14
ENDBRANCH  12  13
ENDBRANCH  11  12
ENDBRANCH   1  11
TORSDOF 14
ENDMDL
MODEL 2
REMARK VINA RESULT:    -4.344      1.142      3.526
REMARK INTER + INTRA:         -10.176
REMARK INTER:                  -7.960
REMARK INTRA:                  -2.216
REMARK UNBOUND:                -2.277
REMARK SMILES CCCCCCCCCCCCCCCC(=O)[O-]
REMARK SMILES IDX 9 1 10 2 11 3 12 4 13 5 14 6 15 7 16 8 17 9 18 10 8 11 7 12
REMARK SMILES IDX 6 13 5 14 4 15 3 16 2 17 1 18
REMARK H PARENT
REMARK Flexibility Score: inf
ROOT
ATOM      1  C   UNL     1      19.859 -21.304  -5.524  1.00  0.00     0.000 C 
ENDROOT
BRANCH   1   2
ATOM      2  C   UNL     1      18.375 -21.181  -5.907  1.00  0.00     0.000 C 
BRANCH   2   3
ATOM      3  C   UNL     1      17.549 -22.404  -5.472  1.00  0.00     0.000 C 
BRANCH   3   4
ATOM      4  C   UNL     1      16.242 -22.546  -6.268  1.00  0.00     0.000 C 
BRANCH   4   5
ATOM      5  C   UNL     1      15.957 -24.000  -6.681  1.00  0.00     0.000 C 
BRANCH   5   6
ATOM      6  C   UNL     1      14.892 -24.106  -7.789  1.00  0.00     0.006 C 
BRANCH   6   7
ATOM      7  C   UNL     1      13.712 -25.030  -7.450  1.00  0.00     0.053 C 
BRANCH   7   8
ATOM      8  C   UNL     1      13.155 -24.753  -6.088  1.00  0.00     0.041 C 
ATOM      9  O   UNL     1      13.219 -25.630  -5.187  1.00  0.00    -0.550 OA
ATOM     10  O   UNL     1      12.537 -23.538  -5.823  1.00  0.00    -0.550 OA
ENDBRANCH   7   8
ENDBRANCH   6   7
ENDBRANCH   5   6
ENDBRANCH   4   5
ENDBRANCH   3   4
ENDBRANCH   2   3
ENDBRANCH   1   2
BRANCH   1  11
ATOM     11  C   UNL     1      20.100 -22.341  -4.413  1.00  0.00     0.000 C 
BRANCH  11  12
ATOM     12  C   UNL     1      21.280 -23.280  -4.718  1.00  0.00    -0.000 C 
BRANCH  12  13
ATOM     13  C   UNL     1      21.668 -23.389  -6.207  1.00  0.00    -0.000 C 
BRANCH  13  14
ATOM     14  C   UNL     1      21.150 -24.649  -6.924  1.00  0.00    -0.000 C 
BRANCH  14  15
ATOM     15  C   UNL     1      19.844 -24.396  -7.700  1.00  0.00    -0.000 C 
BRANCH  15  16
ATOM     16  C   UNL     1      19.980 -23.264  -8.729  1.00  0.00    -0.000 C 
BRANCH  16  17
ATOM     17  C   UNL     1      18.619 -22.742  -9.213  1.00  0.00    -0.003 C 
ATOM     18  C   UNL     1      17.819 -23.846  -9.899  1.00  0.00     0.004 C 
ENDBRANCH  16  17
ENDBRANCH  15  16
ENDBRANCH  14  15
ENDBRANCH  13  14
ENDBRANCH  12  13
ENDBRANCH  11  12
ENDBRANCH   1  11
TORSDOF 14
ENDMDL
MODEL 3
REMARK VINA RESULT:    -4.274      1.085      1.939
REMARK INTER + INTRA:         -10.049
REMARK INTER:                  -7.983
REMARK INTRA:                  -2.066
REMARK UNBOUND:                -2.277
REMARK SMILES CCCCCCCCCCCCCCCC(=O)[O-]
REMARK SMILES IDX 9 1 10 2 11 3 12 4 13 5 14 6 15 7 16 8 17 9 18 10 8 11 7 12
REMARK SMILES IDX 6 13 5 14 4 15 3 16 2 17 1 18
REMARK H PARENT
REMARK Flexibility Score: inf
ROOT
ATOM      1  C   UNL     1      18.622 -22.825  -9.040  1.00  0.00     0.000 C 
ENDROOT
BRANCH   1   2
ATOM      2  C   UNL     1      17.418 -23.525  -9.692  1.00  0.00     0.000 C 
BRANCH   2   3
ATOM      3  C   UNL     1      16.362 -23.966  -8.663  1.00  0.00     0.000 C 
BRANCH   3   4
ATOM      4  C   UNL     1      16.965 -24.223  -7.272  1.00  0.00     0.000 C 
BRANCH   4   5
ATOM      5  C   UNL     1      15.943 -24.031  -6.140  1.00  0.00     0.000 C 
BRANCH   5   6
ATOM      6  C   UNL     1      14.923 -22.917  -6.442  1.00  0.00     0.006 C 
BRANCH   6   7
ATOM      7  C   UNL     1      13.455 -23.331  -6.253  1.00  0.00     0.053 C 
BRANCH   7   8
ATOM      8  C   UNL     1      13.272 -24.814  -6.353  1.00  0.00     0.041 C 
ATOM      9  O   UNL     1      13.075 -25.500  -5.316  1.00  0.00    -0.550 OA
ATOM     10  O   UNL     1      13.352 -25.442  -7.589  1.00  0.00    -0.550 OA
ENDBRANCH   7   8
ENDBRANCH   6   7
ENDBRANCH   5   6
ENDBRANCH   4   5
ENDBRANCH   3   4
ENDBRANCH   2   3
ENDBRANCH   1   2
BRANCH   1  11
ATOM     11  C   UNL     1      19.936 -23.600  -9.239  1.00  0.00     0.000 C 
BRANCH  11  12
ATOM     12  C   UNL     1      20.931 -23.397  -8.083  1.00  0.00    -0.000 C 
BRANCH  12  13
ATOM     13  C   UNL     1      20.645 -24.227  -6.815  1.00  0.00    -0.000 C 
BRANCH  13  14
ATOM     14  C   UNL     1      20.720 -23.442  -5.492  1.00  0.00    -0.000 C 
BRANCH  14  15
ATOM     15  C   UNL     1      19.389 -22.758  -5.131  1.00  0.00    -0.000 C 
BRANCH  15  16
ATOM     16  C   UNL     1      19.356 -21.278  -5.541  1.00  0.00    -0.000 C 
BRANCH  16  17
ATOM     17  C   UNL     1      18.007 -20.865  -6.147  1.00  0.00    -0.003 C 
ATOM     18  C   UNL     1      17.115 -20.202  -5.102  1.00  0.00     0.004 C 
ENDBRANCH  16  17
ENDBRANCH  15  16
ENDBRANCH  14  15
ENDBRANCH  13  14
ENDBRANCH  12  13
ENDBRANCH  11  12
ENDBRANCH   1  11
TORSDOF 14
ENDMDL
MODEL 4
REMARK VINA RESULT:    -4.222      3.211      6.431
REMARK INTER + INTRA:          -9.955
REMARK INTER:                  -8.849
REMARK INTRA:                  -1.105
REMARK UNBOUND:                -2.277
REMARK SMILES CCCCCCCCCCCCCCCC(=O)[O-]
REMARK SMILES IDX 9 1 10 2 11 3 12 4 13 5 14 6 15 7 16 8 17 9 18 10 8 11 7 12
REMARK SMILES IDX 6 13 5 14 4 15 3 16 2 17 1 18
REMARK H PARENT
REMARK Flexibility Score: inf
ROOT
ATOM      1  C   UNL     1      15.500 -24.158  -6.763  1.00  0.00     0.000 C 
ENDROOT
BRANCH   1   2
ATOM      2  C   UNL     1      16.551 -23.431  -7.616  1.00  0.00     0.000 C 
BRANCH   2   3
ATOM      3  C   UNL     1      16.776 -24.106  -8.980  1.00  0.00     0.000 C 
BRANCH   3   4
ATOM      4  C   UNL     1      17.794 -23.352  -9.852  1.00  0.00     0.000 C 
BRANCH   4   5
ATOM      5  C   UNL     1      18.909 -22.695  -9.023  1.00  0.00     0.000 C 
BRANCH   5   6
ATOM      6  C   UNL     1      20.162 -23.584  -8.900  1.00  0.00     0.006 C 
BRANCH   6   7
ATOM      7  C   UNL     1      20.230 -24.411  -7.607  1.00  0.00     0.053 C 
BRANCH   7   8
ATOM      8  C   UNL     1      20.492 -23.555  -6.406  1.00  0.00     0.041 C 
ATOM      9  O   UNL     1      19.564 -23.305  -5.592  1.00  0.00    -0.550 OA
ATOM     10  O   UNL     1      21.752 -23.008  -6.204  1.00  0.00    -0.550 OA
ENDBRANCH   7   8
ENDBRANCH   6   7
ENDBRANCH   5   6
ENDBRANCH   4   5
ENDBRANCH   3   4
ENDBRANCH   2   3
ENDBRANCH   1   2
BRANCH   1  11
ATOM     11  C   UNL     1      14.317 -24.678  -7.597  1.00  0.00     0.000 C 
BRANCH  11  12
ATOM     12  C   UNL     1      13.134 -25.145  -6.731  1.00  0.00    -0.000 C 
BRANCH  12  13
ATOM     13  C   UNL     1      12.808 -24.246  -5.521  1.00  0.00    -0.000 C 
BRANCH  13  14
ATOM     14  C   UNL     1      12.739 -24.977  -4.167  1.00  0.00    -0.000 C 
BRANCH  14  15
ATOM     15  C   UNL     1      13.265 -26.421  -4.245  1.00  0.00    -0.000 C 
BRANCH  15  16
ATOM     16  C   UNL     1      12.145 -27.464  -4.103  1.00  0.00    -0.000 C 
BRANCH  16  17
ATOM     17  C   UNL     1      11.914 -27.886  -2.645  1.00  0.00    -0.003 C 
ATOM     18  C   UNL     1      10.622 -27.286  -2.097  1.00  0.00     0.004 C 
ENDBRANCH  16  17
ENDBRANCH  15  16
ENDBRANCH  14  15
ENDBRANCH  13  14
ENDBRANCH  12  13
ENDBRANCH  11  12
ENDBRANCH   1  11
TORSDOF 14
ENDMDL
MODEL 5
REMARK VINA RESULT:    -4.217      2.740      5.317
REMARK INTER + INTRA:          -9.944
REMARK INTER:                  -7.690
REMARK INTRA:                  -2.254
REMARK UNBOUND:                -2.277
REMARK SMILES CCCCCCCCCCCCCCCC(=O)[O-]
REMARK SMILES IDX 9 1 10 2 11 3 12 4 13 5 14 6 15 7 16 8 17 9 18 10 8 11 7 12
REMARK SMILES IDX 6 13 5 14 4 15 3 16 2 17 1 18
REMARK H PARENT
REMARK Flexibility Score: inf
ROOT
ATOM      1  C   UNL     1      16.432 -24.694  -7.817  1.00  0.00     0.000 C 
ENDROOT
BRANCH   1   2
ATOM      2  C   UNL     1      17.403 -24.596  -9.005  1.00  0.00     0.000 C 
BRANCH   2   3
ATOM      3  C   UNL     1      17.420 -23.194  -9.640  1.00  0.00     0.000 C 
BRANCH   3   4
ATOM      4  C   UNL     1      18.584 -22.329  -9.130  1.00  0.00     0.000 C 
BRANCH   4   5
ATOM      5  C   UNL     1      18.207 -21.501  -7.890  1.00  0.00     0.000 C 
BRANCH   5   6
ATOM      6  C   UNL     1      19.219 -21.655  -6.740  1.00  0.00     0.006 C 
BRANCH   6   7
ATOM      7  C   UNL     1      19.161 -23.011  -6.019  1.00  0.00     0.053 C 
BRANCH   7   8
ATOM      8  C   UNL     1      20.408 -23.814  -6.229  1.00  0.00     0.041 C 
ATOM      9  O   UNL     1      20.450 -24.696  -7.127  1.00  0.00    -0.550 OA
ATOM     10  O   UNL     1      21.512 -23.608  -5.413  1.00  0.00    -0.550 OA
ENDBRANCH   7   8
ENDBRANCH   6   7
ENDBRANCH   5   6
ENDBRANCH   4   5
ENDBRANCH   3   4
ENDBRANCH   2   3
ENDBRANCH   1   2
BRANCH   1  11
ATOM     11  C   UNL     1      15.128 -23.913  -8.053  1.00  0.00     0.000 C 
BRANCH  11  12
ATOM     12  C   UNL     1      13.890 -24.632  -7.487  1.00  0.00    -0.000 C 
BRANCH  12  13
ATOM     13  C   UNL     1      12.950 -23.754  -6.636  1.00  0.00    -0.000 C 
BRANCH  13  14
ATOM     14  C   UNL     1      12.683 -24.276  -5.213  1.00  0.00    -0.000 C 
BRANCH  14  15
ATOM     15  C   UNL     1      13.881 -25.045  -4.627  1.00  0.00    -0.000 C 
BRANCH  15  16
ATOM     16  C   UNL     1      14.720 -24.188  -3.669  1.00  0.00    -0.000 C 
BRANCH  16  17
ATOM     17  C   UNL     1      15.977 -23.614  -4.339  1.00  0.00    -0.003 C 
ATOM     18  C   UNL     1      15.766 -22.159  -4.747  1.00  0.00     0.004 C 
ENDBRANCH  16  17
ENDBRANCH  15  16
ENDBRANCH  14  15
ENDBRANCH  13  14
ENDBRANCH  12  13
ENDBRANCH  11  12
ENDBRANCH   1  11
TORSDOF 14
ENDMDL
MODEL 6
REMARK VINA RESULT:    -4.199      2.073      4.774
REMARK INTER + INTRA:          -9.913
REMARK INTER:                  -8.104
REMARK INTRA:                  -1.809
REMARK UNBOUND:                -2.277
REMARK SMILES CCCCCCCCCCCCCCCC(=O)[O-]
REMARK SMILES IDX 9 1 10 2 11 3 12 4 13 5 14 6 15 7 16 8 17 9 18 10 8 11 7 12
REMARK SMILES IDX 6 13 5 14 4 15 3 16 2 17 1 18
REMARK H PARENT
REMARK Flexibility Score: inf
ROOT
ATOM      1  C   UNL     1      20.132 -23.540  -8.942  1.00  0.00     0.000 C 
ENDROOT
BRANCH   1   2
ATOM      2  C   UNL     1      20.024 -24.461  -7.716  1.00  0.00     0.000 C 
BRANCH   2   3
ATOM      3  C   UNL     1      21.284 -24.421  -6.834  1.00  0.00     0.000 C 
BRANCH   3   4
ATOM      4  C   UNL     1      21.709 -22.987  -6.477  1.00  0.00     0.000 C 
BRANCH   4   5
ATOM      5  C   UNL     1      21.524 -22.669  -4.984  1.00  0.00     0.000 C 
BRANCH   5   6
ATOM      6  C   UNL     1      20.463 -21.581  -4.734  1.00  0.00     0.006 C 
BRANCH   6   7
ATOM      7  C   UNL     1      19.578 -21.265  -5.951  1.00  0.00     0.053 C 
BRANCH   7   8
ATOM      8  C   UNL     1      18.202 -21.840  -5.809  1.00  0.00     0.041 C 
ATOM      9  O   UNL     1      18.009 -22.847  -5.079  1.00  0.00    -0.550 OA
ATOM     10  O   UNL     1      17.141 -21.281  -6.508  1.00  0.00    -0.550 OA
ENDBRANCH   7   8
ENDBRANCH   6   7
ENDBRANCH   5   6
ENDBRANCH   4   5
ENDBRANCH   3   4
ENDBRANCH   2   3
ENDBRANCH   1   2
BRANCH   1  11
ATOM     11  C   UNL     1      18.796 -22.859  -9.289  1.00  0.00     0.000 C 
BRANCH  11  12
ATOM     12  C   UNL     1      17.709 -23.860  -9.719  1.00  0.00    -0.000 C 
BRANCH  12  13
ATOM     13  C   UNL     1      16.401 -23.801  -8.905  1.00  0.00    -0.000 C 
BRANCH  13  14
ATOM     14  C   UNL     1      16.403 -24.630  -7.608  1.00  0.00    -0.000 C 
BRANCH  14  15
ATOM     15  C   UNL     1      15.211 -24.303  -6.691  1.00  0.00    -0.000 C 
BRANCH  15  16
ATOM     16  C   UNL     1      13.876 -24.264  -7.451  1.00  0.00    -0.000 C 
BRANCH  16  17
ATOM     17  C   UNL     1      12.955 -23.136  -6.966  1.00  0.00    -0.003 C 
ATOM     18  C   UNL     1      13.731 -22.104  -6.153  1.00  0.00     0.004 C 
ENDBRANCH  16  17
ENDBRANCH  15  16
ENDBRANCH  14  15
ENDBRANCH  13  14
ENDBRANCH  12  13
ENDBRANCH  11  12
ENDBRANCH   1  11
TORSDOF 14
ENDMDL
MODEL 7
REMARK VINA RESULT:    -4.196      1.378      2.246
REMARK INTER + INTRA:          -9.907
REMARK INTER:                  -7.910
REMARK INTRA:                  -1.997
REMARK UNBOUND:                -2.277
REMARK SMILES CCCCCCCCCCCCCCCC(=O)[O-]
REMARK SMILES IDX 9 1 10 2 11 3 12 4 13 5 14 6 15 7 16 8 17 9 18 10 8 11 7 12
REMARK SMILES IDX 6 13 5 14 4 15 3 16 2 17 1 18
REMARK H PARENT
REMARK Flexibility Score: inf
ROOT
ATOM      1  C   UNL     1      20.977 -24.469  -7.131  1.00  0.00     0.000 C 
ENDROOT
BRANCH   1   2
ATOM      2  C   UNL     1      20.841 -23.463  -8.285  1.00  0.00     0.000 C 
BRANCH   2   3
ATOM      3  C   UNL     1      19.716 -23.838  -9.266  1.00  0.00     0.000 C 
BRANCH   3   4
ATOM      4  C   UNL     1      18.547 -22.840  -9.234  1.00  0.00     0.000 C 
BRANCH   4   5
ATOM      5  C   UNL     1      17.203 -23.490  -9.601  1.00  0.00     0.000 C 
BRANCH   5   6
ATOM      6  C   UNL     1      16.586 -24.281  -8.431  1.00  0.00     0.006 C 
BRANCH   6   7
ATOM      7  C   UNL     1      15.125 -23.919  -8.120  1.00  0.00     0.053 C 
BRANCH   7   8
ATOM      8  C   UNL     1      14.614 -24.638  -6.910  1.00  0.00     0.041 C 
ATOM      9  O   UNL     1      13.438 -25.087  -6.889  1.00  0.00    -0.550 OA
ATOM     10  O   UNL     1      15.426 -24.783  -5.793  1.00  0.00    -0.550 OA
ENDBRANCH   7   8
ENDBRANCH   6   7
ENDBRANCH   5   6
ENDBRANCH   4   5
ENDBRANCH   3   4
ENDBRANCH   2   3
ENDBRANCH   1   2
BRANCH   1  11
ATOM     11  C   UNL     1      21.839 -23.931  -5.976  1.00  0.00     0.000 C 
BRANCH  11  12
ATOM     12  C   UNL     1      22.295 -22.478  -6.198  1.00  0.00    -0.000 C 
BRANCH  12  13
ATOM     13  C   UNL     1      21.765 -21.456  -5.171  1.00  0.00    -0.000 C 
BRANCH  13  14
ATOM     14  C   UNL     1      20.337 -20.946  -5.438  1.00  0.00    -0.000 C 
BRANCH  14  15
ATOM     15  C   UNL     1      19.269 -21.739  -4.665  1.00  0.00    -0.000 C 
BRANCH  15  16
ATOM     16  C   UNL     1      18.273 -22.449  -5.595  1.00  0.00    -0.000 C 
BRANCH  16  17
ATOM     17  C   UNL     1      17.130 -21.529  -6.045  1.00  0.00    -0.003 C 
ATOM     18  C   UNL     1      16.650 -20.646  -4.897  1.00  0.00     0.004 C 
ENDBRANCH  16  17
ENDBRANCH  15  16
ENDBRANCH  14  15
ENDBRANCH  13  14
ENDBRANCH  12  13
ENDBRANCH  11  12
ENDBRANCH   1  11
TORSDOF 14
ENDMDL
MODEL 8
REMARK VINA RESULT:    -4.184      3.082      5.694
REMARK INTER + INTRA:          -9.885
REMARK INTER:                  -7.837
REMARK INTRA:                  -2.047
REMARK UNBOUND:                -2.277
REMARK SMILES CCCCCCCCCCCCCCCC(=O)[O-]
REMARK SMILES IDX 9 1 10 2 11 3 12 4 13 5 14 6 15 7 16 8 17 9 18 10 8 11 7 12
REMARK SMILES IDX 6 13 5 14 4 15 3 16 2 17 1 18
REMARK H PARENT
REMARK Flexibility Score: inf
ROOT
ATOM      1  C   UNL     1      14.282 -24.171  -7.604  1.00  0.00     0.000 C 
ENDROOT
BRANCH   1   2
ATOM      2  C   UNL     1      15.750 -24.567  -7.834  1.00  0.00     0.000 C 
BRANCH   2   3
ATOM      3  C   UNL     1      16.408 -23.764  -8.971  1.00  0.00     0.000 C 
BRANCH   3   4
ATOM      4  C   UNL     1      17.846 -24.224  -9.262  1.00  0.00     0.000 C 
BRANCH   4   5
ATOM      5  C   UNL     1      18.862 -23.072  -9.180  1.00  0.00     0.000 C 
BRANCH   5   6
ATOM      6  C   UNL     1      20.303 -23.565  -8.954  1.00  0.00     0.006 C 
BRANCH   6   7
ATOM      7  C   UNL     1      20.532 -24.262  -7.604  1.00  0.00     0.053 C 
BRANCH   7   8
ATOM      8  C   UNL     1      21.347 -23.421  -6.669  1.00  0.00     0.041 C 
ATOM      9  O   UNL     1      21.810 -23.919  -5.609  1.00  0.00    -0.550 OA
ATOM     10  O   UNL     1      21.568 -22.080  -6.954  1.00  0.00    -0.550 OA
ENDBRANCH   7   8
ENDBRANCH   6   7
ENDBRANCH   5   6
ENDBRANCH   4   5
ENDBRANCH   3   4
ENDBRANCH   2   3
ENDBRANCH   1   2
BRANCH   1  11
ATOM     11  C   UNL     1      13.635 -24.948  -6.445  1.00  0.00     0.000 C 
BRANCH  11  12
ATOM     12  C   UNL     1      12.702 -24.074  -5.588  1.00  0.00    -0.000 C 
BRANCH  12  13
ATOM     13  C   UNL     1      13.358 -23.426  -4.351  1.00  0.00    -0.000 C 
BRANCH  13  14
ATOM     14  C   UNL     1      14.712 -24.031  -3.941  1.00  0.00    -0.000 C 
BRANCH  14  15
ATOM     15  C   UNL     1      15.864 -23.012  -4.013  1.00  0.00    -0.000 C 
BRANCH  15  16
ATOM     16  C   UNL     1      15.540 -21.819  -4.925  1.00  0.00    -0.000 C 
BRANCH  16  17
ATOM     17  C   UNL     1      16.636 -21.560  -5.968  1.00  0.00    -0.003 C 
ATOM     18  C   UNL     1      17.874 -22.406  -5.685  1.00  0.00     0.004 C 
ENDBRANCH  16  17
ENDBRANCH  15  16
ENDBRANCH  14  15
ENDBRANCH  13  14
ENDBRANCH  12  13
ENDBRANCH  11  12
ENDBRANCH   1  11
TORSDOF 14
ENDMDL
MODEL 9
REMARK VINA RESULT:    -4.153      1.235      2.852
REMARK INTER + INTRA:          -9.828
REMARK INTER:                  -7.545
REMARK INTRA:                  -2.283
REMARK UNBOUND:                -2.277
REMARK SMILES CCCCCCCCCCCCCCCC(=O)[O-]
REMARK SMILES IDX 9 1 10 2 11 3 12 4 13 5 14 6 15 7 16 8 17 9 18 10 8 11 7 12
REMARK SMILES IDX 6 13 5 14 4 15 3 16 2 17 1 18
REMARK H PARENT
REMARK Flexibility Score: inf
ROOT
ATOM      1  C   UNL     1      17.250 -24.314  -9.147  1.00  0.00     0.000 C 
ENDROOT
BRANCH   1   2
ATOM      2  C   UNL     1      15.973 -23.683  -8.567  1.00  0.00     0.000 C 
BRANCH   2   3
ATOM      3  C   UNL     1      15.374 -24.513  -7.417  1.00  0.00     0.000 C 
BRANCH   3   4
ATOM      4  C   UNL     1      16.269 -24.520  -6.167  1.00  0.00     0.000 C 
BRANCH   4   5
ATOM      5  C   UNL     1      15.524 -24.061  -4.903  1.00  0.00     0.000 C 
BRANCH   5   6
ATOM      6  C   UNL     1      14.900 -22.661  -5.057  1.00  0.00     0.006 C 
BRANCH   6   7
ATOM      7  C   UNL     1      13.487 -22.526  -4.465  1.00  0.00     0.053 C 
BRANCH   7   8
ATOM      8  C   UNL     1      12.537 -23.527  -5.047  1.00  0.00     0.041 C 
ATOM      9  O   UNL     1      12.077 -24.455  -4.331  1.00  0.00    -0.550 OA
ATOM     10  O   UNL     1      12.185 -23.453  -6.388  1.00  0.00    -0.550 OA
ENDBRANCH   7   8
ENDBRANCH   6   7
ENDBRANCH   5   6
ENDBRANCH   4   5
ENDBRANCH   3   4
ENDBRANCH   2   3
ENDBRANCH   1   2
BRANCH   1  11
ATOM     11  C   UNL     1      18.306 -23.264  -9.531  1.00  0.00     0.000 C 
BRANCH  11  12
ATOM     12  C   UNL     1      19.694 -23.570  -8.940  1.00  0.00    -0.000 C 
BRANCH  12  13
ATOM     13  C   UNL     1      19.703 -24.547  -7.747  1.00  0.00    -0.000 C 
BRANCH  13  14
ATOM     14  C   UNL     1      20.825 -24.313  -6.721  1.00  0.00    -0.000 C 
BRANCH  14  15
ATOM     15  C   UNL     1      20.703 -22.954  -6.007  1.00  0.00    -0.000 C 
BRANCH  15  16
ATOM     16  C   UNL     1      19.314 -22.737  -5.387  1.00  0.00    -0.000 C 
BRANCH  16  17
ATOM     17  C   UNL     1      18.844 -21.280  -5.492  1.00  0.00    -0.003 C 
ATOM     18  C   UNL     1      17.853 -21.103  -6.639  1.00  0.00     0.004 C 
ENDBRANCH  16  17
ENDBRANCH  15  16
ENDBRANCH  14  15
ENDBRANCH  13  14
ENDBRANCH  12  13
ENDBRANCH  11  12
ENDBRANCH   1  11
TORSDOF 14
ENDMDL
