MODEL 1
REMARK VINA RESULT:    -6.532      0.000      0.000
REMARK INTER + INTRA:          -8.186
REMARK INTER:                  -7.868
REMARK INTRA:                  -0.317
REMARK UNBOUND:                -0.317
REMARK SMILES O=c1c(O)c(-c2ccc(O)c(O)c2)oc2cc(O)cc(O)c12
REMARK SMILES IDX 5 1 3 2 2 3 1 4 22 5 20 6 19 7 17 8 16 9 15 10 14 11 6 12
REMARK SMILES IDX 7 13 8 14 9 15 13 16 11 17 10 18 12 20 4 22 21 24 18 26
REMARK H PARENT 10 19 12 21 4 23 21 25 18 27
REMARK Flexibility Score: inf
ROOT
ATOM      1  C   UNL     1     132.655 133.138 132.863  1.00  0.00     0.180 A 
ATOM      2  C   UNL     1     133.984 133.252 132.408  1.00  0.00     0.208 A 
ATOM      3  C   UNL     1     134.689 134.438 132.666  1.00  0.00     0.238 A 
ATOM      4  O   UNL     1     135.875 134.556 132.254  1.00  0.00    -0.285 OA
ATOM      5  C   UNL     1     134.066 135.477 133.386  1.00  0.00     0.111 A 
ATOM      6  C   UNL     1     134.708 136.702 133.691  1.00  0.00     0.134 A 
ATOM      7  C   UNL     1     134.023 137.684 134.422  1.00  0.00     0.093 A 
ATOM      8  C   UNL     1     132.714 137.466 134.853  1.00  0.00     0.123 A 
ATOM      9  C   UNL     1     132.073 136.259 134.556  1.00  0.00     0.094 A 
ATOM     10  C   UNL     1     132.738 135.268 133.827  1.00  0.00     0.146 A 
ATOM     11  O   UNL     1     132.106 134.133 133.553  1.00  0.00    -0.452 OA
ENDROOT
BRANCH   1  12
ATOM     12  C   UNL     1     131.840 131.927 132.615  1.00  0.00     0.025 A 
ATOM     13  C   UNL     1     131.166 131.788 131.394  1.00  0.00     0.016 A 
ATOM     14  C   UNL     1     130.408 130.646 131.130  1.00  0.00     0.051 A 
ATOM     15  C   UNL     1     130.321 129.614 132.072  1.00  0.00     0.157 A 
ATOM     16  C   UNL     1     131.775 130.884 133.553  1.00  0.00     0.062 A 
ATOM     17  C   UNL     1     131.019 129.732 133.297  1.00  0.00     0.158 A 
BRANCH  15  18
ATOM     18  O   UNL     1     129.540 128.502 131.751  1.00  0.00    -0.504 OA
ATOM     19  H   UNL     1     128.676 128.266 132.216  1.00  0.00     0.293 HD
ENDBRANCH  15  18
BRANCH  17  20
ATOM     20  O   UNL     1     130.996 128.737 134.276  1.00  0.00    -0.504 OA
ATOM     21  H   UNL     1     131.788 128.154 134.508  1.00  0.00     0.293 HD
ENDBRANCH  17  20
ENDBRANCH   1  12
BRANCH   2  22
ATOM     22  O   UNL     1     134.594 132.188 131.739  1.00  0.00    -0.502 OA
ATOM     23  H   UNL     1     134.088 131.588 131.100  1.00  0.00     0.293 HD
ENDBRANCH   2  22
BRANCH   6  24
ATOM     24  O   UNL     1     136.017 136.950 133.274  1.00  0.00    -0.507 OA
ATOM     25  H   UNL     1     136.403 137.886 133.257  1.00  0.00     0.293 HD
ENDBRANCH   6  24
BRANCH   8  26
ATOM     26  O   UNL     1     132.056 138.458 135.578  1.00  0.00    -0.508 OA
ATOM     27  H   UNL     1     132.565 139.199 136.045  1.00  0.00     0.293 HD
ENDBRANCH   8  26
TORSDOF 6
ENDMDL
MODEL 2
REMARK VINA RESULT:    -6.511     13.011     17.107
REMARK INTER + INTRA:          -8.161
REMARK INTER:                  -7.979
REMARK INTRA:                  -0.182
REMARK UNBOUND:                -0.317
REMARK SMILES O=c1c(O)c(-c2ccc(O)c(O)c2)oc2cc(O)cc(O)c12
REMARK SMILES IDX 5 1 3 2 2 3 1 4 22 5 20 6 19 7 17 8 16 9 15 10 14 11 6 12
REMARK SMILES IDX 7 13 8 14 9 15 13 16 11 17 10 18 12 20 4 22 21 24 18 26
REMARK H PARENT 10 19 12 21 4 23 21 25 18 27
REMARK Flexibility Score: inf
ROOT
ATOM      1  C   UNL     1     121.465 124.799 139.903  1.00  0.00     0.180 A 
ATOM      2  C   UNL     1     120.440 125.283 140.739  1.00  0.00     0.208 A 
ATOM      3  C   UNL     1     120.205 124.642 141.966  1.00  0.00     0.238 A 
ATOM      4  O   UNL     1     119.283 125.060 142.717  1.00  0.00    -0.285 OA
ATOM      5  C   UNL     1     121.007 123.547 142.344  1.00  0.00     0.111 A 
ATOM      6  C   UNL     1     120.839 122.849 143.565  1.00  0.00     0.134 A 
ATOM      7  C   UNL     1     121.686 121.773 143.874  1.00  0.00     0.093 A 
ATOM      8  C   UNL     1     122.694 121.384 142.990  1.00  0.00     0.123 A 
ATOM      9  C   UNL     1     122.865 122.069 141.782  1.00  0.00     0.094 A 
ATOM     10  C   UNL     1     122.031 123.143 141.455  1.00  0.00     0.146 A 
ATOM     11  O   UNL     1     122.212 123.773 140.300  1.00  0.00    -0.452 OA
ENDROOT
BRANCH   1  12
ATOM     12  C   UNL     1     121.761 125.409 138.587  1.00  0.00     0.025 A 
ATOM     13  C   UNL     1     121.482 124.691 137.416  1.00  0.00     0.016 A 
ATOM     14  C   UNL     1     121.734 125.254 136.163  1.00  0.00     0.051 A 
ATOM     15  C   UNL     1     122.254 126.549 136.055  1.00  0.00     0.157 A 
ATOM     16  C   UNL     1     122.261 126.717 138.482  1.00  0.00     0.062 A 
ATOM     17  C   UNL     1     122.515 127.293 137.230  1.00  0.00     0.158 A 
BRANCH  15  18
ATOM     18  O   UNL     1     122.491 127.052 134.774  1.00  0.00    -0.504 OA
ATOM     19  H   UNL     1     121.948 126.801 133.961  1.00  0.00     0.293 HD
ENDBRANCH  15  18
BRANCH  17  20
ATOM     20  O   UNL     1     123.014 128.596 137.201  1.00  0.00    -0.504 OA
ATOM     21  H   UNL     1     123.434 129.059 137.995  1.00  0.00     0.293 HD
ENDBRANCH  17  20
ENDBRANCH   1  12
BRANCH   2  22
ATOM     22  O   UNL     1     119.692 126.401 140.362  1.00  0.00    -0.502 OA
ATOM     23  H   UNL     1     120.093 127.172 139.841  1.00  0.00     0.293 HD
ENDBRANCH   2  22
BRANCH   6  24
ATOM     24  O   UNL     1     119.841 123.214 144.470  1.00  0.00    -0.507 OA
ATOM     25  H   UNL     1     119.464 122.557 145.140  1.00  0.00     0.293 HD
ENDBRANCH   6  24
BRANCH   8  26
ATOM     26  O   UNL     1     123.521 120.313 143.321  1.00  0.00    -0.508 OA
ATOM     27  H   UNL     1     123.955 120.241 144.234  1.00  0.00     0.293 HD
ENDBRANCH   8  26
TORSDOF 6
ENDMDL
MODEL 3
REMARK VINA RESULT:    -6.399     14.933     17.589
REMARK INTER + INTRA:          -8.026
REMARK INTER:                  -7.756
REMARK INTRA:                  -0.269
REMARK UNBOUND:                -0.317
REMARK SMILES O=c1c(O)c(-c2ccc(O)c(O)c2)oc2cc(O)cc(O)c12
REMARK SMILES IDX 5 1 3 2 2 3 1 4 22 5 20 6 19 7 17 8 16 9 15 10 14 11 6 12
REMARK SMILES IDX 7 13 8 14 9 15 13 16 11 17 10 18 12 20 4 22 21 24 18 26
REMARK H PARENT 10 19 12 21 4 23 21 25 18 27
REMARK Flexibility Score: inf
ROOT
ATOM      1  C   UNL     1     123.242 122.925 142.717  1.00  0.00     0.180 A 
ATOM      2  C   UNL     1     122.101 123.291 143.457  1.00  0.00     0.208 A 
ATOM      3  C   UNL     1     121.149 124.135 142.863  1.00  0.00     0.238 A 
ATOM      4  O   UNL     1     120.129 124.478 143.520  1.00  0.00    -0.285 OA
ATOM      5  C   UNL     1     121.342 124.580 141.539  1.00  0.00     0.111 A 
ATOM      6  C   UNL     1     120.430 125.428 140.866  1.00  0.00     0.134 A 
ATOM      7  C   UNL     1     120.689 125.819 139.544  1.00  0.00     0.093 A 
ATOM      8  C   UNL     1     121.838 125.381 138.884  1.00  0.00     0.123 A 
ATOM      9  C   UNL     1     122.744 124.543 139.543  1.00  0.00     0.094 A 
ATOM     10  C   UNL     1     122.504 124.143 140.861  1.00  0.00     0.146 A 
ATOM     11  O   UNL     1     123.383 123.351 141.466  1.00  0.00    -0.452 OA
ENDROOT
BRANCH   1  12
ATOM     12  C   UNL     1     124.299 122.054 143.281  1.00  0.00     0.025 A 
ATOM     13  C   UNL     1     124.443 120.745 142.801  1.00  0.00     0.016 A 
ATOM     14  C   UNL     1     125.445 119.913 143.303  1.00  0.00     0.051 A 
ATOM     15  C   UNL     1     126.332 120.376 144.283  1.00  0.00     0.157 A 
ATOM     16  C   UNL     1     125.201 122.530 144.247  1.00  0.00     0.062 A 
ATOM     17  C   UNL     1     126.212 121.704 144.756  1.00  0.00     0.158 A 
BRANCH  15  18
ATOM     18  O   UNL     1     127.307 119.492 144.750  1.00  0.00    -0.504 OA
ATOM     19  H   UNL     1     127.139 118.515 144.937  1.00  0.00     0.293 HD
ENDBRANCH  15  18
BRANCH  17  20
ATOM     20  O   UNL     1     127.071 122.242 145.716  1.00  0.00    -0.504 OA
ATOM     21  H   UNL     1     127.415 123.191 145.699  1.00  0.00     0.293 HD
ENDBRANCH  17  20
ENDBRANCH   1  12
BRANCH   2  22
ATOM     22  O   UNL     1     121.909 122.796 144.750  1.00  0.00    -0.502 OA
ATOM     23  H   UNL     1     121.397 123.310 145.456  1.00  0.00     0.293 HD
ENDBRANCH   2  22
BRANCH   6  24
ATOM     24  O   UNL     1     119.272 125.883 141.499  1.00  0.00    -0.507 OA
ATOM     25  H   UNL     1     118.971 126.847 141.430  1.00  0.00     0.293 HD
ENDBRANCH   6  24
BRANCH   8  26
ATOM     26  O   UNL     1     122.071 125.784 137.571  1.00  0.00    -0.508 OA
ATOM     27  H   UNL     1     122.913 125.514 137.076  1.00  0.00     0.293 HD
ENDBRANCH   8  26
TORSDOF 6
ENDMDL
MODEL 4
REMARK VINA RESULT:    -6.197     15.251     17.237
REMARK INTER + INTRA:          -7.782
REMARK INTER:                  -7.450
REMARK INTRA:                  -0.332
REMARK UNBOUND:                -0.317
REMARK SMILES O=c1c(O)c(-c2ccc(O)c(O)c2)oc2cc(O)cc(O)c12
REMARK SMILES IDX 5 1 3 2 2 3 1 4 22 5 20 6 19 7 17 8 16 9 15 10 14 11 6 12
REMARK SMILES IDX 7 13 8 14 9 15 13 16 11 17 10 18 12 20 4 22 21 24 18 26
REMARK H PARENT 10 19 12 21 4 23 21 25 18 27
REMARK Flexibility Score: inf
ROOT
ATOM      1  C   UNL     1     123.351 123.318 142.804  1.00  0.00     0.180 A 
ATOM      2  C   UNL     1     122.203 122.933 142.085  1.00  0.00     0.208 A 
ATOM      3  C   UNL     1     121.329 123.927 141.619  1.00  0.00     0.238 A 
ATOM      4  O   UNL     1     120.292 123.593 140.984  1.00  0.00    -0.285 OA
ATOM      5  C   UNL     1     121.624 125.284 141.861  1.00  0.00     0.111 A 
ATOM      6  C   UNL     1     120.798 126.347 141.423  1.00  0.00     0.134 A 
ATOM      7  C   UNL     1     121.166 127.673 141.696  1.00  0.00     0.093 A 
ATOM      8  C   UNL     1     122.341 127.956 142.394  1.00  0.00     0.123 A 
ATOM      9  C   UNL     1     123.162 126.910 142.830  1.00  0.00     0.094 A 
ATOM     10  C   UNL     1     122.811 125.582 142.570  1.00  0.00     0.146 A 
ATOM     11  O   UNL     1     123.606 124.608 142.999  1.00  0.00    -0.452 OA
ENDROOT
BRANCH   1  12
ATOM     12  C   UNL     1     124.311 122.328 143.343  1.00  0.00     0.025 A 
ATOM     13  C   UNL     1     125.435 121.973 142.585  1.00  0.00     0.016 A 
ATOM     14  C   UNL     1     126.364 121.057 143.082  1.00  0.00     0.051 A 
ATOM     15  C   UNL     1     126.197 120.489 144.350  1.00  0.00     0.157 A 
ATOM     16  C   UNL     1     124.153 121.778 144.626  1.00  0.00     0.062 A 
ATOM     17  C   UNL     1     125.080 120.860 145.135  1.00  0.00     0.158 A 
BRANCH  15  18
ATOM     18  O   UNL     1     127.157 119.573 144.786  1.00  0.00    -0.504 OA
ATOM     19  H   UNL     1     128.151 119.697 144.662  1.00  0.00     0.293 HD
ENDBRANCH  15  18
BRANCH  17  20
ATOM     20  O   UNL     1     124.858 120.351 146.416  1.00  0.00    -0.504 OA
ATOM     21  H   UNL     1     124.907 120.904 147.260  1.00  0.00     0.293 HD
ENDBRANCH  17  20
ENDBRANCH   1  12
BRANCH   2  22
ATOM     22  O   UNL     1     121.959 121.583 141.816  1.00  0.00    -0.502 OA
ATOM     23  H   UNL     1     121.561 120.956 142.505  1.00  0.00     0.293 HD
ENDBRANCH   2  22
BRANCH   6  24
ATOM     24  O   UNL     1     119.617 126.097 140.722  1.00  0.00    -0.507 OA
ATOM     25  H   UNL     1     119.520 126.329 139.741  1.00  0.00     0.293 HD
ENDBRANCH   6  24
BRANCH   8  26
ATOM     26  O   UNL     1     122.685 129.281 142.651  1.00  0.00    -0.508 OA
ATOM     27  H   UNL     1     122.088 130.049 142.365  1.00  0.00     0.293 HD
ENDBRANCH   8  26
TORSDOF 6
ENDMDL
MODEL 5
REMARK VINA RESULT:    -6.099     15.643     17.700
REMARK INTER + INTRA:          -7.664
REMARK INTER:                  -7.357
REMARK INTRA:                  -0.307
REMARK UNBOUND:                -0.317
REMARK SMILES O=c1c(O)c(-c2ccc(O)c(O)c2)oc2cc(O)cc(O)c12
REMARK SMILES IDX 5 1 3 2 2 3 1 4 22 5 20 6 19 7 17 8 16 9 15 10 14 11 6 12
REMARK SMILES IDX 7 13 8 14 9 15 13 16 11 17 10 18 12 20 4 22 21 24 18 26
REMARK H PARENT 10 19 12 21 4 23 21 25 18 27
REMARK Flexibility Score: inf
ROOT
ATOM      1  C   UNL     1     123.310 123.400 142.925  1.00  0.00     0.180 A 
ATOM      2  C   UNL     1     123.011 122.594 144.041  1.00  0.00     0.208 A 
ATOM      3  C   UNL     1     124.004 121.740 144.546  1.00  0.00     0.238 A 
ATOM      4  O   UNL     1     123.744 121.005 145.538  1.00  0.00    -0.285 OA
ATOM      5  C   UNL     1     125.278 121.719 143.943  1.00  0.00     0.111 A 
ATOM      6  C   UNL     1     126.334 120.890 144.393  1.00  0.00     0.134 A 
ATOM      7  C   UNL     1     127.578 120.934 143.746  1.00  0.00     0.093 A 
ATOM      8  C   UNL     1     127.785 121.788 142.661  1.00  0.00     0.123 A 
ATOM      9  C   UNL     1     126.746 122.610 142.212  1.00  0.00     0.094 A 
ATOM     10  C   UNL     1     125.499 122.579 142.843  1.00  0.00     0.146 A 
ATOM     11  O   UNL     1     124.528 123.365 142.393  1.00  0.00    -0.452 OA
ENDROOT
BRANCH   1  12
ATOM     12  C   UNL     1     122.311 124.312 142.323  1.00  0.00     0.025 A 
ATOM     13  C   UNL     1     121.359 123.801 141.430  1.00  0.00     0.016 A 
ATOM     14  C   UNL     1     120.395 124.639 140.867  1.00  0.00     0.051 A 
ATOM     15  C   UNL     1     120.353 125.999 141.195  1.00  0.00     0.157 A 
ATOM     16  C   UNL     1     122.257 125.672 142.673  1.00  0.00     0.062 A 
ATOM     17  C   UNL     1     121.292 126.521 142.116  1.00  0.00     0.158 A 
BRANCH  15  18
ATOM     18  O   UNL     1     119.370 126.785 140.591  1.00  0.00    -0.504 OA
ATOM     19  H   UNL     1     119.393 127.794 140.562  1.00  0.00     0.293 HD
ENDBRANCH  15  18
BRANCH  17  20
ATOM     20  O   UNL     1     121.300 127.861 142.506  1.00  0.00    -0.504 OA
ATOM     21  H   UNL     1     120.605 128.537 142.220  1.00  0.00     0.293 HD
ENDBRANCH  17  20
ENDBRANCH   1  12
BRANCH   2  22
ATOM     22  O   UNL     1     121.756 122.670 144.650  1.00  0.00    -0.502 OA
ATOM     23  H   UNL     1     121.574 122.284 145.568  1.00  0.00     0.293 HD
ENDBRANCH   2  22
BRANCH   6  24
ATOM     24  O   UNL     1     126.158 120.026 145.475  1.00  0.00    -0.507 OA
ATOM     25  H   UNL     1     125.354 120.095 146.087  1.00  0.00     0.293 HD
ENDBRANCH   6  24
BRANCH   8  26
ATOM     26  O   UNL     1     129.030 121.814 142.036  1.00  0.00    -0.508 OA
ATOM     27  H   UNL     1     129.118 121.944 141.035  1.00  0.00     0.293 HD
ENDBRANCH   8  26
TORSDOF 6
ENDMDL
MODEL 6
REMARK VINA RESULT:    -6.073      2.746      6.782
REMARK INTER + INTRA:          -7.633
REMARK INTER:                  -7.394
REMARK INTRA:                  -0.239
REMARK UNBOUND:                -0.317
REMARK SMILES O=c1c(O)c(-c2ccc(O)c(O)c2)oc2cc(O)cc(O)c12
REMARK SMILES IDX 5 1 3 2 2 3 1 4 22 5 20 6 19 7 17 8 16 9 15 10 14 11 6 12
REMARK SMILES IDX 7 13 8 14 9 15 13 16 11 17 10 18 12 20 4 22 21 24 18 26
REMARK H PARENT 10 19 12 21 4 23 21 25 18 27
REMARK Flexibility Score: inf
ROOT
ATOM      1  C   UNL     1     134.073 134.314 135.312  1.00  0.00     0.180 A 
ATOM      2  C   UNL     1     135.247 133.599 135.005  1.00  0.00     0.208 A 
ATOM      3  C   UNL     1     135.237 132.710 133.920  1.00  0.00     0.238 A 
ATOM      4  O   UNL     1     136.279 132.057 133.643  1.00  0.00    -0.285 OA
ATOM      5  C   UNL     1     134.065 132.564 133.150  1.00  0.00     0.111 A 
ATOM      6  C   UNL     1     133.972 131.693 132.038  1.00  0.00     0.134 A 
ATOM      7  C   UNL     1     132.772 131.611 131.315  1.00  0.00     0.093 A 
ATOM      8  C   UNL     1     131.667 132.382 131.682  1.00  0.00     0.123 A 
ATOM      9  C   UNL     1     131.752 133.245 132.780  1.00  0.00     0.094 A 
ATOM     10  C   UNL     1     132.939 133.339 133.513  1.00  0.00     0.146 A 
ATOM     11  O   UNL     1     132.991 134.162 134.554  1.00  0.00    -0.452 OA
ENDROOT
BRANCH   1  12
ATOM     12  C   UNL     1     134.000 135.255 136.452  1.00  0.00     0.025 A 
ATOM     13  C   UNL     1     133.311 134.880 137.614  1.00  0.00     0.016 A 
ATOM     14  C   UNL     1     133.246 135.744 138.709  1.00  0.00     0.051 A 
ATOM     15  C   UNL     1     133.880 136.991 138.671  1.00  0.00     0.157 A 
ATOM     16  C   UNL     1     134.657 136.497 136.420  1.00  0.00     0.062 A 
ATOM     17  C   UNL     1     134.601 137.370 137.514  1.00  0.00     0.158 A 
BRANCH  15  18
ATOM     18  O   UNL     1     133.771 137.812 139.796  1.00  0.00    -0.504 OA
ATOM     19  H   UNL     1     134.545 138.318 140.202  1.00  0.00     0.293 HD
ENDBRANCH  15  18
BRANCH  17  20
ATOM     20  O   UNL     1     135.274 138.588 137.411  1.00  0.00    -0.504 OA
ATOM     21  H   UNL     1     134.982 139.347 136.812  1.00  0.00     0.293 HD
ENDBRANCH  17  20
ENDBRANCH   1  12
BRANCH   2  22
ATOM     22  O   UNL     1     136.410 133.799 135.754  1.00  0.00    -0.502 OA
ATOM     23  H   UNL     1     137.320 133.490 135.436  1.00  0.00     0.293 HD
ENDBRANCH   2  22
BRANCH   6  24
ATOM     24  O   UNL     1     135.059 130.910 131.646  1.00  0.00    -0.507 OA
ATOM     25  H   UNL     1     135.380 130.885 130.686  1.00  0.00     0.293 HD
ENDBRANCH   6  24
BRANCH   8  26
ATOM     26  O   UNL     1     130.487 132.283 130.948  1.00  0.00    -0.508 OA
ATOM     27  H   UNL     1     129.647 132.777 131.225  1.00  0.00     0.293 HD
ENDBRANCH   8  26
TORSDOF 6
ENDMDL
MODEL 7
REMARK VINA RESULT:    -6.072      9.264     11.686
REMARK INTER + INTRA:          -7.632
REMARK INTER:                  -7.334
REMARK INTRA:                  -0.298
REMARK UNBOUND:                -0.317
REMARK SMILES O=c1c(O)c(-c2ccc(O)c(O)c2)oc2cc(O)cc(O)c12
REMARK SMILES IDX 5 1 3 2 2 3 1 4 22 5 20 6 19 7 17 8 16 9 15 10 14 11 6 12
REMARK SMILES IDX 7 13 8 14 9 15 13 16 11 17 10 18 12 20 4 22 21 24 18 26
REMARK H PARENT 10 19 12 21 4 23 21 25 18 27
REMARK Flexibility Score: inf
ROOT
ATOM      1  C   UNL     1     125.725 126.695 134.996  1.00  0.00     0.180 A 
ATOM      2  C   UNL     1     125.496 127.979 135.528  1.00  0.00     0.208 A 
ATOM      3  C   UNL     1     124.214 128.540 135.417  1.00  0.00     0.238 A 
ATOM      4  O   UNL     1     123.999 129.693 135.881  1.00  0.00    -0.285 OA
ATOM      5  C   UNL     1     123.183 127.805 134.797  1.00  0.00     0.111 A 
ATOM      6  C   UNL     1     121.863 128.296 134.648  1.00  0.00     0.134 A 
ATOM      7  C   UNL     1     120.890 127.499 134.027  1.00  0.00     0.093 A 
ATOM      8  C   UNL     1     121.209 126.225 133.554  1.00  0.00     0.123 A 
ATOM      9  C   UNL     1     122.511 125.734 133.698  1.00  0.00     0.094 A 
ATOM     10  C   UNL     1     123.496 126.514 134.312  1.00  0.00     0.146 A 
ATOM     11  O   UNL     1     124.725 126.026 134.432  1.00  0.00    -0.452 OA
ENDROOT
BRANCH   1  12
ATOM     12  C   UNL     1     127.054 126.044 135.058  1.00  0.00     0.025 A 
ATOM     13  C   UNL     1     127.444 125.382 136.230  1.00  0.00     0.016 A 
ATOM     14  C   UNL     1     128.683 124.744 136.303  1.00  0.00     0.051 A 
ATOM     15  C   UNL     1     129.551 124.742 135.205  1.00  0.00     0.157 A 
ATOM     16  C   UNL     1     127.912 126.025 133.945  1.00  0.00     0.062 A 
ATOM     17  C   UNL     1     129.157 125.385 134.008  1.00  0.00     0.158 A 
BRANCH  15  18
ATOM     18  O   UNL     1     130.779 124.093 135.345  1.00  0.00    -0.504 OA
ATOM     19  H   UNL     1     131.312 124.073 136.203  1.00  0.00     0.293 HD
ENDBRANCH  15  18
BRANCH  17  20
ATOM     20  O   UNL     1     129.959 125.408 132.866  1.00  0.00    -0.504 OA
ATOM     21  H   UNL     1     130.378 124.586 132.452  1.00  0.00     0.293 HD
ENDBRANCH  17  20
ENDBRANCH   1  12
BRANCH   2  22
ATOM     22  O   UNL     1     126.522 128.665 136.182  1.00  0.00    -0.502 OA
ATOM     23  H   UNL     1     126.448 129.645 136.429  1.00  0.00     0.293 HD
ENDBRANCH   2  22
BRANCH   6  24
ATOM     24  O   UNL     1     121.513 129.566 135.111  1.00  0.00    -0.507 OA
ATOM     25  H   UNL     1     120.982 129.694 135.963  1.00  0.00     0.293 HD
ENDBRANCH   6  24
BRANCH   8  26
ATOM     26  O   UNL     1     120.224 125.453 132.941  1.00  0.00    -0.508 OA
ATOM     27  H   UNL     1     119.499 125.874 132.372  1.00  0.00     0.293 HD
ENDBRANCH   8  26
TORSDOF 6
ENDMDL
MODEL 8
REMARK VINA RESULT:    -6.007      3.007      6.743
REMARK INTER + INTRA:          -7.553
REMARK INTER:                  -7.298
REMARK INTRA:                  -0.255
REMARK UNBOUND:                -0.317
REMARK SMILES O=c1c(O)c(-c2ccc(O)c(O)c2)oc2cc(O)cc(O)c12
REMARK SMILES IDX 5 1 3 2 2 3 1 4 22 5 20 6 19 7 17 8 16 9 15 10 14 11 6 12
REMARK SMILES IDX 7 13 8 14 9 15 13 16 11 17 10 18 12 20 4 22 21 24 18 26
REMARK H PARENT 10 19 12 21 4 23 21 25 18 27
REMARK Flexibility Score: inf
ROOT
ATOM      1  C   UNL     1     133.662 135.435 135.875  1.00  0.00     0.180 A 
ATOM      2  C   UNL     1     134.891 135.513 135.191  1.00  0.00     0.208 A 
ATOM      3  C   UNL     1     135.035 134.830 133.973  1.00  0.00     0.238 A 
ATOM      4  O   UNL     1     136.134 134.884 133.358  1.00  0.00    -0.285 OA
ATOM      5  C   UNL     1     133.947 134.101 133.451  1.00  0.00     0.111 A 
ATOM      6  C   UNL     1     134.008 133.389 132.229  1.00  0.00     0.134 A 
ATOM      7  C   UNL     1     132.878 132.694 131.771  1.00  0.00     0.093 A 
ATOM      8  C   UNL     1     131.693 132.698 132.509  1.00  0.00     0.123 A 
ATOM      9  C   UNL     1     131.627 133.400 133.718  1.00  0.00     0.094 A 
ATOM     10  C   UNL     1     132.742 134.097 134.192  1.00  0.00     0.146 A 
ATOM     11  O   UNL     1     132.654 134.751 135.344  1.00  0.00    -0.452 OA
ENDROOT
BRANCH   1  12
ATOM     12  C   UNL     1     133.440 136.112 137.173  1.00  0.00     0.025 A 
ATOM     13  C   UNL     1     132.560 137.201 137.241  1.00  0.00     0.016 A 
ATOM     14  C   UNL     1     132.320 137.841 138.459  1.00  0.00     0.051 A 
ATOM     15  C   UNL     1     132.940 137.398 139.632  1.00  0.00     0.157 A 
ATOM     16  C   UNL     1     134.046 135.649 138.353  1.00  0.00     0.062 A 
ATOM     17  C   UNL     1     133.809 136.283 139.580  1.00  0.00     0.158 A 
BRANCH  15  18
ATOM     18  O   UNL     1     132.664 138.086 140.816  1.00  0.00    -0.504 OA
ATOM     19  H   UNL     1     133.245 138.823 141.188  1.00  0.00     0.293 HD
ENDBRANCH  15  18
BRANCH  17  20
ATOM     20  O   UNL     1     134.447 135.772 140.712  1.00  0.00    -0.504 OA
ATOM     21  H   UNL     1     134.038 135.761 141.635  1.00  0.00     0.293 HD
ENDBRANCH  17  20
ENDBRANCH   1  12
BRANCH   2  22
ATOM     22  O   UNL     1     135.937 136.284 135.706  1.00  0.00    -0.502 OA
ATOM     23  H   UNL     1     136.166 136.297 136.693  1.00  0.00     0.293 HD
ENDBRANCH   2  22
BRANCH   6  24
ATOM     24  O   UNL     1     135.178 133.366 131.468  1.00  0.00    -0.507 OA
ATOM     25  H   UNL     1     135.450 132.551 130.933  1.00  0.00     0.293 HD
ENDBRANCH   6  24
BRANCH   8  26
ATOM     26  O   UNL     1     130.585 132.001 132.032  1.00  0.00    -0.508 OA
ATOM     27  H   UNL     1     130.223 131.187 132.516  1.00  0.00     0.293 HD
ENDBRANCH   8  26
TORSDOF 6
ENDMDL
MODEL 9
REMARK VINA RESULT:    -5.946     12.235     15.297
REMARK INTER + INTRA:          -7.480
REMARK INTER:                  -7.161
REMARK INTRA:                  -0.319
REMARK UNBOUND:                -0.317
REMARK SMILES O=c1c(O)c(-c2ccc(O)c(O)c2)oc2cc(O)cc(O)c12
REMARK SMILES IDX 5 1 3 2 2 3 1 4 22 5 20 6 19 7 17 8 16 9 15 10 14 11 6 12
REMARK SMILES IDX 7 13 8 14 9 15 13 16 11 17 10 18 12 20 4 22 21 24 18 26
REMARK H PARENT 10 19 12 21 4 23 21 25 18 27
REMARK Flexibility Score: inf
ROOT
ATOM      1  C   UNL     1     121.637 125.959 139.067  1.00  0.00     0.180 A 
ATOM      2  C   UNL     1     122.473 127.087 138.953  1.00  0.00     0.208 A 
ATOM      3  C   UNL     1     122.793 127.567 137.673  1.00  0.00     0.238 A 
ATOM      4  O   UNL     1     123.549 128.570 137.559  1.00  0.00    -0.285 OA
ATOM      5  C   UNL     1     122.260 126.928 136.535  1.00  0.00     0.111 A 
ATOM      6  C   UNL     1     122.530 127.351 135.211  1.00  0.00     0.134 A 
ATOM      7  C   UNL     1     121.953 126.667 134.131  1.00  0.00     0.093 A 
ATOM      8  C   UNL     1     121.114 125.573 134.347  1.00  0.00     0.123 A 
ATOM      9  C   UNL     1     120.843 125.150 135.653  1.00  0.00     0.094 A 
ATOM     10  C   UNL     1     121.410 125.817 136.743  1.00  0.00     0.146 A 
ATOM     11  O   UNL     1     121.140 125.391 137.972  1.00  0.00    -0.452 OA
ENDROOT
BRANCH   1  12
ATOM     12  C   UNL     1     121.269 125.382 140.380  1.00  0.00     0.025 A 
ATOM     13  C   UNL     1     120.160 125.890 141.070  1.00  0.00     0.016 A 
ATOM     14  C   UNL     1     119.782 125.348 142.300  1.00  0.00     0.051 A 
ATOM     15  C   UNL     1     120.495 124.279 142.857  1.00  0.00     0.157 A 
ATOM     16  C   UNL     1     121.972 124.295 140.925  1.00  0.00     0.062 A 
ATOM     17  C   UNL     1     121.600 123.742 142.157  1.00  0.00     0.158 A 
BRANCH  15  18
ATOM     18  O   UNL     1     120.071 123.788 144.094  1.00  0.00    -0.504 OA
ATOM     19  H   UNL     1     119.701 122.860 144.235  1.00  0.00     0.293 HD
ENDBRANCH  15  18
BRANCH  17  20
ATOM     20  O   UNL     1     122.346 122.665 142.641  1.00  0.00    -0.504 OA
ATOM     21  H   UNL     1     123.350 122.676 142.749  1.00  0.00     0.293 HD
ENDBRANCH  17  20
ENDBRANCH   1  12
BRANCH   2  22
ATOM     22  O   UNL     1     122.947 127.731 140.098  1.00  0.00    -0.502 OA
ATOM     23  H   UNL     1     122.362 127.902 140.906  1.00  0.00     0.293 HD
ENDBRANCH   2  22
BRANCH   6  24
ATOM     24  O   UNL     1     123.365 128.442 134.962  1.00  0.00    -0.507 OA
ATOM     25  H   UNL     1     123.127 129.149 134.278  1.00  0.00     0.293 HD
ENDBRANCH   6  24
BRANCH   8  26
ATOM     26  O   UNL     1     120.553 124.912 133.257  1.00  0.00    -0.508 OA
ATOM     27  H   UNL     1     121.009 124.900 132.352  1.00  0.00     0.293 HD
ENDBRANCH   8  26
TORSDOF 6
ENDMDL
