MODEL 1
REMARK VINA RESULT:    15.086      0.000      0.000
REMARK INTER + INTRA:          32.014
REMARK INTER:                  32.724
REMARK INTRA:                  -0.710
REMARK UNBOUND:                -0.710
REMARK SMILES CCCCCCCCCCCCCCCCCCCCCC(=O)[O-]
REMARK SMILES IDX 12 1 11 2 10 3 9 4 8 5 7 6 6 7 5 8 4 9 3 10 2 11 1 12 13 13
REMARK SMILES IDX 14 14 15 15 16 16 17 17 18 18 19 19 20 20 21 21 22 22 23 23
REMARK SMILES IDX 24 24
REMARK H PARENT
REMARK Flexibility Score: inf
ROOT
ATOM      1  C   UNL     1      14.578  15.310  17.655  1.00  0.00     0.000 C 
ENDROOT
BRANCH   1   2
ATOM      2  C   UNL     1      13.887  14.268  16.757  1.00  0.00     0.000 C 
BRANCH   2   3
ATOM      3  C   UNL     1      14.650  12.935  16.686  1.00  0.00     0.000 C 
BRANCH   3   4
ATOM      4  C   UNL     1      13.804  11.739  17.165  1.00  0.00    -0.000 C 
BRANCH   4   5
ATOM      5  C   UNL     1      12.451  12.112  17.801  1.00  0.00    -0.000 C 
BRANCH   5   6
ATOM      6  C   UNL     1      11.291  12.303  16.805  1.00  0.00    -0.000 C 
BRANCH   6   7
ATOM      7  C   UNL     1       9.961  11.677  17.275  1.00  0.00    -0.000 C 
BRANCH   7   8
ATOM      8  C   UNL     1       8.878  12.734  17.543  1.00  0.00    -0.000 C 
BRANCH   8   9
ATOM      9  C   UNL     1       8.046  13.067  16.293  1.00  0.00    -0.000 C 
BRANCH   9  10
ATOM     10  C   UNL     1       8.830  12.917  14.974  1.00  0.00    -0.000 C 
BRANCH  10  11
ATOM     11  C   UNL     1       8.330  11.733  14.132  1.00  0.00    -0.003 C 
ATOM     12  C   UNL     1       9.362  11.332  13.082  1.00  0.00     0.004 C 
ENDBRANCH  10  11
ENDBRANCH   9  10
ENDBRANCH   8   9
ENDBRANCH   7   8
ENDBRANCH   6   7
ENDBRANCH   5   6
ENDBRANCH   4   5
ENDBRANCH   3   4
ENDBRANCH   2   3
ENDBRANCH   1   2
BRANCH   1  13
ATOM     13  C   UNL     1      14.376  16.775  17.231  1.00  0.00     0.000 C 
BRANCH  13  14
ATOM     14  C   UNL     1      13.341  16.937  16.104  1.00  0.00     0.000 C 
BRANCH  14  15
ATOM     15  C   UNL     1      13.162  18.400  15.671  1.00  0.00     0.000 C 
BRANCH  15  16
ATOM     16  C   UNL     1      14.506  19.105  15.415  1.00  0.00     0.000 C 
BRANCH  16  17
ATOM     17  C   UNL     1      14.449  20.613  15.710  1.00  0.00     0.000 C 
BRANCH  17  18
ATOM     18  C   UNL     1      15.766  21.332  15.370  1.00  0.00     0.000 C 
BRANCH  18  19
ATOM     19  C   UNL     1      16.303  22.165  16.545  1.00  0.00     0.000 C 
BRANCH  19  20
ATOM     20  C   UNL     1      15.755  21.694  17.904  1.00  0.00     0.006 C 
BRANCH  20  21
ATOM     21  C   UNL     1      16.877  21.340  18.891  1.00  0.00     0.053 C 
BRANCH  21  22
ATOM     22  C   UNL     1      16.522  20.157  19.740  1.00  0.00     0.041 C 
ATOM     23  O   UNL     1      16.988  19.019  19.468  1.00  0.00    -0.550 OA
ATOM     24  O   UNL     1      15.654  20.307  20.814  1.00  0.00    -0.550 OA
ENDBRANCH  21  22
ENDBRANCH  20  21
ENDBRANCH  19  20
ENDBRANCH  18  19
ENDBRANCH  17  18
ENDBRANCH  16  17
ENDBRANCH  15  16
ENDBRANCH  14  15
ENDBRANCH  13  14
ENDBRANCH   1  13
TORSDOF 20
ENDMDL
MODEL 2
REMARK VINA RESULT:    15.089      0.665      1.400
REMARK INTER + INTRA:          32.021
REMARK INTER:                  33.109
REMARK INTRA:                  -1.089
REMARK UNBOUND:                -0.710
REMARK SMILES CCCCCCCCCCCCCCCCCCCCCC(=O)[O-]
REMARK SMILES IDX 12 1 11 2 10 3 9 4 8 5 7 6 6 7 5 8 4 9 3 10 2 11 1 12 13 13
REMARK SMILES IDX 14 14 15 15 16 16 17 17 18 18 19 19 20 20 21 21 22 22 23 23
REMARK SMILES IDX 24 24
REMARK H PARENT
REMARK Flexibility Score: inf
ROOT
ATOM      1  C   UNL     1      14.238  16.691  17.288  1.00  0.00     0.000 C 
ENDROOT
BRANCH   1   2
ATOM      2  C   UNL     1      14.617  15.218  17.532  1.00  0.00     0.000 C 
BRANCH   2   3
ATOM      3  C   UNL     1      13.857  14.243  16.617  1.00  0.00     0.000 C 
BRANCH   3   4
ATOM      4  C   UNL     1      14.459  12.824  16.631  1.00  0.00    -0.000 C 
BRANCH   4   5
ATOM      5  C   UNL     1      13.636  11.776  17.405  1.00  0.00    -0.000 C 
BRANCH   5   6
ATOM      6  C   UNL     1      12.203  12.208  17.768  1.00  0.00    -0.000 C 
BRANCH   6   7
ATOM      7  C   UNL     1      11.236  12.224  16.565  1.00  0.00    -0.000 C 
BRANCH   7   8
ATOM      8  C   UNL     1       9.815  11.780  16.949  1.00  0.00    -0.000 C 
BRANCH   8   9
ATOM      9  C   UNL     1       8.746  12.830  16.601  1.00  0.00    -0.000 C 
BRANCH   9  10
ATOM     10  C   UNL     1       7.936  12.486  15.334  1.00  0.00    -0.000 C 
BRANCH  10  11
ATOM     11  C   UNL     1       8.633  11.425  14.469  1.00  0.00    -0.003 C 
ATOM     12  C   UNL     1       9.345  12.067  13.281  1.00  0.00     0.004 C 
ENDBRANCH  10  11
ENDBRANCH   9  10
ENDBRANCH   8   9
ENDBRANCH   7   8
ENDBRANCH   6   7
ENDBRANCH   5   6
ENDBRANCH   4   5
ENDBRANCH   3   4
ENDBRANCH   2   3
ENDBRANCH   1   2
BRANCH   1  13
ATOM     13  C   UNL     1      13.286  16.934  16.104  1.00  0.00     0.000 C 
BRANCH  13  14
ATOM     14  C   UNL     1      13.152  18.422  15.737  1.00  0.00     0.000 C 
BRANCH  14  15
ATOM     15  C   UNL     1      14.512  19.099  15.508  1.00  0.00     0.000 C 
BRANCH  15  16
ATOM     16  C   UNL     1      14.436  20.630  15.638  1.00  0.00     0.000 C 
BRANCH  16  17
ATOM     17  C   UNL     1      15.637  21.340  14.990  1.00  0.00     0.000 C 
BRANCH  17  18
ATOM     18  C   UNL     1      16.693  21.774  16.021  1.00  0.00     0.000 C 
BRANCH  18  19
ATOM     19  C   UNL     1      16.080  22.090  17.395  1.00  0.00     0.000 C 
BRANCH  19  20
ATOM     20  C   UNL     1      16.965  21.617  18.562  1.00  0.00     0.006 C 
BRANCH  20  21
ATOM     21  C   UNL     1      16.160  20.873  19.637  1.00  0.00     0.053 C 
BRANCH  21  22
ATOM     22  C   UNL     1      16.736  19.523  19.933  1.00  0.00     0.041 C 
ATOM     23  O   UNL     1      17.375  19.326  21.001  1.00  0.00    -0.550 OA
ATOM     24  O   UNL     1      16.592  18.488  19.017  1.00  0.00    -0.550 OA
ENDBRANCH  21  22
ENDBRANCH  20  21
ENDBRANCH  19  20
ENDBRANCH  18  19
ENDBRANCH  17  18
ENDBRANCH  16  17
ENDBRANCH  15  16
ENDBRANCH  14  15
ENDBRANCH  13  14
ENDBRANCH   1  13
TORSDOF 20
ENDMDL
MODEL 3
REMARK VINA RESULT:    15.467      3.561      9.991
REMARK INTER + INTRA:          32.840
REMARK INTER:                  33.594
REMARK INTRA:                  -0.753
REMARK UNBOUND:                -0.710
REMARK SMILES CCCCCCCCCCCCCCCCCCCCCC(=O)[O-]
REMARK SMILES IDX 12 1 11 2 10 3 9 4 8 5 7 6 6 7 5 8 4 9 3 10 2 11 1 12 13 13
REMARK SMILES IDX 14 14 15 15 16 16 17 17 18 18 19 19 20 20 21 21 22 22 23 23
REMARK SMILES IDX 24 24
REMARK H PARENT
REMARK Flexibility Score: inf
ROOT
ATOM      1  C   UNL     1      14.503  16.756  17.161  1.00  0.00     0.000 C 
ENDROOT
BRANCH   1   2
ATOM      2  C   UNL     1      13.422  17.037  16.101  1.00  0.00     0.000 C 
BRANCH   2   3
ATOM      3  C   UNL     1      13.317  18.525  15.730  1.00  0.00     0.000 C 
BRANCH   3   4
ATOM      4  C   UNL     1      14.692  19.173  15.472  1.00  0.00    -0.000 C 
BRANCH   4   5
ATOM      5  C   UNL     1      14.650  20.675  15.132  1.00  0.00    -0.000 C 
BRANCH   5   6
ATOM      6  C   UNL     1      16.018  21.383  15.126  1.00  0.00    -0.000 C 
BRANCH   6   7
ATOM      7  C   UNL     1      16.319  22.163  16.424  1.00  0.00    -0.000 C 
BRANCH   7   8
ATOM      8  C   UNL     1      15.075  22.321  17.314  1.00  0.00    -0.000 C 
BRANCH   8   9
ATOM      9  C   UNL     1      15.294  21.797  18.743  1.00  0.00    -0.000 C 
BRANCH   9  10
ATOM     10  C   UNL     1      16.720  21.266  18.993  1.00  0.00    -0.000 C 
BRANCH  10  11
ATOM     11  C   UNL     1      16.728  19.775  19.363  1.00  0.00    -0.003 C 
ATOM     12  C   UNL     1      16.851  19.584  20.872  1.00  0.00     0.004 C 
ENDBRANCH  10  11
ENDBRANCH   9  10
ENDBRANCH   8   9
ENDBRANCH   7   8
ENDBRANCH   6   7
ENDBRANCH   5   6
ENDBRANCH   4   5
ENDBRANCH   3   4
ENDBRANCH   2   3
ENDBRANCH   1   2
BRANCH   1  13
ATOM     13  C   UNL     1      14.563  15.304  17.666  1.00  0.00     0.000 C 
BRANCH  13  14
ATOM     14  C   UNL     1      13.681  14.347  16.845  1.00  0.00     0.000 C 
BRANCH  14  15
ATOM     15  C   UNL     1      14.373  13.006  16.558  1.00  0.00     0.000 C 
BRANCH  15  16
ATOM     16  C   UNL     1      13.898  11.885  17.499  1.00  0.00     0.000 C 
BRANCH  16  17
ATOM     17  C   UNL     1      12.406  11.999  17.850  1.00  0.00     0.000 C 
BRANCH  17  18
ATOM     18  C   UNL     1      11.543  12.391  16.638  1.00  0.00     0.000 C 
BRANCH  18  19
ATOM     19  C   UNL     1      10.163  11.712  16.654  1.00  0.00     0.000 C 
BRANCH  19  20
ATOM     20  C   UNL     1       9.011  12.716  16.836  1.00  0.00     0.006 C 
BRANCH  20  21
ATOM     21  C   UNL     1       8.015  12.675  15.669  1.00  0.00     0.053 C 
BRANCH  21  22
ATOM     22  C   UNL     1       8.656  12.193  14.403  1.00  0.00     0.041 C 
ATOM     23  O   UNL     1       9.455  12.936  13.774  1.00  0.00    -0.550 OA
ATOM     24  O   UNL     1       8.350  10.933  13.904  1.00  0.00    -0.550 OA
ENDBRANCH  21  22
ENDBRANCH  20  21
ENDBRANCH  19  20
ENDBRANCH  18  19
ENDBRANCH  17  18
ENDBRANCH  16  17
ENDBRANCH  15  16
ENDBRANCH  14  15
ENDBRANCH  13  14
ENDBRANCH   1  13
TORSDOF 20
ENDMDL
MODEL 4
REMARK VINA RESULT:    15.643      2.007      3.147
REMARK INTER + INTRA:          33.223
REMARK INTER:                  34.436
REMARK INTRA:                  -1.213
REMARK UNBOUND:                -0.710
REMARK SMILES CCCCCCCCCCCCCCCCCCCCCC(=O)[O-]
REMARK SMILES IDX 12 1 11 2 10 3 9 4 8 5 7 6 6 7 5 8 4 9 3 10 2 11 1 12 13 13
REMARK SMILES IDX 14 14 15 15 16 16 17 17 18 18 19 19 20 20 21 21 22 22 23 23
REMARK SMILES IDX 24 24
REMARK H PARENT
REMARK Flexibility Score: inf
ROOT
ATOM      1  C   UNL     1      14.522  16.721  17.398  1.00  0.00     0.000 C 
ENDROOT
BRANCH   1   2
ATOM      2  C   UNL     1      13.665  15.587  16.807  1.00  0.00     0.000 C 
BRANCH   2   3
ATOM      3  C   UNL     1      14.414  14.246  16.730  1.00  0.00     0.000 C 
BRANCH   3   4
ATOM      4  C   UNL     1      13.944  13.240  17.798  1.00  0.00    -0.000 C 
BRANCH   4   5
ATOM      5  C   UNL     1      13.648  11.823  17.271  1.00  0.00    -0.000 C 
BRANCH   5   6
ATOM      6  C   UNL     1      12.187  11.358  17.426  1.00  0.00    -0.000 C 
BRANCH   6   7
ATOM      7  C   UNL     1      11.161  12.312  16.779  1.00  0.00    -0.000 C 
BRANCH   7   8
ATOM      8  C   UNL     1       9.752  11.701  16.716  1.00  0.00    -0.000 C 
BRANCH   8   9
ATOM      9  C   UNL     1       8.671  12.728  16.341  1.00  0.00    -0.000 C 
BRANCH   9  10
ATOM     10  C   UNL     1       8.231  12.647  14.865  1.00  0.00    -0.000 C 
BRANCH  10  11
ATOM     11  C   UNL     1       8.690  11.344  14.192  1.00  0.00    -0.003 C 
ATOM     12  C   UNL     1       9.531  11.633  12.952  1.00  0.00     0.004 C 
ENDBRANCH  10  11
ENDBRANCH   9  10
ENDBRANCH   8   9
ENDBRANCH   7   8
ENDBRANCH   6   7
ENDBRANCH   5   6
ENDBRANCH   4   5
ENDBRANCH   3   4
ENDBRANCH   2   3
ENDBRANCH   1   2
BRANCH   1  13
ATOM     13  C   UNL     1      15.883  16.284  17.968  1.00  0.00     0.000 C 
BRANCH  13  14
ATOM     14  C   UNL     1      16.776  17.472  18.366  1.00  0.00     0.000 C 
BRANCH  14  15
ATOM     15  C   UNL     1      15.992  18.591  19.069  1.00  0.00     0.000 C 
BRANCH  15  16
ATOM     16  C   UNL     1      16.904  19.526  19.883  1.00  0.00     0.000 C 
BRANCH  16  17
ATOM     17  C   UNL     1      16.559  21.011  19.683  1.00  0.00     0.000 C 
BRANCH  17  18
ATOM     18  C   UNL     1      16.487  21.406  18.197  1.00  0.00     0.000 C 
BRANCH  18  19
ATOM     19  C   UNL     1      15.215  22.201  17.860  1.00  0.00     0.000 C 
BRANCH  19  20
ATOM     20  C   UNL     1      14.526  21.700  16.578  1.00  0.00     0.006 C 
BRANCH  20  21
ATOM     21  C   UNL     1      15.443  20.798  15.741  1.00  0.00     0.053 C 
BRANCH  21  22
ATOM     22  C   UNL     1      16.287  21.587  14.788  1.00  0.00     0.041 C 
ATOM     23  O   UNL     1      16.100  21.490  13.546  1.00  0.00    -0.550 OA
ATOM     24  O   UNL     1      17.298  22.409  15.269  1.00  0.00    -0.550 OA
ENDBRANCH  21  22
ENDBRANCH  20  21
ENDBRANCH  19  20
ENDBRANCH  18  19
ENDBRANCH  17  18
ENDBRANCH  16  17
ENDBRANCH  15  16
ENDBRANCH  14  15
ENDBRANCH  13  14
ENDBRANCH   1  13
TORSDOF 20
ENDMDL
MODEL 5
REMARK VINA RESULT:    16.027      0.947      2.100
REMARK INTER + INTRA:          34.056
REMARK INTER:                  35.377
REMARK INTRA:                  -1.321
REMARK UNBOUND:                -0.710
REMARK SMILES CCCCCCCCCCCCCCCCCCCCCC(=O)[O-]
REMARK SMILES IDX 12 1 11 2 10 3 9 4 8 5 7 6 6 7 5 8 4 9 3 10 2 11 1 12 13 13
REMARK SMILES IDX 14 14 15 15 16 16 17 17 18 18 19 19 20 20 21 21 22 22 23 23
REMARK SMILES IDX 24 24
REMARK H PARENT
REMARK Flexibility Score: inf
ROOT
ATOM      1  C   UNL     1      14.419  16.179  17.084  1.00  0.00     0.000 C 
ENDROOT
BRANCH   1   2
ATOM      2  C   UNL     1      14.370  14.794  17.755  1.00  0.00     0.000 C 
BRANCH   2   3
ATOM      3  C   UNL     1      13.521  13.778  16.974  1.00  0.00     0.000 C 
BRANCH   3   4
ATOM      4  C   UNL     1      13.368  12.436  17.717  1.00  0.00    -0.000 C 
BRANCH   4   5
ATOM      5  C   UNL     1      11.950  11.834  17.685  1.00  0.00    -0.000 C 
BRANCH   5   6
ATOM      6  C   UNL     1      11.085  12.258  16.482  1.00  0.00    -0.000 C 
BRANCH   6   7
ATOM      7  C   UNL     1       9.979  11.242  16.124  1.00  0.00    -0.000 C 
BRANCH   7   8
ATOM      8  C   UNL     1       9.135  11.696  14.922  1.00  0.00    -0.000 C 
BRANCH   8   9
ATOM      9  C   UNL     1       8.328  12.974  15.207  1.00  0.00    -0.000 C 
BRANCH   9  10
ATOM     10  C   UNL     1       7.908  13.119  16.684  1.00  0.00    -0.000 C 
BRANCH  10  11
ATOM     11  C   UNL     1       7.934  14.582  17.154  1.00  0.00    -0.003 C 
ATOM     12  C   UNL     1       7.876  14.670  18.676  1.00  0.00     0.004 C 
ENDBRANCH  10  11
ENDBRANCH   9  10
ENDBRANCH   8   9
ENDBRANCH   7   8
ENDBRANCH   6   7
ENDBRANCH   5   6
ENDBRANCH   4   5
ENDBRANCH   3   4
ENDBRANCH   2   3
ENDBRANCH   1   2
BRANCH   1  13
ATOM     13  C   UNL     1      13.197  16.530  16.218  1.00  0.00     0.000 C 
BRANCH  13  14
ATOM     14  C   UNL     1      13.038  18.043  15.989  1.00  0.00     0.000 C 
BRANCH  14  15
ATOM     15  C   UNL     1      14.340  18.709  15.518  1.00  0.00     0.000 C 
BRANCH  15  16
ATOM     16  C   UNL     1      14.253  20.245  15.533  1.00  0.00     0.000 C 
BRANCH  16  17
ATOM     17  C   UNL     1      15.614  20.918  15.283  1.00  0.00     0.000 C 
BRANCH  17  18
ATOM     18  C   UNL     1      16.040  21.835  16.442  1.00  0.00     0.000 C 
BRANCH  18  19
ATOM     19  C   UNL     1      14.932  22.011  17.493  1.00  0.00     0.000 C 
BRANCH  19  20
ATOM     20  C   UNL     1      15.443  21.815  18.932  1.00  0.00     0.006 C 
BRANCH  20  21
ATOM     21  C   UNL     1      16.834  21.168  18.970  1.00  0.00     0.053 C 
BRANCH  21  22
ATOM     22  C   UNL     1      16.800  19.806  19.594  1.00  0.00     0.041 C 
ATOM     23  O   UNL     1      17.205  19.639  20.775  1.00  0.00    -0.550 OA
ATOM     24  O   UNL     1      16.348  18.716  18.861  1.00  0.00    -0.550 OA
ENDBRANCH  21  22
ENDBRANCH  20  21
ENDBRANCH  19  20
ENDBRANCH  18  19
ENDBRANCH  17  18
ENDBRANCH  16  17
ENDBRANCH  15  16
ENDBRANCH  14  15
ENDBRANCH  13  14
ENDBRANCH   1  13
TORSDOF 20
ENDMDL
MODEL 6
REMARK VINA RESULT:    16.052      3.510      9.631
REMARK INTER + INTRA:          34.109
REMARK INTER:                  35.277
REMARK INTRA:                  -1.169
REMARK UNBOUND:                -0.710
REMARK SMILES CCCCCCCCCCCCCCCCCCCCCC(=O)[O-]
REMARK SMILES IDX 12 1 11 2 10 3 9 4 8 5 7 6 6 7 5 8 4 9 3 10 2 11 1 12 13 13
REMARK SMILES IDX 14 14 15 15 16 16 17 17 18 18 19 19 20 20 21 21 22 22 23 23
REMARK SMILES IDX 24 24
REMARK H PARENT
REMARK Flexibility Score: inf
ROOT
ATOM      1  C   UNL     1      14.864  16.492  18.035  1.00  0.00     0.000 C 
ENDROOT
BRANCH   1   2
ATOM      2  C   UNL     1      16.303  16.873  17.643  1.00  0.00     0.000 C 
BRANCH   2   3
ATOM      3  C   UNL     1      17.000  17.750  18.696  1.00  0.00     0.000 C 
BRANCH   3   4
ATOM      4  C   UNL     1      16.059  18.806  19.308  1.00  0.00    -0.000 C 
BRANCH   4   5
ATOM      5  C   UNL     1      16.750  19.850  20.206  1.00  0.00    -0.000 C 
BRANCH   5   6
ATOM      6  C   UNL     1      16.921  21.246  19.577  1.00  0.00    -0.000 C 
BRANCH   6   7
ATOM      7  C   UNL     1      16.449  21.326  18.109  1.00  0.00    -0.000 C 
BRANCH   7   8
ATOM      8  C   UNL     1      15.101  22.050  17.966  1.00  0.00    -0.000 C 
BRANCH   8   9
ATOM      9  C   UNL     1      14.573  22.049  16.521  1.00  0.00    -0.000 C 
BRANCH   9  10
ATOM     10  C   UNL     1      14.727  20.689  15.811  1.00  0.00    -0.000 C 
BRANCH  10  11
ATOM     11  C   UNL     1      15.845  20.707  14.757  1.00  0.00    -0.003 C 
ATOM     12  C   UNL     1      16.503  22.082  14.679  1.00  0.00     0.004 C 
ENDBRANCH  10  11
ENDBRANCH   9  10
ENDBRANCH   8   9
ENDBRANCH   7   8
ENDBRANCH   6   7
ENDBRANCH   5   6
ENDBRANCH   4   5
ENDBRANCH   3   4
ENDBRANCH   2   3
ENDBRANCH   1   2
BRANCH   1  13
ATOM     13  C   UNL     1      13.867  16.409  16.866  1.00  0.00     0.000 C 
BRANCH  13  14
ATOM     14  C   UNL     1      13.492  14.962  16.499  1.00  0.00     0.000 C 
BRANCH  14  15
ATOM     15  C   UNL     1      14.371  13.924  17.214  1.00  0.00     0.000 C 
BRANCH  15  16
ATOM     16  C   UNL     1      14.330  12.547  16.529  1.00  0.00     0.000 C 
BRANCH  16  17
ATOM     17  C   UNL     1      13.521  11.512  17.328  1.00  0.00     0.000 C 
BRANCH  17  18
ATOM     18  C   UNL     1      12.270  12.119  17.986  1.00  0.00     0.000 C 
BRANCH  18  19
ATOM     19  C   UNL     1      11.120  12.325  16.986  1.00  0.00     0.000 C 
BRANCH  19  20
ATOM     20  C   UNL     1      10.085  11.187  17.031  1.00  0.00     0.006 C 
BRANCH  20  21
ATOM     21  C   UNL     1       9.379  10.991  15.682  1.00  0.00     0.053 C 
BRANCH  21  22
ATOM     22  C   UNL     1       8.763  12.262  15.184  1.00  0.00     0.041 C 
ATOM     23  O   UNL     1       8.076  12.980  15.958  1.00  0.00    -0.550 OA
ATOM     24  O   UNL     1       8.924  12.640  13.856  1.00  0.00    -0.550 OA
ENDBRANCH  21  22
ENDBRANCH  20  21
ENDBRANCH  19  20
ENDBRANCH  18  19
ENDBRANCH  17  18
ENDBRANCH  16  17
ENDBRANCH  15  16
ENDBRANCH  14  15
ENDBRANCH  13  14
ENDBRANCH   1  13
TORSDOF 20
ENDMDL
MODEL 7
REMARK VINA RESULT:    16.123      1.819      3.426
REMARK INTER + INTRA:          34.263
REMARK INTER:                  35.703
REMARK INTRA:                  -1.440
REMARK UNBOUND:                -0.710
REMARK SMILES CCCCCCCCCCCCCCCCCCCCCC(=O)[O-]
REMARK SMILES IDX 12 1 11 2 10 3 9 4 8 5 7 6 6 7 5 8 4 9 3 10 2 11 1 12 13 13
REMARK SMILES IDX 14 14 15 15 16 16 17 17 18 18 19 19 20 20 21 21 22 22 23 23
REMARK SMILES IDX 24 24
REMARK H PARENT
REMARK Flexibility Score: inf
ROOT
ATOM      1  C   UNL     1      14.955  16.444  18.318  1.00  0.00     0.000 C 
ENDROOT
BRANCH   1   2
ATOM      2  C   UNL     1      14.000  16.466  17.110  1.00  0.00     0.000 C 
BRANCH   2   3
ATOM      3  C   UNL     1      13.755  15.071  16.513  1.00  0.00     0.000 C 
BRANCH   3   4
ATOM      4  C   UNL     1      14.249  13.936  17.431  1.00  0.00    -0.000 C 
BRANCH   4   5
ATOM      5  C   UNL     1      14.404  12.565  16.744  1.00  0.00    -0.000 C 
BRANCH   5   6
ATOM      6  C   UNL     1      13.354  11.511  17.141  1.00  0.00    -0.000 C 
BRANCH   6   7
ATOM      7  C   UNL     1      12.158  12.092  17.927  1.00  0.00    -0.000 C 
BRANCH   7   8
ATOM      8  C   UNL     1      10.806  11.704  17.307  1.00  0.00    -0.000 C 
BRANCH   8   9
ATOM      9  C   UNL     1      10.394  12.627  16.148  1.00  0.00    -0.000 C 
BRANCH   9  10
ATOM     10  C   UNL     1       9.264  12.048  15.272  1.00  0.00    -0.000 C 
BRANCH  10  11
ATOM     11  C   UNL     1       7.885  12.604  15.660  1.00  0.00    -0.003 C 
ATOM     12  C   UNL     1       7.961  13.404  16.957  1.00  0.00     0.004 C 
ENDBRANCH  10  11
ENDBRANCH   9  10
ENDBRANCH   8   9
ENDBRANCH   7   8
ENDBRANCH   6   7
ENDBRANCH   5   6
ENDBRANCH   4   5
ENDBRANCH   3   4
ENDBRANCH   2   3
ENDBRANCH   1   2
BRANCH   1  13
ATOM     13  C   UNL     1      16.301  17.156  18.100  1.00  0.00     0.000 C 
BRANCH  13  14
ATOM     14  C   UNL     1      16.252  18.653  18.450  1.00  0.00     0.000 C 
BRANCH  14  15
ATOM     15  C   UNL     1      16.763  18.945  19.869  1.00  0.00     0.000 C 
BRANCH  15  16
ATOM     16  C   UNL     1      16.772  20.449  20.194  1.00  0.00     0.000 C 
BRANCH  16  17
ATOM     17  C   UNL     1      16.523  21.324  18.954  1.00  0.00     0.000 C 
BRANCH  17  18
ATOM     18  C   UNL     1      17.827  21.847  18.328  1.00  0.00     0.000 C 
BRANCH  18  19
ATOM     19  C   UNL     1      17.756  21.923  16.794  1.00  0.00     0.000 C 
BRANCH  19  20
ATOM     20  C   UNL     1      16.372  22.366  16.287  1.00  0.00     0.006 C 
BRANCH  20  21
ATOM     21  C   UNL     1      15.853  21.467  15.156  1.00  0.00     0.053 C 
BRANCH  21  22
ATOM     22  C   UNL     1      14.618  20.721  15.557  1.00  0.00     0.041 C 
ATOM     23  O   UNL     1      13.651  21.332  16.086  1.00  0.00    -0.550 OA
ATOM     24  O   UNL     1      14.545  19.346  15.373  1.00  0.00    -0.550 OA
ENDBRANCH  21  22
ENDBRANCH  20  21
ENDBRANCH  19  20
ENDBRANCH  18  19
ENDBRANCH  17  18
ENDBRANCH  16  17
ENDBRANCH  15  16
ENDBRANCH  14  15
ENDBRANCH  13  14
ENDBRANCH   1  13
TORSDOF 20
ENDMDL
MODEL 8
REMARK VINA RESULT:    16.302      1.856      2.821
REMARK INTER + INTRA:          34.652
REMARK INTER:                  35.138
REMARK INTRA:                  -0.486
REMARK UNBOUND:                -0.710
REMARK SMILES CCCCCCCCCCCCCCCCCCCCCC(=O)[O-]
REMARK SMILES IDX 12 1 11 2 10 3 9 4 8 5 7 6 6 7 5 8 4 9 3 10 2 11 1 12 13 13
REMARK SMILES IDX 14 14 15 15 16 16 17 17 18 18 19 19 20 20 21 21 22 22 23 23
REMARK SMILES IDX 24 24
REMARK H PARENT
REMARK Flexibility Score: inf
ROOT
ATOM      1  C   UNL     1      15.044  14.464  17.421  1.00  0.00     0.000 C 
ENDROOT
BRANCH   1   2
ATOM      2  C   UNL     1      14.392  13.530  16.385  1.00  0.00     0.000 C 
BRANCH   2   3
ATOM      3  C   UNL     1      14.613  12.041  16.696  1.00  0.00     0.000 C 
BRANCH   3   4
ATOM      4  C   UNL     1      13.410  11.398  17.413  1.00  0.00    -0.000 C 
BRANCH   4   5
ATOM      5  C   UNL     1      12.243  12.358  17.714  1.00  0.00    -0.000 C 
BRANCH   5   6
ATOM      6  C   UNL     1      11.067  12.290  16.721  1.00  0.00    -0.000 C 
BRANCH   6   7
ATOM      7  C   UNL     1       9.756  11.765  17.345  1.00  0.00    -0.000 C 
BRANCH   7   8
ATOM      8  C   UNL     1       8.635  12.817  17.324  1.00  0.00    -0.000 C 
BRANCH   8   9
ATOM      9  C   UNL     1       7.965  12.947  15.946  1.00  0.00    -0.000 C 
BRANCH   9  10
ATOM     10  C   UNL     1       8.928  12.701  14.767  1.00  0.00    -0.000 C 
BRANCH  10  11
ATOM     11  C   UNL     1       8.682  11.346  14.088  1.00  0.00    -0.003 C 
ATOM     12  C   UNL     1       9.401  11.265  12.745  1.00  0.00     0.004 C 
ENDBRANCH  10  11
ENDBRANCH   9  10
ENDBRANCH   8   9
ENDBRANCH   7   8
ENDBRANCH   6   7
ENDBRANCH   5   6
ENDBRANCH   4   5
ENDBRANCH   3   4
ENDBRANCH   2   3
ENDBRANCH   1   2
BRANCH   1  13
ATOM     13  C   UNL     1      14.226  15.717  17.779  1.00  0.00     0.000 C 
BRANCH  13  14
ATOM     14  C   UNL     1      14.946  17.027  17.416  1.00  0.00     0.000 C 
BRANCH  14  15
ATOM     15  C   UNL     1      16.117  17.339  18.361  1.00  0.00     0.000 C 
BRANCH  15  16
ATOM     16  C   UNL     1      15.834  18.547  19.271  1.00  0.00     0.000 C 
BRANCH  16  17
ATOM     17  C   UNL     1      17.119  19.237  19.756  1.00  0.00     0.000 C 
BRANCH  17  18
ATOM     18  C   UNL     1      16.915  20.736  20.036  1.00  0.00     0.000 C 
BRANCH  18  19
ATOM     19  C   UNL     1      15.855  21.368  19.118  1.00  0.00     0.000 C 
BRANCH  19  20
ATOM     20  C   UNL     1      16.425  21.776  17.748  1.00  0.00     0.006 C 
BRANCH  20  21
ATOM     21  C   UNL     1      15.320  22.074  16.725  1.00  0.00     0.053 C 
BRANCH  21  22
ATOM     22  C   UNL     1      15.474  21.256  15.480  1.00  0.00     0.041 C 
ATOM     23  O   UNL     1      16.338  21.569  14.618  1.00  0.00    -0.550 OA
ATOM     24  O   UNL     1      14.645  20.164  15.258  1.00  0.00    -0.550 OA
ENDBRANCH  21  22
ENDBRANCH  20  21
ENDBRANCH  19  20
ENDBRANCH  18  19
ENDBRANCH  17  18
ENDBRANCH  16  17
ENDBRANCH  15  16
ENDBRANCH  14  15
ENDBRANCH  13  14
ENDBRANCH   1  13
TORSDOF 20
ENDMDL
MODEL 9
REMARK VINA RESULT:    16.484      3.845      9.816
REMARK INTER + INTRA:          35.047
REMARK INTER:                  36.126
REMARK INTRA:                  -1.079
REMARK UNBOUND:                -0.710
REMARK SMILES CCCCCCCCCCCCCCCCCCCCCC(=O)[O-]
REMARK SMILES IDX 12 1 11 2 10 3 9 4 8 5 7 6 6 7 5 8 4 9 3 10 2 11 1 12 13 13
REMARK SMILES IDX 14 14 15 15 16 16 17 17 18 18 19 19 20 20 21 21 22 22 23 23
REMARK SMILES IDX 24 24
REMARK H PARENT
REMARK Flexibility Score: inf
ROOT
ATOM      1  C   UNL     1      13.672  15.259  16.462  1.00  0.00     0.000 C 
ENDROOT
BRANCH   1   2
ATOM      2  C   UNL     1      13.950  16.673  17.005  1.00  0.00     0.000 C 
BRANCH   2   3
ATOM      3  C   UNL     1      15.152  16.724  17.962  1.00  0.00     0.000 C 
BRANCH   3   4
ATOM      4  C   UNL     1      15.311  18.097  18.645  1.00  0.00    -0.000 C 
BRANCH   4   5
ATOM      5  C   UNL     1      16.750  18.451  19.066  1.00  0.00    -0.000 C 
BRANCH   5   6
ATOM      6  C   UNL     1      16.867  19.305  20.343  1.00  0.00    -0.000 C 
BRANCH   6   7
ATOM      7  C   UNL     1      16.910  20.824  20.073  1.00  0.00    -0.000 C 
BRANCH   7   8
ATOM      8  C   UNL     1      16.847  21.154  18.573  1.00  0.00    -0.000 C 
BRANCH   8   9
ATOM      9  C   UNL     1      15.481  21.713  18.141  1.00  0.00    -0.000 C 
BRANCH   9  10
ATOM     10  C   UNL     1      15.386  22.006  16.629  1.00  0.00    -0.000 C 
BRANCH  10  11
ATOM     11  C   UNL     1      14.204  21.279  15.970  1.00  0.00    -0.003 C 
ATOM     12  C   UNL     1      14.652  19.963  15.339  1.00  0.00     0.004 C 
ENDBRANCH  10  11
ENDBRANCH   9  10
ENDBRANCH   8   9
ENDBRANCH   7   8
ENDBRANCH   6   7
ENDBRANCH   5   6
ENDBRANCH   4   5
ENDBRANCH   3   4
ENDBRANCH   2   3
ENDBRANCH   1   2
BRANCH   1  13
ATOM     13  C   UNL     1      14.198  14.108  17.337  1.00  0.00     0.000 C 
BRANCH  13  14
ATOM     14  C   UNL     1      14.426  12.809  16.546  1.00  0.00     0.000 C 
BRANCH  14  15
ATOM     15  C   UNL     1      13.749  11.593  17.197  1.00  0.00     0.000 C 
BRANCH  15  16
ATOM     16  C   UNL     1      12.417  11.956  17.877  1.00  0.00     0.000 C 
BRANCH  16  17
ATOM     17  C   UNL     1      11.272  12.152  16.870  1.00  0.00     0.000 C 
BRANCH  17  18
ATOM     18  C   UNL     1       9.893  11.841  17.476  1.00  0.00     0.000 C 
BRANCH  18  19
ATOM     19  C   UNL     1       8.844  12.913  17.137  1.00  0.00     0.000 C 
BRANCH  19  20
ATOM     20  C   UNL     1       8.147  12.653  15.789  1.00  0.00     0.006 C 
BRANCH  20  21
ATOM     21  C   UNL     1       9.126  12.713  14.608  1.00  0.00     0.053 C 
BRANCH  21  22
ATOM     22  C   UNL     1       8.942  11.559  13.670  1.00  0.00     0.041 C 
ATOM     23  O   UNL     1       8.037  10.709  13.881  1.00  0.00    -0.550 OA
ATOM     24  O   UNL     1       9.788  11.408  12.579  1.00  0.00    -0.550 OA
ENDBRANCH  21  22
ENDBRANCH  20  21
ENDBRANCH  19  20
ENDBRANCH  18  19
ENDBRANCH  17  18
ENDBRANCH  16  17
ENDBRANCH  15  16
ENDBRANCH  14  15
ENDBRANCH  13  14
ENDBRANCH   1  13
TORSDOF 20
ENDMDL
