MODEL 1
REMARK VINA RESULT:     4.971      0.000      0.000
REMARK INTER + INTRA:           8.969
REMARK INTER:                   8.458
REMARK INTRA:                   0.511
REMARK UNBOUND:                 0.511
REMARK SMILES CCCCCCCCCCCCCC(=O)[O-]
REMARK SMILES IDX 8 1 9 2 10 3 11 4 12 5 13 6 14 7 15 8 16 9 7 10 6 11 5 12
REMARK SMILES IDX 4 13 3 14 2 15 1 16
REMARK H PARENT
REMARK Flexibility Score: inf
ROOT
ATOM      1  C   UNL     1     -32.548  19.305 -10.537  1.00  0.00     0.000 C 
ENDROOT
BRANCH   1   2
ATOM      2  C   UNL     1     -31.420  18.296 -10.814  1.00  0.00     0.000 C 
BRANCH   2   3
ATOM      3  C   UNL     1     -31.580  16.992 -10.018  1.00  0.00     0.000 C 
BRANCH   3   4
ATOM      4  C   UNL     1     -31.148  15.781 -10.856  1.00  0.00     0.000 C 
BRANCH   4   5
ATOM      5  C   UNL     1     -29.629  15.782 -11.082  1.00  0.00     0.006 C 
BRANCH   5   6
ATOM      6  C   UNL     1     -29.059  17.201 -11.193  1.00  0.00     0.053 C 
BRANCH   6   7
ATOM      7  C   UNL     1     -28.777  17.577 -12.615  1.00  0.00     0.041 C 
ATOM      8  O   UNL     1     -28.879  16.719 -13.531  1.00  0.00    -0.550 OA
ATOM      9  O   UNL     1     -28.368  18.867 -12.924  1.00  0.00    -0.550 OA
ENDBRANCH   6   7
ENDBRANCH   5   6
ENDBRANCH   4   5
ENDBRANCH   3   4
ENDBRANCH   2   3
ENDBRANCH   1   2
BRANCH   1  10
ATOM     10  C   UNL     1     -32.094  20.774 -10.398  1.00  0.00     0.000 C 
BRANCH  10  11
ATOM     11  C   UNL     1     -30.600  21.030 -10.669  1.00  0.00    -0.000 C 
BRANCH  11  12
ATOM     12  C   UNL     1     -30.194  22.497 -10.445  1.00  0.00    -0.000 C 
BRANCH  12  13
ATOM     13  C   UNL     1     -31.389  23.466 -10.497  1.00  0.00    -0.000 C 
BRANCH  13  14
ATOM     14  C   UNL     1     -31.968  23.867  -9.128  1.00  0.00    -0.000 C 
BRANCH  14  15
ATOM     15  C   UNL     1     -33.494  24.036  -9.146  1.00  0.00    -0.003 C 
ATOM     16  C   UNL     1     -34.021  24.124 -10.576  1.00  0.00     0.004 C 
ENDBRANCH  14  15
ENDBRANCH  13  14
ENDBRANCH  12  13
ENDBRANCH  11  12
ENDBRANCH  10  11
ENDBRANCH   1  10
TORSDOF 12
ENDMDL
MODEL 2
REMARK VINA RESULT:     5.218      2.407      3.416
REMARK INTER + INTRA:           9.390
REMARK INTER:                   9.933
REMARK INTRA:                  -0.543
REMARK UNBOUND:                 0.511
REMARK SMILES CCCCCCCCCCCCCC(=O)[O-]
REMARK SMILES IDX 8 1 9 2 10 3 11 4 12 5 13 6 14 7 15 8 16 9 7 10 6 11 5 12
REMARK SMILES IDX 4 13 3 14 2 15 1 16
REMARK H PARENT
REMARK Flexibility Score: inf
ROOT
ATOM      1  C   UNL     1     -30.258  17.682 -10.385  1.00  0.00     0.000 C 
ENDROOT
BRANCH   1   2
ATOM      2  C   UNL     1     -29.589  16.783 -11.440  1.00  0.00     0.000 C 
BRANCH   2   3
ATOM      3  C   UNL     1     -28.819  17.583 -12.502  1.00  0.00     0.000 C 
BRANCH   3   4
ATOM      4  C   UNL     1     -28.863  16.875 -13.862  1.00  0.00     0.000 C 
BRANCH   4   5
ATOM      5  C   UNL     1     -28.643  15.364 -13.704  1.00  0.00     0.006 C 
BRANCH   5   6
ATOM      6  C   UNL     1     -28.381  14.672 -15.047  1.00  0.00     0.053 C 
BRANCH   6   7
ATOM      7  C   UNL     1     -27.341  13.601 -14.926  1.00  0.00     0.041 C 
ATOM      8  O   UNL     1     -27.657  12.452 -14.517  1.00  0.00    -0.550 OA
ATOM      9  O   UNL     1     -26.016  13.880 -15.234  1.00  0.00    -0.550 OA
ENDBRANCH   6   7
ENDBRANCH   5   6
ENDBRANCH   4   5
ENDBRANCH   3   4
ENDBRANCH   2   3
ENDBRANCH   1   2
BRANCH   1  10
ATOM     10  C   UNL     1     -31.801  17.661 -10.390  1.00  0.00     0.000 C 
BRANCH  10  11
ATOM     11  C   UNL     1     -32.479  19.043 -10.389  1.00  0.00    -0.000 C 
BRANCH  11  12
ATOM     12  C   UNL     1     -31.471  20.205 -10.411  1.00  0.00    -0.000 C 
BRANCH  12  13
ATOM     13  C   UNL     1     -32.149  21.587 -10.452  1.00  0.00    -0.000 C 
BRANCH  13  14
ATOM     14  C   UNL     1     -31.413  22.701  -9.686  1.00  0.00    -0.000 C 
BRANCH  14  15
ATOM     15  C   UNL     1     -32.020  24.092  -9.917  1.00  0.00    -0.003 C 
ATOM     16  C   UNL     1     -33.545  24.043  -9.857  1.00  0.00     0.004 C 
ENDBRANCH  14  15
ENDBRANCH  13  14
ENDBRANCH  12  13
ENDBRANCH  11  12
ENDBRANCH  10  11
ENDBRANCH   1  10
TORSDOF 12
ENDMDL
MODEL 3
REMARK VINA RESULT:     5.294      3.058      6.009
REMARK INTER + INTRA:           9.519
REMARK INTER:                  10.288
REMARK INTRA:                  -0.769
REMARK UNBOUND:                 0.511
REMARK SMILES CCCCCCCCCCCCCC(=O)[O-]
REMARK SMILES IDX 8 1 9 2 10 3 11 4 12 5 13 6 14 7 15 8 16 9 7 10 6 11 5 12
REMARK SMILES IDX 4 13 3 14 2 15 1 16
REMARK H PARENT
REMARK Flexibility Score: inf
ROOT
ATOM      1  C   UNL     1     -31.498  17.125 -10.268  1.00  0.00     0.000 C 
ENDROOT
BRANCH   1   2
ATOM      2  C   UNL     1     -31.364  18.646 -10.455  1.00  0.00     0.000 C 
BRANCH   2   3
ATOM      3  C   UNL     1     -32.709  19.380 -10.349  1.00  0.00     0.000 C 
BRANCH   3   4
ATOM      4  C   UNL     1     -32.505  20.842  -9.934  1.00  0.00     0.000 C 
BRANCH   4   5
ATOM      5  C   UNL     1     -31.185  21.394 -10.490  1.00  0.00     0.006 C 
BRANCH   5   6
ATOM      6  C   UNL     1     -31.293  22.873 -10.882  1.00  0.00     0.053 C 
BRANCH   6   7
ATOM      7  C   UNL     1     -32.224  23.620  -9.978  1.00  0.00     0.041 C 
ATOM      8  O   UNL     1     -31.799  24.125  -8.905  1.00  0.00    -0.550 OA
ATOM      9  O   UNL     1     -33.570  23.731 -10.304  1.00  0.00    -0.550 OA
ENDBRANCH   6   7
ENDBRANCH   5   6
ENDBRANCH   4   5
ENDBRANCH   3   4
ENDBRANCH   2   3
ENDBRANCH   1   2
BRANCH   1  10
ATOM     10  C   UNL     1     -30.468  16.276 -11.043  1.00  0.00     0.000 C 
BRANCH  10  11
ATOM     11  C   UNL     1     -29.125  16.970 -11.332  1.00  0.00    -0.000 C 
BRANCH  11  12
ATOM     12  C   UNL     1     -28.933  17.309 -12.820  1.00  0.00    -0.000 C 
BRANCH  12  13
ATOM     13  C   UNL     1     -28.214  18.652 -13.042  1.00  0.00    -0.000 C 
BRANCH  13  14
ATOM     14  C   UNL     1     -28.528  19.743 -12.002  1.00  0.00    -0.000 C 
BRANCH  14  15
ATOM     15  C   UNL     1     -28.018  21.131 -12.414  1.00  0.00    -0.003 C 
ATOM     16  C   UNL     1     -27.315  21.080 -13.767  1.00  0.00     0.004 C 
ENDBRANCH  14  15
ENDBRANCH  13  14
ENDBRANCH  12  13
ENDBRANCH  11  12
ENDBRANCH  10  11
ENDBRANCH   1  10
TORSDOF 12
ENDMDL
MODEL 4
REMARK VINA RESULT:     5.373      1.198      1.951
REMARK INTER + INTRA:           9.653
REMARK INTER:                   8.948
REMARK INTRA:                   0.705
REMARK UNBOUND:                 0.511
REMARK SMILES CCCCCCCCCCCCCC(=O)[O-]
REMARK SMILES IDX 8 1 9 2 10 3 11 4 12 5 13 6 14 7 15 8 16 9 7 10 6 11 5 12
REMARK SMILES IDX 4 13 3 14 2 15 1 16
REMARK H PARENT
REMARK Flexibility Score: inf
ROOT
ATOM      1  C   UNL     1     -31.682  18.754 -10.709  1.00  0.00     0.000 C 
ENDROOT
BRANCH   1   2
ATOM      2  C   UNL     1     -31.777  17.255 -10.375  1.00  0.00     0.000 C 
BRANCH   2   3
ATOM      3  C   UNL     1     -30.415  16.546 -10.431  1.00  0.00     0.000 C 
BRANCH   3   4
ATOM      4  C   UNL     1     -29.295  17.535 -10.777  1.00  0.00     0.000 C 
BRANCH   4   5
ATOM      5  C   UNL     1     -28.885  17.409 -12.251  1.00  0.00     0.006 C 
BRANCH   5   6
ATOM      6  C   UNL     1     -29.065  15.983 -12.784  1.00  0.00     0.053 C 
BRANCH   6   7
ATOM      7  C   UNL     1     -28.884  15.919 -14.270  1.00  0.00     0.041 C 
ATOM      8  O   UNL     1     -29.245  16.882 -14.996  1.00  0.00    -0.550 OA
ATOM      9  O   UNL     1     -28.349  14.779 -14.856  1.00  0.00    -0.550 OA
ENDBRANCH   6   7
ENDBRANCH   5   6
ENDBRANCH   4   5
ENDBRANCH   3   4
ENDBRANCH   2   3
ENDBRANCH   1   2
BRANCH   1  10
ATOM     10  C   UNL     1     -32.777  19.638 -10.074  1.00  0.00     0.000 C 
BRANCH  10  11
ATOM     11  C   UNL     1     -32.423  21.129  -9.936  1.00  0.00    -0.000 C 
BRANCH  11  12
ATOM     12  C   UNL     1     -31.331  21.579 -10.922  1.00  0.00    -0.000 C 
BRANCH  12  13
ATOM     13  C   UNL     1     -30.759  22.970 -10.590  1.00  0.00    -0.000 C 
BRANCH  13  14
ATOM     14  C   UNL     1     -31.728  23.922  -9.865  1.00  0.00    -0.000 C 
BRANCH  14  15
ATOM     15  C   UNL     1     -33.195  23.481  -9.971  1.00  0.00    -0.003 C 
ATOM     16  C   UNL     1     -34.043  24.125  -8.878  1.00  0.00     0.004 C 
ENDBRANCH  14  15
ENDBRANCH  13  14
ENDBRANCH  12  13
ENDBRANCH  11  12
ENDBRANCH  10  11
ENDBRANCH   1  10
TORSDOF 12
ENDMDL
MODEL 5
REMARK VINA RESULT:     5.508      1.592      2.608
REMARK INTER + INTRA:           9.883
REMARK INTER:                  10.627
REMARK INTRA:                  -0.744
REMARK UNBOUND:                 0.511
REMARK SMILES CCCCCCCCCCCCCC(=O)[O-]
REMARK SMILES IDX 8 1 9 2 10 3 11 4 12 5 13 6 14 7 15 8 16 9 7 10 6 11 5 12
REMARK SMILES IDX 4 13 3 14 2 15 1 16
REMARK H PARENT
REMARK Flexibility Score: inf
ROOT
ATOM      1  C   UNL     1     -31.502  17.024 -10.381  1.00  0.00     0.000 C 
ENDROOT
BRANCH   1   2
ATOM      2  C   UNL     1     -29.979  17.245 -10.384  1.00  0.00     0.000 C 
BRANCH   2   3
ATOM      3  C   UNL     1     -29.240  16.284 -11.328  1.00  0.00     0.000 C 
BRANCH   3   4
ATOM      4  C   UNL     1     -28.927  16.964 -12.668  1.00  0.00     0.000 C 
BRANCH   4   5
ATOM      5  C   UNL     1     -29.047  18.490 -12.553  1.00  0.00     0.006 C 
BRANCH   5   6
ATOM      6  C   UNL     1     -27.916  19.218 -13.288  1.00  0.00     0.053 C 
BRANCH   6   7
ATOM      7  C   UNL     1     -27.793  20.644 -12.846  1.00  0.00     0.041 C 
ATOM      8  O   UNL     1     -28.443  21.059 -11.850  1.00  0.00    -0.550 OA
ATOM      9  O   UNL     1     -26.986  21.524 -13.555  1.00  0.00    -0.550 OA
ENDBRANCH   6   7
ENDBRANCH   5   6
ENDBRANCH   4   5
ENDBRANCH   3   4
ENDBRANCH   2   3
ENDBRANCH   1   2
BRANCH   1  10
ATOM     10  C   UNL     1     -32.350  18.310 -10.290  1.00  0.00     0.000 C 
BRANCH  10  11
ATOM     11  C   UNL     1     -31.670  19.587 -10.818  1.00  0.00    -0.000 C 
BRANCH  11  12
ATOM     12  C   UNL     1     -32.015  20.836  -9.989  1.00  0.00    -0.000 C 
BRANCH  12  13
ATOM     13  C   UNL     1     -31.906  22.142 -10.797  1.00  0.00    -0.000 C 
BRANCH  13  14
ATOM     14  C   UNL     1     -31.376  23.356 -10.013  1.00  0.00    -0.000 C 
BRANCH  14  15
ATOM     15  C   UNL     1     -32.482  24.125  -9.276  1.00  0.00    -0.003 C 
ATOM     16  C   UNL     1     -33.783  24.118 -10.074  1.00  0.00     0.004 C 
ENDBRANCH  14  15
ENDBRANCH  13  14
ENDBRANCH  12  13
ENDBRANCH  11  12
ENDBRANCH  10  11
ENDBRANCH   1  10
TORSDOF 12
ENDMDL
MODEL 6
REMARK VINA RESULT:     5.760      3.629      8.026
REMARK INTER + INTRA:          10.311
REMARK INTER:                  10.865
REMARK INTRA:                  -0.554
REMARK UNBOUND:                 0.511
REMARK SMILES CCCCCCCCCCCCCC(=O)[O-]
REMARK SMILES IDX 8 1 9 2 10 3 11 4 12 5 13 6 14 7 15 8 16 9 7 10 6 11 5 12
REMARK SMILES IDX 4 13 3 14 2 15 1 16
REMARK H PARENT
REMARK Flexibility Score: inf
ROOT
ATOM      1  C   UNL     1     -29.045  17.849 -10.500  1.00  0.00     0.000 C 
ENDROOT
BRANCH   1   2
ATOM      2  C   UNL     1     -30.037  19.024 -10.549  1.00  0.00     0.000 C 
BRANCH   2   3
ATOM      3  C   UNL     1     -31.503  18.568 -10.515  1.00  0.00     0.000 C 
BRANCH   3   4
ATOM      4  C   UNL     1     -32.453  19.771 -10.535  1.00  0.00     0.000 C 
BRANCH   4   5
ATOM      5  C   UNL     1     -31.744  21.042 -10.046  1.00  0.00     0.006 C 
BRANCH   5   6
ATOM      6  C   UNL     1     -32.128  22.276 -10.871  1.00  0.00     0.053 C 
BRANCH   6   7
ATOM      7  C   UNL     1     -32.383  23.468 -10.001  1.00  0.00     0.041 C 
ATOM      8  O   UNL     1     -31.454  23.960  -9.309  1.00  0.00    -0.550 OA
ATOM      9  O   UNL     1     -33.657  24.016  -9.930  1.00  0.00    -0.550 OA
ENDBRANCH   6   7
ENDBRANCH   5   6
ENDBRANCH   4   5
ENDBRANCH   3   4
ENDBRANCH   2   3
ENDBRANCH   1   2
BRANCH   1  10
ATOM     10  C   UNL     1     -29.238  16.782 -11.597  1.00  0.00     0.000 C 
BRANCH  10  11
ATOM     11  C   UNL     1     -28.732  17.175 -12.996  1.00  0.00    -0.000 C 
BRANCH  11  12
ATOM     12  C   UNL     1     -29.313  16.294 -14.115  1.00  0.00    -0.000 C 
BRANCH  12  13
ATOM     13  C   UNL     1     -28.245  15.441 -14.824  1.00  0.00    -0.000 C 
BRANCH  13  14
ATOM     14  C   UNL     1     -28.168  13.973 -14.367  1.00  0.00    -0.000 C 
BRANCH  14  15
ATOM     15  C   UNL     1     -27.271  13.111 -15.266  1.00  0.00    -0.003 C 
ATOM     16  C   UNL     1     -25.824  13.596 -15.227  1.00  0.00     0.004 C 
ENDBRANCH  14  15
ENDBRANCH  13  14
ENDBRANCH  12  13
ENDBRANCH  11  12
ENDBRANCH  10  11
ENDBRANCH   1  10
TORSDOF 12
ENDMDL
MODEL 7
REMARK VINA RESULT:     5.945      3.583      6.889
REMARK INTER + INTRA:          10.626
REMARK INTER:                  11.238
REMARK INTRA:                  -0.612
REMARK UNBOUND:                 0.511
REMARK SMILES CCCCCCCCCCCCCC(=O)[O-]
REMARK SMILES IDX 8 1 9 2 10 3 11 4 12 5 13 6 14 7 15 8 16 9 7 10 6 11 5 12
REMARK SMILES IDX 4 13 3 14 2 15 1 16
REMARK H PARENT
REMARK Flexibility Score: inf
ROOT
ATOM      1  C   UNL     1     -29.404  17.849 -10.908  1.00  0.00     0.000 C 
ENDROOT
BRANCH   1   2
ATOM      2  C   UNL     1     -30.825  17.314 -10.654  1.00  0.00     0.000 C 
BRANCH   2   3
ATOM      3  C   UNL     1     -31.857  18.436 -10.461  1.00  0.00     0.000 C 
BRANCH   3   4
ATOM      4  C   UNL     1     -31.170  19.803 -10.359  1.00  0.00     0.000 C 
BRANCH   4   5
ATOM      5  C   UNL     1     -32.204  20.935 -10.274  1.00  0.00     0.006 C 
BRANCH   5   6
ATOM      6  C   UNL     1     -31.637  22.277 -10.751  1.00  0.00     0.053 C 
BRANCH   6   7
ATOM      7  C   UNL     1     -32.238  23.430 -10.008  1.00  0.00     0.041 C 
ATOM      8  O   UNL     1     -31.547  24.085  -9.184  1.00  0.00    -0.550 OA
ATOM      9  O   UNL     1     -33.573  23.760 -10.202  1.00  0.00    -0.550 OA
ENDBRANCH   6   7
ENDBRANCH   5   6
ENDBRANCH   4   5
ENDBRANCH   3   4
ENDBRANCH   2   3
ENDBRANCH   1   2
BRANCH   1  10
ATOM     10  C   UNL     1     -28.873  17.640 -12.342  1.00  0.00     0.000 C 
BRANCH  10  11
ATOM     11  C   UNL     1     -29.096  16.235 -12.930  1.00  0.00    -0.000 C 
BRANCH  11  12
ATOM     12  C   UNL     1     -29.047  16.214 -14.467  1.00  0.00    -0.000 C 
BRANCH  12  13
ATOM     13  C   UNL     1     -29.504  17.541 -15.101  1.00  0.00    -0.000 C 
BRANCH  13  14
ATOM     14  C   UNL     1     -30.329  17.400 -16.393  1.00  0.00    -0.000 C 
BRANCH  14  15
ATOM     15  C   UNL     1     -29.793  18.261 -17.545  1.00  0.00    -0.003 C 
ATOM     16  C   UNL     1     -30.556  19.578 -17.651  1.00  0.00     0.004 C 
ENDBRANCH  14  15
ENDBRANCH  13  14
ENDBRANCH  12  13
ENDBRANCH  11  12
ENDBRANCH  10  11
ENDBRANCH   1  10
TORSDOF 12
ENDMDL
MODEL 8
REMARK VINA RESULT:     6.074      3.352      7.526
REMARK INTER + INTRA:          10.846
REMARK INTER:                  10.891
REMARK INTRA:                  -0.044
REMARK UNBOUND:                 0.511
REMARK SMILES CCCCCCCCCCCCCC(=O)[O-]
REMARK SMILES IDX 8 1 9 2 10 3 11 4 12 5 13 6 14 7 15 8 16 9 7 10 6 11 5 12
REMARK SMILES IDX 4 13 3 14 2 15 1 16
REMARK H PARENT
REMARK Flexibility Score: inf
ROOT
ATOM      1  C   UNL     1     -29.992  19.597 -10.331  1.00  0.00     0.000 C 
ENDROOT
BRANCH   1   2
ATOM      2  C   UNL     1     -31.518  19.440 -10.441  1.00  0.00     0.000 C 
BRANCH   2   3
ATOM      3  C   UNL     1     -32.284  20.624  -9.831  1.00  0.00     0.000 C 
BRANCH   3   4
ATOM      4  C   UNL     1     -32.311  21.816 -10.796  1.00  0.00     0.000 C 
BRANCH   4   5
ATOM      5  C   UNL     1     -31.164  22.792 -10.498  1.00  0.00     0.006 C 
BRANCH   5   6
ATOM      6  C   UNL     1     -31.652  24.060  -9.786  1.00  0.00     0.053 C 
BRANCH   6   7
ATOM      7  C   UNL     1     -33.146  24.105  -9.693  1.00  0.00     0.041 C 
ATOM      8  O   UNL     1     -33.713  24.124  -8.569  1.00  0.00    -0.550 OA
ATOM      9  O   UNL     1     -33.914  24.093 -10.850  1.00  0.00    -0.550 OA
ENDBRANCH   6   7
ENDBRANCH   5   6
ENDBRANCH   4   5
ENDBRANCH   3   4
ENDBRANCH   2   3
ENDBRANCH   1   2
BRANCH   1  10
ATOM     10  C   UNL     1     -29.192  18.278 -10.367  1.00  0.00     0.000 C 
BRANCH  10  11
ATOM     11  C   UNL     1     -30.013  17.019 -10.704  1.00  0.00    -0.000 C 
BRANCH  11  12
ATOM     12  C   UNL     1     -29.482  16.271 -11.938  1.00  0.00    -0.000 C 
BRANCH  12  13
ATOM     13  C   UNL     1     -28.795  17.201 -12.956  1.00  0.00    -0.000 C 
BRANCH  13  14
ATOM     14  C   UNL     1     -28.338  16.522 -14.260  1.00  0.00    -0.000 C 
BRANCH  14  15
ATOM     15  C   UNL     1     -28.906  15.106 -14.432  1.00  0.00    -0.003 C 
ATOM     16  C   UNL     1     -27.809  14.116 -14.812  1.00  0.00     0.004 C 
ENDBRANCH  14  15
ENDBRANCH  13  14
ENDBRANCH  12  13
ENDBRANCH  11  12
ENDBRANCH  10  11
ENDBRANCH   1  10
TORSDOF 12
ENDMDL
