MODEL 1
REMARK VINA RESULT:    -6.418      0.000      0.000
REMARK INTER + INTRA:          -8.215
REMARK INTER:                  -7.919
REMARK INTRA:                  -0.297
REMARK UNBOUND:                -0.297
REMARK SMILES Oc1cc(O)c2cc(O)c(-c3cc(O)c(O)c(O)c3)[o+]c2c1
REMARK SMILES IDX 10 1 20 2 21 3 22 4 2 5 3 6 4 7 6 8 7 9 8 10 11 11 12 12
REMARK SMILES IDX 13 13 19 14 15 15 17 16 14 17 16 19 18 21 9 23 1 25 5 27
REMARK H PARENT 14 18 16 20 18 22 9 24 1 26 5 28
REMARK Flexibility Score: inf
ROOT
ATOM      1  C   UNL     1       2.841 -11.949 -32.701  1.00  0.00     0.402 A 
ATOM      2  O   UNL     1       1.710 -11.310 -32.403  1.00  0.00    -0.202 OA
ATOM      3  C   UNL     1       1.113 -11.401 -31.219  1.00  0.00     0.368 A 
ATOM      4  C   UNL     1      -0.075 -10.703 -30.987  1.00  0.00     0.162 A 
ATOM      5  C   UNL     1      -0.716 -10.792 -29.747  1.00  0.00     0.128 A 
ATOM      6  C   UNL     1      -0.165 -11.586 -28.732  1.00  0.00     0.093 A 
ATOM      7  C   UNL     1       1.027 -12.293 -28.950  1.00  0.00     0.136 A 
ATOM      8  C   UNL     1       1.671 -12.201 -30.199  1.00  0.00     0.125 A 
ATOM      9  C   UNL     1       2.866 -12.878 -30.469  1.00  0.00     0.078 A 
ATOM     10  C   UNL     1       3.468 -12.748 -31.724  1.00  0.00     0.223 A 
ENDROOT
BRANCH   1  11
ATOM     11  C   UNL     1       3.406 -11.775 -34.058  1.00  0.00     0.091 A 
ATOM     12  C   UNL     1       4.566 -11.013 -34.275  1.00  0.00     0.068 A 
ATOM     13  C   UNL     1       5.100 -10.877 -35.562  1.00  0.00     0.162 A 
ATOM     14  C   UNL     1       2.805 -12.429 -35.145  1.00  0.00     0.068 A 
ATOM     15  C   UNL     1       4.481 -11.516 -36.650  1.00  0.00     0.200 A 
ATOM     16  C   UNL     1       3.331 -12.297 -36.437  1.00  0.00     0.162 A 
BRANCH  13  17
ATOM     17  O   UNL     1       6.249 -10.108 -35.737  1.00  0.00    -0.504 OA
ATOM     18  H   UNL     1       6.329  -9.167 -35.369  1.00  0.00     0.293 HD
ENDBRANCH  13  17
BRANCH  15  19
ATOM     19  O   UNL     1       5.016 -11.371 -37.930  1.00  0.00    -0.502 OA
ATOM     20  H   UNL     1       4.488 -11.596 -38.765  1.00  0.00     0.293 HD
ENDBRANCH  15  19
BRANCH  16  21
ATOM     21  O   UNL     1       2.716 -12.939 -37.511  1.00  0.00    -0.504 OA
ATOM     22  H   UNL     1       2.815 -13.937 -37.659  1.00  0.00     0.293 HD
ENDBRANCH  16  21
ENDBRANCH   1  11
BRANCH  10  23
ATOM     23  O   UNL     1       4.685 -13.378 -31.984  1.00  0.00    -0.500 OA
ATOM     24  H   UNL     1       5.000 -13.558 -32.930  1.00  0.00     0.294 HD
ENDBRANCH  10  23
BRANCH   5  25
ATOM     25  O   UNL     1      -1.899 -10.089 -29.534  1.00  0.00    -0.507 OA
ATOM     26  H   UNL     1      -2.717 -10.537 -29.137  1.00  0.00     0.293 HD
ENDBRANCH   5  25
BRANCH   7  27
ATOM     27  O   UNL     1       1.567 -13.080 -27.931  1.00  0.00    -0.507 OA
ATOM     28  H   UNL     1       2.516 -12.947 -27.602  1.00  0.00     0.293 HD
ENDBRANCH   7  27
TORSDOF 7
ENDMDL
MODEL 2
REMARK VINA RESULT:    -6.381      1.002      2.552
REMARK INTER + INTRA:          -8.169
REMARK INTER:                  -7.845
REMARK INTRA:                  -0.324
REMARK UNBOUND:                -0.297
REMARK SMILES Oc1cc(O)c2cc(O)c(-c3cc(O)c(O)c(O)c3)[o+]c2c1
REMARK SMILES IDX 10 1 20 2 21 3 22 4 2 5 3 6 4 7 6 8 7 9 8 10 11 11 12 12
REMARK SMILES IDX 13 13 19 14 15 15 17 16 14 17 16 19 18 21 9 23 1 25 5 27
REMARK H PARENT 14 18 16 20 18 22 9 24 1 26 5 28
REMARK Flexibility Score: inf
ROOT
ATOM      1  C   UNL     1       2.201 -11.459 -32.771  1.00  0.00     0.402 A 
ATOM      2  O   UNL     1       2.597 -12.218 -31.750  1.00  0.00    -0.202 OA
ATOM      3  C   UNL     1       1.971 -12.246 -30.577  1.00  0.00     0.368 A 
ATOM      4  C   UNL     1       2.453 -13.066 -29.554  1.00  0.00     0.162 A 
ATOM      5  C   UNL     1       1.806 -13.103 -28.315  1.00  0.00     0.128 A 
ATOM      6  C   UNL     1       0.670 -12.313 -28.097  1.00  0.00     0.093 A 
ATOM      7  C   UNL     1       0.174 -11.484 -29.115  1.00  0.00     0.136 A 
ATOM      8  C   UNL     1       0.826 -11.449 -30.362  1.00  0.00     0.125 A 
ATOM      9  C   UNL     1       0.371 -10.647 -31.415  1.00  0.00     0.078 A 
ATOM     10  C   UNL     1       1.052 -10.654 -32.636  1.00  0.00     0.223 A 
ENDROOT
BRANCH   1  11
ATOM     11  C   UNL     1       2.986 -11.507 -34.025  1.00  0.00     0.091 A 
ATOM     12  C   UNL     1       4.238 -10.878 -34.129  1.00  0.00     0.068 A 
ATOM     13  C   UNL     1       4.978 -10.953 -35.314  1.00  0.00     0.162 A 
ATOM     14  C   UNL     1       2.500 -12.243 -35.116  1.00  0.00     0.068 A 
ATOM     15  C   UNL     1       4.475 -11.672 -36.411  1.00  0.00     0.200 A 
ATOM     16  C   UNL     1       3.232 -12.322 -36.308  1.00  0.00     0.162 A 
BRANCH  13  17
ATOM     17  O   UNL     1       6.213 -10.310 -35.380  1.00  0.00    -0.504 OA
ATOM     18  H   UNL     1       6.357  -9.474 -35.934  1.00  0.00     0.293 HD
ENDBRANCH  13  17
BRANCH  15  19
ATOM     19  O   UNL     1       5.216 -11.737 -37.592  1.00  0.00    -0.502 OA
ATOM     20  H   UNL     1       5.785 -10.964 -37.915  1.00  0.00     0.293 HD
ENDBRANCH  15  19
BRANCH  16  21
ATOM     21  O   UNL     1       2.731 -13.044 -37.390  1.00  0.00    -0.504 OA
ATOM     22  H   UNL     1       2.964 -12.799 -38.345  1.00  0.00     0.293 HD
ENDBRANCH  16  21
ENDBRANCH   1  11
BRANCH  10  23
ATOM     23  O   UNL     1       0.575  -9.897 -33.706  1.00  0.00    -0.500 OA
ATOM     24  H   UNL     1       1.004  -9.941 -34.623  1.00  0.00     0.294 HD
ENDBRANCH  10  23
BRANCH   5  25
ATOM     25  O   UNL     1       2.301 -13.927 -27.307  1.00  0.00    -0.507 OA
ATOM     26  H   UNL     1       2.935 -14.691 -27.511  1.00  0.00     0.293 HD
ENDBRANCH   5  25
BRANCH   7  27
ATOM     27  O   UNL     1      -0.960 -10.702 -28.886  1.00  0.00    -0.507 OA
ATOM     28  H   UNL     1      -0.904  -9.815 -28.400  1.00  0.00     0.293 HD
ENDBRANCH   7  27
TORSDOF 7
ENDMDL
MODEL 3
REMARK VINA RESULT:    -6.290      1.171      7.123
REMARK INTER + INTRA:          -8.057
REMARK INTER:                  -7.756
REMARK INTRA:                  -0.301
REMARK UNBOUND:                -0.297
REMARK SMILES Oc1cc(O)c2cc(O)c(-c3cc(O)c(O)c(O)c3)[o+]c2c1
REMARK SMILES IDX 10 1 20 2 21 3 22 4 2 5 3 6 4 7 6 8 7 9 8 10 11 11 12 12
REMARK SMILES IDX 13 13 19 14 15 15 17 16 14 17 16 19 18 21 9 23 1 25 5 27
REMARK H PARENT 14 18 16 20 18 22 9 24 1 26 5 28
REMARK Flexibility Score: inf
ROOT
ATOM      1  C   UNL     1       2.824 -11.639 -31.814  1.00  0.00     0.402 A 
ATOM      2  O   UNL     1       2.365 -12.156 -32.953  1.00  0.00    -0.202 OA
ATOM      3  C   UNL     1       3.002 -12.041 -34.114  1.00  0.00     0.368 A 
ATOM      4  C   UNL     1       2.450 -12.609 -35.265  1.00  0.00     0.162 A 
ATOM      5  C   UNL     1       3.107 -12.493 -36.494  1.00  0.00     0.128 A 
ATOM      6  C   UNL     1       4.325 -11.804 -36.572  1.00  0.00     0.093 A 
ATOM      7  C   UNL     1       4.892 -11.230 -35.424  1.00  0.00     0.136 A 
ATOM      8  C   UNL     1       4.228 -11.347 -34.188  1.00  0.00     0.125 A 
ATOM      9  C   UNL     1       4.751 -10.801 -33.010  1.00  0.00     0.078 A 
ATOM     10  C   UNL     1       4.055 -10.952 -31.807  1.00  0.00     0.223 A 
ENDROOT
BRANCH   1  11
ATOM     11  C   UNL     1       2.019 -11.826 -30.585  1.00  0.00     0.091 A 
ATOM     12  C   UNL     1       0.813 -11.133 -30.389  1.00  0.00     0.068 A 
ATOM     13  C   UNL     1       0.052 -11.338 -29.232  1.00  0.00     0.162 A 
ATOM     14  C   UNL     1       2.438 -12.754 -29.620  1.00  0.00     0.068 A 
ATOM     15  C   UNL     1       0.489 -12.253 -28.258  1.00  0.00     0.200 A 
ATOM     16  C   UNL     1       1.685 -12.964 -28.458  1.00  0.00     0.162 A 
BRANCH  13  17
ATOM     17  O   UNL     1      -1.136 -10.628 -29.072  1.00  0.00    -0.504 OA
ATOM     18  H   UNL     1      -1.184  -9.623 -29.196  1.00  0.00     0.293 HD
ENDBRANCH  13  17
BRANCH  15  19
ATOM     19  O   UNL     1      -0.272 -12.447 -27.105  1.00  0.00    -0.502 OA
ATOM     20  H   UNL     1      -0.295 -11.770 -26.353  1.00  0.00     0.293 HD
ENDBRANCH  15  19
BRANCH  16  21
ATOM     21  O   UNL     1       2.120 -13.879 -27.499  1.00  0.00    -0.504 OA
ATOM     22  H   UNL     1       1.521 -14.629 -27.171  1.00  0.00     0.293 HD
ENDBRANCH  16  21
ENDBRANCH   1  11
BRANCH  10  23
ATOM     23  O   UNL     1       4.594 -10.455 -30.621  1.00  0.00    -0.500 OA
ATOM     24  H   UNL     1       4.799  -9.469 -30.501  1.00  0.00     0.294 HD
ENDBRANCH  10  23
BRANCH   5  25
ATOM     25  O   UNL     1       2.542 -13.065 -37.631  1.00  0.00    -0.507 OA
ATOM     26  H   UNL     1       2.523 -14.069 -37.765  1.00  0.00     0.293 HD
ENDBRANCH   5  25
BRANCH   7  27
ATOM     27  O   UNL     1       6.106 -10.546 -35.514  1.00  0.00    -0.507 OA
ATOM     28  H   UNL     1       6.750 -10.502 -34.733  1.00  0.00     0.293 HD
ENDBRANCH   7  27
TORSDOF 7
ENDMDL
MODEL 4
REMARK VINA RESULT:    -6.091      2.163      3.082
REMARK INTER + INTRA:          -7.812
REMARK INTER:                  -7.813
REMARK INTRA:                   0.001
REMARK UNBOUND:                -0.297
REMARK SMILES Oc1cc(O)c2cc(O)c(-c3cc(O)c(O)c(O)c3)[o+]c2c1
REMARK SMILES IDX 10 1 20 2 21 3 22 4 2 5 3 6 4 7 6 8 7 9 8 10 11 11 12 12
REMARK SMILES IDX 13 13 19 14 15 15 17 16 14 17 16 19 18 21 9 23 1 25 5 27
REMARK H PARENT 14 18 16 20 18 22 9 24 1 26 5 28
REMARK Flexibility Score: inf
ROOT
ATOM      1  C   UNL     1       3.175 -12.211 -31.581  1.00  0.00     0.402 A 
ATOM      2  O   UNL     1       3.447 -11.132 -30.847  1.00  0.00    -0.202 OA
ATOM      3  C   UNL     1       3.256 -11.079 -29.533  1.00  0.00     0.368 A 
ATOM      4  C   UNL     1       3.562  -9.907 -28.836  1.00  0.00     0.162 A 
ATOM      5  C   UNL     1       3.363  -9.836 -27.454  1.00  0.00     0.128 A 
ATOM      6  C   UNL     1       2.854 -10.944 -26.763  1.00  0.00     0.093 A 
ATOM      7  C   UNL     1       2.543 -12.128 -27.449  1.00  0.00     0.136 A 
ATOM      8  C   UNL     1       2.744 -12.198 -28.841  1.00  0.00     0.125 A 
ATOM      9  C   UNL     1       2.459 -13.355 -29.575  1.00  0.00     0.078 A 
ATOM     10  C   UNL     1       2.683 -13.374 -30.955  1.00  0.00     0.223 A 
ENDROOT
BRANCH   1  11
ATOM     11  C   UNL     1       3.422 -12.145 -33.040  1.00  0.00     0.091 A 
ATOM     12  C   UNL     1       2.507 -12.683 -33.961  1.00  0.00     0.068 A 
ATOM     13  C   UNL     1       2.745 -12.593 -35.337  1.00  0.00     0.162 A 
ATOM     14  C   UNL     1       4.564 -11.484 -33.518  1.00  0.00     0.068 A 
ATOM     15  C   UNL     1       3.902 -11.949 -35.809  1.00  0.00     0.200 A 
ATOM     16  C   UNL     1       4.811 -11.391 -34.894  1.00  0.00     0.162 A 
BRANCH  13  17
ATOM     17  O   UNL     1       1.817 -13.144 -36.219  1.00  0.00    -0.504 OA
ATOM     18  H   UNL     1       0.820 -13.125 -36.035  1.00  0.00     0.293 HD
ENDBRANCH  13  17
BRANCH  15  19
ATOM     19  O   UNL     1       4.134 -11.869 -37.182  1.00  0.00    -0.502 OA
ATOM     20  H   UNL     1       5.057 -11.702 -37.565  1.00  0.00     0.293 HD
ENDBRANCH  15  19
BRANCH  16  21
ATOM     21  O   UNL     1       5.957 -10.744 -35.355  1.00  0.00    -0.504 OA
ATOM     22  H   UNL     1       6.005 -10.351 -36.288  1.00  0.00     0.293 HD
ENDBRANCH  16  21
ENDBRANCH   1  11
BRANCH  10  23
ATOM     23  O   UNL     1       2.449 -14.539 -31.685  1.00  0.00    -0.500 OA
ATOM     24  H   UNL     1       2.101 -15.382 -31.244  1.00  0.00     0.294 HD
ENDBRANCH  10  23
BRANCH   5  25
ATOM     25  O   UNL     1       3.673  -8.660 -26.775  1.00  0.00    -0.507 OA
ATOM     26  H   UNL     1       3.661  -8.613 -25.763  1.00  0.00     0.293 HD
ENDBRANCH   5  25
BRANCH   7  27
ATOM     27  O   UNL     1       2.038 -13.226 -26.751  1.00  0.00    -0.507 OA
ATOM     28  H   UNL     1       2.150 -13.316 -25.748  1.00  0.00     0.293 HD
ENDBRANCH   7  27
TORSDOF 7
ENDMDL
MODEL 5
REMARK VINA RESULT:    -6.062      2.464      3.735
REMARK INTER + INTRA:          -7.776
REMARK INTER:                  -7.391
REMARK INTRA:                  -0.385
REMARK UNBOUND:                -0.297
REMARK SMILES Oc1cc(O)c2cc(O)c(-c3cc(O)c(O)c(O)c3)[o+]c2c1
REMARK SMILES IDX 10 1 20 2 21 3 22 4 2 5 3 6 4 7 6 8 7 9 8 10 11 11 12 12
REMARK SMILES IDX 13 13 19 14 15 15 17 16 14 17 16 19 18 21 9 23 1 25 5 27
REMARK H PARENT 14 18 16 20 18 22 9 24 1 26 5 28
REMARK Flexibility Score: inf
ROOT
ATOM      1  C   UNL     1       3.908 -10.613 -33.697  1.00  0.00     0.402 A 
ATOM      2  O   UNL     1       3.980 -10.380 -32.387  1.00  0.00    -0.202 OA
ATOM      3  C   UNL     1       3.471 -11.200 -31.472  1.00  0.00     0.368 A 
ATOM      4  C   UNL     1       3.583 -10.881 -30.117  1.00  0.00     0.162 A 
ATOM      5  C   UNL     1       3.050 -11.733 -29.145  1.00  0.00     0.128 A 
ATOM      6  C   UNL     1       2.399 -12.912 -29.531  1.00  0.00     0.093 A 
ATOM      7  C   UNL     1       2.279 -13.247 -30.888  1.00  0.00     0.136 A 
ATOM      8  C   UNL     1       2.817 -12.388 -31.866  1.00  0.00     0.125 A 
ATOM      9  C   UNL     1       2.733 -12.675 -33.233  1.00  0.00     0.078 A 
ATOM     10  C   UNL     1       3.290 -11.791 -34.162  1.00  0.00     0.223 A 
ENDROOT
BRANCH   1  11
ATOM     11  C   UNL     1       4.505  -9.620 -34.618  1.00  0.00     0.091 A 
ATOM     12  C   UNL     1       3.752  -8.547 -35.125  1.00  0.00     0.068 A 
ATOM     13  C   UNL     1       4.338  -7.604 -35.976  1.00  0.00     0.162 A 
ATOM     14  C   UNL     1       5.865  -9.716 -34.950  1.00  0.00     0.068 A 
ATOM     15  C   UNL     1       5.695  -7.718 -36.323  1.00  0.00     0.200 A 
ATOM     16  C   UNL     1       6.459  -8.778 -35.804  1.00  0.00     0.162 A 
BRANCH  13  17
ATOM     17  O   UNL     1       3.556  -6.557 -36.463  1.00  0.00    -0.504 OA
ATOM     18  H   UNL     1       3.814  -5.586 -36.332  1.00  0.00     0.293 HD
ENDBRANCH  13  17
BRANCH  15  19
ATOM     19  O   UNL     1       6.270  -6.777 -37.177  1.00  0.00    -0.502 OA
ATOM     20  H   UNL     1       7.169  -6.352 -36.986  1.00  0.00     0.293 HD
ENDBRANCH  15  19
BRANCH  16  21
ATOM     21  O   UNL     1       7.808  -8.893 -36.137  1.00  0.00    -0.504 OA
ATOM     22  H   UNL     1       8.264  -8.221 -36.745  1.00  0.00     0.293 HD
ENDBRANCH  16  21
ENDBRANCH   1  11
BRANCH  10  23
ATOM     23  O   UNL     1       3.255 -12.095 -35.523  1.00  0.00    -0.500 OA
ATOM     24  H   UNL     1       3.263 -11.370 -36.231  1.00  0.00     0.294 HD
ENDBRANCH  10  23
BRANCH   5  25
ATOM     25  O   UNL     1       3.171 -11.398 -27.798  1.00  0.00    -0.507 OA
ATOM     26  H   UNL     1       3.512 -12.065 -27.115  1.00  0.00     0.293 HD
ENDBRANCH   5  25
BRANCH   7  27
ATOM     27  O   UNL     1       1.629 -14.425 -31.260  1.00  0.00    -0.507 OA
ATOM     28  H   UNL     1       1.179 -14.521 -32.163  1.00  0.00     0.293 HD
ENDBRANCH   7  27
TORSDOF 7
ENDMDL
MODEL 6
REMARK VINA RESULT:    -5.939      2.175      2.807
REMARK INTER + INTRA:          -7.624
REMARK INTER:                  -7.799
REMARK INTRA:                   0.174
REMARK UNBOUND:                -0.297
REMARK SMILES Oc1cc(O)c2cc(O)c(-c3cc(O)c(O)c(O)c3)[o+]c2c1
REMARK SMILES IDX 10 1 20 2 21 3 22 4 2 5 3 6 4 7 6 8 7 9 8 10 11 11 12 12
REMARK SMILES IDX 13 13 19 14 15 15 17 16 14 17 16 19 18 21 9 23 1 25 5 27
REMARK H PARENT 14 18 16 20 18 22 9 24 1 26 5 28
REMARK Flexibility Score: inf
ROOT
ATOM      1  C   UNL     1       3.828 -11.117 -31.647  1.00  0.00     0.402 A 
ATOM      2  O   UNL     1       3.130 -12.005 -30.939  1.00  0.00    -0.202 OA
ATOM      3  C   UNL     1       2.972 -11.923 -29.622  1.00  0.00     0.368 A 
ATOM      4  C   UNL     1       2.229 -12.898 -28.951  1.00  0.00     0.162 A 
ATOM      5  C   UNL     1       2.058 -12.827 -27.566  1.00  0.00     0.128 A 
ATOM      6  C   UNL     1       2.634 -11.772 -26.844  1.00  0.00     0.093 A 
ATOM      7  C   UNL     1       3.382 -10.785 -27.503  1.00  0.00     0.136 A 
ATOM      8  C   UNL     1       3.554 -10.859 -28.899  1.00  0.00     0.125 A 
ATOM      9  C   UNL     1       4.283  -9.899 -29.609  1.00  0.00     0.078 A 
ATOM     10  C   UNL     1       4.418 -10.015 -30.996  1.00  0.00     0.223 A 
ENDROOT
BRANCH   1  11
ATOM     11  C   UNL     1       3.940 -11.321 -33.109  1.00  0.00     0.091 A 
ATOM     12  C   UNL     1       5.057 -10.864 -33.828  1.00  0.00     0.068 A 
ATOM     13  C   UNL     1       5.158 -11.084 -35.206  1.00  0.00     0.162 A 
ATOM     14  C   UNL     1       2.938 -12.033 -33.786  1.00  0.00     0.068 A 
ATOM     15  C   UNL     1       4.140 -11.779 -35.882  1.00  0.00     0.200 A 
ATOM     16  C   UNL     1       3.029 -12.257 -35.166  1.00  0.00     0.162 A 
BRANCH  13  17
ATOM     17  O   UNL     1       6.280 -10.610 -35.885  1.00  0.00    -0.504 OA
ATOM     18  H   UNL     1       6.369  -9.640 -36.165  1.00  0.00     0.293 HD
ENDBRANCH  13  17
BRANCH  15  19
ATOM     19  O   UNL     1       4.245 -11.990 -37.257  1.00  0.00    -0.502 OA
ATOM     20  H   UNL     1       3.522 -11.701 -37.905  1.00  0.00     0.293 HD
ENDBRANCH  15  19
BRANCH  16  21
ATOM     21  O   UNL     1       2.019 -12.954 -35.829  1.00  0.00    -0.504 OA
ATOM     22  H   UNL     1       1.235 -12.474 -36.255  1.00  0.00     0.293 HD
ENDBRANCH  16  21
ENDBRANCH   1  11
BRANCH  10  23
ATOM     23  O   UNL     1       5.100  -9.035 -31.716  1.00  0.00    -0.500 OA
ATOM     24  H   UNL     1       5.372  -8.156 -31.293  1.00  0.00     0.294 HD
ENDBRANCH  10  23
BRANCH   5  25
ATOM     25  O   UNL     1       1.314 -13.808 -26.914  1.00  0.00    -0.507 OA
ATOM     26  H   UNL     1       1.432 -13.992 -25.925  1.00  0.00     0.293 HD
ENDBRANCH   5  25
BRANCH   7  27
ATOM     27  O   UNL     1       3.951  -9.739 -26.774  1.00  0.00    -0.507 OA
ATOM     28  H   UNL     1       4.592  -9.912 -26.009  1.00  0.00     0.293 HD
ENDBRANCH   7  27
TORSDOF 7
ENDMDL
MODEL 7
REMARK VINA RESULT:    -5.919      3.853      6.522
REMARK INTER + INTRA:          -7.599
REMARK INTER:                  -7.221
REMARK INTRA:                  -0.378
REMARK UNBOUND:                -0.297
REMARK SMILES Oc1cc(O)c2cc(O)c(-c3cc(O)c(O)c(O)c3)[o+]c2c1
REMARK SMILES IDX 10 1 20 2 21 3 22 4 2 5 3 6 4 7 6 8 7 9 8 10 11 11 12 12
REMARK SMILES IDX 13 13 19 14 15 15 17 16 14 17 16 19 18 21 9 23 1 25 5 27
REMARK H PARENT 14 18 16 20 18 22 9 24 1 26 5 28
REMARK Flexibility Score: inf
ROOT
ATOM      1  C   UNL     1       1.914 -12.082 -27.359  1.00  0.00     0.402 A 
ATOM      2  O   UNL     1       2.789 -11.134 -27.026  1.00  0.00    -0.202 OA
ATOM      3  C   UNL     1       3.217 -10.943 -25.782  1.00  0.00     0.368 A 
ATOM      4  C   UNL     1       4.132  -9.921 -25.514  1.00  0.00     0.162 A 
ATOM      5  C   UNL     1       4.589  -9.707 -24.210  1.00  0.00     0.128 A 
ATOM      6  C   UNL     1       4.127 -10.520 -23.166  1.00  0.00     0.093 A 
ATOM      7  C   UNL     1       3.209 -11.551 -23.420  1.00  0.00     0.136 A 
ATOM      8  C   UNL     1       2.750 -11.764 -24.734  1.00  0.00     0.125 A 
ATOM      9  C   UNL     1       1.840 -12.781 -25.046  1.00  0.00     0.078 A 
ATOM     10  C   UNL     1       1.422 -12.956 -26.369  1.00  0.00     0.223 A 
ENDROOT
BRANCH   1  11
ATOM     11  C   UNL     1       1.506 -12.190 -28.778  1.00  0.00     0.091 A 
ATOM     12  C   UNL     1       2.169 -13.054 -29.666  1.00  0.00     0.068 A 
ATOM     13  C   UNL     1       1.756 -13.161 -30.999  1.00  0.00     0.162 A 
ATOM     14  C   UNL     1       0.399 -11.458 -29.236  1.00  0.00     0.068 A 
ATOM     15  C   UNL     1       0.661 -12.408 -31.457  1.00  0.00     0.200 A 
ATOM     16  C   UNL     1      -0.020 -11.558 -30.569  1.00  0.00     0.162 A 
BRANCH  13  17
ATOM     17  O   UNL     1       2.443 -14.024 -31.851  1.00  0.00    -0.504 OA
ATOM     18  H   UNL     1       2.038 -14.364 -32.715  1.00  0.00     0.293 HD
ENDBRANCH  13  17
BRANCH  15  19
ATOM     19  O   UNL     1       0.259 -12.516 -32.789  1.00  0.00    -0.502 OA
ATOM     20  H   UNL     1       0.115 -11.705 -33.377  1.00  0.00     0.293 HD
ENDBRANCH  15  19
BRANCH  16  21
ATOM     21  O   UNL     1      -1.112 -10.814 -31.015  1.00  0.00    -0.504 OA
ATOM     22  H   UNL     1      -1.531 -10.978 -31.924  1.00  0.00     0.293 HD
ENDBRANCH  16  21
ENDBRANCH   1  11
BRANCH  10  23
ATOM     23  O   UNL     1       0.555 -13.998 -26.696  1.00  0.00    -0.500 OA
ATOM     24  H   UNL     1       0.900 -14.905 -26.988  1.00  0.00     0.294 HD
ENDBRANCH  10  23
BRANCH   5  25
ATOM     25  O   UNL     1       5.501  -8.684 -23.961  1.00  0.00    -0.507 OA
ATOM     26  H   UNL     1       5.255  -7.711 -24.100  1.00  0.00     0.293 HD
ENDBRANCH   5  25
BRANCH   7  27
ATOM     27  O   UNL     1       2.756 -12.355 -22.372  1.00  0.00    -0.507 OA
ATOM     28  H   UNL     1       1.788 -12.645 -22.304  1.00  0.00     0.293 HD
ENDBRANCH   7  27
TORSDOF 7
ENDMDL
MODEL 8
REMARK VINA RESULT:    -5.884      4.042      6.610
REMARK INTER + INTRA:          -7.557
REMARK INTER:                  -7.197
REMARK INTRA:                  -0.360
REMARK UNBOUND:                -0.297
REMARK SMILES Oc1cc(O)c2cc(O)c(-c3cc(O)c(O)c(O)c3)[o+]c2c1
REMARK SMILES IDX 10 1 20 2 21 3 22 4 2 5 3 6 4 7 6 8 7 9 8 10 11 11 12 12
REMARK SMILES IDX 13 13 19 14 15 15 17 16 14 17 16 19 18 21 9 23 1 25 5 27
REMARK H PARENT 14 18 16 20 18 22 9 24 1 26 5 28
REMARK Flexibility Score: inf
ROOT
ATOM      1  C   UNL     1       2.558 -11.647 -27.533  1.00  0.00     0.402 A 
ATOM      2  O   UNL     1       2.232 -12.377 -26.467  1.00  0.00    -0.202 OA
ATOM      3  C   UNL     1       2.765 -12.188 -25.264  1.00  0.00     0.368 A 
ATOM      4  C   UNL     1       2.374 -13.002 -24.197  1.00  0.00     0.162 A 
ATOM      5  C   UNL     1       2.928 -12.816 -22.927  1.00  0.00     0.128 A 
ATOM      6  C   UNL     1       3.882 -11.810 -22.722  1.00  0.00     0.093 A 
ATOM      7  C   UNL     1       4.285 -10.985 -23.783  1.00  0.00     0.136 A 
ATOM      8  C   UNL     1       3.725 -11.173 -25.062  1.00  0.00     0.125 A 
ATOM      9  C   UNL     1       4.084 -10.375 -26.154  1.00  0.00     0.078 A 
ATOM     10  C   UNL     1       3.493 -10.600 -27.401  1.00  0.00     0.223 A 
ENDROOT
BRANCH   1  11
ATOM     11  C   UNL     1       1.902 -11.960 -28.823  1.00  0.00     0.091 A 
ATOM     12  C   UNL     1       2.355 -13.011 -29.637  1.00  0.00     0.068 A 
ATOM     13  C   UNL     1       1.709 -13.308 -30.843  1.00  0.00     0.162 A 
ATOM     14  C   UNL     1       0.770 -11.229 -29.217  1.00  0.00     0.068 A 
ATOM     15  C   UNL     1       0.589 -12.558 -31.243  1.00  0.00     0.200 A 
ATOM     16  C   UNL     1       0.119 -11.517 -30.423  1.00  0.00     0.162 A 
BRANCH  13  17
ATOM     17  O   UNL     1       2.191 -14.355 -31.626  1.00  0.00    -0.504 OA
ATOM     18  H   UNL     1       2.137 -15.322 -31.327  1.00  0.00     0.293 HD
ENDBRANCH  13  17
BRANCH  15  19
ATOM     19  O   UNL     1      -0.045 -12.856 -32.449  1.00  0.00    -0.502 OA
ATOM     20  H   UNL     1       0.438 -12.815 -33.338  1.00  0.00     0.293 HD
ENDBRANCH  15  19
BRANCH  16  21
ATOM     21  O   UNL     1      -0.996 -10.774 -30.810  1.00  0.00    -0.504 OA
ATOM     22  H   UNL     1      -1.233  -9.899 -30.358  1.00  0.00     0.293 HD
ENDBRANCH  16  21
ENDBRANCH   1  11
BRANCH  10  23
ATOM     23  O   UNL     1       3.807  -9.777 -28.482  1.00  0.00    -0.500 OA
ATOM     24  H   UNL     1       3.401  -9.924 -29.398  1.00  0.00     0.294 HD
ENDBRANCH  10  23
BRANCH   5  25
ATOM     25  O   UNL     1       2.526 -13.636 -21.876  1.00  0.00    -0.507 OA
ATOM     26  H   UNL     1       2.205 -13.250 -20.995  1.00  0.00     0.293 HD
ENDBRANCH   5  25
BRANCH   7  27
ATOM     27  O   UNL     1       5.235  -9.985 -23.567  1.00  0.00    -0.507 OA
ATOM     28  H   UNL     1       4.966  -9.021 -23.411  1.00  0.00     0.293 HD
ENDBRANCH   7  27
TORSDOF 7
ENDMDL
MODEL 9
REMARK VINA RESULT:    -5.882      3.228      8.175
REMARK INTER + INTRA:          -7.554
REMARK INTER:                  -7.312
REMARK INTRA:                  -0.242
REMARK UNBOUND:                -0.297
REMARK SMILES Oc1cc(O)c2cc(O)c(-c3cc(O)c(O)c(O)c3)[o+]c2c1
REMARK SMILES IDX 10 1 20 2 21 3 22 4 2 5 3 6 4 7 6 8 7 9 8 10 11 11 12 12
REMARK SMILES IDX 13 13 19 14 15 15 17 16 14 17 16 19 18 21 9 23 1 25 5 27
REMARK H PARENT 14 18 16 20 18 22 9 24 1 26 5 28
REMARK Flexibility Score: inf
ROOT
ATOM      1  C   UNL     1       2.380 -11.921 -28.318  1.00  0.00     0.402 A 
ATOM      2  O   UNL     1       3.305 -11.899 -29.277  1.00  0.00    -0.202 OA
ATOM      3  C   UNL     1       3.018 -12.034 -30.568  1.00  0.00     0.368 A 
ATOM      4  C   UNL     1       4.047 -12.005 -31.513  1.00  0.00     0.162 A 
ATOM      5  C   UNL     1       3.759 -12.149 -32.874  1.00  0.00     0.128 A 
ATOM      6  C   UNL     1       2.434 -12.324 -33.293  1.00  0.00     0.093 A 
ATOM      7  C   UNL     1       1.390 -12.354 -32.356  1.00  0.00     0.136 A 
ATOM      8  C   UNL     1       1.681 -12.209 -30.986  1.00  0.00     0.125 A 
ATOM      9  C   UNL     1       0.679 -12.224 -30.009  1.00  0.00     0.078 A 
ATOM     10  C   UNL     1       1.022 -12.069 -28.662  1.00  0.00     0.223 A 
ENDROOT
BRANCH   1  11
ATOM     11  C   UNL     1       2.825 -11.769 -26.914  1.00  0.00     0.091 A 
ATOM     12  C   UNL     1       2.634 -12.794 -25.971  1.00  0.00     0.068 A 
ATOM     13  C   UNL     1       3.081 -12.643 -24.654  1.00  0.00     0.162 A 
ATOM     14  C   UNL     1       3.501 -10.602 -26.526  1.00  0.00     0.068 A 
ATOM     15  C   UNL     1       3.738 -11.462 -24.266  1.00  0.00     0.200 A 
ATOM     16  C   UNL     1       3.950 -10.442 -25.209  1.00  0.00     0.162 A 
BRANCH  13  17
ATOM     17  O   UNL     1       2.868 -13.680 -23.747  1.00  0.00    -0.504 OA
ATOM     18  H   UNL     1       3.625 -14.095 -23.216  1.00  0.00     0.293 HD
ENDBRANCH  13  17
BRANCH  15  19
ATOM     19  O   UNL     1       4.175 -11.318 -22.949  1.00  0.00    -0.502 OA
ATOM     20  H   UNL     1       4.782 -10.560 -22.662  1.00  0.00     0.293 HD
ENDBRANCH  15  19
BRANCH  16  21
ATOM     21  O   UNL     1       4.607  -9.271 -24.832  1.00  0.00    -0.504 OA
ATOM     22  H   UNL     1       5.098  -8.697 -25.509  1.00  0.00     0.293 HD
ENDBRANCH  16  21
ENDBRANCH   1  11
BRANCH  10  23
ATOM     23  O   UNL     1       0.024 -12.032 -27.688  1.00  0.00    -0.500 OA
ATOM     24  H   UNL     1      -0.408 -11.161 -27.402  1.00  0.00     0.294 HD
ENDBRANCH  10  23
BRANCH   5  25
ATOM     25  O   UNL     1       4.798 -12.118 -33.802  1.00  0.00    -0.507 OA
ATOM     26  H   UNL     1       5.416 -11.318 -33.878  1.00  0.00     0.293 HD
ENDBRANCH   5  25
BRANCH   7  27
ATOM     27  O   UNL     1       0.073 -12.528 -32.786  1.00  0.00    -0.507 OA
ATOM     28  H   UNL     1      -0.472 -13.339 -32.516  1.00  0.00     0.293 HD
ENDBRANCH   7  27
TORSDOF 7
ENDMDL
