MODEL 1
REMARK VINA RESULT:    -6.338      0.000      0.000
REMARK INTER + INTRA:          -7.954
REMARK INTER:                  -7.635
REMARK INTRA:                  -0.319
REMARK UNBOUND:                -0.319
REMARK SMILES Oc1cc(O)c2cc(O)c(-c3ccc(O)c(O)c3)[o+]c2c1.[Cl-]
REMARK SMILES IDX 10 1 19 2 20 3 21 4 2 5 3 6 4 7 6 8 7 9 8 10 11 11 12 12
REMARK SMILES IDX 13 13 14 14 18 15 16 16 15 17 17 19 9 21 1 23 5 25
REMARK H PARENT 15 18 17 20 9 22 1 24 5 26
REMARK Flexibility Score: inf
ROOT
ATOM      1  C   UNL     1     479.582  37.648 459.489  1.00  0.00     0.402 A 
ATOM      2  O   UNL     1     479.369  36.446 460.023  1.00  0.00    -0.202 OA
ATOM      3  C   UNL     1     478.386  36.196 460.883  1.00  0.00     0.368 A 
ATOM      4  C   UNL     1     478.226  34.904 461.394  1.00  0.00     0.162 A 
ATOM      5  C   UNL     1     477.196  34.626 462.297  1.00  0.00     0.128 A 
ATOM      6  C   UNL     1     476.320  35.645 462.693  1.00  0.00     0.093 A 
ATOM      7  C   UNL     1     476.469  36.946 462.189  1.00  0.00     0.136 A 
ATOM      8  C   UNL     1     477.507  37.226 461.280  1.00  0.00     0.125 A 
ATOM      9  C   UNL     1     477.708  38.505 460.752  1.00  0.00     0.078 A 
ATOM     10  C   UNL     1     478.758  38.731 459.858  1.00  0.00     0.223 A 
ENDROOT
BRANCH   1  11
ATOM     11  C   UNL     1     480.703  37.802 458.534  1.00  0.00     0.087 A 
ATOM     12  C   UNL     1     480.516  37.450 457.188  1.00  0.00     0.022 A 
ATOM     13  C   UNL     1     481.553  37.605 456.265  1.00  0.00     0.051 A 
ATOM     14  C   UNL     1     482.787  38.129 456.672  1.00  0.00     0.157 A 
ATOM     15  C   UNL     1     481.937  38.347 458.934  1.00  0.00     0.068 A 
ATOM     16  C   UNL     1     482.978  38.505 458.008  1.00  0.00     0.158 A 
BRANCH  14  17
ATOM     17  O   UNL     1     483.825  38.285 455.754  1.00  0.00    -0.504 OA
ATOM     18  H   UNL     1     483.967  37.625 454.998  1.00  0.00     0.293 HD
ENDBRANCH  14  17
BRANCH  16  19
ATOM     19  O   UNL     1     484.202  39.039 458.405  1.00  0.00    -0.504 OA
ATOM     20  H   UNL     1     484.577  38.872 459.332  1.00  0.00     0.293 HD
ENDBRANCH  16  19
ENDBRANCH   1  11
BRANCH  10  21
ATOM     21  O   UNL     1     478.994  40.015 459.367  1.00  0.00    -0.500 OA
ATOM     22  H   UNL     1     479.464  40.168 458.482  1.00  0.00     0.294 HD
ENDBRANCH  10  21
BRANCH   5  23
ATOM     23  O   UNL     1     477.051  33.333 462.796  1.00  0.00    -0.507 OA
ATOM     24  H   UNL     1     476.247  32.763 462.565  1.00  0.00     0.293 HD
ENDBRANCH   5  23
BRANCH   7  25
ATOM     25  O   UNL     1     475.591  37.954 462.592  1.00  0.00    -0.507 OA
ATOM     26  H   UNL     1     475.926  38.870 462.869  1.00  0.00     0.293 HD
ENDBRANCH   7  25
TORSDOF 6
ENDMDL
MODEL 2
REMARK VINA RESULT:    -5.762      1.627      7.012
REMARK INTER + INTRA:          -7.261
REMARK INTER:                  -6.997
REMARK INTRA:                  -0.263
REMARK UNBOUND:                -0.319
REMARK SMILES Oc1cc(O)c2cc(O)c(-c3ccc(O)c(O)c3)[o+]c2c1.[Cl-]
REMARK SMILES IDX 10 1 19 2 20 3 21 4 2 5 3 6 4 7 6 8 7 9 8 10 11 11 12 12
REMARK SMILES IDX 13 13 14 14 18 15 16 16 15 17 17 19 9 21 1 23 5 25
REMARK H PARENT 15 18 17 20 9 22 1 24 5 26
REMARK Flexibility Score: inf
ROOT
ATOM      1  C   UNL     1     480.210  38.013 459.190  1.00  0.00     0.402 A 
ATOM      2  O   UNL     1     481.497  37.973 459.533  1.00  0.00    -0.202 OA
ATOM      3  C   UNL     1     482.449  38.618 458.866  1.00  0.00     0.368 A 
ATOM      4  C   UNL     1     483.777  38.528 459.295  1.00  0.00     0.162 A 
ATOM      5  C   UNL     1     484.787  39.204 458.605  1.00  0.00     0.128 A 
ATOM      6  C   UNL     1     484.469  39.975 457.479  1.00  0.00     0.093 A 
ATOM      7  C   UNL     1     483.142  40.074 457.036  1.00  0.00     0.136 A 
ATOM      8  C   UNL     1     482.125  39.393 457.731  1.00  0.00     0.125 A 
ATOM      9  C   UNL     1     480.786  39.448 457.332  1.00  0.00     0.078 A 
ATOM     10  C   UNL     1     479.815  38.748 458.053  1.00  0.00     0.223 A 
ENDROOT
BRANCH   1  11
ATOM     11  C   UNL     1     479.240  37.260 460.016  1.00  0.00     0.087 A 
ATOM     12  C   UNL     1     479.308  35.858 460.055  1.00  0.00     0.022 A 
ATOM     13  C   UNL     1     478.417  35.127 460.844  1.00  0.00     0.051 A 
ATOM     14  C   UNL     1     477.454  35.788 461.617  1.00  0.00     0.157 A 
ATOM     15  C   UNL     1     478.285  37.920 460.811  1.00  0.00     0.068 A 
ATOM     16  C   UNL     1     477.391  37.187 461.604  1.00  0.00     0.158 A 
BRANCH  14  17
ATOM     17  O   UNL     1     476.561  35.063 462.405  1.00  0.00    -0.504 OA
ATOM     18  H   UNL     1     475.763  34.587 462.000  1.00  0.00     0.293 HD
ENDBRANCH  14  17
BRANCH  16  19
ATOM     19  O   UNL     1     476.442  37.842 462.386  1.00  0.00    -0.504 OA
ATOM     20  H   UNL     1     476.708  38.544 463.067  1.00  0.00     0.293 HD
ENDBRANCH  16  19
ENDBRANCH   1  11
BRANCH  10  21
ATOM     21  O   UNL     1     478.485  38.759 457.630  1.00  0.00    -0.500 OA
ATOM     22  H   UNL     1     477.896  39.574 457.749  1.00  0.00     0.294 HD
ENDBRANCH  10  21
BRANCH   5  23
ATOM     23  O   UNL     1     486.105  39.103 459.046  1.00  0.00    -0.507 OA
ATOM     24  H   UNL     1     486.809  39.779 458.774  1.00  0.00     0.293 HD
ENDBRANCH   5  23
BRANCH   7  25
ATOM     25  O   UNL     1     482.837  40.843 455.912  1.00  0.00    -0.507 OA
ATOM     26  H   UNL     1     483.247  40.645 455.006  1.00  0.00     0.293 HD
ENDBRANCH   7  25
TORSDOF 6
ENDMDL
MODEL 3
REMARK VINA RESULT:    -5.738      1.585      7.064
REMARK INTER + INTRA:          -7.231
REMARK INTER:                  -6.964
REMARK INTRA:                  -0.267
REMARK UNBOUND:                -0.319
REMARK SMILES Oc1cc(O)c2cc(O)c(-c3ccc(O)c(O)c3)[o+]c2c1.[Cl-]
REMARK SMILES IDX 10 1 19 2 20 3 21 4 2 5 3 6 4 7 6 8 7 9 8 10 11 11 12 12
REMARK SMILES IDX 13 13 14 14 18 15 16 16 15 17 17 19 9 21 1 23 5 25
REMARK H PARENT 15 18 17 20 9 22 1 24 5 26
REMARK Flexibility Score: inf
ROOT
ATOM      1  C   UNL     1     480.163  38.249 459.428  1.00  0.00     0.402 A 
ATOM      2  O   UNL     1     481.404  38.248 459.911  1.00  0.00    -0.202 OA
ATOM      3  C   UNL     1     482.455  38.676 459.219  1.00  0.00     0.368 A 
ATOM      4  C   UNL     1     483.727  38.645 459.800  1.00  0.00     0.162 A 
ATOM      5  C   UNL     1     484.840  39.095 459.085  1.00  0.00     0.128 A 
ATOM      6  C   UNL     1     484.683  39.577 457.779  1.00  0.00     0.093 A 
ATOM      7  C   UNL     1     483.414  39.613 457.181  1.00  0.00     0.136 A 
ATOM      8  C   UNL     1     482.293  39.159 457.903  1.00  0.00     0.125 A 
ATOM      9  C   UNL     1     481.006  39.164 457.356  1.00  0.00     0.078 A 
ATOM     10  C   UNL     1     479.928  38.697 458.112  1.00  0.00     0.223 A 
ENDROOT
BRANCH   1  11
ATOM     11  C   UNL     1     479.071  37.757 460.299  1.00  0.00     0.087 A 
ATOM     12  C   UNL     1     478.133  38.666 460.811  1.00  0.00     0.022 A 
ATOM     13  C   UNL     1     477.082  38.222 461.618  1.00  0.00     0.051 A 
ATOM     14  C   UNL     1     476.947  36.859 461.912  1.00  0.00     0.157 A 
ATOM     15  C   UNL     1     478.919  36.387 460.581  1.00  0.00     0.068 A 
ATOM     16  C   UNL     1     477.865  35.940 461.389  1.00  0.00     0.158 A 
BRANCH  14  17
ATOM     17  O   UNL     1     475.902  36.411 462.719  1.00  0.00    -0.504 OA
ATOM     18  H   UNL     1     475.600  35.444 462.705  1.00  0.00     0.293 HD
ENDBRANCH  14  17
BRANCH  16  19
ATOM     19  O   UNL     1     477.719  34.583 461.672  1.00  0.00    -0.504 OA
ATOM     20  H   UNL     1     478.382  33.896 461.332  1.00  0.00     0.293 HD
ENDBRANCH  16  19
ENDBRANCH   1  11
BRANCH  10  21
ATOM     21  O   UNL     1     478.649  38.651 457.554  1.00  0.00    -0.500 OA
ATOM     22  H   UNL     1     477.859  39.104 457.998  1.00  0.00     0.294 HD
ENDBRANCH  10  21
BRANCH   5  23
ATOM     23  O   UNL     1     486.099  39.058 459.680  1.00  0.00    -0.507 OA
ATOM     24  H   UNL     1     486.759  39.819 459.573  1.00  0.00     0.293 HD
ENDBRANCH   5  23
BRANCH   7  25
ATOM     25  O   UNL     1     483.269  40.093 455.879  1.00  0.00    -0.507 OA
ATOM     26  H   UNL     1     483.851  40.843 455.523  1.00  0.00     0.293 HD
ENDBRANCH   7  25
TORSDOF 6
ENDMDL
MODEL 4
REMARK VINA RESULT:    -5.592      1.815      7.147
REMARK INTER + INTRA:          -7.056
REMARK INTER:                  -6.707
REMARK INTRA:                  -0.349
REMARK UNBOUND:                -0.319
REMARK SMILES Oc1cc(O)c2cc(O)c(-c3ccc(O)c(O)c3)[o+]c2c1.[Cl-]
REMARK SMILES IDX 10 1 19 2 20 3 21 4 2 5 3 6 4 7 6 8 7 9 8 10 11 11 12 12
REMARK SMILES IDX 13 13 14 14 18 15 16 16 15 17 17 19 9 21 1 23 5 25
REMARK H PARENT 15 18 17 20 9 22 1 24 5 26
REMARK Flexibility Score: inf
ROOT
ATOM      1  C   UNL     1     480.411  38.387 459.644  1.00  0.00     0.402 A 
ATOM      2  O   UNL     1     481.477  38.754 460.352  1.00  0.00    -0.202 OA
ATOM      3  C   UNL     1     482.698  38.849 459.834  1.00  0.00     0.368 A 
ATOM      4  C   UNL     1     483.766  39.247 460.645  1.00  0.00     0.162 A 
ATOM      5  C   UNL     1     485.053  39.354 460.112  1.00  0.00     0.128 A 
ATOM      6  C   UNL     1     485.277  39.061 458.760  1.00  0.00     0.093 A 
ATOM      7  C   UNL     1     484.216  38.659 457.935  1.00  0.00     0.136 A 
ATOM      8  C   UNL     1     482.919  38.551 458.472  1.00  0.00     0.125 A 
ATOM      9  C   UNL     1     481.826  38.149 457.699  1.00  0.00     0.078 A 
ATOM     10  C   UNL     1     480.560  38.051 458.283  1.00  0.00     0.223 A 
ENDROOT
BRANCH   1  11
ATOM     11  C   UNL     1     479.100  38.327 460.331  1.00  0.00     0.087 A 
ATOM     12  C   UNL     1     478.244  39.438 460.282  1.00  0.00     0.022 A 
ATOM     13  C   UNL     1     476.995  39.397 460.905  1.00  0.00     0.051 A 
ATOM     14  C   UNL     1     476.577  38.239 461.573  1.00  0.00     0.157 A 
ATOM     15  C   UNL     1     478.668  37.159 460.985  1.00  0.00     0.068 A 
ATOM     16  C   UNL     1     477.413  37.116 461.609  1.00  0.00     0.158 A 
BRANCH  14  17
ATOM     17  O   UNL     1     475.331  38.194 462.197  1.00  0.00    -0.504 OA
ATOM     18  H   UNL     1     474.665  37.457 461.997  1.00  0.00     0.293 HD
ENDBRANCH  14  17
BRANCH  16  19
ATOM     19  O   UNL     1     476.988  35.961 462.262  1.00  0.00    -0.504 OA
ATOM     20  H   UNL     1     476.569  35.189 461.755  1.00  0.00     0.293 HD
ENDBRANCH  16  19
ENDBRANCH   1  11
BRANCH  10  21
ATOM     21  O   UNL     1     479.475  37.601 457.529  1.00  0.00    -0.500 OA
ATOM     22  H   UNL     1     479.227  36.620 457.487  1.00  0.00     0.294 HD
ENDBRANCH  10  21
BRANCH   5  23
ATOM     23  O   UNL     1     486.105  39.752 460.935  1.00  0.00    -0.507 OA
ATOM     24  H   UNL     1     487.071  39.658 460.644  1.00  0.00     0.293 HD
ENDBRANCH   5  23
BRANCH   7  25
ATOM     25  O   UNL     1     484.451  38.368 456.590  1.00  0.00    -0.507 OA
ATOM     26  H   UNL     1     485.317  38.631 456.133  1.00  0.00     0.293 HD
ENDBRANCH   7  25
TORSDOF 6
ENDMDL
MODEL 5
REMARK VINA RESULT:    -5.396      1.182      2.866
REMARK INTER + INTRA:          -6.819
REMARK INTER:                  -6.545
REMARK INTRA:                  -0.274
REMARK UNBOUND:                -0.319
REMARK SMILES Oc1cc(O)c2cc(O)c(-c3ccc(O)c(O)c3)[o+]c2c1.[Cl-]
REMARK SMILES IDX 10 1 19 2 20 3 21 4 2 5 3 6 4 7 6 8 7 9 8 10 11 11 12 12
REMARK SMILES IDX 13 13 14 14 18 15 16 16 15 17 17 19 9 21 1 23 5 25
REMARK H PARENT 15 18 17 20 9 22 1 24 5 26
REMARK Flexibility Score: inf
ROOT
ATOM      1  C   UNL     1     479.617  37.567 459.546  1.00  0.00     0.402 A 
ATOM      2  O   UNL     1     478.940  38.648 459.929  1.00  0.00    -0.202 OA
ATOM      3  C   UNL     1     477.915  38.605 460.775  1.00  0.00     0.368 A 
ATOM      4  C   UNL     1     477.260  39.788 461.131  1.00  0.00     0.162 A 
ATOM      5  C   UNL     1     476.184  39.757 462.021  1.00  0.00     0.128 A 
ATOM      6  C   UNL     1     475.757  38.535 462.559  1.00  0.00     0.093 A 
ATOM      7  C   UNL     1     476.403  37.340 462.211  1.00  0.00     0.136 A 
ATOM      8  C   UNL     1     477.488  37.372 461.314  1.00  0.00     0.125 A 
ATOM      9  C   UNL     1     478.165  36.212 460.924  1.00  0.00     0.078 A 
ATOM     10  C   UNL     1     479.231  36.298 460.026  1.00  0.00     0.223 A 
ENDROOT
BRANCH   1  11
ATOM     11  C   UNL     1     480.747  37.743 458.607  1.00  0.00     0.087 A 
ATOM     12  C   UNL     1     480.587  37.384 457.259  1.00  0.00     0.022 A 
ATOM     13  C   UNL     1     481.632  37.561 456.350  1.00  0.00     0.051 A 
ATOM     14  C   UNL     1     482.849  38.113 456.772  1.00  0.00     0.157 A 
ATOM     15  C   UNL     1     481.963  38.317 459.022  1.00  0.00     0.068 A 
ATOM     16  C   UNL     1     483.013  38.496 458.109  1.00  0.00     0.158 A 
BRANCH  14  17
ATOM     17  O   UNL     1     483.896  38.290 455.869  1.00  0.00    -0.504 OA
ATOM     18  H   UNL     1     483.795  38.879 455.050  1.00  0.00     0.293 HD
ENDBRANCH  14  17
BRANCH  16  19
ATOM     19  O   UNL     1     484.219  39.058 458.522  1.00  0.00    -0.504 OA
ATOM     20  H   UNL     1     484.846  38.567 459.148  1.00  0.00     0.293 HD
ENDBRANCH  16  19
ENDBRANCH   1  11
BRANCH  10  21
ATOM     21  O   UNL     1     479.878  35.139 459.594  1.00  0.00    -0.500 OA
ATOM     22  H   UNL     1     479.522  34.217 459.816  1.00  0.00     0.294 HD
ENDBRANCH  10  21
BRANCH   5  23
ATOM     23  O   UNL     1     475.543  40.945 462.365  1.00  0.00    -0.507 OA
ATOM     24  H   UNL     1     474.554  41.082 462.196  1.00  0.00     0.293 HD
ENDBRANCH   5  23
BRANCH   7  25
ATOM     25  O   UNL     1     475.969  36.129 462.751  1.00  0.00    -0.507 OA
ATOM     26  H   UNL     1     475.920  35.285 462.192  1.00  0.00     0.293 HD
ENDBRANCH   7  25
TORSDOF 6
ENDMDL
MODEL 6
REMARK VINA RESULT:    -5.373      1.455      6.926
REMARK INTER + INTRA:          -6.792
REMARK INTER:                  -6.532
REMARK INTRA:                  -0.260
REMARK UNBOUND:                -0.319
REMARK SMILES Oc1cc(O)c2cc(O)c(-c3ccc(O)c(O)c3)[o+]c2c1.[Cl-]
REMARK SMILES IDX 10 1 19 2 20 3 21 4 2 5 3 6 4 7 6 8 7 9 8 10 11 11 12 12
REMARK SMILES IDX 13 13 14 14 18 15 16 16 15 17 17 19 9 21 1 23 5 25
REMARK H PARENT 15 18 17 20 9 22 1 24 5 26
REMARK Flexibility Score: inf
ROOT
ATOM      1  C   UNL     1     479.313  37.615 460.492  1.00  0.00     0.402 A 
ATOM      2  O   UNL     1     479.393  37.346 459.190  1.00  0.00    -0.202 OA
ATOM      3  C   UNL     1     480.286  37.910 458.383  1.00  0.00     0.368 A 
ATOM      4  C   UNL     1     480.307  37.570 457.027  1.00  0.00     0.162 A 
ATOM      5  C   UNL     1     481.242  38.153 456.168  1.00  0.00     0.128 A 
ATOM      6  C   UNL     1     482.163  39.085 456.667  1.00  0.00     0.093 A 
ATOM      7  C   UNL     1     482.153  39.438 458.024  1.00  0.00     0.136 A 
ATOM      8  C   UNL     1     481.210  38.850 458.889  1.00  0.00     0.125 A 
ATOM      9  C   UNL     1     481.149  39.169 460.249  1.00  0.00     0.078 A 
ATOM     10  C   UNL     1     480.189  38.561 461.063  1.00  0.00     0.223 A 
ENDROOT
BRANCH   1  11
ATOM     11  C   UNL     1     478.282  36.915 461.291  1.00  0.00     0.087 A 
ATOM     12  C   UNL     1     477.146  37.619 461.721  1.00  0.00     0.022 A 
ATOM     13  C   UNL     1     476.150  36.974 462.458  1.00  0.00     0.051 A 
ATOM     14  C   UNL     1     476.268  35.612 462.763  1.00  0.00     0.157 A 
ATOM     15  C   UNL     1     478.386  35.542 461.581  1.00  0.00     0.068 A 
ATOM     16  C   UNL     1     477.386  34.894 462.320  1.00  0.00     0.158 A 
BRANCH  14  17
ATOM     17  O   UNL     1     475.277  34.964 463.500  1.00  0.00    -0.504 OA
ATOM     18  H   UNL     1     474.500  34.498 463.047  1.00  0.00     0.293 HD
ENDBRANCH  14  17
BRANCH  16  19
ATOM     19  O   UNL     1     477.493  33.536 462.612  1.00  0.00    -0.504 OA
ATOM     20  H   UNL     1     477.258  33.171 463.528  1.00  0.00     0.293 HD
ENDBRANCH  16  19
ENDBRANCH   1  11
BRANCH  10  21
ATOM     21  O   UNL     1     480.090  38.913 462.410  1.00  0.00    -0.500 OA
ATOM     22  H   UNL     1     480.666  38.474 463.118  1.00  0.00     0.294 HD
ENDBRANCH  10  21
BRANCH   5  23
ATOM     23  O   UNL     1     481.249  37.802 454.820  1.00  0.00    -0.507 OA
ATOM     24  H   UNL     1     481.090  38.488 454.092  1.00  0.00     0.293 HD
ENDBRANCH   5  23
BRANCH   7  25
ATOM     25  O   UNL     1     483.073  40.368 458.509  1.00  0.00    -0.507 OA
ATOM     26  H   UNL     1     484.064  40.286 458.314  1.00  0.00     0.293 HD
ENDBRANCH   7  25
TORSDOF 6
ENDMDL
MODEL 7
REMARK VINA RESULT:    -5.204      3.905      6.733
REMARK INTER + INTRA:          -6.588
REMARK INTER:                  -6.267
REMARK INTRA:                  -0.321
REMARK UNBOUND:                -0.319
REMARK SMILES Oc1cc(O)c2cc(O)c(-c3ccc(O)c(O)c3)[o+]c2c1.[Cl-]
REMARK SMILES IDX 10 1 19 2 20 3 21 4 2 5 3 6 4 7 6 8 7 9 8 10 11 11 12 12
REMARK SMILES IDX 13 13 14 14 18 15 16 16 15 17 17 19 9 21 1 23 5 25
REMARK H PARENT 15 18 17 20 9 22 1 24 5 26
REMARK Flexibility Score: inf
ROOT
ATOM      1  C   UNL     1     484.281  39.963 459.768  1.00  0.00     0.402 A 
ATOM      2  O   UNL     1     482.987  39.839 460.058  1.00  0.00    -0.202 OA
ATOM      3  C   UNL     1     482.155  39.070 459.361  1.00  0.00     0.368 A 
ATOM      4  C   UNL     1     480.809  38.991 459.733  1.00  0.00     0.162 A 
ATOM      5  C   UNL     1     479.925  38.185 459.012  1.00  0.00     0.128 A 
ATOM      6  C   UNL     1     480.387  37.453 457.910  1.00  0.00     0.093 A 
ATOM      7  C   UNL     1     481.734  37.524 457.523  1.00  0.00     0.136 A 
ATOM      8  C   UNL     1     482.624  38.336 458.251  1.00  0.00     0.125 A 
ATOM      9  C   UNL     1     483.975  38.451 457.907  1.00  0.00     0.078 A 
ATOM     10  C   UNL     1     484.816  39.277 458.658  1.00  0.00     0.223 A 
ENDROOT
BRANCH   1  11
ATOM     11  C   UNL     1     485.110  40.841 460.624  1.00  0.00     0.087 A 
ATOM     12  C   UNL     1     485.951  40.269 461.591  1.00  0.00     0.022 A 
ATOM     13  C   UNL     1     486.758  41.077 462.396  1.00  0.00     0.051 A 
ATOM     14  C   UNL     1     486.745  42.469 462.236  1.00  0.00     0.157 A 
ATOM     15  C   UNL     1     485.116  42.238 460.453  1.00  0.00     0.068 A 
ATOM     16  C   UNL     1     485.926  43.050 461.259  1.00  0.00     0.158 A 
BRANCH  14  17
ATOM     17  O   UNL     1     487.546  43.280 463.038  1.00  0.00    -0.504 OA
ATOM     18  H   UNL     1     487.530  44.290 462.954  1.00  0.00     0.293 HD
ENDBRANCH  14  17
BRANCH  16  19
ATOM     19  O   UNL     1     485.927  44.433 461.093  1.00  0.00    -0.504 OA
ATOM     20  H   UNL     1     485.499  45.050 461.774  1.00  0.00     0.293 HD
ENDBRANCH  16  19
ENDBRANCH   1  11
BRANCH  10  21
ATOM     21  O   UNL     1     486.152  39.435 458.290  1.00  0.00    -0.500 OA
ATOM     22  H   UNL     1     486.432  39.504 457.319  1.00  0.00     0.294 HD
ENDBRANCH  10  21
BRANCH   5  23
ATOM     23  O   UNL     1     478.588  38.118 459.397  1.00  0.00    -0.507 OA
ATOM     24  H   UNL     1     478.102  38.924 459.771  1.00  0.00     0.293 HD
ENDBRANCH   5  23
BRANCH   7  25
ATOM     25  O   UNL     1     482.183  36.792 456.423  1.00  0.00    -0.507 OA
ATOM     26  H   UNL     1     482.063  37.131 455.475  1.00  0.00     0.293 HD
ENDBRANCH   7  25
TORSDOF 6
ENDMDL
MODEL 8
REMARK VINA RESULT:    -5.062      1.783      2.598
REMARK INTER + INTRA:          -6.417
REMARK INTER:                  -6.242
REMARK INTRA:                  -0.175
REMARK UNBOUND:                -0.319
REMARK SMILES Oc1cc(O)c2cc(O)c(-c3ccc(O)c(O)c3)[o+]c2c1.[Cl-]
REMARK SMILES IDX 10 1 19 2 20 3 21 4 2 5 3 6 4 7 6 8 7 9 8 10 11 11 12 12
REMARK SMILES IDX 13 13 14 14 18 15 16 16 15 17 17 19 9 21 1 23 5 25
REMARK H PARENT 15 18 17 20 9 22 1 24 5 26
REMARK Flexibility Score: inf
ROOT
ATOM      1  C   UNL     1     480.631  39.184 460.283  1.00  0.00     0.402 A 
ATOM      2  O   UNL     1     480.092  38.056 460.743  1.00  0.00    -0.202 OA
ATOM      3  C   UNL     1     478.830  37.966 461.152  1.00  0.00     0.368 A 
ATOM      4  C   UNL     1     478.339  36.742 461.616  1.00  0.00     0.162 A 
ATOM      5  C   UNL     1     477.014  36.632 462.047  1.00  0.00     0.128 A 
ATOM      6  C   UNL     1     476.173  37.753 462.015  1.00  0.00     0.093 A 
ATOM      7  C   UNL     1     476.653  38.988 461.554  1.00  0.00     0.136 A 
ATOM      8  C   UNL     1     477.987  39.098 461.120  1.00  0.00     0.125 A 
ATOM      9  C   UNL     1     478.522  40.305 460.657  1.00  0.00     0.078 A 
ATOM     10  C   UNL     1     479.855  40.361 460.244  1.00  0.00     0.223 A 
ENDROOT
BRANCH   1  11
ATOM     11  C   UNL     1     482.045  39.158 459.846  1.00  0.00     0.087 A 
ATOM     12  C   UNL     1     483.000  39.906 460.554  1.00  0.00     0.022 A 
ATOM     13  C   UNL     1     484.343  39.880 460.173  1.00  0.00     0.051 A 
ATOM     14  C   UNL     1     484.754  39.095 459.087  1.00  0.00     0.157 A 
ATOM     15  C   UNL     1     482.465  38.355 458.770  1.00  0.00     0.068 A 
ATOM     16  C   UNL     1     483.814  38.328 458.388  1.00  0.00     0.158 A 
BRANCH  14  17
ATOM     17  O   UNL     1     486.094  39.068 458.702  1.00  0.00    -0.504 OA
ATOM     18  H   UNL     1     486.380  38.681 457.810  1.00  0.00     0.293 HD
ENDBRANCH  14  17
BRANCH  16  19
ATOM     19  O   UNL     1     484.228  37.537 457.318  1.00  0.00    -0.504 OA
ATOM     20  H   UNL     1     483.655  37.423 456.490  1.00  0.00     0.293 HD
ENDBRANCH  16  19
ENDBRANCH   1  11
BRANCH  10  21
ATOM     21  O   UNL     1     480.408  41.574 459.829  1.00  0.00    -0.500 OA
ATOM     22  H   UNL     1     479.882  42.439 459.867  1.00  0.00     0.294 HD
ENDBRANCH  10  21
BRANCH   5  23
ATOM     23  O   UNL     1     476.541  35.405 462.506  1.00  0.00    -0.507 OA
ATOM     24  H   UNL     1     475.626  35.057 462.245  1.00  0.00     0.293 HD
ENDBRANCH   5  23
BRANCH   7  25
ATOM     25  O   UNL     1     475.807  40.098 461.528  1.00  0.00    -0.507 OA
ATOM     26  H   UNL     1     474.809  40.002 461.384  1.00  0.00     0.293 HD
ENDBRANCH   7  25
TORSDOF 6
ENDMDL
