MODEL 1
REMARK VINA RESULT:    -2.545      0.000      0.000
REMARK INTER + INTRA:          -6.892
REMARK INTER:                  -4.628
REMARK INTRA:                  -2.264
REMARK UNBOUND:                -2.264
REMARK SMILES CCCCCCCCCCCCCCCC(=O)[O-]
REMARK SMILES IDX 9 1 10 2 11 3 12 4 13 5 14 6 15 7 16 8 17 9 18 10 8 11 7 12
REMARK SMILES IDX 6 13 5 14 4 15 3 16 2 17 1 18
REMARK H PARENT
REMARK Flexibility Score: inf
ROOT
ATOM      1  C   UNL     1      53.348 -33.092  26.144  1.00  0.00     0.000 C 
ENDROOT
BRANCH   1   2
ATOM      2  C   UNL     1      54.303 -34.021  25.375  1.00  0.00     0.000 C 
BRANCH   2   3
ATOM      3  C   UNL     1      55.148 -33.330  24.284  1.00  0.00     0.000 C 
BRANCH   3   4
ATOM      4  C   UNL     1      55.073 -33.985  22.892  1.00  0.00     0.000 C 
BRANCH   4   5
ATOM      5  C   UNL     1      54.789 -35.495  22.959  1.00  0.00     0.000 C 
BRANCH   5   6
ATOM      6  C   UNL     1      55.883 -36.330  22.273  1.00  0.00     0.006 C 
BRANCH   6   7
ATOM      7  C   UNL     1      56.990 -36.761  23.245  1.00  0.00     0.053 C 
BRANCH   7   8
ATOM      8  C   UNL     1      58.311 -36.215  22.806  1.00  0.00     0.041 C 
ATOM      9  O   UNL     1      58.709 -35.098  23.230  1.00  0.00    -0.550 OA
ATOM     10  O   UNL     1      59.083 -36.917  21.889  1.00  0.00    -0.550 OA
ENDBRANCH   7   8
ENDBRANCH   6   7
ENDBRANCH   5   6
ENDBRANCH   4   5
ENDBRANCH   3   4
ENDBRANCH   2   3
ENDBRANCH   1   2
BRANCH   1  11
ATOM     11  C   UNL     1      53.157 -31.730  25.453  1.00  0.00     0.000 C 
BRANCH  11  12
ATOM     12  C   UNL     1      51.756 -31.569  24.842  1.00  0.00    -0.000 C 
BRANCH  12  13
ATOM     13  C   UNL     1      51.695 -32.042  23.377  1.00  0.00    -0.000 C 
BRANCH  13  14
ATOM     14  C   UNL     1      50.265 -32.384  22.928  1.00  0.00    -0.000 C 
BRANCH  14  15
ATOM     15  C   UNL     1      50.016 -33.899  22.857  1.00  0.00    -0.000 C 
BRANCH  15  16
ATOM     16  C   UNL     1      51.304 -34.719  23.037  1.00  0.00    -0.000 C 
BRANCH  16  17
ATOM     17  C   UNL     1      51.208 -35.728  24.192  1.00  0.00    -0.003 C 
ATOM     18  C   UNL     1      50.348 -35.182  25.328  1.00  0.00     0.004 C 
ENDBRANCH  16  17
ENDBRANCH  15  16
ENDBRANCH  14  15
ENDBRANCH  13  14
ENDBRANCH  12  13
ENDBRANCH  11  12
ENDBRANCH   1  11
TORSDOF 14
ENDMDL
MODEL 2
REMARK VINA RESULT:    -2.436      3.084      6.265
REMARK INTER + INTRA:          -6.693
REMARK INTER:                  -4.439
REMARK INTRA:                  -2.253
REMARK UNBOUND:                -2.264
REMARK SMILES CCCCCCCCCCCCCCCC(=O)[O-]
REMARK SMILES IDX 9 1 10 2 11 3 12 4 13 5 14 6 15 7 16 8 17 9 18 10 8 11 7 12
REMARK SMILES IDX 6 13 5 14 4 15 3 16 2 17 1 18
REMARK H PARENT
REMARK Flexibility Score: inf
ROOT
ATOM      1  C   UNL     1      54.779 -34.144  25.003  1.00  0.00     0.000 C 
ENDROOT
BRANCH   1   2
ATOM      2  C   UNL     1      54.646 -32.892  24.120  1.00  0.00     0.000 C 
BRANCH   2   3
ATOM      3  C   UNL     1      54.100 -31.640  24.838  1.00  0.00     0.000 C 
BRANCH   3   4
ATOM      4  C   UNL     1      52.758 -31.114  24.298  1.00  0.00     0.000 C 
BRANCH   4   5
ATOM      5  C   UNL     1      52.193 -31.980  23.160  1.00  0.00     0.000 C 
BRANCH   5   6
ATOM      6  C   UNL     1      50.838 -32.610  23.517  1.00  0.00     0.006 C 
BRANCH   6   7
ATOM      7  C   UNL     1      50.987 -33.929  24.289  1.00  0.00     0.053 C 
BRANCH   7   8
ATOM      8  C   UNL     1      50.471 -35.071  23.473  1.00  0.00     0.041 C 
ATOM      9  O   UNL     1      49.876 -34.856  22.385  1.00  0.00    -0.550 OA
ATOM     10  O   UNL     1      50.604 -36.374  23.939  1.00  0.00    -0.550 OA
ENDBRANCH   7   8
ENDBRANCH   6   7
ENDBRANCH   5   6
ENDBRANCH   4   5
ENDBRANCH   3   4
ENDBRANCH   2   3
ENDBRANCH   1   2
BRANCH   1  11
ATOM     11  C   UNL     1      54.455 -35.444  24.247  1.00  0.00     0.000 C 
BRANCH  11  12
ATOM     12  C   UNL     1      54.124 -35.200  22.766  1.00  0.00    -0.000 C 
BRANCH  12  13
ATOM     13  C   UNL     1      55.267 -35.633  21.828  1.00  0.00    -0.000 C 
BRANCH  13  14
ATOM     14  C   UNL     1      56.146 -36.735  22.440  1.00  0.00    -0.000 C 
BRANCH  14  15
ATOM     15  C   UNL     1      57.616 -36.305  22.582  1.00  0.00    -0.000 C 
BRANCH  15  16
ATOM     16  C   UNL     1      58.209 -36.672  23.953  1.00  0.00    -0.000 C 
BRANCH  16  17
ATOM     17  C   UNL     1      58.301 -35.467  24.900  1.00  0.00    -0.003 C 
ATOM     18  C   UNL     1      58.376 -34.159  24.120  1.00  0.00     0.004 C 
ENDBRANCH  16  17
ENDBRANCH  15  16
ENDBRANCH  14  15
ENDBRANCH  13  14
ENDBRANCH  12  13
ENDBRANCH  11  12
ENDBRANCH   1  11
TORSDOF 14
ENDMDL
MODEL 3
REMARK VINA RESULT:    -2.415      1.203      3.189
REMARK INTER + INTRA:          -6.656
REMARK INTER:                  -4.700
REMARK INTRA:                  -1.957
REMARK UNBOUND:                -2.264
REMARK SMILES CCCCCCCCCCCCCCCC(=O)[O-]
REMARK SMILES IDX 9 1 10 2 11 3 12 4 13 5 14 6 15 7 16 8 17 9 18 10 8 11 7 12
REMARK SMILES IDX 6 13 5 14 4 15 3 16 2 17 1 18
REMARK H PARENT
REMARK Flexibility Score: inf
ROOT
ATOM      1  C   UNL     1      51.658 -34.869  23.128  1.00  0.00     0.000 C 
ENDROOT
BRANCH   1   2
ATOM      2  C   UNL     1      52.576 -35.282  24.292  1.00  0.00     0.000 C 
BRANCH   2   3
ATOM      3  C   UNL     1      54.025 -35.627  23.890  1.00  0.00     0.000 C 
BRANCH   3   4
ATOM      4  C   UNL     1      54.379 -35.338  22.420  1.00  0.00     0.000 C 
BRANCH   4   5
ATOM      5  C   UNL     1      55.700 -35.996  21.986  1.00  0.00     0.000 C 
BRANCH   5   6
ATOM      6  C   UNL     1      56.593 -36.366  23.180  1.00  0.00     0.006 C 
BRANCH   6   7
ATOM      7  C   UNL     1      57.926 -36.993  22.746  1.00  0.00     0.053 C 
BRANCH   7   8
ATOM      8  C   UNL     1      59.073 -36.149  23.203  1.00  0.00     0.041 C 
ATOM      9  O   UNL     1      60.213 -36.659  23.359  1.00  0.00    -0.550 OA
ATOM     10  O   UNL     1      58.872 -34.807  23.504  1.00  0.00    -0.550 OA
ENDBRANCH   7   8
ENDBRANCH   6   7
ENDBRANCH   5   6
ENDBRANCH   4   5
ENDBRANCH   3   4
ENDBRANCH   2   3
ENDBRANCH   1   2
BRANCH   1  11
ATOM     11  C   UNL     1      50.285 -34.362  23.604  1.00  0.00     0.000 C 
BRANCH  11  12
ATOM     12  C   UNL     1      50.337 -32.920  24.132  1.00  0.00    -0.000 C 
BRANCH  12  13
ATOM     13  C   UNL     1      50.920 -31.936  23.102  1.00  0.00    -0.000 C 
BRANCH  13  14
ATOM     14  C   UNL     1      52.150 -31.185  23.635  1.00  0.00    -0.000 C 
BRANCH  14  15
ATOM     15  C   UNL     1      52.517 -31.598  25.070  1.00  0.00    -0.000 C 
BRANCH  15  16
ATOM     16  C   UNL     1      54.006 -31.949  25.222  1.00  0.00    -0.000 C 
BRANCH  16  17
ATOM     17  C   UNL     1      54.713 -32.133  23.870  1.00  0.00    -0.003 C 
ATOM     18  C   UNL     1      56.228 -32.179  24.045  1.00  0.00     0.004 C 
ENDBRANCH  16  17
ENDBRANCH  15  16
ENDBRANCH  14  15
ENDBRANCH  13  14
ENDBRANCH  12  13
ENDBRANCH  11  12
ENDBRANCH   1  11
TORSDOF 14
ENDMDL
MODEL 4
REMARK VINA RESULT:    -2.396      1.341      1.958
REMARK INTER + INTRA:          -6.622
REMARK INTER:                  -4.478
REMARK INTRA:                  -2.144
REMARK UNBOUND:                -2.264
REMARK SMILES CCCCCCCCCCCCCCCC(=O)[O-]
REMARK SMILES IDX 9 1 10 2 11 3 12 4 13 5 14 6 15 7 16 8 17 9 18 10 8 11 7 12
REMARK SMILES IDX 6 13 5 14 4 15 3 16 2 17 1 18
REMARK H PARENT
REMARK Flexibility Score: inf
ROOT
ATOM      1  C   UNL     1      53.985 -30.771  26.040  1.00  0.00     0.000 C 
ENDROOT
BRANCH   1   2
ATOM      2  C   UNL     1      54.559 -32.130  25.605  1.00  0.00     0.000 C 
BRANCH   2   3
ATOM      3  C   UNL     1      55.359 -32.110  24.285  1.00  0.00     0.000 C 
BRANCH   3   4
ATOM      4  C   UNL     1      54.815 -33.034  23.180  1.00  0.00     0.000 C 
BRANCH   4   5
ATOM      5  C   UNL     1      54.946 -34.525  23.534  1.00  0.00     0.000 C 
BRANCH   5   6
ATOM      6  C   UNL     1      55.430 -35.371  22.346  1.00  0.00     0.006 C 
BRANCH   6   7
ATOM      7  C   UNL     1      56.398 -36.483  22.772  1.00  0.00     0.053 C 
BRANCH   7   8
ATOM      8  C   UNL     1      57.813 -36.003  22.691  1.00  0.00     0.041 C 
ATOM      9  O   UNL     1      58.615 -36.527  21.875  1.00  0.00    -0.550 OA
ATOM     10  O   UNL     1      58.259 -35.009  23.553  1.00  0.00    -0.550 OA
ENDBRANCH   7   8
ENDBRANCH   6   7
ENDBRANCH   5   6
ENDBRANCH   4   5
ENDBRANCH   3   4
ENDBRANCH   2   3
ENDBRANCH   1   2
BRANCH   1  11
ATOM     11  C   UNL     1      54.197 -29.670  24.986  1.00  0.00     0.000 C 
BRANCH  11  12
ATOM     12  C   UNL     1      52.879 -29.029  24.527  1.00  0.00    -0.000 C 
BRANCH  12  13
ATOM     13  C   UNL     1      51.717 -30.039  24.480  1.00  0.00    -0.000 C 
BRANCH  13  14
ATOM     14  C   UNL     1      51.469 -30.587  23.066  1.00  0.00    -0.000 C 
BRANCH  14  15
ATOM     15  C   UNL     1      51.203 -32.101  23.058  1.00  0.00    -0.000 C 
BRANCH  15  16
ATOM     16  C   UNL     1      51.141 -32.698  24.474  1.00  0.00    -0.000 C 
BRANCH  16  17
ATOM     17  C   UNL     1      51.423 -34.208  24.494  1.00  0.00    -0.003 C 
ATOM     18  C   UNL     1      51.274 -34.813  23.101  1.00  0.00     0.004 C 
ENDBRANCH  16  17
ENDBRANCH  15  16
ENDBRANCH  14  15
ENDBRANCH  13  14
ENDBRANCH  12  13
ENDBRANCH  11  12
ENDBRANCH   1  11
TORSDOF 14
ENDMDL
MODEL 5
REMARK VINA RESULT:    -2.387      3.501      5.981
REMARK INTER + INTRA:          -6.604
REMARK INTER:                  -3.975
REMARK INTRA:                  -2.629
REMARK UNBOUND:                -2.264
REMARK SMILES CCCCCCCCCCCCCCCC(=O)[O-]
REMARK SMILES IDX 9 1 10 2 11 3 12 4 13 5 14 6 15 7 16 8 17 9 18 10 8 11 7 12
REMARK SMILES IDX 6 13 5 14 4 15 3 16 2 17 1 18
REMARK H PARENT
REMARK Flexibility Score: inf
ROOT
ATOM      1  C   UNL     1      53.199 -34.142  23.814  1.00  0.00     0.000 C 
ENDROOT
BRANCH   1   2
ATOM      2  C   UNL     1      54.221 -32.998  23.934  1.00  0.00     0.000 C 
BRANCH   2   3
ATOM      3  C   UNL     1      54.799 -32.784  25.349  1.00  0.00     0.000 C 
BRANCH   3   4
ATOM      4  C   UNL     1      56.305 -32.468  25.396  1.00  0.00     0.000 C 
BRANCH   4   5
ATOM      5  C   UNL     1      56.884 -32.122  24.014  1.00  0.00     0.000 C 
BRANCH   5   6
ATOM      6  C   UNL     1      57.140 -30.616  23.843  1.00  0.00     0.006 C 
BRANCH   6   7
ATOM      7  C   UNL     1      56.644 -29.796  25.042  1.00  0.00     0.053 C 
BRANCH   7   8
ATOM      8  C   UNL     1      55.530 -28.888  24.627  1.00  0.00     0.041 C 
ATOM      9  O   UNL     1      55.773 -27.702  24.284  1.00  0.00    -0.550 OA
ATOM     10  O   UNL     1      54.216 -29.338  24.666  1.00  0.00    -0.550 OA
ENDBRANCH   7   8
ENDBRANCH   6   7
ENDBRANCH   5   6
ENDBRANCH   4   5
ENDBRANCH   3   4
ENDBRANCH   2   3
ENDBRANCH   1   2
BRANCH   1  11
ATOM     11  C   UNL     1      53.762 -35.367  23.072  1.00  0.00     0.000 C 
BRANCH  11  12
ATOM     12  C   UNL     1      55.122 -35.088  22.414  1.00  0.00    -0.000 C 
BRANCH  12  13
ATOM     13  C   UNL     1      56.156 -36.190  22.707  1.00  0.00    -0.000 C 
BRANCH  13  14
ATOM     14  C   UNL     1      57.491 -35.625  23.219  1.00  0.00    -0.000 C 
BRANCH  14  15
ATOM     15  C   UNL     1      57.692 -35.864  24.725  1.00  0.00    -0.000 C 
BRANCH  15  16
ATOM     16  C   UNL     1      56.606 -36.767  25.331  1.00  0.00    -0.000 C 
BRANCH  16  17
ATOM     17  C   UNL     1      55.818 -36.074  26.454  1.00  0.00    -0.003 C 
ATOM     18  C   UNL     1      54.377 -36.573  26.503  1.00  0.00     0.004 C 
ENDBRANCH  16  17
ENDBRANCH  15  16
ENDBRANCH  14  15
ENDBRANCH  13  14
ENDBRANCH  12  13
ENDBRANCH  11  12
ENDBRANCH   1  11
TORSDOF 14
ENDMDL
MODEL 6
REMARK VINA RESULT:    -2.373      3.716      6.230
REMARK INTER + INTRA:          -6.578
REMARK INTER:                  -4.245
REMARK INTRA:                  -2.333
REMARK UNBOUND:                -2.264
REMARK SMILES CCCCCCCCCCCCCCCC(=O)[O-]
REMARK SMILES IDX 9 1 10 2 11 3 12 4 13 5 14 6 15 7 16 8 17 9 18 10 8 11 7 12
REMARK SMILES IDX 6 13 5 14 4 15 3 16 2 17 1 18
REMARK H PARENT
REMARK Flexibility Score: inf
ROOT
ATOM      1  C   UNL     1      57.154 -34.148  26.196  1.00  0.00     0.000 C 
ENDROOT
BRANCH   1   2
ATOM      2  C   UNL     1      57.623 -33.375  24.952  1.00  0.00     0.000 C 
BRANCH   2   3
ATOM      3  C   UNL     1      56.604 -32.361  24.390  1.00  0.00     0.000 C 
BRANCH   3   4
ATOM      4  C   UNL     1      55.294 -32.244  25.190  1.00  0.00     0.000 C 
BRANCH   4   5
ATOM      5  C   UNL     1      54.360 -31.151  24.645  1.00  0.00     0.000 C 
BRANCH   5   6
ATOM      6  C   UNL     1      52.875 -31.523  24.782  1.00  0.00     0.006 C 
BRANCH   6   7
ATOM      7  C   UNL     1      52.216 -31.824  23.429  1.00  0.00     0.053 C 
BRANCH   7   8
ATOM      8  C   UNL     1      51.255 -30.738  23.064  1.00  0.00     0.041 C 
ATOM      9  O   UNL     1      50.142 -31.022  22.549  1.00  0.00    -0.550 OA
ATOM     10  O   UNL     1      51.609 -29.406  23.246  1.00  0.00    -0.550 OA
ENDBRANCH   7   8
ENDBRANCH   6   7
ENDBRANCH   5   6
ENDBRANCH   4   5
ENDBRANCH   3   4
ENDBRANCH   2   3
ENDBRANCH   1   2
BRANCH   1  11
ATOM     11  C   UNL     1      57.236 -35.674  26.014  1.00  0.00     0.000 C 
BRANCH  11  12
ATOM     12  C   UNL     1      57.951 -36.078  24.714  1.00  0.00    -0.000 C 
BRANCH  12  13
ATOM     13  C   UNL     1      57.055 -36.918  23.786  1.00  0.00    -0.000 C 
BRANCH  13  14
ATOM     14  C   UNL     1      56.904 -36.294  22.389  1.00  0.00    -0.000 C 
BRANCH  14  15
ATOM     15  C   UNL     1      55.434 -36.078  21.995  1.00  0.00    -0.000 C 
BRANCH  15  16
ATOM     16  C   UNL     1      54.783 -34.911  22.755  1.00  0.00    -0.000 C 
BRANCH  16  17
ATOM     17  C   UNL     1      53.470 -35.311  23.445  1.00  0.00    -0.003 C 
ATOM     18  C   UNL     1      53.692 -35.594  24.928  1.00  0.00     0.004 C 
ENDBRANCH  16  17
ENDBRANCH  15  16
ENDBRANCH  14  15
ENDBRANCH  13  14
ENDBRANCH  12  13
ENDBRANCH  11  12
ENDBRANCH   1  11
TORSDOF 14
ENDMDL
MODEL 7
REMARK VINA RESULT:    -2.364      3.097      6.043
REMARK INTER + INTRA:          -6.563
REMARK INTER:                  -4.137
REMARK INTRA:                  -2.426
REMARK UNBOUND:                -2.264
REMARK SMILES CCCCCCCCCCCCCCCC(=O)[O-]
REMARK SMILES IDX 9 1 10 2 11 3 12 4 13 5 14 6 15 7 16 8 17 9 18 10 8 11 7 12
REMARK SMILES IDX 6 13 5 14 4 15 3 16 2 17 1 18
REMARK H PARENT
REMARK Flexibility Score: inf
ROOT
ATOM      1  C   UNL     1      58.035 -36.066  24.676  1.00  0.00     0.000 C 
ENDROOT
BRANCH   1   2
ATOM      2  C   UNL     1      57.566 -35.661  23.268  1.00  0.00     0.000 C 
BRANCH   2   3
ATOM      3  C   UNL     1      56.648 -36.684  22.565  1.00  0.00     0.000 C 
BRANCH   3   4
ATOM      4  C   UNL     1      55.338 -36.105  22.003  1.00  0.00     0.000 C 
BRANCH   4   5
ATOM      5  C   UNL     1      54.798 -34.932  22.839  1.00  0.00     0.000 C 
BRANCH   5   6
ATOM      6  C   UNL     1      53.623 -35.343  23.739  1.00  0.00     0.006 C 
BRANCH   6   7
ATOM      7  C   UNL     1      52.262 -34.959  23.142  1.00  0.00     0.053 C 
BRANCH   7   8
ATOM      8  C   UNL     1      51.755 -33.699  23.768  1.00  0.00     0.041 C 
ATOM      9  O   UNL     1      52.111 -33.382  24.933  1.00  0.00    -0.550 OA
ATOM     10  O   UNL     1      50.850 -32.898  23.083  1.00  0.00    -0.550 OA
ENDBRANCH   7   8
ENDBRANCH   6   7
ENDBRANCH   5   6
ENDBRANCH   4   5
ENDBRANCH   3   4
ENDBRANCH   2   3
ENDBRANCH   1   2
BRANCH   1  11
ATOM     11  C   UNL     1      57.127 -37.125  25.325  1.00  0.00     0.000 C 
BRANCH  11  12
ATOM     12  C   UNL     1      56.066 -36.507  26.249  1.00  0.00    -0.000 C 
BRANCH  12  13
ATOM     13  C   UNL     1      56.508 -35.150  26.829  1.00  0.00    -0.000 C 
BRANCH  13  14
ATOM     14  C   UNL     1      55.457 -34.048  26.616  1.00  0.00    -0.000 C 
BRANCH  14  15
ATOM     15  C   UNL     1      56.086 -32.707  26.203  1.00  0.00    -0.000 C 
BRANCH  15  16
ATOM     16  C   UNL     1      55.431 -32.108  24.948  1.00  0.00    -0.000 C 
BRANCH  16  17
ATOM     17  C   UNL     1      56.459 -31.676  23.891  1.00  0.00    -0.003 C 
ATOM     18  C   UNL     1      57.860 -32.151  24.261  1.00  0.00     0.004 C 
ENDBRANCH  16  17
ENDBRANCH  15  16
ENDBRANCH  14  15
ENDBRANCH  13  14
ENDBRANCH  12  13
ENDBRANCH  11  12
ENDBRANCH   1  11
TORSDOF 14
ENDMDL
MODEL 8
REMARK VINA RESULT:    -2.350      3.040      5.700
REMARK INTER + INTRA:          -6.537
REMARK INTER:                  -3.915
REMARK INTRA:                  -2.622
REMARK UNBOUND:                -2.264
REMARK SMILES CCCCCCCCCCCCCCCC(=O)[O-]
REMARK SMILES IDX 9 1 10 2 11 3 12 4 13 5 14 6 15 7 16 8 17 9 18 10 8 11 7 12
REMARK SMILES IDX 6 13 5 14 4 15 3 16 2 17 1 18
REMARK H PARENT
REMARK Flexibility Score: inf
ROOT
ATOM      1  C   UNL     1      55.104 -35.724  21.999  1.00  0.00     0.000 C 
ENDROOT
BRANCH   1   2
ATOM      2  C   UNL     1      54.083 -35.493  23.127  1.00  0.00     0.000 C 
BRANCH   2   3
ATOM      3  C   UNL     1      53.907 -34.021  23.557  1.00  0.00     0.000 C 
BRANCH   3   4
ATOM      4  C   UNL     1      54.931 -33.519  24.592  1.00  0.00     0.000 C 
BRANCH   4   5
ATOM      5  C   UNL     1      56.145 -32.833  23.945  1.00  0.00     0.000 C 
BRANCH   5   6
ATOM      6  C   UNL     1      57.365 -32.794  24.878  1.00  0.00     0.006 C 
BRANCH   6   7
ATOM      7  C   UNL     1      58.669 -32.487  24.128  1.00  0.00     0.053 C 
BRANCH   7   8
ATOM      8  C   UNL     1      58.817 -31.013  23.920  1.00  0.00     0.041 C 
ATOM      9  O   UNL     1      58.591 -30.214  24.866  1.00  0.00    -0.550 OA
ATOM     10  O   UNL     1      59.156 -30.518  22.667  1.00  0.00    -0.550 OA
ENDBRANCH   7   8
ENDBRANCH   6   7
ENDBRANCH   5   6
ENDBRANCH   4   5
ENDBRANCH   3   4
ENDBRANCH   2   3
ENDBRANCH   1   2
BRANCH   1  11
ATOM     11  C   UNL     1      56.234 -36.686  22.407  1.00  0.00     0.000 C 
BRANCH  11  12
ATOM     12  C   UNL     1      57.612 -36.007  22.421  1.00  0.00    -0.000 C 
BRANCH  12  13
ATOM     13  C   UNL     1      58.349 -36.199  23.760  1.00  0.00    -0.000 C 
BRANCH  13  14
ATOM     14  C   UNL     1      57.514 -36.983  24.785  1.00  0.00    -0.000 C 
BRANCH  14  15
ATOM     15  C   UNL     1      57.612 -36.390  26.201  1.00  0.00    -0.000 C 
BRANCH  15  16
ATOM     16  C   UNL     1      56.245 -35.959  26.757  1.00  0.00    -0.000 C 
BRANCH  16  17
ATOM     17  C   UNL     1      55.162 -37.031  26.565  1.00  0.00    -0.003 C 
ATOM     18  C   UNL     1      53.766 -36.422  26.649  1.00  0.00     0.004 C 
ENDBRANCH  16  17
ENDBRANCH  15  16
ENDBRANCH  14  15
ENDBRANCH  13  14
ENDBRANCH  12  13
ENDBRANCH  11  12
ENDBRANCH   1  11
TORSDOF 14
ENDMDL
MODEL 9
REMARK VINA RESULT:    -2.307      2.701      5.240
REMARK INTER + INTRA:          -6.459
REMARK INTER:                  -3.987
REMARK INTRA:                  -2.472
REMARK UNBOUND:                -2.264
REMARK SMILES CCCCCCCCCCCCCCCC(=O)[O-]
REMARK SMILES IDX 9 1 10 2 11 3 12 4 13 5 14 6 15 7 16 8 17 9 18 10 8 11 7 12
REMARK SMILES IDX 6 13 5 14 4 15 3 16 2 17 1 18
REMARK H PARENT
REMARK Flexibility Score: inf
ROOT
ATOM      1  C   UNL     1      57.306 -37.034  23.200  1.00  0.00     0.000 C 
ENDROOT
BRANCH   1   2
ATOM      2  C   UNL     1      56.756 -36.039  22.163  1.00  0.00     0.000 C 
BRANCH   2   3
ATOM      3  C   UNL     1      55.218 -36.006  22.041  1.00  0.00     0.000 C 
BRANCH   3   4
ATOM      4  C   UNL     1      54.490 -35.278  23.185  1.00  0.00     0.000 C 
BRANCH   4   5
ATOM      5  C   UNL     1      54.853 -33.786  23.268  1.00  0.00     0.000 C 
BRANCH   5   6
ATOM      6  C   UNL     1      55.657 -33.445  24.532  1.00  0.00     0.006 C 
BRANCH   6   7
ATOM      7  C   UNL     1      57.027 -32.830  24.211  1.00  0.00     0.053 C 
BRANCH   7   8
ATOM      8  C   UNL     1      56.899 -31.356  23.994  1.00  0.00     0.041 C 
ATOM      9  O   UNL     1      56.012 -30.700  24.601  1.00  0.00    -0.550 OA
ATOM     10  O   UNL     1      57.728 -30.713  23.083  1.00  0.00    -0.550 OA
ENDBRANCH   7   8
ENDBRANCH   6   7
ENDBRANCH   5   6
ENDBRANCH   4   5
ENDBRANCH   3   4
ENDBRANCH   2   3
ENDBRANCH   1   2
BRANCH   1  11
ATOM     11  C   UNL     1      58.370 -36.408  24.119  1.00  0.00     0.000 C 
BRANCH  11  12
ATOM     12  C   UNL     1      57.951 -36.411  25.597  1.00  0.00    -0.000 C 
BRANCH  12  13
ATOM     13  C   UNL     1      56.605 -37.125  25.826  1.00  0.00    -0.000 C 
BRANCH  13  14
ATOM     14  C   UNL     1      55.672 -36.337  26.760  1.00  0.00    -0.000 C 
BRANCH  14  15
ATOM     15  C   UNL     1      54.186 -36.639  26.501  1.00  0.00    -0.000 C 
BRANCH  15  16
ATOM     16  C   UNL     1      53.304 -35.383  26.586  1.00  0.00    -0.000 C 
BRANCH  16  17
ATOM     17  C   UNL     1      51.901 -35.603  26.000  1.00  0.00    -0.003 C 
ATOM     18  C   UNL     1      51.347 -34.313  25.402  1.00  0.00     0.004 C 
ENDBRANCH  16  17
ENDBRANCH  15  16
ENDBRANCH  14  15
ENDBRANCH  13  14
ENDBRANCH  12  13
ENDBRANCH  11  12
ENDBRANCH   1  11
TORSDOF 14
ENDMDL
