MODEL 1
REMARK VINA RESULT:    -4.379      0.000      0.000
REMARK INTER + INTRA:         -15.317
REMARK INTER:                 -11.036
REMARK INTRA:                  -4.281
REMARK UNBOUND:                -4.281
REMARK SMILES CCCCCCCCCCCCCCCCCCCCCCCCCCCC(=O)[O-]
REMARK SMILES IDX 15 1 16 2 17 3 18 4 19 5 20 6 21 7 22 8 23 9 24 10 25 11
REMARK SMILES IDX 26 12 27 13 28 14 29 15 30 16 14 17 13 18 12 19 11 20 10 21
REMARK SMILES IDX 9 22 8 23 7 24 6 25 5 26 4 27 3 28 2 29 1 30
REMARK H PARENT
REMARK Flexibility Score: inf
ROOT
ATOM      1  C   UNL     1      -7.582  -5.589  -0.244  1.00  0.00     0.000 C 
ENDROOT
BRANCH   1   2
ATOM      2  C   UNL     1      -8.430  -4.338   0.046  1.00  0.00     0.000 C 
BRANCH   2   3
ATOM      3  C   UNL     1      -8.804  -4.219   1.540  1.00  0.00     0.000 C 
BRANCH   3   4
ATOM      4  C   UNL     1      -8.538  -2.827   2.140  1.00  0.00     0.000 C 
BRANCH   4   5
ATOM      5  C   UNL     1      -8.313  -1.744   1.071  1.00  0.00     0.000 C 
BRANCH   5   6
ATOM      6  C   UNL     1      -7.024  -0.930   1.324  1.00  0.00     0.000 C 
BRANCH   6   7
ATOM      7  C   UNL     1      -6.350  -0.408   0.043  1.00  0.00     0.000 C 
BRANCH   7   8
ATOM      8  C   UNL     1      -7.026  -0.930  -1.235  1.00  0.00     0.000 C 
BRANCH   8   9
ATOM      9  C   UNL     1      -6.019  -1.474  -2.266  1.00  0.00     0.000 C 
BRANCH   9  10
ATOM     10  C   UNL     1      -4.880  -0.508  -2.647  1.00  0.00     0.000 C 
BRANCH  10  11
ATOM     11  C   UNL     1      -5.151   0.377  -3.881  1.00  0.00     0.000 C 
BRANCH  11  12
ATOM     12  C   UNL     1      -4.882   1.879  -3.678  1.00  0.00     0.006 C 
BRANCH  12  13
ATOM     13  C   UNL     1      -4.867   2.291  -2.200  1.00  0.00     0.053 C 
BRANCH  13  14
ATOM     14  C   UNL     1      -6.173   2.917  -1.819  1.00  0.00     0.041 C 
ATOM     15  O   UNL     1      -6.975   3.300  -2.711  1.00  0.00    -0.550 OA
ATOM     16  O   UNL     1      -6.510   3.062  -0.479  1.00  0.00    -0.550 OA
ENDBRANCH  13  14
ENDBRANCH  12  13
ENDBRANCH  11  12
ENDBRANCH  10  11
ENDBRANCH   9  10
ENDBRANCH   8   9
ENDBRANCH   7   8
ENDBRANCH   6   7
ENDBRANCH   5   6
ENDBRANCH   4   5
ENDBRANCH   3   4
ENDBRANCH   2   3
ENDBRANCH   1   2
BRANCH   1  17
ATOM     17  C   UNL     1      -6.283  -5.262  -1.001  1.00  0.00     0.000 C 
BRANCH  17  18
ATOM     18  C   UNL     1      -5.024  -5.165  -0.113  1.00  0.00     0.000 C 
BRANCH  18  19
ATOM     19  C   UNL     1      -4.777  -3.752   0.459  1.00  0.00     0.000 C 
BRANCH  19  20
ATOM     20  C   UNL     1      -4.994  -3.695   1.981  1.00  0.00     0.000 C 
BRANCH  20  21
ATOM     21  C   UNL     1      -5.301  -5.070   2.599  1.00  0.00     0.000 C 
BRANCH  21  22
ATOM     22  C   UNL     1      -5.721  -5.005   4.084  1.00  0.00    -0.000 C 
BRANCH  22  23
ATOM     23  C   UNL     1      -5.511  -3.606   4.690  1.00  0.00    -0.000 C 
BRANCH  23  24
ATOM     24  C   UNL     1      -4.589  -3.622   5.921  1.00  0.00    -0.000 C 
BRANCH  24  25
ATOM     25  C   UNL     1      -4.144  -2.214   6.339  1.00  0.00    -0.000 C 
BRANCH  25  26
ATOM     26  C   UNL     1      -3.951  -1.308   5.116  1.00  0.00    -0.000 C 
BRANCH  26  27
ATOM     27  C   UNL     1      -3.242  -0.004   5.515  1.00  0.00    -0.000 C 
BRANCH  27  28
ATOM     28  C   UNL     1      -1.750   0.009   5.137  1.00  0.00    -0.000 C 
BRANCH  28  29
ATOM     29  C   UNL     1      -0.795   0.396   6.279  1.00  0.00    -0.003 C 
ATOM     30  C   UNL     1      -0.341  -0.801   7.113  1.00  0.00     0.004 C 
ENDBRANCH  28  29
ENDBRANCH  27  28
ENDBRANCH  26  27
ENDBRANCH  25  26
ENDBRANCH  24  25
ENDBRANCH  23  24
ENDBRANCH  22  23
ENDBRANCH  21  22
ENDBRANCH  20  21
ENDBRANCH  19  20
ENDBRANCH  18  19
ENDBRANCH  17  18
ENDBRANCH   1  17
TORSDOF 26
ENDMDL
MODEL 2
REMARK VINA RESULT:    -4.310      3.223      6.236
REMARK INTER + INTRA:         -15.142
REMARK INTER:                 -12.354
REMARK INTRA:                  -2.789
REMARK UNBOUND:                -4.281
REMARK SMILES CCCCCCCCCCCCCCCCCCCCCCCCCCCC(=O)[O-]
REMARK SMILES IDX 15 1 16 2 17 3 18 4 19 5 20 6 21 7 22 8 23 9 24 10 25 11
REMARK SMILES IDX 26 12 27 13 28 14 29 15 30 16 14 17 13 18 12 19 11 20 10 21
REMARK SMILES IDX 9 22 8 23 7 24 6 25 5 26 4 27 3 28 2 29 1 30
REMARK H PARENT
REMARK Flexibility Score: inf
ROOT
ATOM      1  C   UNL     1      -4.120  -1.675   4.492  1.00  0.00     0.000 C 
ENDROOT
BRANCH   1   2
ATOM      2  C   UNL     1      -4.829  -3.029   4.677  1.00  0.00     0.000 C 
BRANCH   2   3
ATOM      3  C   UNL     1      -5.109  -3.731   3.330  1.00  0.00     0.000 C 
BRANCH   3   4
ATOM      4  C   UNL     1      -5.046  -2.792   2.113  1.00  0.00     0.000 C 
BRANCH   4   5
ATOM      5  C   UNL     1      -4.545  -3.491   0.838  1.00  0.00     0.000 C 
BRANCH   5   6
ATOM      6  C   UNL     1      -4.915  -4.992   0.809  1.00  0.00     0.000 C 
BRANCH   6   7
ATOM      7  C   UNL     1      -5.922  -5.367  -0.293  1.00  0.00     0.000 C 
BRANCH   7   8
ATOM      8  C   UNL     1      -7.372  -5.384   0.213  1.00  0.00     0.000 C 
BRANCH   8   9
ATOM      9  C   UNL     1      -8.220  -4.232  -0.358  1.00  0.00     0.000 C 
BRANCH   9  10
ATOM     10  C   UNL     1      -8.769  -3.239   0.687  1.00  0.00     0.000 C 
BRANCH  10  11
ATOM     11  C   UNL     1      -8.284  -1.783   0.531  1.00  0.00     0.000 C 
BRANCH  11  12
ATOM     12  C   UNL     1      -7.187  -1.571  -0.527  1.00  0.00     0.006 C 
BRANCH  12  13
ATOM     13  C   UNL     1      -6.653  -0.132  -0.557  1.00  0.00     0.053 C 
BRANCH  13  14
ATOM     14  C   UNL     1      -5.678   0.040  -1.679  1.00  0.00     0.041 C 
ATOM     15  O   UNL     1      -4.957   1.071  -1.738  1.00  0.00    -0.550 OA
ATOM     16  O   UNL     1      -5.554  -0.944  -2.651  1.00  0.00    -0.550 OA
ENDBRANCH  13  14
ENDBRANCH  12  13
ENDBRANCH  11  12
ENDBRANCH  10  11
ENDBRANCH   9  10
ENDBRANCH   8   9
ENDBRANCH   7   8
ENDBRANCH   6   7
ENDBRANCH   5   6
ENDBRANCH   4   5
ENDBRANCH   3   4
ENDBRANCH   2   3
ENDBRANCH   1   2
BRANCH   1  17
ATOM     17  C   UNL     1      -4.338  -0.724   5.682  1.00  0.00     0.000 C 
BRANCH  17  18
ATOM     18  C   UNL     1      -3.045  -0.132   6.281  1.00  0.00     0.000 C 
BRANCH  18  19
ATOM     19  C   UNL     1      -1.997   0.269   5.220  1.00  0.00     0.000 C 
BRANCH  19  20
ATOM     20  C   UNL     1      -0.567  -0.109   5.642  1.00  0.00     0.000 C 
BRANCH  20  21
ATOM     21  C   UNL     1      -0.511  -0.846   6.991  1.00  0.00     0.000 C 
BRANCH  21  22
ATOM     22  C   UNL     1       0.918  -1.001   7.558  1.00  0.00    -0.000 C 
BRANCH  22  23
ATOM     23  C   UNL     1       1.967  -1.195   6.450  1.00  0.00    -0.000 C 
BRANCH  23  24
ATOM     24  C   UNL     1       2.264  -2.676   6.162  1.00  0.00    -0.000 C 
BRANCH  24  25
ATOM     25  C   UNL     1       2.560  -2.937   4.679  1.00  0.00    -0.000 C 
BRANCH  25  26
ATOM     26  C   UNL     1       2.114  -1.756   3.808  1.00  0.00    -0.000 C 
BRANCH  26  27
ATOM     27  C   UNL     1       3.122  -1.510   2.674  1.00  0.00    -0.000 C 
BRANCH  27  28
ATOM     28  C   UNL     1       4.318  -2.478   2.711  1.00  0.00    -0.000 C 
BRANCH  28  29
ATOM     29  C   UNL     1       5.362  -2.263   1.603  1.00  0.00    -0.003 C 
ATOM     30  C   UNL     1       6.498  -1.331   2.023  1.00  0.00     0.004 C 
ENDBRANCH  28  29
ENDBRANCH  27  28
ENDBRANCH  26  27
ENDBRANCH  25  26
ENDBRANCH  24  25
ENDBRANCH  23  24
ENDBRANCH  22  23
ENDBRANCH  21  22
ENDBRANCH  20  21
ENDBRANCH  19  20
ENDBRANCH  18  19
ENDBRANCH  17  18
ENDBRANCH   1  17
TORSDOF 26
ENDMDL
MODEL 3
REMARK VINA RESULT:    -4.286      2.104      4.704
REMARK INTER + INTRA:         -15.081
REMARK INTER:                 -12.026
REMARK INTRA:                  -3.055
REMARK UNBOUND:                -4.281
REMARK SMILES CCCCCCCCCCCCCCCCCCCCCCCCCCCC(=O)[O-]
REMARK SMILES IDX 15 1 16 2 17 3 18 4 19 5 20 6 21 7 22 8 23 9 24 10 25 11
REMARK SMILES IDX 26 12 27 13 28 14 29 15 30 16 14 17 13 18 12 19 11 20 10 21
REMARK SMILES IDX 9 22 8 23 7 24 6 25 5 26 4 27 3 28 2 29 1 30
REMARK H PARENT
REMARK Flexibility Score: inf
ROOT
ATOM      1  C   UNL     1      -5.317  -2.665   2.072  1.00  0.00     0.000 C 
ENDROOT
BRANCH   1   2
ATOM      2  C   UNL     1      -4.722  -3.335   0.822  1.00  0.00     0.000 C 
BRANCH   2   3
ATOM      3  C   UNL     1      -4.899  -4.869   0.841  1.00  0.00     0.000 C 
BRANCH   3   4
ATOM      4  C   UNL     1      -6.066  -5.373  -0.026  1.00  0.00     0.000 C 
BRANCH   4   5
ATOM      5  C   UNL     1      -5.677  -5.579  -1.500  1.00  0.00     0.000 C 
BRANCH   5   6
ATOM      6  C   UNL     1      -6.803  -5.149  -2.468  1.00  0.00     0.000 C 
BRANCH   6   7
ATOM      7  C   UNL     1      -6.641  -3.723  -3.023  1.00  0.00     0.000 C 
BRANCH   7   8
ATOM      8  C   UNL     1      -7.886  -2.854  -2.791  1.00  0.00     0.000 C 
BRANCH   8   9
ATOM      9  C   UNL     1      -8.486  -3.028  -1.383  1.00  0.00     0.000 C 
BRANCH   9  10
ATOM     10  C   UNL     1      -8.002  -2.011  -0.331  1.00  0.00     0.000 C 
BRANCH  10  11
ATOM     11  C   UNL     1      -7.614  -0.624  -0.884  1.00  0.00     0.000 C 
BRANCH  11  12
ATOM     12  C   UNL     1      -6.142  -0.228  -0.679  1.00  0.00     0.006 C 
BRANCH  12  13
ATOM     13  C   UNL     1      -5.349  -0.162  -1.992  1.00  0.00     0.053 C 
BRANCH  13  14
ATOM     14  C   UNL     1      -5.282   1.248  -2.491  1.00  0.00     0.041 C 
ATOM     15  O   UNL     1      -4.535   2.086  -1.920  1.00  0.00    -0.550 OA
ATOM     16  O   UNL     1      -6.032   1.631  -3.595  1.00  0.00    -0.550 OA
ENDBRANCH  13  14
ENDBRANCH  12  13
ENDBRANCH  11  12
ENDBRANCH  10  11
ENDBRANCH   9  10
ENDBRANCH   8   9
ENDBRANCH   7   8
ENDBRANCH   6   7
ENDBRANCH   5   6
ENDBRANCH   4   5
ENDBRANCH   3   4
ENDBRANCH   2   3
ENDBRANCH   1   2
BRANCH   1  17
ATOM     17  C   UNL     1      -5.430  -3.630   3.266  1.00  0.00     0.000 C 
BRANCH  17  18
ATOM     18  C   UNL     1      -4.783  -3.121   4.572  1.00  0.00     0.000 C 
BRANCH  18  19
ATOM     19  C   UNL     1      -4.031  -1.781   4.409  1.00  0.00     0.000 C 
BRANCH  19  20
ATOM     20  C   UNL     1      -4.377  -0.781   5.526  1.00  0.00     0.000 C 
BRANCH  20  21
ATOM     21  C   UNL     1      -3.135  -0.165   6.191  1.00  0.00     0.000 C 
BRANCH  21  22
ATOM     22  C   UNL     1      -2.038   0.262   5.191  1.00  0.00    -0.000 C 
BRANCH  22  23
ATOM     23  C   UNL     1      -0.622   0.070   5.761  1.00  0.00    -0.000 C 
BRANCH  23  24
ATOM     24  C   UNL     1      -0.595  -0.849   6.993  1.00  0.00    -0.000 C 
BRANCH  24  25
ATOM     25  C   UNL     1       0.805  -0.958   7.614  1.00  0.00    -0.000 C 
BRANCH  25  26
ATOM     26  C   UNL     1       1.883  -1.090   6.531  1.00  0.00    -0.000 C 
BRANCH  26  27
ATOM     27  C   UNL     1       2.022  -2.553   6.082  1.00  0.00    -0.000 C 
BRANCH  27  28
ATOM     28  C   UNL     1       2.948  -2.723   4.864  1.00  0.00    -0.000 C 
BRANCH  28  29
ATOM     29  C   UNL     1       2.379  -2.196   3.536  1.00  0.00    -0.003 C 
ATOM     30  C   UNL     1       3.264  -1.135   2.883  1.00  0.00     0.004 C 
ENDBRANCH  28  29
ENDBRANCH  27  28
ENDBRANCH  26  27
ENDBRANCH  25  26
ENDBRANCH  24  25
ENDBRANCH  23  24
ENDBRANCH  22  23
ENDBRANCH  21  22
ENDBRANCH  20  21
ENDBRANCH  19  20
ENDBRANCH  18  19
ENDBRANCH  17  18
ENDBRANCH   1  17
TORSDOF 26
ENDMDL
MODEL 4
REMARK VINA RESULT:    -4.270      2.109      5.566
REMARK INTER + INTRA:         -15.041
REMARK INTER:                 -11.578
REMARK INTRA:                  -3.463
REMARK UNBOUND:                -4.281
REMARK SMILES CCCCCCCCCCCCCCCCCCCCCCCCCCCC(=O)[O-]
REMARK SMILES IDX 15 1 16 2 17 3 18 4 19 5 20 6 21 7 22 8 23 9 24 10 25 11
REMARK SMILES IDX 26 12 27 13 28 14 29 15 30 16 14 17 13 18 12 19 11 20 10 21
REMARK SMILES IDX 9 22 8 23 7 24 6 25 5 26 4 27 3 28 2 29 1 30
REMARK H PARENT
REMARK Flexibility Score: inf
ROOT
ATOM      1  C   UNL     1      -4.903  -3.182   4.758  1.00  0.00     0.000 C 
ENDROOT
BRANCH   1   2
ATOM      2  C   UNL     1      -5.230  -3.753   3.367  1.00  0.00     0.000 C 
BRANCH   2   3
ATOM      3  C   UNL     1      -4.894  -2.760   2.234  1.00  0.00     0.000 C 
BRANCH   3   4
ATOM      4  C   UNL     1      -4.555  -3.436   0.894  1.00  0.00     0.000 C 
BRANCH   4   5
ATOM      5  C   UNL     1      -4.871  -4.941   0.881  1.00  0.00     0.000 C 
BRANCH   5   6
ATOM      6  C   UNL     1      -5.490  -5.399  -0.459  1.00  0.00     0.000 C 
BRANCH   6   7
ATOM      7  C   UNL     1      -7.029  -5.406  -0.467  1.00  0.00     0.000 C 
BRANCH   7   8
ATOM      8  C   UNL     1      -7.629  -5.356   0.946  1.00  0.00     0.000 C 
BRANCH   8   9
ATOM      9  C   UNL     1      -8.345  -4.026   1.247  1.00  0.00     0.000 C 
BRANCH   9  10
ATOM     10  C   UNL     1      -8.495  -3.072   0.045  1.00  0.00     0.000 C 
BRANCH  10  11
ATOM     11  C   UNL     1      -7.776  -1.715   0.186  1.00  0.00     0.000 C 
BRANCH  11  12
ATOM     12  C   UNL     1      -7.251  -1.114  -1.130  1.00  0.00     0.006 C 
BRANCH  12  13
ATOM     13  C   UNL     1      -5.837  -0.532  -1.001  1.00  0.00     0.053 C 
BRANCH  13  14
ATOM     14  C   UNL     1      -5.583   0.468  -2.085  1.00  0.00     0.041 C 
ATOM     15  O   UNL     1      -6.056   0.285  -3.238  1.00  0.00    -0.550 OA
ATOM     16  O   UNL     1      -4.837   1.609  -1.819  1.00  0.00    -0.550 OA
ENDBRANCH  13  14
ENDBRANCH  12  13
ENDBRANCH  11  12
ENDBRANCH  10  11
ENDBRANCH   9  10
ENDBRANCH   8   9
ENDBRANCH   7   8
ENDBRANCH   6   7
ENDBRANCH   5   6
ENDBRANCH   4   5
ENDBRANCH   3   4
ENDBRANCH   2   3
ENDBRANCH   1   2
BRANCH   1  17
ATOM     17  C   UNL     1      -4.118  -1.860   4.687  1.00  0.00     0.000 C 
BRANCH  17  18
ATOM     18  C   UNL     1      -4.235  -0.971   5.943  1.00  0.00     0.000 C 
BRANCH  18  19
ATOM     19  C   UNL     1      -3.121   0.094   6.054  1.00  0.00     0.000 C 
BRANCH  19  20
ATOM     20  C   UNL     1      -2.086  -0.027   4.923  1.00  0.00     0.000 C 
BRANCH  20  21
ATOM     21  C   UNL     1      -0.633   0.000   5.429  1.00  0.00     0.000 C 
BRANCH  21  22
ATOM     22  C   UNL     1      -0.507  -0.062   6.967  1.00  0.00    -0.000 C 
BRANCH  22  23
ATOM     23  C   UNL     1      -0.300  -1.498   7.478  1.00  0.00    -0.000 C 
BRANCH  23  24
ATOM     24  C   UNL     1       0.953  -1.644   8.357  1.00  0.00    -0.000 C 
BRANCH  24  25
ATOM     25  C   UNL     1       1.932  -0.475   8.182  1.00  0.00    -0.000 C 
BRANCH  25  26
ATOM     26  C   UNL     1       3.319  -0.973   7.753  1.00  0.00    -0.000 C 
BRANCH  26  27
ATOM     27  C   UNL     1       3.499  -0.829   6.234  1.00  0.00    -0.000 C 
BRANCH  27  28
ATOM     28  C   UNL     1       3.157  -2.116   5.463  1.00  0.00    -0.000 C 
BRANCH  28  29
ATOM     29  C   UNL     1       2.108  -1.947   4.351  1.00  0.00    -0.003 C 
ATOM     30  C   UNL     1       2.718  -1.919   2.950  1.00  0.00     0.004 C 
ENDBRANCH  28  29
ENDBRANCH  27  28
ENDBRANCH  26  27
ENDBRANCH  25  26
ENDBRANCH  24  25
ENDBRANCH  23  24
ENDBRANCH  22  23
ENDBRANCH  21  22
ENDBRANCH  20  21
ENDBRANCH  19  20
ENDBRANCH  18  19
ENDBRANCH  17  18
ENDBRANCH   1  17
TORSDOF 26
ENDMDL
MODEL 5
REMARK VINA RESULT:    -4.253      4.320      6.967
REMARK INTER + INTRA:         -15.000
REMARK INTER:                 -12.666
REMARK INTRA:                  -2.334
REMARK UNBOUND:                -4.281
REMARK SMILES CCCCCCCCCCCCCCCCCCCCCCCCCCCC(=O)[O-]
REMARK SMILES IDX 15 1 16 2 17 3 18 4 19 5 20 6 21 7 22 8 23 9 24 10 25 11
REMARK SMILES IDX 26 12 27 13 28 14 29 15 30 16 14 17 13 18 12 19 11 20 10 21
REMARK SMILES IDX 9 22 8 23 7 24 6 25 5 26 4 27 3 28 2 29 1 30
REMARK H PARENT
REMARK Flexibility Score: inf
ROOT
ATOM      1  C   UNL     1      -4.799  -2.236   2.983  1.00  0.00     0.000 C 
ENDROOT
BRANCH   1   2
ATOM      2  C   UNL     1      -5.495  -2.885   1.774  1.00  0.00     0.000 C 
BRANCH   2   3
ATOM      3  C   UNL     1      -5.343  -4.422   1.767  1.00  0.00     0.000 C 
BRANCH   3   4
ATOM      4  C   UNL     1      -4.628  -4.972   0.520  1.00  0.00     0.000 C 
BRANCH   4   5
ATOM      5  C   UNL     1      -5.596  -5.327  -0.622  1.00  0.00     0.000 C 
BRANCH   5   6
ATOM      6  C   UNL     1      -7.015  -5.657  -0.106  1.00  0.00     0.000 C 
BRANCH   6   7
ATOM      7  C   UNL     1      -8.141  -4.934  -0.866  1.00  0.00     0.000 C 
BRANCH   7   8
ATOM      8  C   UNL     1      -7.658  -4.307  -2.183  1.00  0.00     0.000 C 
BRANCH   8   9
ATOM      9  C   UNL     1      -8.187  -5.045  -3.428  1.00  0.00     0.000 C 
BRANCH   9  10
ATOM     10  C   UNL     1      -8.637  -6.500  -3.188  1.00  0.00     0.000 C 
BRANCH  10  11
ATOM     11  C   UNL     1      -7.772  -7.579  -3.874  1.00  0.00     0.000 C 
BRANCH  11  12
ATOM     12  C   UNL     1      -6.590  -7.039  -4.699  1.00  0.00     0.006 C 
BRANCH  12  13
ATOM     13  C   UNL     1      -5.230  -7.293  -4.034  1.00  0.00     0.053 C 
BRANCH  13  14
ATOM     14  C   UNL     1      -4.198  -7.626  -5.066  1.00  0.00     0.041 C 
ATOM     15  O   UNL     1      -3.888  -6.781  -5.947  1.00  0.00    -0.550 OA
ATOM     16  O   UNL     1      -3.568  -8.864  -5.046  1.00  0.00    -0.550 OA
ENDBRANCH  13  14
ENDBRANCH  12  13
ENDBRANCH  11  12
ENDBRANCH  10  11
ENDBRANCH   9  10
ENDBRANCH   8   9
ENDBRANCH   7   8
ENDBRANCH   6   7
ENDBRANCH   5   6
ENDBRANCH   4   5
ENDBRANCH   3   4
ENDBRANCH   2   3
ENDBRANCH   1   2
BRANCH   1  17
ATOM     17  C   UNL     1      -4.850  -3.122   4.241  1.00  0.00     0.000 C 
BRANCH  17  18
ATOM     18  C   UNL     1      -4.370  -2.432   5.536  1.00  0.00     0.000 C 
BRANCH  18  19
ATOM     19  C   UNL     1      -4.221  -0.900   5.404  1.00  0.00     0.000 C 
BRANCH  19  20
ATOM     20  C   UNL     1      -2.936  -0.381   6.071  1.00  0.00     0.000 C 
BRANCH  20  21
ATOM     21  C   UNL     1      -1.890   0.119   5.059  1.00  0.00     0.000 C 
BRANCH  21  22
ATOM     22  C   UNL     1      -0.432  -0.019   5.550  1.00  0.00    -0.000 C 
BRANCH  22  23
ATOM     23  C   UNL     1      -0.340  -0.731   6.911  1.00  0.00    -0.000 C 
BRANCH  23  24
ATOM     24  C   UNL     1       0.888  -1.651   7.020  1.00  0.00    -0.000 C 
BRANCH  24  25
ATOM     25  C   UNL     1       2.076  -1.145   6.192  1.00  0.00    -0.000 C 
BRANCH  25  26
ATOM     26  C   UNL     1       2.602  -2.236   5.250  1.00  0.00    -0.000 C 
BRANCH  26  27
ATOM     27  C   UNL     1       2.038  -2.046   3.834  1.00  0.00    -0.000 C 
BRANCH  27  28
ATOM     28  C   UNL     1       3.090  -1.538   2.831  1.00  0.00    -0.000 C 
BRANCH  28  29
ATOM     29  C   UNL     1       4.407  -1.055   3.460  1.00  0.00    -0.003 C 
ATOM     30  C   UNL     1       5.576  -1.051   2.476  1.00  0.00     0.004 C 
ENDBRANCH  28  29
ENDBRANCH  27  28
ENDBRANCH  26  27
ENDBRANCH  25  26
ENDBRANCH  24  25
ENDBRANCH  23  24
ENDBRANCH  22  23
ENDBRANCH  21  22
ENDBRANCH  20  21
ENDBRANCH  19  20
ENDBRANCH  18  19
ENDBRANCH  17  18
ENDBRANCH   1  17
TORSDOF 26
ENDMDL
MODEL 6
REMARK VINA RESULT:    -4.230      1.396      3.207
REMARK INTER + INTRA:         -14.940
REMARK INTER:                 -10.497
REMARK INTRA:                  -4.443
REMARK UNBOUND:                -4.281
REMARK SMILES CCCCCCCCCCCCCCCCCCCCCCCCCCCC(=O)[O-]
REMARK SMILES IDX 15 1 16 2 17 3 18 4 19 5 20 6 21 7 22 8 23 9 24 10 25 11
REMARK SMILES IDX 26 12 27 13 28 14 29 15 30 16 14 17 13 18 12 19 11 20 10 21
REMARK SMILES IDX 9 22 8 23 7 24 6 25 5 26 4 27 3 28 2 29 1 30
REMARK H PARENT
REMARK Flexibility Score: inf
ROOT
ATOM      1  C   UNL     1      -4.837  -3.395   0.278  1.00  0.00     0.000 C 
ENDROOT
BRANCH   1   2
ATOM      2  C   UNL     1      -4.906  -4.926   0.411  1.00  0.00     0.000 C 
BRANCH   2   3
ATOM      3  C   UNL     1      -5.862  -5.560  -0.623  1.00  0.00     0.000 C 
BRANCH   3   4
ATOM      4  C   UNL     1      -7.327  -5.626  -0.158  1.00  0.00     0.000 C 
BRANCH   4   5
ATOM      5  C   UNL     1      -8.320  -5.814  -1.317  1.00  0.00     0.000 C 
BRANCH   5   6
ATOM      6  C   UNL     1      -7.661  -5.582  -2.696  1.00  0.00     0.000 C 
BRANCH   6   7
ATOM      7  C   UNL     1      -8.226  -4.375  -3.465  1.00  0.00     0.000 C 
BRANCH   7   8
ATOM      8  C   UNL     1      -7.126  -3.427  -3.968  1.00  0.00     0.000 C 
BRANCH   8   9
ATOM      9  C   UNL     1      -6.410  -2.680  -2.827  1.00  0.00     0.000 C 
BRANCH   9  10
ATOM     10  C   UNL     1      -7.304  -1.739  -1.994  1.00  0.00     0.000 C 
BRANCH  10  11
ATOM     11  C   UNL     1      -6.802  -0.285  -1.877  1.00  0.00     0.000 C 
BRANCH  11  12
ATOM     12  C   UNL     1      -5.302  -0.089  -2.156  1.00  0.00     0.006 C 
BRANCH  12  13
ATOM     13  C   UNL     1      -5.027   0.934  -3.267  1.00  0.00     0.053 C 
BRANCH  13  14
ATOM     14  C   UNL     1      -5.154   2.328  -2.737  1.00  0.00     0.041 C 
ATOM     15  O   UNL     1      -6.130   3.048  -3.078  1.00  0.00    -0.550 OA
ATOM     16  O   UNL     1      -4.204   2.827  -1.856  1.00  0.00    -0.550 OA
ENDBRANCH  13  14
ENDBRANCH  12  13
ENDBRANCH  11  12
ENDBRANCH  10  11
ENDBRANCH   9  10
ENDBRANCH   8   9
ENDBRANCH   7   8
ENDBRANCH   6   7
ENDBRANCH   5   6
ENDBRANCH   4   5
ENDBRANCH   3   4
ENDBRANCH   2   3
ENDBRANCH   1   2
BRANCH   1  17
ATOM     17  C   UNL     1      -5.001  -2.674   1.628  1.00  0.00     0.000 C 
BRANCH  17  18
ATOM     18  C   UNL     1      -5.877  -1.405   1.582  1.00  0.00     0.000 C 
BRANCH  18  19
ATOM     19  C   UNL     1      -7.172  -1.514   2.416  1.00  0.00     0.000 C 
BRANCH  19  20
ATOM     20  C   UNL     1      -8.007  -2.749   2.035  1.00  0.00     0.000 C 
BRANCH  20  21
ATOM     21  C   UNL     1      -8.520  -3.532   3.256  1.00  0.00     0.000 C 
BRANCH  21  22
ATOM     22  C   UNL     1      -8.040  -4.999   3.302  1.00  0.00    -0.000 C 
BRANCH  22  23
ATOM     23  C   UNL     1      -6.584  -5.122   3.785  1.00  0.00    -0.000 C 
BRANCH  23  24
ATOM     24  C   UNL     1      -6.277  -4.217   4.989  1.00  0.00    -0.000 C 
BRANCH  24  25
ATOM     25  C   UNL     1      -4.782  -3.891   5.112  1.00  0.00    -0.000 C 
BRANCH  25  26
ATOM     26  C   UNL     1      -4.542  -2.375   5.097  1.00  0.00    -0.000 C 
BRANCH  26  27
ATOM     27  C   UNL     1      -3.844  -1.925   6.390  1.00  0.00    -0.000 C 
BRANCH  27  28
ATOM     28  C   UNL     1      -3.539  -0.417   6.416  1.00  0.00    -0.000 C 
BRANCH  28  29
ATOM     29  C   UNL     1      -2.044  -0.056   6.386  1.00  0.00    -0.003 C 
ATOM     30  C   UNL     1      -1.651   0.771   5.163  1.00  0.00     0.004 C 
ENDBRANCH  28  29
ENDBRANCH  27  28
ENDBRANCH  26  27
ENDBRANCH  25  26
ENDBRANCH  24  25
ENDBRANCH  23  24
ENDBRANCH  22  23
ENDBRANCH  21  22
ENDBRANCH  20  21
ENDBRANCH  19  20
ENDBRANCH  18  19
ENDBRANCH  17  18
ENDBRANCH   1  17
TORSDOF 26
ENDMDL
MODEL 7
REMARK VINA RESULT:    -4.229      3.976      7.994
REMARK INTER + INTRA:         -14.940
REMARK INTER:                 -11.940
REMARK INTRA:                  -3.000
REMARK UNBOUND:                -4.281
REMARK SMILES CCCCCCCCCCCCCCCCCCCCCCCCCCCC(=O)[O-]
REMARK SMILES IDX 15 1 16 2 17 3 18 4 19 5 20 6 21 7 22 8 23 9 24 10 25 11
REMARK SMILES IDX 26 12 27 13 28 14 29 15 30 16 14 17 13 18 12 19 11 20 10 21
REMARK SMILES IDX 9 22 8 23 7 24 6 25 5 26 4 27 3 28 2 29 1 30
REMARK H PARENT
REMARK Flexibility Score: inf
ROOT
ATOM      1  C   UNL     1      -4.855  -2.902   1.988  1.00  0.00     0.000 C 
ENDROOT
BRANCH   1   2
ATOM      2  C   UNL     1      -5.198  -3.950   3.061  1.00  0.00     0.000 C 
BRANCH   2   3
ATOM      3  C   UNL     1      -4.820  -3.476   4.482  1.00  0.00     0.000 C 
BRANCH   3   4
ATOM      4  C   UNL     1      -4.531  -1.968   4.579  1.00  0.00     0.000 C 
BRANCH   4   5
ATOM      5  C   UNL     1      -4.306  -1.489   6.024  1.00  0.00     0.000 C 
BRANCH   5   6
ATOM      6  C   UNL     1      -2.861  -0.994   6.259  1.00  0.00     0.000 C 
BRANCH   6   7
ATOM      7  C   UNL     1      -2.310  -0.109   5.128  1.00  0.00     0.000 C 
BRANCH   7   8
ATOM      8  C   UNL     1      -0.915   0.452   5.442  1.00  0.00     0.000 C 
BRANCH   8   9
ATOM      9  C   UNL     1      -0.160  -0.374   6.499  1.00  0.00     0.000 C 
BRANCH   9  10
ATOM     10  C   UNL     1       1.090  -1.117   5.985  1.00  0.00     0.000 C 
BRANCH  10  11
ATOM     11  C   UNL     1       1.266  -1.127   4.452  1.00  0.00     0.000 C 
BRANCH  11  12
ATOM     12  C   UNL     1       2.454  -1.959   3.938  1.00  0.00     0.006 C 
BRANCH  12  13
ATOM     13  C   UNL     1       3.394  -1.160   3.025  1.00  0.00     0.053 C 
BRANCH  13  14
ATOM     14  C   UNL     1       4.523  -2.023   2.554  1.00  0.00     0.041 C 
ATOM     15  O   UNL     1       4.342  -2.846   1.618  1.00  0.00    -0.550 OA
ATOM     16  O   UNL     1       5.778  -1.908   3.137  1.00  0.00    -0.550 OA
ENDBRANCH  13  14
ENDBRANCH  12  13
ENDBRANCH  11  12
ENDBRANCH  10  11
ENDBRANCH   9  10
ENDBRANCH   8   9
ENDBRANCH   7   8
ENDBRANCH   6   7
ENDBRANCH   5   6
ENDBRANCH   4   5
ENDBRANCH   3   4
ENDBRANCH   2   3
ENDBRANCH   1   2
BRANCH   1  17
ATOM     17  C   UNL     1      -4.702  -3.517   0.585  1.00  0.00     0.000 C 
BRANCH  17  18
ATOM     18  C   UNL     1      -5.029  -5.023   0.502  1.00  0.00     0.000 C 
BRANCH  18  19
ATOM     19  C   UNL     1      -5.531  -5.472  -0.888  1.00  0.00     0.000 C 
BRANCH  19  20
ATOM     20  C   UNL     1      -7.065  -5.429  -0.995  1.00  0.00     0.000 C 
BRANCH  20  21
ATOM     21  C   UNL     1      -7.767  -5.467   0.373  1.00  0.00     0.000 C 
BRANCH  21  22
ATOM     22  C   UNL     1      -8.788  -4.328   0.582  1.00  0.00    -0.000 C 
BRANCH  22  23
ATOM     23  C   UNL     1      -8.700  -3.717   1.992  1.00  0.00    -0.000 C 
BRANCH  23  24
ATOM     24  C   UNL     1      -8.371  -2.215   1.971  1.00  0.00    -0.000 C 
BRANCH  24  25
ATOM     25  C   UNL     1      -8.146  -1.684   0.549  1.00  0.00    -0.000 C 
BRANCH  25  26
ATOM     26  C   UNL     1      -7.184  -0.489   0.550  1.00  0.00    -0.000 C 
BRANCH  26  27
ATOM     27  C   UNL     1      -7.236   0.248  -0.798  1.00  0.00    -0.000 C 
BRANCH  27  28
ATOM     28  C   UNL     1      -6.009   1.146  -1.040  1.00  0.00    -0.000 C 
BRANCH  28  29
ATOM     29  C   UNL     1      -5.277   0.901  -2.370  1.00  0.00    -0.003 C 
ATOM     30  C   UNL     1      -5.019  -0.579  -2.649  1.00  0.00     0.004 C 
ENDBRANCH  28  29
ENDBRANCH  27  28
ENDBRANCH  26  27
ENDBRANCH  25  26
ENDBRANCH  24  25
ENDBRANCH  23  24
ENDBRANCH  22  23
ENDBRANCH  21  22
ENDBRANCH  20  21
ENDBRANCH  19  20
ENDBRANCH  18  19
ENDBRANCH  17  18
ENDBRANCH   1  17
TORSDOF 26
ENDMDL
MODEL 8
REMARK VINA RESULT:    -4.197      6.880     10.360
REMARK INTER + INTRA:         -14.858
REMARK INTER:                 -12.543
REMARK INTRA:                  -2.316
REMARK UNBOUND:                -4.281
REMARK SMILES CCCCCCCCCCCCCCCCCCCCCCCCCCCC(=O)[O-]
REMARK SMILES IDX 15 1 16 2 17 3 18 4 19 5 20 6 21 7 22 8 23 9 24 10 25 11
REMARK SMILES IDX 26 12 27 13 28 14 29 15 30 16 14 17 13 18 12 19 11 20 10 21
REMARK SMILES IDX 9 22 8 23 7 24 6 25 5 26 4 27 3 28 2 29 1 30
REMARK H PARENT
REMARK Flexibility Score: inf
ROOT
ATOM      1  C   UNL     1       2.290  -2.353   4.776  1.00  0.00     0.000 C 
ENDROOT
BRANCH   1   2
ATOM      2  C   UNL     1       3.118  -1.491   5.745  1.00  0.00     0.000 C 
BRANCH   2   3
ATOM      3  C   UNL     1       2.292  -1.020   6.961  1.00  0.00     0.000 C 
BRANCH   3   4
ATOM      4  C   UNL     1       0.792  -1.351   6.860  1.00  0.00     0.000 C 
BRANCH   4   5
ATOM      5  C   UNL     1      -0.090  -0.102   6.690  1.00  0.00     0.000 C 
BRANCH   5   6
ATOM      6  C   UNL     1      -0.648   0.030   5.255  1.00  0.00     0.000 C 
BRANCH   6   7
ATOM      7  C   UNL     1      -2.182   0.142   5.187  1.00  0.00     0.000 C 
BRANCH   7   8
ATOM      8  C   UNL     1      -2.876  -0.510   6.392  1.00  0.00     0.000 C 
BRANCH   8   9
ATOM      9  C   UNL     1      -3.815  -1.664   5.992  1.00  0.00     0.000 C 
BRANCH   9  10
ATOM     10  C   UNL     1      -4.209  -1.705   4.502  1.00  0.00     0.000 C 
BRANCH  10  11
ATOM     11  C   UNL     1      -4.889  -3.009   4.036  1.00  0.00     0.000 C 
BRANCH  11  12
ATOM     12  C   UNL     1      -5.019  -3.168   2.511  1.00  0.00     0.006 C 
BRANCH  12  13
ATOM     13  C   UNL     1      -5.384  -1.857   1.801  1.00  0.00     0.053 C 
BRANCH  13  14
ATOM     14  C   UNL     1      -6.209  -2.135   0.583  1.00  0.00     0.041 C 
ATOM     15  O   UNL     1      -7.261  -2.821   0.675  1.00  0.00    -0.550 OA
ATOM     16  O   UNL     1      -5.825  -1.623  -0.650  1.00  0.00    -0.550 OA
ENDBRANCH  13  14
ENDBRANCH  12  13
ENDBRANCH  11  12
ENDBRANCH  10  11
ENDBRANCH   9  10
ENDBRANCH   8   9
ENDBRANCH   7   8
ENDBRANCH   6   7
ENDBRANCH   5   6
ENDBRANCH   4   5
ENDBRANCH   3   4
ENDBRANCH   2   3
ENDBRANCH   1   2
BRANCH   1  17
ATOM     17  C   UNL     1       2.234  -1.762   3.356  1.00  0.00     0.000 C 
BRANCH  17  18
ATOM     18  C   UNL     1       3.603  -1.352   2.772  1.00  0.00     0.000 C 
BRANCH  18  19
ATOM     19  C   UNL     1       4.454  -2.548   2.291  1.00  0.00     0.000 C 
BRANCH  19  20
ATOM     20  C   UNL     1       5.761  -2.097   1.616  1.00  0.00     0.000 C 
BRANCH  20  21
ATOM     21  C   UNL     1       6.314  -3.131   0.620  1.00  0.00     0.000 C 
BRANCH  21  22
ATOM     22  C   UNL     1       5.220  -3.926  -0.126  1.00  0.00    -0.000 C 
BRANCH  22  23
ATOM     23  C   UNL     1       5.799  -4.800  -1.252  1.00  0.00    -0.000 C 
BRANCH  23  24
ATOM     24  C   UNL     1       4.755  -5.745  -1.870  1.00  0.00    -0.000 C 
BRANCH  24  25
ATOM     25  C   UNL     1       5.304  -7.161  -2.091  1.00  0.00    -0.000 C 
BRANCH  25  26
ATOM     26  C   UNL     1       5.135  -8.024  -0.834  1.00  0.00    -0.000 C 
BRANCH  26  27
ATOM     27  C   UNL     1       6.450  -8.738  -0.487  1.00  0.00    -0.000 C 
BRANCH  27  28
ATOM     28  C   UNL     1       7.124  -8.178   0.779  1.00  0.00    -0.000 C 
BRANCH  28  29
ATOM     29  C   UNL     1       6.181  -7.964   1.975  1.00  0.00    -0.003 C 
ATOM     30  C   UNL     1       6.072  -6.500   2.398  1.00  0.00     0.004 C 
ENDBRANCH  28  29
ENDBRANCH  27  28
ENDBRANCH  26  27
ENDBRANCH  25  26
ENDBRANCH  24  25
ENDBRANCH  23  24
ENDBRANCH  22  23
ENDBRANCH  21  22
ENDBRANCH  20  21
ENDBRANCH  19  20
ENDBRANCH  18  19
ENDBRANCH  17  18
ENDBRANCH   1  17
TORSDOF 26
ENDMDL
MODEL 9
REMARK VINA RESULT:    -4.191      1.832      3.942
REMARK INTER + INTRA:         -14.843
REMARK INTER:                 -11.056
REMARK INTRA:                  -3.787
REMARK UNBOUND:                -4.281
REMARK SMILES CCCCCCCCCCCCCCCCCCCCCCCCCCCC(=O)[O-]
REMARK SMILES IDX 15 1 16 2 17 3 18 4 19 5 20 6 21 7 22 8 23 9 24 10 25 11
REMARK SMILES IDX 26 12 27 13 28 14 29 15 30 16 14 17 13 18 12 19 11 20 10 21
REMARK SMILES IDX 9 22 8 23 7 24 6 25 5 26 4 27 3 28 2 29 1 30
REMARK H PARENT
REMARK Flexibility Score: inf
ROOT
ATOM      1  C   UNL     1      -4.860  -4.450   1.779  1.00  0.00     0.000 C 
ENDROOT
BRANCH   1   2
ATOM      2  C   UNL     1      -5.039  -4.921   0.325  1.00  0.00     0.000 C 
BRANCH   2   3
ATOM      3  C   UNL     1      -6.482  -5.387   0.034  1.00  0.00     0.000 C 
BRANCH   3   4
ATOM      4  C   UNL     1      -7.149  -4.652  -1.141  1.00  0.00     0.000 C 
BRANCH   4   5
ATOM      5  C   UNL     1      -8.532  -4.079  -0.788  1.00  0.00     0.000 C 
BRANCH   5   6
ATOM      6  C   UNL     1      -8.968  -4.446   0.649  1.00  0.00     0.000 C 
BRANCH   6   7
ATOM      7  C   UNL     1      -9.151  -3.232   1.577  1.00  0.00     0.000 C 
BRANCH   7   8
ATOM      8  C   UNL     1      -8.461  -1.968   1.042  1.00  0.00     0.000 C 
BRANCH   8   9
ATOM      9  C   UNL     1      -7.344  -1.456   1.970  1.00  0.00     0.000 C 
BRANCH   9  10
ATOM     10  C   UNL     1      -6.002  -1.149   1.276  1.00  0.00     0.000 C 
BRANCH  10  11
ATOM     11  C   UNL     1      -6.032  -1.191  -0.266  1.00  0.00     0.000 C 
BRANCH  11  12
ATOM     12  C   UNL     1      -5.818   0.166  -0.961  1.00  0.00     0.006 C 
BRANCH  12  13
ATOM     13  C   UNL     1      -5.262   0.029  -2.385  1.00  0.00     0.053 C 
BRANCH  13  14
ATOM     14  C   UNL     1      -4.804   1.359  -2.897  1.00  0.00     0.041 C 
ATOM     15  O   UNL     1      -4.786   1.588  -4.135  1.00  0.00    -0.550 OA
ATOM     16  O   UNL     1      -4.414   2.351  -2.006  1.00  0.00    -0.550 OA
ENDBRANCH  13  14
ENDBRANCH  12  13
ENDBRANCH  11  12
ENDBRANCH  10  11
ENDBRANCH   9  10
ENDBRANCH   8   9
ENDBRANCH   7   8
ENDBRANCH   6   7
ENDBRANCH   5   6
ENDBRANCH   4   5
ENDBRANCH   3   4
ENDBRANCH   2   3
ENDBRANCH   1   2
BRANCH   1  17
ATOM     17  C   UNL     1      -5.955  -4.992   2.717  1.00  0.00     0.000 C 
BRANCH  17  18
ATOM     18  C   UNL     1      -6.180  -4.159   3.997  1.00  0.00     0.000 C 
BRANCH  18  19
ATOM     19  C   UNL     1      -5.144  -4.439   5.108  1.00  0.00     0.000 C 
BRANCH  19  20
ATOM     20  C   UNL     1      -4.546  -3.145   5.685  1.00  0.00     0.000 C 
BRANCH  20  21
ATOM     21  C   UNL     1      -4.741  -1.927   4.766  1.00  0.00     0.000 C 
BRANCH  21  22
ATOM     22  C   UNL     1      -3.424  -1.217   4.383  1.00  0.00    -0.000 C 
BRANCH  22  23
ATOM     23  C   UNL     1      -3.036  -0.123   5.395  1.00  0.00    -0.000 C 
BRANCH  23  24
ATOM     24  C   UNL     1      -1.589   0.365   5.218  1.00  0.00    -0.000 C 
BRANCH  24  25
ATOM     25  C   UNL     1      -0.805   0.366   6.537  1.00  0.00    -0.000 C 
BRANCH  25  26
ATOM     26  C   UNL     1       0.343  -0.651   6.501  1.00  0.00    -0.000 C 
BRANCH  26  27
ATOM     27  C   UNL     1       0.671  -1.045   5.053  1.00  0.00    -0.000 C 
BRANCH  27  28
ATOM     28  C   UNL     1       1.975  -1.854   4.929  1.00  0.00    -0.000 C 
BRANCH  28  29
ATOM     29  C   UNL     1       3.003  -1.282   3.939  1.00  0.00    -0.003 C 
ATOM     30  C   UNL     1       4.367  -1.018   4.575  1.00  0.00     0.004 C 
ENDBRANCH  28  29
ENDBRANCH  27  28
ENDBRANCH  26  27
ENDBRANCH  25  26
ENDBRANCH  24  25
ENDBRANCH  23  24
ENDBRANCH  22  23
ENDBRANCH  21  22
ENDBRANCH  20  21
ENDBRANCH  19  20
ENDBRANCH  18  19
ENDBRANCH  17  18
ENDBRANCH   1  17
TORSDOF 26
ENDMDL
