MODEL 1
REMARK VINA RESULT:     4.310      0.000      0.000
REMARK INTER + INTRA:           6.047
REMARK INTER:                   5.696
REMARK INTRA:                   0.351
REMARK UNBOUND:                 0.351
REMARK SMILES CC[C@H](C=C[C@H](C)[C@H]1CC[C@@H]2[C@H]3CC=C4C[C@@H](O)CC[C@@]4(C)[C@@H]3CC[C@@]21C)C(C)C
REMARK SMILES IDX 6 1 7 2 5 3 4 4 3 5 2 6 1 7 28 8 29 9 30 10 8 11 9 12 26 13
REMARK SMILES IDX 10 14 11 15 25 16 27 17 12 18 24 19 23 20 13 21 21 22 14 23
REMARK SMILES IDX 15 24 20 25 22 26 16 27 19 28 17 29 18 30
REMARK H PARENT 18 31
REMARK Flexibility Score: inf
ROOT
ATOM      1  C   UNL     1     134.552 123.062 141.884  1.00  0.00     0.012 C 
ATOM      2  C   UNL     1     133.098 123.407 142.270  1.00  0.00     0.012 C 
ENDROOT
BRANCH   1   3
ATOM      3  C   UNL     1     134.667 123.159 140.375  1.00  0.00    -0.028 C 
ATOM      4  C   UNL     1     135.761 122.740 139.709  1.00  0.00    -0.027 C 
BRANCH   4   5
ATOM      5  C   UNL     1     135.806 122.719 138.197  1.00  0.00     0.014 C 
BRANCH   5   6
ATOM      6  C   UNL     1     134.385 123.041 137.663  1.00  0.00     0.004 C 
ATOM      7  C   UNL     1     134.145 124.520 137.370  1.00  0.00     0.004 C 
ENDBRANCH   5   6
BRANCH   5   8
ATOM      8  C   UNL     1     136.958 123.660 137.707  1.00  0.00    -0.011 C 
ATOM      9  C   UNL     1     136.977 125.004 138.446  1.00  0.00     0.008 C 
ATOM     10  C   UNL     1     138.345 123.000 137.712  1.00  0.00     0.008 C 
ENDBRANCH   5   8
ENDBRANCH   4   5
ENDBRANCH   1   3
BRANCH   1  11
ATOM     11  C   UNL     1     135.637 123.944 142.602  1.00  0.00     0.002 C 
ATOM     12  C   UNL     1     135.335 124.324 144.044  1.00  0.00     0.005 C 
ATOM     13  C   UNL     1     137.113 123.426 142.620  1.00  0.00    -0.026 C 
ATOM     14  C   UNL     1     136.631 124.943 144.535  1.00  0.00     0.005 C 
ATOM     15  C   UNL     1     137.767 124.186 143.824  1.00  0.00    -0.001 C 
ATOM     16  C   UNL     1     137.812 123.760 141.274  1.00  0.00     0.007 C 
ATOM     17  C   UNL     1     137.206 121.899 142.880  1.00  0.00     0.012 C 
ATOM     18  C   UNL     1     138.935 125.136 143.427  1.00  0.00     0.000 C 
ATOM     19  C   UNL     1     139.341 123.630 141.347  1.00  0.00     0.005 C 
ATOM     20  C   UNL     1     139.981 124.393 142.552  1.00  0.00     0.003 C 
ATOM     21  C   UNL     1     139.624 125.676 144.696  1.00  0.00     0.031 C 
ATOM     22  C   UNL     1     141.187 125.324 142.135  1.00  0.00    -0.008 C 
ATOM     23  C   UNL     1     140.909 126.395 144.411  1.00  0.00    -0.027 C 
ATOM     24  C   UNL     1     141.685 126.140 143.338  1.00  0.00    -0.065 C 
ATOM     25  C   UNL     1     142.350 124.411 141.622  1.00  0.00     0.014 C 
ATOM     26  C   UNL     1     140.766 126.331 141.024  1.00  0.00     0.016 C 
ATOM     27  C   UNL     1     143.044 126.807 143.250  1.00  0.00     0.063 C 
ATOM     28  C   UNL     1     143.723 125.106 141.512  1.00  0.00     0.033 C 
ATOM     29  C   UNL     1     144.114 125.781 142.839  1.00  0.00     0.118 C 
BRANCH  29  30
ATOM     30  O   UNL     1     144.279 124.800 143.843  1.00  0.00    -0.393 OA
ATOM     31  H   UNL     1     143.420 124.762 144.344  1.00  0.00     0.210 HD
ENDBRANCH  29  30
ENDBRANCH   1  11
TORSDOF 6
ENDMDL
MODEL 2
REMARK VINA RESULT:     5.034      0.519      1.625
REMARK INTER + INTRA:           7.004
REMARK INTER:                   6.785
REMARK INTRA:                   0.219
REMARK UNBOUND:                 0.351
REMARK SMILES CC[C@H](C=C[C@H](C)[C@H]1CC[C@@H]2[C@H]3CC=C4C[C@@H](O)CC[C@@]4(C)[C@@H]3CC[C@@]21C)C(C)C
REMARK SMILES IDX 6 1 7 2 5 3 4 4 3 5 2 6 1 7 28 8 29 9 30 10 8 11 9 12 26 13
REMARK SMILES IDX 10 14 11 15 25 16 27 17 12 18 24 19 23 20 13 21 21 22 14 23
REMARK SMILES IDX 15 24 20 25 22 26 16 27 19 28 17 29 18 30
REMARK H PARENT 18 31
REMARK Flexibility Score: inf
ROOT
ATOM      1  C   UNL     1     134.660 123.333 141.766  1.00  0.00     0.012 C 
ATOM      2  C   UNL     1     133.234 123.901 141.916  1.00  0.00     0.012 C 
ENDROOT
BRANCH   1   3
ATOM      3  C   UNL     1     134.963 123.226 140.284  1.00  0.00    -0.028 C 
ATOM      4  C   UNL     1     135.667 124.167 139.623  1.00  0.00    -0.027 C 
BRANCH   4   5
ATOM      5  C   UNL     1     136.076 123.980 138.179  1.00  0.00     0.014 C 
BRANCH   5   6
ATOM      6  C   UNL     1     137.118 122.833 138.113  1.00  0.00     0.004 C 
ATOM      7  C   UNL     1     138.531 123.288 137.754  1.00  0.00     0.004 C 
ENDBRANCH   5   6
BRANCH   5   8
ATOM      8  C   UNL     1     134.791 123.798 137.303  1.00  0.00    -0.011 C 
ATOM      9  C   UNL     1     134.220 122.376 137.382  1.00  0.00     0.008 C 
ATOM     10  C   UNL     1     133.703 124.851 137.567  1.00  0.00     0.008 C 
ENDBRANCH   5   8
ENDBRANCH   4   5
ENDBRANCH   1   3
BRANCH   1  11
ATOM     11  C   UNL     1     135.765 124.156 142.521  1.00  0.00     0.002 C 
ATOM     12  C   UNL     1     135.457 124.508 143.968  1.00  0.00     0.005 C 
ATOM     13  C   UNL     1     137.222 123.584 142.545  1.00  0.00    -0.026 C 
ATOM     14  C   UNL     1     136.767 125.067 144.493  1.00  0.00     0.005 C 
ATOM     15  C   UNL     1     137.885 124.287 143.778  1.00  0.00    -0.001 C 
ATOM     16  C   UNL     1     137.952 123.927 141.219  1.00  0.00     0.007 C 
ATOM     17  C   UNL     1     137.256 122.048 142.766  1.00  0.00     0.012 C 
ATOM     18  C   UNL     1     139.092 125.204 143.422  1.00  0.00     0.000 C 
ATOM     19  C   UNL     1     139.473 123.740 141.309  1.00  0.00     0.005 C 
ATOM     20  C   UNL     1     140.123 124.447 142.542  1.00  0.00     0.003 C 
ATOM     21  C   UNL     1     139.782 125.685 144.715  1.00  0.00     0.031 C 
ATOM     22  C   UNL     1     141.368 125.344 142.166  1.00  0.00    -0.008 C 
ATOM     23  C   UNL     1     141.096 126.364 144.466  1.00  0.00    -0.027 C 
ATOM     24  C   UNL     1     141.878 126.109 143.397  1.00  0.00    -0.065 C 
ATOM     25  C   UNL     1     142.505 124.403 141.644  1.00  0.00     0.014 C 
ATOM     26  C   UNL     1     141.000 126.395 141.077  1.00  0.00     0.016 C 
ATOM     27  C   UNL     1     143.261 126.729 143.346  1.00  0.00     0.063 C 
ATOM     28  C   UNL     1     143.903 125.050 141.572  1.00  0.00     0.033 C 
ATOM     29  C   UNL     1     144.299 125.675 142.922  1.00  0.00     0.118 C 
BRANCH  29  30
ATOM     30  O   UNL     1     144.414 124.663 143.901  1.00  0.00    -0.393 OA
ATOM     31  H   UNL     1     143.833 124.938 144.661  1.00  0.00     0.210 HD
ENDBRANCH  29  30
ENDBRANCH   1  11
TORSDOF 6
ENDMDL
