MODEL 1
REMARK VINA RESULT:    -6.055      0.000      0.000
REMARK INTER + INTRA:          -6.232
REMARK INTER:                  -6.232
REMARK INTRA:                   0.000
REMARK UNBOUND:                 0.000
REMARK SMILES O=c1ccc2ccc(O)cc2o1
REMARK SMILES IDX 6 1 7 2 8 3 10 4 11 5 5 6 4 7 3 8 2 9 1 10 12 11 9 12
REMARK H PARENT 9 13
REMARK Flexibility Score: inf
ROOT
ATOM      1  C   UNL     1      11.934  10.466  13.346  1.00  0.00     0.016 A 
ATOM      2  C   UNL     1      12.616  11.345  14.191  1.00  0.00     0.047 A 
ATOM      3  C   UNL     1      11.956  11.943  15.276  1.00  0.00     0.119 A 
ATOM      4  C   UNL     1      10.606  11.658  15.514  1.00  0.00     0.094 A 
ATOM      5  C   UNL     1       9.914  10.779  14.673  1.00  0.00     0.142 A 
ATOM      6  C   UNL     1      10.581  10.179  13.583  1.00  0.00     0.018 A 
ATOM      7  C   UNL     1       9.863   9.305  12.761  1.00  0.00     0.019 A 
ATOM      8  C   UNL     1       8.521   9.052  13.038  1.00  0.00     0.094 A 
ATOM      9  C   UNL     1       7.924   9.682  14.136  1.00  0.00     0.336 A 
ATOM     10  O   UNL     1       6.713   9.467  14.403  1.00  0.00    -0.246 OA
ATOM     11  O   UNL     1       8.630  10.510  14.902  1.00  0.00    -0.423 OA
ENDROOT
BRANCH   3  12
ATOM     12  O   UNL     1      12.630  12.820  16.121  1.00  0.00    -0.508 OA
ATOM     13  H   UNL     1      13.641  12.895  16.109  1.00  0.00     0.293 HD
ENDBRANCH   3  12
TORSDOF 1
ENDMDL
MODEL 2
REMARK VINA RESULT:    -5.883      0.811      4.218
REMARK INTER + INTRA:          -6.055
REMARK INTER:                  -6.055
REMARK INTRA:                   0.000
REMARK UNBOUND:                 0.000
REMARK SMILES O=c1ccc2ccc(O)cc2o1
REMARK SMILES IDX 6 1 7 2 8 3 10 4 11 5 5 6 4 7 3 8 2 9 1 10 12 11 9 12
REMARK H PARENT 9 13
REMARK Flexibility Score: inf
ROOT
ATOM      1  C   UNL     1       9.772   9.236  12.850  1.00  0.00     0.016 A 
ATOM      2  C   UNL     1       8.434   9.002  13.183  1.00  0.00     0.047 A 
ATOM      3  C   UNL     1       7.843   9.680  14.261  1.00  0.00     0.119 A 
ATOM      4  C   UNL     1       8.596  10.594  15.008  1.00  0.00     0.094 A 
ATOM      5  C   UNL     1       9.935  10.834  14.683  1.00  0.00     0.142 A 
ATOM      6  C   UNL     1      10.527  10.151  13.597  1.00  0.00     0.018 A 
ATOM      7  C   UNL     1      11.867  10.413  13.296  1.00  0.00     0.019 A 
ATOM      8  C   UNL     1      12.576  11.332  14.068  1.00  0.00     0.094 A 
ATOM      9  C   UNL     1      11.924  11.971  15.130  1.00  0.00     0.336 A 
ATOM     10  O   UNL     1      12.547  12.804  15.839  1.00  0.00    -0.246 OA
ATOM     11  O   UNL     1      10.648  11.704  15.395  1.00  0.00    -0.423 OA
ENDROOT
BRANCH   3  12
ATOM     12  O   UNL     1       6.511   9.451  14.598  1.00  0.00    -0.508 OA
ATOM     13  H   UNL     1       5.929   8.822  14.057  1.00  0.00     0.293 HD
ENDBRANCH   3  12
TORSDOF 1
ENDMDL
MODEL 3
REMARK VINA RESULT:    -5.560      1.930      4.834
REMARK INTER + INTRA:          -5.722
REMARK INTER:                  -5.722
REMARK INTRA:                   0.000
REMARK UNBOUND:                 0.000
REMARK SMILES O=c1ccc2ccc(O)cc2o1
REMARK SMILES IDX 6 1 7 2 8 3 10 4 11 5 5 6 4 7 3 8 2 9 1 10 12 11 9 12
REMARK H PARENT 9 13
REMARK Flexibility Score: inf
ROOT
ATOM      1  C   UNL     1       8.887   9.984  14.859  1.00  0.00     0.016 A 
ATOM      2  C   UNL     1       8.033   9.402  13.917  1.00  0.00     0.047 A 
ATOM      3  C   UNL     1       8.528   8.992  12.670  1.00  0.00     0.119 A 
ATOM      4  C   UNL     1       9.883   9.164  12.365  1.00  0.00     0.094 A 
ATOM      5  C   UNL     1      10.746   9.745  13.301  1.00  0.00     0.142 A 
ATOM      6  C   UNL     1      10.245  10.158  14.555  1.00  0.00     0.018 A 
ATOM      7  C   UNL     1      11.132  10.735  15.470  1.00  0.00     0.019 A 
ATOM      8  C   UNL     1      12.473  10.885  15.121  1.00  0.00     0.094 A 
ATOM      9  C   UNL     1      12.899  10.454  13.860  1.00  0.00     0.336 A 
ATOM     10  O   UNL     1      14.106  10.581  13.526  1.00  0.00    -0.246 OA
ATOM     11  O   UNL     1      12.034   9.908  13.008  1.00  0.00    -0.423 OA
ENDROOT
BRANCH   3  12
ATOM     12  O   UNL     1       7.682   8.412  11.727  1.00  0.00    -0.508 OA
ATOM     13  H   UNL     1       7.955   7.584  11.209  1.00  0.00     0.293 HD
ENDBRANCH   3  12
TORSDOF 1
ENDMDL
MODEL 4
REMARK VINA RESULT:    -5.521      2.138      3.788
REMARK INTER + INTRA:          -5.682
REMARK INTER:                  -5.682
REMARK INTRA:                   0.000
REMARK UNBOUND:                 0.000
REMARK SMILES O=c1ccc2ccc(O)cc2o1
REMARK SMILES IDX 6 1 7 2 8 3 10 4 11 5 5 6 4 7 3 8 2 9 1 10 12 11 9 12
REMARK H PARENT 9 13
REMARK Flexibility Score: inf
ROOT
ATOM      1  C   UNL     1       9.350   9.018  14.033  1.00  0.00     0.016 A 
ATOM      2  C   UNL     1       9.175   9.066  15.419  1.00  0.00     0.047 A 
ATOM      3  C   UNL     1      10.029   9.845  16.215  1.00  0.00     0.119 A 
ATOM      4  C   UNL     1      11.063  10.578  15.620  1.00  0.00     0.094 A 
ATOM      5  C   UNL     1      11.247  10.536  14.234  1.00  0.00     0.142 A 
ATOM      6  C   UNL     1      10.386   9.751  13.435  1.00  0.00     0.018 A 
ATOM      7  C   UNL     1      10.594   9.730  12.053  1.00  0.00     0.019 A 
ATOM      8  C   UNL     1      11.637  10.476  11.506  1.00  0.00     0.094 A 
ATOM      9  C   UNL     1      12.451  11.231  12.359  1.00  0.00     0.336 A 
ATOM     10  O   UNL     1      13.398  11.911  11.885  1.00  0.00    -0.246 OA
ATOM     11  O   UNL     1      12.231  11.233  13.671  1.00  0.00    -0.423 OA
ENDROOT
BRANCH   3  12
ATOM     12  O   UNL     1       9.859   9.897  17.597  1.00  0.00    -0.508 OA
ATOM     13  H   UNL     1       9.858   9.056  18.162  1.00  0.00     0.293 HD
ENDBRANCH   3  12
TORSDOF 1
ENDMDL
MODEL 5
REMARK VINA RESULT:    -5.271      2.384      4.370
REMARK INTER + INTRA:          -5.425
REMARK INTER:                  -5.425
REMARK INTRA:                   0.000
REMARK UNBOUND:                 0.000
REMARK SMILES O=c1ccc2ccc(O)cc2o1
REMARK SMILES IDX 6 1 7 2 8 3 10 4 11 5 5 6 4 7 3 8 2 9 1 10 12 11 9 12
REMARK H PARENT 9 13
REMARK Flexibility Score: inf
ROOT
ATOM      1  C   UNL     1      10.388  11.808  15.067  1.00  0.00     0.016 A 
ATOM      2  C   UNL     1       9.319  11.002  15.471  1.00  0.00     0.047 A 
ATOM      3  C   UNL     1       9.023   9.817  14.780  1.00  0.00     0.119 A 
ATOM      4  C   UNL     1       9.802   9.437  13.680  1.00  0.00     0.094 A 
ATOM      5  C   UNL     1      10.873  10.237  13.268  1.00  0.00     0.142 A 
ATOM      6  C   UNL     1      11.169  11.429  13.965  1.00  0.00     0.018 A 
ATOM      7  C   UNL     1      12.246  12.207  13.529  1.00  0.00     0.019 A 
ATOM      8  C   UNL     1      12.992  11.788  12.429  1.00  0.00     0.094 A 
ATOM      9  C   UNL     1      12.642  10.594  11.787  1.00  0.00     0.336 A 
ATOM     10  O   UNL     1      13.303  10.199  10.791  1.00  0.00    -0.246 OA
ATOM     11  O   UNL     1      11.612   9.874  12.222  1.00  0.00    -0.423 OA
ENDROOT
BRANCH   3  12
ATOM     12  O   UNL     1       7.959   9.011  15.178  1.00  0.00    -0.508 OA
ATOM     13  H   UNL     1       7.424   8.472  14.507  1.00  0.00     0.293 HD
ENDBRANCH   3  12
TORSDOF 1
ENDMDL
MODEL 6
REMARK VINA RESULT:    -5.263      1.908      2.527
REMARK INTER + INTRA:          -5.417
REMARK INTER:                  -5.417
REMARK INTRA:                   0.000
REMARK UNBOUND:                 0.000
REMARK SMILES O=c1ccc2ccc(O)cc2o1
REMARK SMILES IDX 6 1 7 2 8 3 10 4 11 5 5 6 4 7 3 8 2 9 1 10 12 11 9 12
REMARK H PARENT 9 13
REMARK Flexibility Score: inf
ROOT
ATOM      1  C   UNL     1      11.656  10.856  15.275  1.00  0.00     0.016 A 
ATOM      2  C   UNL     1      12.970  10.958  14.810  1.00  0.00     0.047 A 
ATOM      3  C   UNL     1      13.308  10.491  13.531  1.00  0.00     0.119 A 
ATOM      4  C   UNL     1      12.325   9.920  12.713  1.00  0.00     0.094 A 
ATOM      5  C   UNL     1      11.007   9.813  13.170  1.00  0.00     0.142 A 
ATOM      6  C   UNL     1      10.669  10.284  14.458  1.00  0.00     0.018 A 
ATOM      7  C   UNL     1       9.343  10.164  14.885  1.00  0.00     0.019 A 
ATOM      8  C   UNL     1       8.400   9.589  14.036  1.00  0.00     0.094 A 
ATOM      9  C   UNL     1       8.806   9.144  12.772  1.00  0.00     0.336 A 
ATOM     10  O   UNL     1       7.969   8.621  11.991  1.00  0.00    -0.246 OA
ATOM     11  O   UNL     1      10.074   9.270  12.391  1.00  0.00    -0.423 OA
ENDROOT
BRANCH   3  12
ATOM     12  O   UNL     1      14.616  10.589  13.062  1.00  0.00    -0.508 OA
ATOM     13  H   UNL     1      15.069   9.815  12.590  1.00  0.00     0.293 HD
ENDBRANCH   3  12
TORSDOF 1
ENDMDL
MODEL 7
REMARK VINA RESULT:    -5.051      3.322      4.772
REMARK INTER + INTRA:          -5.199
REMARK INTER:                  -5.199
REMARK INTRA:                   0.000
REMARK UNBOUND:                 0.000
REMARK SMILES O=c1ccc2ccc(O)cc2o1
REMARK SMILES IDX 6 1 7 2 8 3 10 4 11 5 5 6 4 7 3 8 2 9 1 10 12 11 9 12
REMARK H PARENT 9 13
REMARK Flexibility Score: inf
ROOT
ATOM      1  C   UNL     1      13.658   9.477  11.481  1.00  0.00     0.016 A 
ATOM      2  C   UNL     1      14.532   8.415  11.733  1.00  0.00     0.047 A 
ATOM      3  C   UNL     1      14.983   8.163  13.038  1.00  0.00     0.119 A 
ATOM      4  C   UNL     1      14.558   8.979  14.094  1.00  0.00     0.094 A 
ATOM      5  C   UNL     1      13.685  10.044  13.851  1.00  0.00     0.142 A 
ATOM      6  C   UNL     1      13.232  10.296  12.537  1.00  0.00     0.018 A 
ATOM      7  C   UNL     1      12.359  11.367  12.326  1.00  0.00     0.019 A 
ATOM      8  C   UNL     1      11.963  12.151  13.409  1.00  0.00     0.094 A 
ATOM      9  C   UNL     1      12.453  11.844  14.684  1.00  0.00     0.336 A 
ATOM     10  O   UNL     1      12.108  12.540  15.674  1.00  0.00    -0.246 OA
ATOM     11  O   UNL     1      13.282  10.818  14.856  1.00  0.00    -0.423 OA
ENDROOT
BRANCH   3  12
ATOM     12  O   UNL     1      15.854   7.106  13.296  1.00  0.00    -0.508 OA
ATOM     13  H   UNL     1      16.141   6.877  14.240  1.00  0.00     0.293 HD
ENDBRANCH   3  12
TORSDOF 1
ENDMDL
MODEL 8
REMARK VINA RESULT:    -5.020      2.265      2.955
REMARK INTER + INTRA:          -5.166
REMARK INTER:                  -5.166
REMARK INTRA:                   0.000
REMARK UNBOUND:                 0.000
REMARK SMILES O=c1ccc2ccc(O)cc2o1
REMARK SMILES IDX 6 1 7 2 8 3 10 4 11 5 5 6 4 7 3 8 2 9 1 10 12 11 9 12
REMARK H PARENT 9 13
REMARK Flexibility Score: inf
ROOT
ATOM      1  C   UNL     1      11.504   9.886  11.195  1.00  0.00     0.016 A 
ATOM      2  C   UNL     1      12.837  10.267  11.017  1.00  0.00     0.047 A 
ATOM      3  C   UNL     1      13.663  10.496  12.128  1.00  0.00     0.119 A 
ATOM      4  C   UNL     1      13.152  10.342  13.422  1.00  0.00     0.094 A 
ATOM      5  C   UNL     1      11.819   9.961  13.611  1.00  0.00     0.142 A 
ATOM      6  C   UNL     1      10.990   9.732  12.491  1.00  0.00     0.018 A 
ATOM      7  C   UNL     1       9.662   9.351  12.711  1.00  0.00     0.019 A 
ATOM      8  C   UNL     1       9.198   9.211  14.018  1.00  0.00     0.094 A 
ATOM      9  C   UNL     1      10.077   9.455  15.080  1.00  0.00     0.336 A 
ATOM     10  O   UNL     1       9.678   9.334  16.267  1.00  0.00    -0.246 OA
ATOM     11  O   UNL     1      11.336   9.816  14.842  1.00  0.00    -0.423 OA
ENDROOT
BRANCH   3  12
ATOM     12  O   UNL     1      14.993  10.877  11.957  1.00  0.00    -0.508 OA
ATOM     13  H   UNL     1      15.286  11.433  11.162  1.00  0.00     0.293 HD
ENDBRANCH   3  12
TORSDOF 1
ENDMDL
MODEL 9
REMARK VINA RESULT:    -4.908      3.255      4.726
REMARK INTER + INTRA:          -5.051
REMARK INTER:                  -5.051
REMARK INTRA:                   0.000
REMARK UNBOUND:                 0.000
REMARK SMILES O=c1ccc2ccc(O)cc2o1
REMARK SMILES IDX 6 1 7 2 8 3 10 4 11 5 5 6 4 7 3 8 2 9 1 10 12 11 9 12
REMARK H PARENT 9 13
REMARK Flexibility Score: inf
ROOT
ATOM      1  C   UNL     1      12.087  11.388  12.422  1.00  0.00     0.016 A 
ATOM      2  C   UNL     1      11.854  12.008  13.654  1.00  0.00     0.047 A 
ATOM      3  C   UNL     1      12.517  11.563  14.808  1.00  0.00     0.119 A 
ATOM      4  C   UNL     1      13.417  10.493  14.728  1.00  0.00     0.094 A 
ATOM      5  C   UNL     1      13.657   9.867  13.500  1.00  0.00     0.142 A 
ATOM      6  C   UNL     1      12.988  10.316  12.340  1.00  0.00     0.018 A 
ATOM      7  C   UNL     1      13.249   9.670  11.128  1.00  0.00     0.019 A 
ATOM      8  C   UNL     1      14.153   8.610  11.098  1.00  0.00     0.094 A 
ATOM      9  C   UNL     1      14.779   8.218  12.287  1.00  0.00     0.336 A 
ATOM     10  O   UNL     1      15.598   7.262  12.281  1.00  0.00    -0.246 OA
ATOM     11  O   UNL     1      14.512   8.850  13.427  1.00  0.00    -0.423 OA
ENDROOT
BRANCH   3  12
ATOM     12  O   UNL     1      12.289  12.176  16.038  1.00  0.00    -0.508 OA
ATOM     13  H   UNL     1      13.030  12.282  16.722  1.00  0.00     0.293 HD
ENDBRANCH   3  12
TORSDOF 1
ENDMDL
