MODEL 1
REMARK VINA RESULT:    -4.109      0.000      0.000
REMARK INTER + INTRA:          -9.230
REMARK INTER:                  -7.473
REMARK INTRA:                  -1.757
REMARK UNBOUND:                -1.757
REMARK SMILES CCCCCCCCCCCCCCCC(=O)[O-]
REMARK SMILES IDX 9 1 10 2 11 3 12 4 13 5 14 6 15 7 16 8 17 9 18 10 8 11 7 12
REMARK SMILES IDX 6 13 5 14 4 15 3 16 2 17 1 18
REMARK H PARENT
REMARK Flexibility Score: inf
ROOT
ATOM      1  C   UNL     1      -7.535  -1.043   2.398  1.00  0.00     0.000 C 
ENDROOT
BRANCH   1   2
ATOM      2  C   UNL     1      -7.806  -2.396   3.073  1.00  0.00     0.000 C 
BRANCH   2   3
ATOM      3  C   UNL     1      -7.134  -2.518   4.450  1.00  0.00     0.000 C 
BRANCH   3   4
ATOM      4  C   UNL     1      -6.491  -3.894   4.677  1.00  0.00     0.000 C 
BRANCH   4   5
ATOM      5  C   UNL     1      -5.222  -3.774   5.528  1.00  0.00     0.000 C 
BRANCH   5   6
ATOM      6  C   UNL     1      -5.301  -2.563   6.469  1.00  0.00     0.006 C 
BRANCH   6   7
ATOM      7  C   UNL     1      -3.953  -2.253   7.132  1.00  0.00     0.053 C 
BRANCH   7   8
ATOM      8  C   UNL     1      -4.073  -2.161   8.623  1.00  0.00     0.041 C 
ATOM      9  O   UNL     1      -3.409  -2.936   9.359  1.00  0.00    -0.550 OA
ATOM     10  O   UNL     1      -4.894  -1.200   9.197  1.00  0.00    -0.550 OA
ENDBRANCH   7   8
ENDBRANCH   6   7
ENDBRANCH   5   6
ENDBRANCH   4   5
ENDBRANCH   3   4
ENDBRANCH   2   3
ENDBRANCH   1   2
BRANCH   1  11
ATOM     11  C   UNL     1      -7.024  -0.014   3.418  1.00  0.00     0.000 C 
BRANCH  11  12
ATOM     12  C   UNL     1      -8.033   1.116   3.680  1.00  0.00    -0.000 C 
BRANCH  12  13
ATOM     13  C   UNL     1      -8.027   1.588   5.144  1.00  0.00    -0.000 C 
BRANCH  13  14
ATOM     14  C   UNL     1      -7.062   0.770   6.021  1.00  0.00    -0.000 C 
BRANCH  14  15
ATOM     15  C   UNL     1      -6.126   1.662   6.855  1.00  0.00    -0.000 C 
BRANCH  15  16
ATOM     16  C   UNL     1      -4.644   1.272   6.711  1.00  0.00    -0.000 C 
BRANCH  16  17
ATOM     17  C   UNL     1      -3.712   1.856   7.788  1.00  0.00    -0.003 C 
ATOM     18  C   UNL     1      -2.323   1.218   7.787  1.00  0.00     0.004 C 
ENDBRANCH  16  17
ENDBRANCH  15  16
ENDBRANCH  14  15
ENDBRANCH  13  14
ENDBRANCH  12  13
ENDBRANCH  11  12
ENDBRANCH   1  11
TORSDOF 14
ENDMDL
MODEL 2
REMARK VINA RESULT:    -4.099      2.698      4.684
REMARK INTER + INTRA:          -9.210
REMARK INTER:                  -7.665
REMARK INTRA:                  -1.546
REMARK UNBOUND:                -1.757
REMARK SMILES CCCCCCCCCCCCCCCC(=O)[O-]
REMARK SMILES IDX 9 1 10 2 11 3 12 4 13 5 14 6 15 7 16 8 17 9 18 10 8 11 7 12
REMARK SMILES IDX 6 13 5 14 4 15 3 16 2 17 1 18
REMARK H PARENT
REMARK Flexibility Score: inf
ROOT
ATOM      1  C   UNL     1      -5.907  -3.452   7.313  1.00  0.00     0.000 C 
ENDROOT
BRANCH   1   2
ATOM      2  C   UNL     1      -6.541  -4.314   6.211  1.00  0.00     0.000 C 
BRANCH   2   3
ATOM      3  C   UNL     1      -6.209  -3.809   4.798  1.00  0.00     0.000 C 
BRANCH   3   4
ATOM      4  C   UNL     1      -7.461  -3.595   3.934  1.00  0.00     0.000 C 
BRANCH   4   5
ATOM      5  C   UNL     1      -7.571  -2.136   3.476  1.00  0.00     0.000 C 
BRANCH   5   6
ATOM      6  C   UNL     1      -7.892  -1.209   4.658  1.00  0.00     0.006 C 
BRANCH   6   7
ATOM      7  C   UNL     1      -6.866  -0.079   4.806  1.00  0.00     0.053 C 
BRANCH   7   8
ATOM      8  C   UNL     1      -7.312   1.172   4.112  1.00  0.00     0.041 C 
ATOM      9  O   UNL     1      -7.042   1.351   2.896  1.00  0.00    -0.550 OA
ATOM     10  O   UNL     1      -8.054   2.124   4.800  1.00  0.00    -0.550 OA
ENDBRANCH   7   8
ENDBRANCH   6   7
ENDBRANCH   5   6
ENDBRANCH   4   5
ENDBRANCH   3   4
ENDBRANCH   2   3
ENDBRANCH   1   2
BRANCH   1  11
ATOM     11  C   UNL     1      -4.773  -2.584   6.747  1.00  0.00     0.000 C 
BRANCH  11  12
ATOM     12  C   UNL     1      -3.627  -2.375   7.749  1.00  0.00    -0.000 C 
BRANCH  12  13
ATOM     13  C   UNL     1      -3.730  -1.031   8.494  1.00  0.00    -0.000 C 
BRANCH  13  14
ATOM     14  C   UNL     1      -4.448   0.047   7.664  1.00  0.00    -0.000 C 
BRANCH  14  15
ATOM     15  C   UNL     1      -3.505   1.186   7.238  1.00  0.00    -0.000 C 
BRANCH  15  16
ATOM     16  C   UNL     1      -2.335   1.391   8.216  1.00  0.00    -0.000 C 
BRANCH  16  17
ATOM     17  C   UNL     1      -2.614   2.378   9.364  1.00  0.00    -0.003 C 
ATOM     18  C   UNL     1      -3.347   3.638   8.907  1.00  0.00     0.004 C 
ENDBRANCH  16  17
ENDBRANCH  15  16
ENDBRANCH  14  15
ENDBRANCH  13  14
ENDBRANCH  12  13
ENDBRANCH  11  12
ENDBRANCH   1  11
TORSDOF 14
ENDMDL
MODEL 3
REMARK VINA RESULT:    -4.082      2.727      6.168
REMARK INTER + INTRA:          -9.180
REMARK INTER:                  -7.064
REMARK INTRA:                  -2.116
REMARK UNBOUND:                -1.757
REMARK SMILES CCCCCCCCCCCCCCCC(=O)[O-]
REMARK SMILES IDX 9 1 10 2 11 3 12 4 13 5 14 6 15 7 16 8 17 9 18 10 8 11 7 12
REMARK SMILES IDX 6 13 5 14 4 15 3 16 2 17 1 18
REMARK H PARENT
REMARK Flexibility Score: inf
ROOT
ATOM      1  C   UNL     1      -3.349   0.078   8.300  1.00  0.00     0.000 C 
ENDROOT
BRANCH   1   2
ATOM      2  C   UNL     1      -3.043   1.423   7.622  1.00  0.00     0.000 C 
BRANCH   2   3
ATOM      3  C   UNL     1      -4.232   1.962   6.812  1.00  0.00     0.000 C 
BRANCH   3   4
ATOM      4  C   UNL     1      -5.578   1.750   7.520  1.00  0.00     0.000 C 
BRANCH   4   5
ATOM      5  C   UNL     1      -6.708   1.541   6.504  1.00  0.00     0.000 C 
BRANCH   5   6
ATOM      6  C   UNL     1      -6.167   0.961   5.189  1.00  0.00     0.006 C 
BRANCH   6   7
ATOM      7  C   UNL     1      -6.826  -0.376   4.829  1.00  0.00     0.053 C 
BRANCH   7   8
ATOM      8  C   UNL     1      -7.055  -0.504   3.354  1.00  0.00     0.041 C 
ATOM      9  O   UNL     1      -6.944   0.503   2.607  1.00  0.00    -0.550 OA
ATOM     10  O   UNL     1      -7.360  -1.741   2.801  1.00  0.00    -0.550 OA
ENDBRANCH   7   8
ENDBRANCH   6   7
ENDBRANCH   5   6
ENDBRANCH   4   5
ENDBRANCH   3   4
ENDBRANCH   2   3
ENDBRANCH   1   2
BRANCH   1  11
ATOM     11  C   UNL     1      -3.693  -0.997   7.258  1.00  0.00     0.000 C 
BRANCH  11  12
ATOM     12  C   UNL     1      -3.756  -2.410   7.859  1.00  0.00    -0.000 C 
BRANCH  12  13
ATOM     13  C   UNL     1      -5.059  -2.664   8.638  1.00  0.00    -0.000 C 
BRANCH  13  14
ATOM     14  C   UNL     1      -6.266  -1.940   8.017  1.00  0.00    -0.000 C 
BRANCH  14  15
ATOM     15  C   UNL     1      -7.360  -2.916   7.548  1.00  0.00    -0.000 C 
BRANCH  15  16
ATOM     16  C   UNL     1      -6.788  -4.200   6.923  1.00  0.00    -0.000 C 
BRANCH  16  17
ATOM     17  C   UNL     1      -6.718  -4.197   5.385  1.00  0.00    -0.003 C 
ATOM     18  C   UNL     1      -5.330  -3.850   4.849  1.00  0.00     0.004 C 
ENDBRANCH  16  17
ENDBRANCH  15  16
ENDBRANCH  14  15
ENDBRANCH  13  14
ENDBRANCH  12  13
ENDBRANCH  11  12
ENDBRANCH   1  11
TORSDOF 14
ENDMDL
MODEL 4
REMARK VINA RESULT:    -4.039      1.618      4.072
REMARK INTER + INTRA:          -9.102
REMARK INTER:                  -7.131
REMARK INTRA:                  -1.971
REMARK UNBOUND:                -1.757
REMARK SMILES CCCCCCCCCCCCCCCC(=O)[O-]
REMARK SMILES IDX 9 1 10 2 11 3 12 4 13 5 14 6 15 7 16 8 17 9 18 10 8 11 7 12
REMARK SMILES IDX 6 13 5 14 4 15 3 16 2 17 1 18
REMARK H PARENT
REMARK Flexibility Score: inf
ROOT
ATOM      1  C   UNL     1      -6.341  -3.518   4.557  1.00  0.00     0.000 C 
ENDROOT
BRANCH   1   2
ATOM      2  C   UNL     1      -7.109  -2.240   4.933  1.00  0.00     0.000 C 
BRANCH   2   3
ATOM      3  C   UNL     1      -6.910  -1.108   3.913  1.00  0.00     0.000 C 
BRANCH   3   4
ATOM      4  C   UNL     1      -7.334   0.263   4.459  1.00  0.00     0.000 C 
BRANCH   4   5
ATOM      5  C   UNL     1      -6.216   0.889   5.302  1.00  0.00     0.000 C 
BRANCH   5   6
ATOM      6  C   UNL     1      -6.794   1.678   6.486  1.00  0.00     0.006 C 
BRANCH   6   7
ATOM      7  C   UNL     1      -7.129   0.775   7.679  1.00  0.00     0.053 C 
BRANCH   7   8
ATOM      8  C   UNL     1      -6.694   1.382   8.978  1.00  0.00     0.041 C 
ATOM      9  O   UNL     1      -6.702   2.632   9.125  1.00  0.00    -0.550 OA
ATOM     10  O   UNL     1      -6.312   0.567  10.035  1.00  0.00    -0.550 OA
ENDBRANCH   7   8
ENDBRANCH   6   7
ENDBRANCH   5   6
ENDBRANCH   4   5
ENDBRANCH   3   4
ENDBRANCH   2   3
ENDBRANCH   1   2
BRANCH   1  11
ATOM     11  C   UNL     1      -5.252  -3.829   5.596  1.00  0.00     0.000 C 
BRANCH  11  12
ATOM     12  C   UNL     1      -5.276  -2.861   6.790  1.00  0.00    -0.000 C 
BRANCH  12  13
ATOM     13  C   UNL     1      -3.878  -2.321   7.141  1.00  0.00    -0.000 C 
BRANCH  13  14
ATOM     14  C   UNL     1      -3.936  -0.947   7.831  1.00  0.00    -0.000 C 
BRANCH  14  15
ATOM     15  C   UNL     1      -3.259   0.158   7.000  1.00  0.00    -0.000 C 
BRANCH  15  16
ATOM     16  C   UNL     1      -2.557   1.214   7.871  1.00  0.00    -0.000 C 
BRANCH  16  17
ATOM     17  C   UNL     1      -3.326   2.538   8.032  1.00  0.00    -0.003 C 
ATOM     18  C   UNL     1      -3.163   3.160   9.418  1.00  0.00     0.004 C 
ENDBRANCH  16  17
ENDBRANCH  15  16
ENDBRANCH  14  15
ENDBRANCH  13  14
ENDBRANCH  12  13
ENDBRANCH  11  12
ENDBRANCH   1  11
TORSDOF 14
ENDMDL
MODEL 5
REMARK VINA RESULT:    -4.030      1.774      4.364
REMARK INTER + INTRA:          -9.086
REMARK INTER:                  -7.366
REMARK INTRA:                  -1.719
REMARK UNBOUND:                -1.757
REMARK SMILES CCCCCCCCCCCCCCCC(=O)[O-]
REMARK SMILES IDX 9 1 10 2 11 3 12 4 13 5 14 6 15 7 16 8 17 9 18 10 8 11 7 12
REMARK SMILES IDX 6 13 5 14 4 15 3 16 2 17 1 18
REMARK H PARENT
REMARK Flexibility Score: inf
ROOT
ATOM      1  C   UNL     1      -7.519   0.309   3.002  1.00  0.00     0.000 C 
ENDROOT
BRANCH   1   2
ATOM      2  C   UNL     1      -7.411   1.248   4.213  1.00  0.00     0.000 C 
BRANCH   2   3
ATOM      3  C   UNL     1      -6.219   0.910   5.121  1.00  0.00     0.000 C 
BRANCH   3   4
ATOM      4  C   UNL     1      -6.639   0.628   6.572  1.00  0.00     0.000 C 
BRANCH   4   5
ATOM      5  C   UNL     1      -5.460   0.820   7.533  1.00  0.00     0.000 C 
BRANCH   5   6
ATOM      6  C   UNL     1      -4.238   1.393   6.800  1.00  0.00     0.006 C 
BRANCH   6   7
ATOM      7  C   UNL     1      -2.940   1.197   7.594  1.00  0.00     0.053 C 
BRANCH   7   8
ATOM      8  C   UNL     1      -2.778   2.236   8.661  1.00  0.00     0.041 C 
ATOM      9  O   UNL     1      -3.295   3.375   8.518  1.00  0.00    -0.550 OA
ATOM     10  O   UNL     1      -2.084   1.936   9.826  1.00  0.00    -0.550 OA
ENDBRANCH   7   8
ENDBRANCH   6   7
ENDBRANCH   5   6
ENDBRANCH   4   5
ENDBRANCH   3   4
ENDBRANCH   2   3
ENDBRANCH   1   2
BRANCH   1  11
ATOM     11  C   UNL     1      -6.991  -1.092   3.345  1.00  0.00     0.000 C 
BRANCH  11  12
ATOM     12  C   UNL     1      -8.005  -2.203   3.032  1.00  0.00    -0.000 C 
BRANCH  12  13
ATOM     13  C   UNL     1      -7.722  -3.500   3.812  1.00  0.00    -0.000 C 
BRANCH  13  14
ATOM     14  C   UNL     1      -6.354  -3.476   4.515  1.00  0.00    -0.000 C 
BRANCH  14  15
ATOM     15  C   UNL     1      -6.401  -4.112   5.916  1.00  0.00    -0.000 C 
BRANCH  15  16
ATOM     16  C   UNL     1      -5.845  -3.186   7.011  1.00  0.00    -0.000 C 
BRANCH  16  17
ATOM     17  C   UNL     1      -4.415  -2.672   6.762  1.00  0.00    -0.003 C 
ATOM     18  C   UNL     1      -3.641  -2.406   8.052  1.00  0.00     0.004 C 
ENDBRANCH  16  17
ENDBRANCH  15  16
ENDBRANCH  14  15
ENDBRANCH  13  14
ENDBRANCH  12  13
ENDBRANCH  11  12
ENDBRANCH   1  11
TORSDOF 14
ENDMDL
MODEL 6
REMARK VINA RESULT:    -3.985      2.103      5.662
REMARK INTER + INTRA:          -9.004
REMARK INTER:                  -7.293
REMARK INTRA:                  -1.711
REMARK UNBOUND:                -1.757
REMARK SMILES CCCCCCCCCCCCCCCC(=O)[O-]
REMARK SMILES IDX 9 1 10 2 11 3 12 4 13 5 14 6 15 7 16 8 17 9 18 10 8 11 7 12
REMARK SMILES IDX 6 13 5 14 4 15 3 16 2 17 1 18
REMARK H PARENT
REMARK Flexibility Score: inf
ROOT
ATOM      1  C   UNL     1      -5.690  -2.263   7.849  1.00  0.00     0.000 C 
ENDROOT
BRANCH   1   2
ATOM      2  C   UNL     1      -4.167  -2.085   7.751  1.00  0.00     0.000 C 
BRANCH   2   3
ATOM      3  C   UNL     1      -3.691  -0.735   8.310  1.00  0.00     0.000 C 
BRANCH   3   4
ATOM      4  C   UNL     1      -3.280   0.252   7.207  1.00  0.00     0.000 C 
BRANCH   4   5
ATOM      5  C   UNL     1      -2.386   1.364   7.769  1.00  0.00     0.000 C 
BRANCH   5   6
ATOM      6  C   UNL     1      -2.636   1.566   9.271  1.00  0.00     0.006 C 
BRANCH   6   7
ATOM      7  C   UNL     1      -2.787   3.047   9.641  1.00  0.00     0.053 C 
BRANCH   7   8
ATOM      8  C   UNL     1      -4.217   3.490   9.595  1.00  0.00     0.041 C 
ATOM      9  O   UNL     1      -4.507   4.707   9.735  1.00  0.00    -0.550 OA
ATOM     10  O   UNL     1      -5.226   2.563   9.366  1.00  0.00    -0.550 OA
ENDBRANCH   7   8
ENDBRANCH   6   7
ENDBRANCH   5   6
ENDBRANCH   4   5
ENDBRANCH   3   4
ENDBRANCH   2   3
ENDBRANCH   1   2
BRANCH   1  11
ATOM     11  C   UNL     1      -6.169  -3.406   6.940  1.00  0.00     0.000 C 
BRANCH  11  12
ATOM     12  C   UNL     1      -5.143  -3.772   5.855  1.00  0.00    -0.000 C 
BRANCH  12  13
ATOM     13  C   UNL     1      -5.759  -3.802   4.445  1.00  0.00    -0.000 C 
BRANCH  13  14
ATOM     14  C   UNL     1      -7.294  -3.702   4.471  1.00  0.00    -0.000 C 
BRANCH  14  15
ATOM     15  C   UNL     1      -7.839  -2.726   3.414  1.00  0.00    -0.000 C 
BRANCH  15  16
ATOM     16  C   UNL     1      -7.221  -1.322   3.522  1.00  0.00    -0.000 C 
BRANCH  16  17
ATOM     17  C   UNL     1      -7.516  -0.583   4.840  1.00  0.00    -0.003 C 
ATOM     18  C   UNL     1      -6.400   0.375   5.252  1.00  0.00     0.004 C 
ENDBRANCH  16  17
ENDBRANCH  15  16
ENDBRANCH  14  15
ENDBRANCH  13  14
ENDBRANCH  12  13
ENDBRANCH  11  12
ENDBRANCH   1  11
TORSDOF 14
ENDMDL
MODEL 7
REMARK VINA RESULT:    -3.862      1.917      5.466
REMARK INTER + INTRA:          -8.779
REMARK INTER:                  -6.603
REMARK INTRA:                  -2.176
REMARK UNBOUND:                -1.757
REMARK SMILES CCCCCCCCCCCCCCCC(=O)[O-]
REMARK SMILES IDX 9 1 10 2 11 3 12 4 13 5 14 6 15 7 16 8 17 9 18 10 8 11 7 12
REMARK SMILES IDX 6 13 5 14 4 15 3 16 2 17 1 18
REMARK H PARENT
REMARK Flexibility Score: inf
ROOT
ATOM      1  C   UNL     1      -4.037  -1.284   7.419  1.00  0.00     0.000 C 
ENDROOT
BRANCH   1   2
ATOM      2  C   UNL     1      -5.402  -0.612   7.207  1.00  0.00     0.000 C 
BRANCH   2   3
ATOM      3  C   UNL     1      -5.309   0.664   6.356  1.00  0.00     0.000 C 
BRANCH   3   4
ATOM      4  C   UNL     1      -6.296   1.751   6.807  1.00  0.00     0.000 C 
BRANCH   4   5
ATOM      5  C   UNL     1      -6.638   1.601   8.294  1.00  0.00     0.000 C 
BRANCH   5   6
ATOM      6  C   UNL     1      -5.833   2.592   9.148  1.00  0.00     0.006 C 
BRANCH   6   7
ATOM      7  C   UNL     1      -4.579   1.951   9.756  1.00  0.00     0.053 C 
BRANCH   7   8
ATOM      8  C   UNL     1      -3.340   2.324   9.000  1.00  0.00     0.041 C 
ATOM      9  O   UNL     1      -3.304   3.391   8.333  1.00  0.00    -0.550 OA
ATOM     10  O   UNL     1      -2.217   1.510   9.058  1.00  0.00    -0.550 OA
ENDBRANCH   7   8
ENDBRANCH   6   7
ENDBRANCH   5   6
ENDBRANCH   4   5
ENDBRANCH   3   4
ENDBRANCH   2   3
ENDBRANCH   1   2
BRANCH   1  11
ATOM     11  C   UNL     1      -4.016  -2.692   6.805  1.00  0.00     0.000 C 
BRANCH  11  12
ATOM     12  C   UNL     1      -5.417  -3.194   6.421  1.00  0.00    -0.000 C 
BRANCH  12  13
ATOM     13  C   UNL     1      -5.453  -3.838   5.023  1.00  0.00    -0.000 C 
BRANCH  13  14
ATOM     14  C   UNL     1      -6.688  -3.412   4.211  1.00  0.00    -0.000 C 
BRANCH  14  15
ATOM     15  C   UNL     1      -7.712  -2.637   5.059  1.00  0.00    -0.000 C 
BRANCH  15  16
ATOM     16  C   UNL     1      -7.928  -1.196   4.566  1.00  0.00    -0.000 C 
BRANCH  16  17
ATOM     17  C   UNL     1      -7.040  -0.775   3.382  1.00  0.00    -0.003 C 
ATOM     18  C   UNL     1      -7.151   0.712   3.049  1.00  0.00     0.004 C 
ENDBRANCH  16  17
ENDBRANCH  15  16
ENDBRANCH  14  15
ENDBRANCH  13  14
ENDBRANCH  12  13
ENDBRANCH  11  12
ENDBRANCH   1  11
TORSDOF 14
ENDMDL
MODEL 8
REMARK VINA RESULT:    -3.813      2.034      4.841
REMARK INTER + INTRA:          -8.690
REMARK INTER:                  -6.879
REMARK INTRA:                  -1.811
REMARK UNBOUND:                -1.757
REMARK SMILES CCCCCCCCCCCCCCCC(=O)[O-]
REMARK SMILES IDX 9 1 10 2 11 3 12 4 13 5 14 6 15 7 16 8 17 9 18 10 8 11 7 12
REMARK SMILES IDX 6 13 5 14 4 15 3 16 2 17 1 18
REMARK H PARENT
REMARK Flexibility Score: inf
ROOT
ATOM      1  C   UNL     1      -6.469   1.360   6.047  1.00  0.00     0.000 C 
ENDROOT
BRANCH   1   2
ATOM      2  C   UNL     1      -6.952   0.223   6.961  1.00  0.00     0.000 C 
BRANCH   2   3
ATOM      3  C   UNL     1      -5.830  -0.346   7.842  1.00  0.00     0.000 C 
BRANCH   3   4
ATOM      4  C   UNL     1      -4.525  -0.578   7.067  1.00  0.00     0.000 C 
BRANCH   4   5
ATOM      5  C   UNL     1      -3.303  -0.345   7.963  1.00  0.00     0.000 C 
BRANCH   5   6
ATOM      6  C   UNL     1      -2.686   1.037   7.706  1.00  0.00     0.006 C 
BRANCH   6   7
ATOM      7  C   UNL     1      -2.560   1.866   8.990  1.00  0.00     0.053 C 
BRANCH   7   8
ATOM      8  C   UNL     1      -3.608   2.934   9.068  1.00  0.00     0.041 C 
ATOM      9  O   UNL     1      -4.790   2.638   9.384  1.00  0.00    -0.550 OA
ATOM     10  O   UNL     1      -3.272   4.259   8.824  1.00  0.00    -0.550 OA
ENDBRANCH   7   8
ENDBRANCH   6   7
ENDBRANCH   5   6
ENDBRANCH   4   5
ENDBRANCH   3   4
ENDBRANCH   2   3
ENDBRANCH   1   2
BRANCH   1  11
ATOM     11  C   UNL     1      -6.676   1.002   4.568  1.00  0.00     0.000 C 
BRANCH  11  12
ATOM     12  C   UNL     1      -7.545  -0.250   4.375  1.00  0.00    -0.000 C 
BRANCH  12  13
ATOM     13  C   UNL     1      -7.389  -0.870   2.975  1.00  0.00    -0.000 C 
BRANCH  13  14
ATOM     14  C   UNL     1      -7.724  -2.372   2.956  1.00  0.00    -0.000 C 
BRANCH  14  15
ATOM     15  C   UNL     1      -7.499  -3.043   4.323  1.00  0.00    -0.000 C 
BRANCH  15  16
ATOM     16  C   UNL     1      -6.122  -3.720   4.436  1.00  0.00    -0.000 C 
BRANCH  16  17
ATOM     17  C   UNL     1      -5.565  -3.821   5.868  1.00  0.00    -0.003 C 
ATOM     18  C   UNL     1      -6.658  -3.873   6.934  1.00  0.00     0.004 C 
ENDBRANCH  16  17
ENDBRANCH  15  16
ENDBRANCH  14  15
ENDBRANCH  13  14
ENDBRANCH  12  13
ENDBRANCH  11  12
ENDBRANCH   1  11
TORSDOF 14
ENDMDL
MODEL 9
REMARK VINA RESULT:    -3.668      2.439      5.094
REMARK INTER + INTRA:          -8.427
REMARK INTER:                  -6.232
REMARK INTRA:                  -2.196
REMARK UNBOUND:                -1.757
REMARK SMILES CCCCCCCCCCCCCCCC(=O)[O-]
REMARK SMILES IDX 9 1 10 2 11 3 12 4 13 5 14 6 15 7 16 8 17 9 18 10 8 11 7 12
REMARK SMILES IDX 6 13 5 14 4 15 3 16 2 17 1 18
REMARK H PARENT
REMARK Flexibility Score: inf
ROOT
ATOM      1  C   UNL     1      -2.496   1.375   7.865  1.00  0.00     0.000 C 
ENDROOT
BRANCH   1   2
ATOM      2  C   UNL     1      -3.242   0.253   7.126  1.00  0.00     0.000 C 
BRANCH   2   3
ATOM      3  C   UNL     1      -3.597  -0.927   8.045  1.00  0.00     0.000 C 
BRANCH   3   4
ATOM      4  C   UNL     1      -4.419  -2.009   7.329  1.00  0.00     0.000 C 
BRANCH   4   5
ATOM      5  C   UNL     1      -5.726  -2.293   8.079  1.00  0.00     0.000 C 
BRANCH   5   6
ATOM      6  C   UNL     1      -6.597  -3.296   7.309  1.00  0.00     0.006 C 
BRANCH   6   7
ATOM      7  C   UNL     1      -5.874  -3.876   6.086  1.00  0.00     0.053 C 
BRANCH   7   8
ATOM      8  C   UNL     1      -6.702  -3.759   4.843  1.00  0.00     0.041 C 
ATOM      9  O   UNL     1      -6.592  -2.747   4.102  1.00  0.00    -0.550 OA
ATOM     10  O   UNL     1      -7.570  -4.783   4.485  1.00  0.00    -0.550 OA
ENDBRANCH   7   8
ENDBRANCH   6   7
ENDBRANCH   5   6
ENDBRANCH   4   5
ENDBRANCH   3   4
ENDBRANCH   2   3
ENDBRANCH   1   2
BRANCH   1  11
ATOM     11  C   UNL     1      -3.092   1.604   9.262  1.00  0.00     0.000 C 
BRANCH  11  12
ATOM     12  C   UNL     1      -4.275   2.586   9.250  1.00  0.00    -0.000 C 
BRANCH  12  13
ATOM     13  C   UNL     1      -5.511   2.032   9.981  1.00  0.00    -0.000 C 
BRANCH  13  14
ATOM     14  C   UNL     1      -6.436   1.231   9.048  1.00  0.00    -0.000 C 
BRANCH  14  15
ATOM     15  C   UNL     1      -6.597   1.893   7.668  1.00  0.00    -0.000 C 
BRANCH  15  16
ATOM     16  C   UNL     1      -7.004   0.895   6.571  1.00  0.00    -0.000 C 
BRANCH  16  17
ATOM     17  C   UNL     1      -6.191   0.997   5.267  1.00  0.00    -0.003 C 
ATOM     18  C   UNL     1      -7.030   0.743   4.017  1.00  0.00     0.004 C 
ENDBRANCH  16  17
ENDBRANCH  15  16
ENDBRANCH  14  15
ENDBRANCH  13  14
ENDBRANCH  12  13
ENDBRANCH  11  12
ENDBRANCH   1  11
TORSDOF 14
ENDMDL
