MODEL 1
REMARK VINA RESULT:    -4.887      0.000      0.000
REMARK INTER + INTRA:          -9.096
REMARK INTER:                  -7.744
REMARK INTRA:                  -1.352
REMARK UNBOUND:                -1.352
REMARK SMILES CCCCCCCCCCCC(=O)[O-]
REMARK SMILES IDX 7 1 8 2 9 3 10 4 11 5 12 6 13 7 14 8 6 9 5 10 4 11 3 12 2 13
REMARK SMILES IDX 1 14
REMARK H PARENT
REMARK Flexibility Score: inf
ROOT
ATOM      1  C   UNL     1     135.454 133.733 113.729  1.00  0.00     0.000 C 
ENDROOT
BRANCH   1   2
ATOM      2  C   UNL     1     136.390 133.968 114.922  1.00  0.00     0.000 C 
BRANCH   2   3
ATOM      3  C   UNL     1     136.997 135.376 114.877  1.00  0.00     0.000 C 
BRANCH   3   4
ATOM      4  C   UNL     1     136.864 136.076 116.237  1.00  0.00     0.006 C 
BRANCH   4   5
ATOM      5  C   UNL     1     136.753 135.079 117.396  1.00  0.00     0.053 C 
BRANCH   5   6
ATOM      6  C   UNL     1     135.948 135.636 118.531  1.00  0.00     0.041 C 
ATOM      7  O   UNL     1     134.875 136.254 118.306  1.00  0.00    -0.550 OA
ATOM      8  O   UNL     1     136.369 135.442 119.841  1.00  0.00    -0.550 OA
ENDBRANCH   5   6
ENDBRANCH   4   5
ENDBRANCH   3   4
ENDBRANCH   2   3
ENDBRANCH   1   2
BRANCH   1   9
ATOM      9  C   UNL     1     134.045 133.355 114.201  1.00  0.00     0.000 C 
BRANCH   9  10
ATOM     10  C   UNL     1     133.630 134.194 115.420  1.00  0.00    -0.000 C 
BRANCH  10  11
ATOM     11  C   UNL     1     133.369 135.665 115.064  1.00  0.00    -0.000 C 
BRANCH  11  12
ATOM     12  C   UNL     1     132.377 135.824 113.898  1.00  0.00    -0.000 C 
BRANCH  12  13
ATOM     13  C   UNL     1     133.005 136.523 112.682  1.00  0.00    -0.003 C 
ATOM     14  C   UNL     1     134.307 137.245 113.024  1.00  0.00     0.004 C 
ENDBRANCH  12  13
ENDBRANCH  11  12
ENDBRANCH  10  11
ENDBRANCH   9  10
ENDBRANCH   1   9
TORSDOF 10
ENDMDL
MODEL 2
REMARK VINA RESULT:    -4.788      7.391      9.138
REMARK INTER + INTRA:          -8.938
REMARK INTER:                  -7.310
REMARK INTRA:                  -1.628
REMARK UNBOUND:                -1.352
REMARK SMILES CCCCCCCCCCCC(=O)[O-]
REMARK SMILES IDX 7 1 8 2 9 3 10 4 11 5 12 6 13 7 14 8 6 9 5 10 4 11 3 12 2 13
REMARK SMILES IDX 1 14
REMARK H PARENT
REMARK Flexibility Score: inf
ROOT
ATOM      1  C   UNL     1     141.586 139.487 113.507  1.00  0.00     0.000 C 
ENDROOT
BRANCH   1   2
ATOM      2  C   UNL     1     140.136 139.843 113.154  1.00  0.00     0.000 C 
BRANCH   2   3
ATOM      3  C   UNL     1     139.334 140.197 114.412  1.00  0.00     0.000 C 
BRANCH   3   4
ATOM      4  C   UNL     1     140.185 140.014 115.677  1.00  0.00     0.006 C 
BRANCH   4   5
ATOM      5  C   UNL     1     139.591 140.744 116.888  1.00  0.00     0.053 C 
BRANCH   5   6
ATOM      6  C   UNL     1     140.651 141.145 117.869  1.00  0.00     0.041 C 
ATOM      7  O   UNL     1     140.860 142.362 118.114  1.00  0.00    -0.550 OA
ATOM      8  O   UNL     1     141.384 140.172 118.536  1.00  0.00    -0.550 OA
ENDBRANCH   5   6
ENDBRANCH   4   5
ENDBRANCH   3   4
ENDBRANCH   2   3
ENDBRANCH   1   2
BRANCH   1   9
ATOM      9  C   UNL     1     142.556 140.014 112.442  1.00  0.00     0.000 C 
BRANCH   9  10
ATOM     10  C   UNL     1     143.244 141.303 112.915  1.00  0.00    -0.000 C 
BRANCH  10  11
ATOM     11  C   UNL     1     143.560 141.288 114.419  1.00  0.00    -0.000 C 
BRANCH  11  12
ATOM     12  C   UNL     1     142.895 142.452 115.174  1.00  0.00    -0.000 C 
BRANCH  12  13
ATOM     13  C   UNL     1     142.086 143.371 114.245  1.00  0.00    -0.003 C 
ATOM     14  C   UNL     1     140.632 143.527 114.688  1.00  0.00     0.004 C 
ENDBRANCH  12  13
ENDBRANCH  11  12
ENDBRANCH  10  11
ENDBRANCH   9  10
ENDBRANCH   1   9
TORSDOF 10
ENDMDL
MODEL 3
REMARK VINA RESULT:    -4.709      7.321      9.023
REMARK INTER + INTRA:          -8.814
REMARK INTER:                  -7.293
REMARK INTRA:                  -1.522
REMARK UNBOUND:                -1.352
REMARK SMILES CCCCCCCCCCCC(=O)[O-]
REMARK SMILES IDX 7 1 8 2 9 3 10 4 11 5 12 6 13 7 14 8 6 9 5 10 4 11 3 12 2 13
REMARK SMILES IDX 1 14
REMARK H PARENT
REMARK Flexibility Score: inf
ROOT
ATOM      1  C   UNL     1     139.909 140.235 112.941  1.00  0.00     0.000 C 
ENDROOT
BRANCH   1   2
ATOM      2  C   UNL     1     140.483 139.135 113.843  1.00  0.00     0.000 C 
BRANCH   2   3
ATOM      3  C   UNL     1     140.554 139.600 115.302  1.00  0.00     0.000 C 
BRANCH   3   4
ATOM      4  C   UNL     1     139.337 140.462 115.665  1.00  0.00     0.006 C 
BRANCH   4   5
ATOM      5  C   UNL     1     139.740 141.806 116.285  1.00  0.00     0.053 C 
BRANCH   5   6
ATOM      6  C   UNL     1     140.193 141.648 117.705  1.00  0.00     0.041 C 
ATOM      7  O   UNL     1     139.401 141.208 118.579  1.00  0.00    -0.550 OA
ATOM      8  O   UNL     1     141.502 141.957 118.054  1.00  0.00    -0.550 OA
ENDBRANCH   5   6
ENDBRANCH   4   5
ENDBRANCH   3   4
ENDBRANCH   2   3
ENDBRANCH   1   2
BRANCH   1   9
ATOM      9  C   UNL     1     140.819 140.488 111.733  1.00  0.00     0.000 C 
BRANCH   9  10
ATOM     10  C   UNL     1     141.365 141.924 111.747  1.00  0.00    -0.000 C 
BRANCH  10  11
ATOM     11  C   UNL     1     141.278 142.576 113.136  1.00  0.00    -0.000 C 
BRANCH  11  12
ATOM     12  C   UNL     1     142.663 142.890 113.729  1.00  0.00    -0.000 C 
BRANCH  12  13
ATOM     13  C   UNL     1     143.149 141.799 114.697  1.00  0.00    -0.003 C 
ATOM     14  C   UNL     1     144.051 140.768 114.020  1.00  0.00     0.004 C 
ENDBRANCH  12  13
ENDBRANCH  11  12
ENDBRANCH  10  11
ENDBRANCH   9  10
ENDBRANCH   1   9
TORSDOF 10
ENDMDL
MODEL 4
REMARK VINA RESULT:    -4.701      7.707      9.399
REMARK INTER + INTRA:          -8.800
REMARK INTER:                  -7.386
REMARK INTRA:                  -1.414
REMARK UNBOUND:                -1.352
REMARK SMILES CCCCCCCCCCCC(=O)[O-]
REMARK SMILES IDX 7 1 8 2 9 3 10 4 11 5 12 6 13 7 14 8 6 9 5 10 4 11 3 12 2 13
REMARK SMILES IDX 1 14
REMARK H PARENT
REMARK Flexibility Score: inf
ROOT
ATOM      1  C   UNL     1     142.912 141.088 114.833  1.00  0.00     0.000 C 
ENDROOT
BRANCH   1   2
ATOM      2  C   UNL     1     142.951 142.595 115.117  1.00  0.00     0.000 C 
BRANCH   2   3
ATOM      3  C   UNL     1     141.882 143.337 114.306  1.00  0.00     0.000 C 
BRANCH   3   4
ATOM      4  C   UNL     1     140.514 142.653 114.443  1.00  0.00     0.006 C 
BRANCH   4   5
ATOM      5  C   UNL     1     139.794 143.047 115.738  1.00  0.00     0.053 C 
BRANCH   5   6
ATOM      6  C   UNL     1     139.877 141.965 116.771  1.00  0.00     0.041 C 
ATOM      7  O   UNL     1     139.395 140.826 116.537  1.00  0.00    -0.550 OA
ATOM      8  O   UNL     1     140.517 142.207 117.980  1.00  0.00    -0.550 OA
ENDBRANCH   5   6
ENDBRANCH   4   5
ENDBRANCH   3   4
ENDBRANCH   2   3
ENDBRANCH   1   2
BRANCH   1   9
ATOM      9  C   UNL     1     143.959 140.697 113.785  1.00  0.00     0.000 C 
BRANCH   9  10
ATOM     10  C   UNL     1     143.310 139.947 112.611  1.00  0.00    -0.000 C 
BRANCH  10  11
ATOM     11  C   UNL     1     142.601 140.890 111.627  1.00  0.00    -0.000 C 
BRANCH  11  12
ATOM     12  C   UNL     1     141.097 140.588 111.499  1.00  0.00    -0.000 C 
BRANCH  12  13
ATOM     13  C   UNL     1     140.719 139.223 112.097  1.00  0.00    -0.003 C 
ATOM     14  C   UNL     1     139.664 139.333 113.197  1.00  0.00     0.004 C 
ENDBRANCH  12  13
ENDBRANCH  11  12
ENDBRANCH  10  11
ENDBRANCH   9  10
ENDBRANCH   1   9
TORSDOF 10
ENDMDL
MODEL 5
REMARK VINA RESULT:    -4.654      1.367      2.739
REMARK INTER + INTRA:          -8.727
REMARK INTER:                  -7.407
REMARK INTRA:                  -1.320
REMARK UNBOUND:                -1.352
REMARK SMILES CCCCCCCCCCCC(=O)[O-]
REMARK SMILES IDX 7 1 8 2 9 3 10 4 11 5 12 6 13 7 14 8 6 9 5 10 4 11 3 12 2 13
REMARK SMILES IDX 1 14
REMARK H PARENT
REMARK Flexibility Score: inf
ROOT
ATOM      1  C   UNL     1     136.081 136.301 112.891  1.00  0.00     0.000 C 
ENDROOT
BRANCH   1   2
ATOM      2  C   UNL     1     137.409 136.951 113.301  1.00  0.00     0.000 C 
BRANCH   2   3
ATOM      3  C   UNL     1     137.585 136.933 114.824  1.00  0.00     0.000 C 
BRANCH   3   4
ATOM      4  C   UNL     1     136.988 135.656 115.432  1.00  0.00     0.006 C 
BRANCH   4   5
ATOM      5  C   UNL     1     136.037 135.956 116.596  1.00  0.00     0.053 C 
BRANCH   5   6
ATOM      6  C   UNL     1     136.277 135.041 117.759  1.00  0.00     0.041 C 
ATOM      7  O   UNL     1     135.577 134.005 117.906  1.00  0.00    -0.550 OA
ATOM      8  O   UNL     1     137.297 135.317 118.660  1.00  0.00    -0.550 OA
ENDBRANCH   5   6
ENDBRANCH   4   5
ENDBRANCH   3   4
ENDBRANCH   2   3
ENDBRANCH   1   2
BRANCH   1   9
ATOM      9  C   UNL     1     134.914 137.283 113.053  1.00  0.00     0.000 C 
BRANCH   9  10
ATOM     10  C   UNL     1     133.596 136.652 112.580  1.00  0.00    -0.000 C 
BRANCH  10  11
ATOM     11  C   UNL     1     133.469 135.175 112.983  1.00  0.00    -0.000 C 
BRANCH  11  12
ATOM     12  C   UNL     1     132.988 134.998 114.434  1.00  0.00    -0.000 C 
BRANCH  12  13
ATOM     13  C   UNL     1     133.582 133.747 115.101  1.00  0.00    -0.003 C 
ATOM     14  C   UNL     1     134.698 133.111 114.274  1.00  0.00     0.004 C 
ENDBRANCH  12  13
ENDBRANCH  11  12
ENDBRANCH  10  11
ENDBRANCH   9  10
ENDBRANCH   1   9
TORSDOF 10
ENDMDL
MODEL 6
REMARK VINA RESULT:    -4.639      7.307      9.210
REMARK INTER + INTRA:          -8.702
REMARK INTER:                  -7.100
REMARK INTRA:                  -1.602
REMARK UNBOUND:                -1.352
REMARK SMILES CCCCCCCCCCCC(=O)[O-]
REMARK SMILES IDX 7 1 8 2 9 3 10 4 11 5 12 6 13 7 14 8 6 9 5 10 4 11 3 12 2 13
REMARK SMILES IDX 1 14
REMARK H PARENT
REMARK Flexibility Score: inf
ROOT
ATOM      1  C   UNL     1     141.507 143.478 114.279  1.00  0.00     0.000 C 
ENDROOT
BRANCH   1   2
ATOM      2  C   UNL     1     140.202 142.696 114.479  1.00  0.00     0.000 C 
BRANCH   2   3
ATOM      3  C   UNL     1     139.814 142.641 115.962  1.00  0.00     0.000 C 
BRANCH   3   4
ATOM      4  C   UNL     1     139.752 141.190 116.461  1.00  0.00     0.006 C 
BRANCH   4   5
ATOM      5  C   UNL     1     141.049 140.757 117.155  1.00  0.00     0.053 C 
BRANCH   5   6
ATOM      6  C   UNL     1     140.904 140.748 118.646  1.00  0.00     0.041 C 
ATOM      7  O   UNL     1     139.796 141.018 119.178  1.00  0.00    -0.550 OA
ATOM      8  O   UNL     1     141.987 140.407 119.446  1.00  0.00    -0.550 OA
ENDBRANCH   5   6
ENDBRANCH   4   5
ENDBRANCH   3   4
ENDBRANCH   2   3
ENDBRANCH   1   2
BRANCH   1   9
ATOM      9  C   UNL     1     142.555 142.624 113.555  1.00  0.00     0.000 C 
BRANCH   9  10
ATOM     10  C   UNL     1     143.393 141.815 114.557  1.00  0.00    -0.000 C 
BRANCH  10  11
ATOM     11  C   UNL     1     143.371 140.307 114.263  1.00  0.00    -0.000 C 
BRANCH  11  12
ATOM     12  C   UNL     1     142.369 139.935 113.155  1.00  0.00    -0.000 C 
BRANCH  12  13
ATOM     13  C   UNL     1     141.182 139.117 113.687  1.00  0.00    -0.003 C 
ATOM     14  C   UNL     1     139.870 139.452 112.980  1.00  0.00     0.004 C 
ENDBRANCH  12  13
ENDBRANCH  11  12
ENDBRANCH  10  11
ENDBRANCH   9  10
ENDBRANCH   1   9
TORSDOF 10
ENDMDL
MODEL 7
REMARK VINA RESULT:    -4.620      1.351      2.343
REMARK INTER + INTRA:          -8.672
REMARK INTER:                  -7.055
REMARK INTRA:                  -1.617
REMARK UNBOUND:                -1.352
REMARK SMILES CCCCCCCCCCCC(=O)[O-]
REMARK SMILES IDX 7 1 8 2 9 3 10 4 11 5 12 6 13 7 14 8 6 9 5 10 4 11 3 12 2 13
REMARK SMILES IDX 1 14
REMARK H PARENT
REMARK Flexibility Score: inf
ROOT
ATOM      1  C   UNL     1     134.165 133.917 113.411  1.00  0.00     0.000 C 
ENDROOT
BRANCH   1   2
ATOM      2  C   UNL     1     134.777 133.151 114.591  1.00  0.00     0.000 C 
BRANCH   2   3
ATOM      3  C   UNL     1     136.285 133.408 114.693  1.00  0.00     0.000 C 
BRANCH   3   4
ATOM      4  C   UNL     1     136.638 134.095 116.020  1.00  0.00     0.006 C 
BRANCH   4   5
ATOM      5  C   UNL     1     135.394 134.429 116.851  1.00  0.00     0.053 C 
BRANCH   5   6
ATOM      6  C   UNL     1     135.549 135.727 117.585  1.00  0.00     0.041 C 
ATOM      7  O   UNL     1     134.583 136.530 117.664  1.00  0.00    -0.550 OA
ATOM      8  O   UNL     1     136.751 136.031 118.210  1.00  0.00    -0.550 OA
ENDBRANCH   5   6
ENDBRANCH   4   5
ENDBRANCH   3   4
ENDBRANCH   2   3
ENDBRANCH   1   2
BRANCH   1   9
ATOM      9  C   UNL     1     132.878 134.636 113.829  1.00  0.00     0.000 C 
BRANCH   9  10
ATOM     10  C   UNL     1     133.165 136.094 114.221  1.00  0.00    -0.000 C 
BRANCH  10  11
ATOM     11  C   UNL     1     134.274 136.728 113.368  1.00  0.00    -0.000 C 
BRANCH  11  12
ATOM     12  C   UNL     1     135.450 137.244 114.216  1.00  0.00    -0.000 C 
BRANCH  12  13
ATOM     13  C   UNL     1     136.807 137.051 113.520  1.00  0.00    -0.003 C 
ATOM     14  C   UNL     1     137.989 137.228 114.472  1.00  0.00     0.004 C 
ENDBRANCH  12  13
ENDBRANCH  11  12
ENDBRANCH  10  11
ENDBRANCH   9  10
ENDBRANCH   1   9
TORSDOF 10
ENDMDL
MODEL 8
REMARK VINA RESULT:    -4.563      7.273      9.359
REMARK INTER + INTRA:          -8.582
REMARK INTER:                  -7.071
REMARK INTRA:                  -1.511
REMARK UNBOUND:                -1.352
REMARK SMILES CCCCCCCCCCCC(=O)[O-]
REMARK SMILES IDX 7 1 8 2 9 3 10 4 11 5 12 6 13 7 14 8 6 9 5 10 4 11 3 12 2 13
REMARK SMILES IDX 1 14
REMARK H PARENT
REMARK Flexibility Score: inf
ROOT
ATOM      1  C   UNL     1     141.860 143.424 114.708  1.00  0.00     0.000 C 
ENDROOT
BRANCH   1   2
ATOM      2  C   UNL     1     142.670 142.459 113.832  1.00  0.00     0.000 C 
BRANCH   2   3
ATOM      3  C   UNL     1     142.951 141.147 114.573  1.00  0.00     0.000 C 
BRANCH   3   4
ATOM      4  C   UNL     1     142.240 139.968 113.892  1.00  0.00     0.006 C 
BRANCH   4   5
ATOM      5  C   UNL     1     141.031 139.475 114.697  1.00  0.00     0.053 C 
BRANCH   5   6
ATOM      6  C   UNL     1     139.740 139.770 113.995  1.00  0.00     0.041 C 
ATOM      7  O   UNL     1     139.745 140.200 112.812  1.00  0.00    -0.550 OA
ATOM      8  O   UNL     1     138.532 139.536 114.638  1.00  0.00    -0.550 OA
ENDBRANCH   5   6
ENDBRANCH   4   5
ENDBRANCH   3   4
ENDBRANCH   2   3
ENDBRANCH   1   2
BRANCH   1   9
ATOM      9  C   UNL     1     140.362 143.326 114.395  1.00  0.00     0.000 C 
BRANCH   9  10
ATOM     10  C   UNL     1     139.546 143.101 115.677  1.00  0.00    -0.000 C 
BRANCH  10  11
ATOM     11  C   UNL     1     140.351 142.387 116.773  1.00  0.00    -0.000 C 
BRANCH  11  12
ATOM     12  C   UNL     1     139.501 141.382 117.571  1.00  0.00    -0.000 C 
BRANCH  12  13
ATOM     13  C   UNL     1     140.290 140.721 118.713  1.00  0.00    -0.003 C 
ATOM     14  C   UNL     1     141.689 140.279 118.286  1.00  0.00     0.004 C 
ENDBRANCH  12  13
ENDBRANCH  11  12
ENDBRANCH  10  11
ENDBRANCH   9  10
ENDBRANCH   1   9
TORSDOF 10
ENDMDL
MODEL 9
REMARK VINA RESULT:    -4.547      2.786      5.343
REMARK INTER + INTRA:          -8.557
REMARK INTER:                  -7.276
REMARK INTRA:                  -1.281
REMARK UNBOUND:                -1.352
REMARK SMILES CCCCCCCCCCCC(=O)[O-]
REMARK SMILES IDX 7 1 8 2 9 3 10 4 11 5 12 6 13 7 14 8 6 9 5 10 4 11 3 12 2 13
REMARK SMILES IDX 1 14
REMARK H PARENT
REMARK Flexibility Score: inf
ROOT
ATOM      1  C   UNL     1     133.668 133.860 115.251  1.00  0.00     0.000 C 
ENDROOT
BRANCH   1   2
ATOM      2  C   UNL     1     133.500 135.357 114.957  1.00  0.00     0.000 C 
BRANCH   2   3
ATOM      3  C   UNL     1     132.482 135.587 113.834  1.00  0.00     0.000 C 
BRANCH   3   4
ATOM      4  C   UNL     1     133.102 136.395 112.685  1.00  0.00     0.006 C 
BRANCH   4   5
ATOM      5  C   UNL     1     133.765 135.497 111.634  1.00  0.00     0.053 C 
BRANCH   5   6
ATOM      6  C   UNL     1     135.254 135.666 111.619  1.00  0.00     0.041 C 
ATOM      7  O   UNL     1     135.787 136.653 112.190  1.00  0.00    -0.550 OA
ATOM      8  O   UNL     1     136.054 134.714 111.000  1.00  0.00    -0.550 OA
ENDBRANCH   5   6
ENDBRANCH   4   5
ENDBRANCH   3   4
ENDBRANCH   2   3
ENDBRANCH   1   2
BRANCH   1   9
ATOM      9  C   UNL     1     134.791 133.255 114.401  1.00  0.00     0.000 C 
BRANCH   9  10
ATOM     10  C   UNL     1     136.140 133.918 114.719  1.00  0.00    -0.000 C 
BRANCH  10  11
ATOM     11  C   UNL     1     136.604 133.654 116.160  1.00  0.00    -0.000 C 
BRANCH  11  12
ATOM     12  C   UNL     1     136.819 134.953 116.958  1.00  0.00    -0.000 C 
BRANCH  12  13
ATOM     13  C   UNL     1     136.096 134.936 118.314  1.00  0.00    -0.003 C 
ATOM     14  C   UNL     1     134.968 135.963 118.395  1.00  0.00     0.004 C 
ENDBRANCH  12  13
ENDBRANCH  11  12
ENDBRANCH  10  11
ENDBRANCH   9  10
ENDBRANCH   1   9
TORSDOF 10
ENDMDL
