MODEL 1
REMARK VINA RESULT:    -8.138      0.000      0.000
REMARK INTER + INTRA:         -12.451
REMARK INTER:                 -10.754
REMARK INTRA:                  -1.697
REMARK UNBOUND:                -1.697
REMARK SMILES CC[C@H](C=C[C@@H](C)[C@H]1CC[C@H]2C3=CC[C@@H]4C[C@@H](O)CC[C@]4(C)[C@@H]3CC[C@@]12C)C(C)C
REMARK SMILES IDX 6 1 7 2 5 3 4 4 3 5 2 6 1 7 28 8 29 9 30 10 8 11 9 12 26 13
REMARK SMILES IDX 10 14 11 15 25 16 27 17 12 18 24 19 23 20 13 21 21 22 14 23
REMARK SMILES IDX 15 24 20 25 22 26 16 27 19 28 17 29 18 30
REMARK H PARENT 18 31
REMARK Flexibility Score: inf
ROOT
ATOM      1  C   UNL     1     131.062 131.671 138.109  1.00  0.00     0.012 C 
ATOM      2  C   UNL     1     130.672 132.956 138.859  1.00  0.00     0.012 C 
ENDROOT
BRANCH   1   3
ATOM      3  C   UNL     1     131.138 131.988 136.625  1.00  0.00    -0.028 C 
ATOM      4  C   UNL     1     132.257 131.926 135.875  1.00  0.00    -0.027 C 
BRANCH   4   5
ATOM      5  C   UNL     1     133.629 131.493 136.382  1.00  0.00     0.014 C 
BRANCH   5   6
ATOM      6  C   UNL     1     134.017 130.049 135.931  1.00  0.00     0.004 C 
ATOM      7  C   UNL     1     133.883 128.966 137.010  1.00  0.00     0.004 C 
ENDBRANCH   5   6
BRANCH   5   8
ATOM      8  C   UNL     1     134.704 132.581 136.058  1.00  0.00    -0.011 C 
ATOM      9  C   UNL     1     136.104 132.264 136.608  1.00  0.00     0.008 C 
ATOM     10  C   UNL     1     134.263 133.980 136.521  1.00  0.00     0.008 C 
ENDBRANCH   5   8
ENDBRANCH   4   5
ENDBRANCH   1   3
BRANCH   1  11
ATOM     11  C   UNL     1     130.060 130.494 138.362  1.00  0.00     0.002 C 
ATOM     12  C   UNL     1     130.176 129.406 137.276  1.00  0.00     0.005 C 
ATOM     13  C   UNL     1     130.178 129.709 139.708  1.00  0.00    -0.023 C 
ATOM     14  C   UNL     1     129.715 128.090 137.893  1.00  0.00     0.009 C 
ATOM     15  C   UNL     1     129.437 128.387 139.367  1.00  0.00     0.021 C 
ATOM     16  C   UNL     1     131.678 129.458 140.107  1.00  0.00     0.008 C 
ATOM     17  C   UNL     1     129.435 130.420 140.866  1.00  0.00     0.012 C 
ATOM     18  C   UNL     1     129.823 127.264 140.313  1.00  0.00    -0.067 C 
ATOM     19  C   UNL     1     131.898 128.295 141.099  1.00  0.00     0.009 C 
ATOM     20  C   UNL     1     131.299 127.002 140.521  1.00  0.00     0.021 C 
ATOM     21  C   UNL     1     128.933 126.860 141.235  1.00  0.00    -0.027 C 
ATOM     22  C   UNL     1     131.575 125.634 141.274  1.00  0.00    -0.023 C 
ATOM     23  C   UNL     1     129.394 126.346 142.562  1.00  0.00     0.031 C 
ATOM     24  C   UNL     1     130.546 125.329 142.444  1.00  0.00     0.002 C 
ATOM     25  C   UNL     1     133.066 125.518 141.749  1.00  0.00     0.010 C 
ATOM     26  C   UNL     1     131.385 124.517 140.201  1.00  0.00     0.012 C 
ATOM     27  C   UNL     1     131.215 125.110 143.818  1.00  0.00     0.036 C 
ATOM     28  C   UNL     1     133.418 126.161 143.111  1.00  0.00     0.032 C 
ATOM     29  C   UNL     1     132.255 126.196 144.118  1.00  0.00     0.114 C 
BRANCH  29  30
ATOM     30  O   UNL     1     132.735 126.076 145.435  1.00  0.00    -0.393 OA
ATOM     31  H   UNL     1     132.256 126.745 145.995  1.00  0.00     0.210 HD
ENDBRANCH  29  30
ENDBRANCH   1  11
TORSDOF 6
ENDMDL
MODEL 2
REMARK VINA RESULT:    -7.979      3.140      5.345
REMARK INTER + INTRA:         -12.241
REMARK INTER:                 -10.141
REMARK INTRA:                  -2.100
REMARK UNBOUND:                -1.697
REMARK SMILES CC[C@H](C=C[C@@H](C)[C@H]1CC[C@H]2C3=CC[C@@H]4C[C@@H](O)CC[C@]4(C)[C@@H]3CC[C@@]12C)C(C)C
REMARK SMILES IDX 6 1 7 2 5 3 4 4 3 5 2 6 1 7 28 8 29 9 30 10 8 11 9 12 26 13
REMARK SMILES IDX 10 14 11 15 25 16 27 17 12 18 24 19 23 20 13 21 21 22 14 23
REMARK SMILES IDX 15 24 20 25 22 26 16 27 19 28 17 29 18 30
REMARK H PARENT 18 31
REMARK Flexibility Score: inf
ROOT
ATOM      1  C   UNL     1     133.702 131.992 136.860  1.00  0.00     0.012 C 
ATOM      2  C   UNL     1     134.909 132.703 136.226  1.00  0.00     0.012 C 
ENDROOT
BRANCH   1   3
ATOM      3  C   UNL     1     133.187 130.955 135.875  1.00  0.00    -0.028 C 
ATOM      4  C   UNL     1     133.129 129.628 136.107  1.00  0.00    -0.027 C 
BRANCH   4   5
ATOM      5  C   UNL     1     133.537 128.946 137.409  1.00  0.00     0.014 C 
BRANCH   5   6
ATOM      6  C   UNL     1     132.396 128.072 138.021  1.00  0.00     0.004 C 
ATOM      7  C   UNL     1     130.970 128.555 137.728  1.00  0.00     0.004 C 
ENDBRANCH   5   6
BRANCH   5   8
ATOM      8  C   UNL     1     134.900 128.200 137.237  1.00  0.00    -0.011 C 
ATOM      9  C   UNL     1     136.135 129.100 137.402  1.00  0.00     0.008 C 
ATOM     10  C   UNL     1     134.976 127.446 135.898  1.00  0.00     0.008 C 
ENDBRANCH   5   8
ENDBRANCH   4   5
ENDBRANCH   1   3
BRANCH   1  11
ATOM     11  C   UNL     1     132.554 132.982 137.255  1.00  0.00     0.002 C 
ATOM     12  C   UNL     1     131.241 132.651 136.519  1.00  0.00     0.005 C 
ATOM     13  C   UNL     1     132.143 133.063 138.760  1.00  0.00    -0.023 C 
ATOM     14  C   UNL     1     130.090 133.163 137.380  1.00  0.00     0.009 C 
ATOM     15  C   UNL     1     130.725 133.692 138.665  1.00  0.00     0.021 C 
ATOM     16  C   UNL     1     132.113 131.641 139.433  1.00  0.00     0.008 C 
ATOM     17  C   UNL     1     133.064 134.010 139.567  1.00  0.00     0.012 C 
ATOM     18  C   UNL     1     129.908 133.430 139.918  1.00  0.00    -0.067 C 
ATOM     19  C   UNL     1     131.256 131.550 140.714  1.00  0.00     0.009 C 
ATOM     20  C   UNL     1     129.818 132.001 140.408  1.00  0.00     0.021 C 
ATOM     21  C   UNL     1     129.683 134.447 140.768  1.00  0.00    -0.027 C 
ATOM     22  C   UNL     1     128.707 131.808 141.523  1.00  0.00    -0.023 C 
ATOM     23  C   UNL     1     129.554 134.195 142.236  1.00  0.00     0.031 C 
ATOM     24  C   UNL     1     128.628 133.006 142.562  1.00  0.00     0.002 C 
ATOM     25  C   UNL     1     128.826 130.413 142.232  1.00  0.00     0.010 C 
ATOM     26  C   UNL     1     127.346 131.779 140.761  1.00  0.00     0.012 C 
ATOM     27  C   UNL     1     128.812 132.566 144.031  1.00  0.00     0.036 C 
ATOM     28  C   UNL     1     129.815 130.313 143.417  1.00  0.00     0.032 C 
ATOM     29  C   UNL     1     130.013 131.628 144.192  1.00  0.00     0.114 C 
BRANCH  29  30
ATOM     30  O   UNL     1     130.264 131.369 145.552  1.00  0.00    -0.393 OA
ATOM     31  H   UNL     1     131.196 131.029 145.630  1.00  0.00     0.210 HD
ENDBRANCH  29  30
ENDBRANCH   1  11
TORSDOF 6
ENDMDL
MODEL 3
REMARK VINA RESULT:    -7.934      3.676      6.861
REMARK INTER + INTRA:         -12.182
REMARK INTER:                 -10.719
REMARK INTRA:                  -1.464
REMARK UNBOUND:                -1.697
REMARK SMILES CC[C@H](C=C[C@@H](C)[C@H]1CC[C@H]2C3=CC[C@@H]4C[C@@H](O)CC[C@]4(C)[C@@H]3CC[C@@]12C)C(C)C
REMARK SMILES IDX 6 1 7 2 5 3 4 4 3 5 2 6 1 7 28 8 29 9 30 10 8 11 9 12 26 13
REMARK SMILES IDX 10 14 11 15 25 16 27 17 12 18 24 19 23 20 13 21 21 22 14 23
REMARK SMILES IDX 15 24 20 25 22 26 16 27 19 28 17 29 18 30
REMARK H PARENT 18 31
REMARK Flexibility Score: inf
ROOT
ATOM      1  C   UNL     1     134.661 131.545 136.855  1.00  0.00     0.012 C 
ATOM      2  C   UNL     1     136.152 131.702 136.512  1.00  0.00     0.012 C 
ENDROOT
BRANCH   1   3
ATOM      3  C   UNL     1     134.047 130.559 135.877  1.00  0.00    -0.028 C 
ATOM      4  C   UNL     1     133.891 129.238 136.102  1.00  0.00    -0.027 C 
BRANCH   4   5
ATOM      5  C   UNL     1     134.273 128.518 137.391  1.00  0.00     0.014 C 
BRANCH   5   6
ATOM      6  C   UNL     1     133.200 128.672 138.516  1.00  0.00     0.004 C 
ATOM      7  C   UNL     1     131.746 128.481 138.066  1.00  0.00     0.004 C 
ENDBRANCH   5   6
BRANCH   5   8
ATOM      8  C   UNL     1     134.689 127.040 137.095  1.00  0.00    -0.011 C 
ATOM      9  C   UNL     1     135.997 126.902 136.299  1.00  0.00     0.008 C 
ATOM     10  C   UNL     1     133.565 126.257 136.394  1.00  0.00     0.008 C 
ENDBRANCH   5   8
ENDBRANCH   4   5
ENDBRANCH   1   3
BRANCH   1  11
ATOM     11  C   UNL     1     133.884 132.904 136.815  1.00  0.00     0.002 C 
ATOM     12  C   UNL     1     132.664 132.834 135.875  1.00  0.00     0.005 C 
ATOM     13  C   UNL     1     133.305 133.457 138.156  1.00  0.00    -0.023 C 
ATOM     14  C   UNL     1     131.648 133.862 136.362  1.00  0.00     0.009 C 
ATOM     15  C   UNL     1     132.227 134.453 137.648  1.00  0.00     0.021 C 
ATOM     16  C   UNL     1     132.682 132.312 139.037  1.00  0.00     0.008 C 
ATOM     17  C   UNL     1     134.365 134.235 138.974  1.00  0.00     0.012 C 
ATOM     18  C   UNL     1     131.190 134.756 138.716  1.00  0.00    -0.067 C 
ATOM     19  C   UNL     1     131.664 132.792 140.095  1.00  0.00     0.009 C 
ATOM     20  C   UNL     1     130.536 133.580 139.408  1.00  0.00     0.021 C 
ATOM     21  C   UNL     1     131.208 135.961 139.310  1.00  0.00    -0.027 C 
ATOM     22  C   UNL     1     129.274 134.005 140.268  1.00  0.00    -0.023 C 
ATOM     23  C   UNL     1     130.780 136.111 140.736  1.00  0.00     0.031 C 
ATOM     24  C   UNL     1     129.461 135.376 141.046  1.00  0.00     0.002 C 
ATOM     25  C   UNL     1     128.792 132.847 141.212  1.00  0.00     0.010 C 
ATOM     26  C   UNL     1     128.119 134.221 139.241  1.00  0.00     0.012 C 
ATOM     27  C   UNL     1     129.257 135.257 142.573  1.00  0.00     0.036 C 
ATOM     28  C   UNL     1     129.494 132.726 142.585  1.00  0.00     0.032 C 
ATOM     29  C   UNL     1     130.018 134.058 143.150  1.00  0.00     0.114 C 
BRANCH  29  30
ATOM     30  O   UNL     1     129.956 134.059 144.556  1.00  0.00    -0.393 OA
ATOM     31  H   UNL     1     130.612 134.727 144.889  1.00  0.00     0.210 HD
ENDBRANCH  29  30
ENDBRANCH   1  11
TORSDOF 6
ENDMDL
MODEL 4
REMARK VINA RESULT:    -7.787      3.171      6.830
REMARK INTER + INTRA:         -11.987
REMARK INTER:                 -10.406
REMARK INTRA:                  -1.581
REMARK UNBOUND:                -1.697
REMARK SMILES CC[C@H](C=C[C@@H](C)[C@H]1CC[C@H]2C3=CC[C@@H]4C[C@@H](O)CC[C@]4(C)[C@@H]3CC[C@@]12C)C(C)C
REMARK SMILES IDX 6 1 7 2 5 3 4 4 3 5 2 6 1 7 28 8 29 9 30 10 8 11 9 12 26 13
REMARK SMILES IDX 10 14 11 15 25 16 27 17 12 18 24 19 23 20 13 21 21 22 14 23
REMARK SMILES IDX 15 24 20 25 22 26 16 27 19 28 17 29 18 30
REMARK H PARENT 18 31
REMARK Flexibility Score: inf
ROOT
ATOM      1  C   UNL     1     133.504 129.175 136.620  1.00  0.00     0.012 C 
ATOM      2  C   UNL     1     134.863 129.835 136.336  1.00  0.00     0.012 C 
ENDROOT
BRANCH   1   3
ATOM      3  C   UNL     1     133.451 127.852 135.875  1.00  0.00    -0.028 C 
ATOM      4  C   UNL     1     133.446 126.635 136.456  1.00  0.00    -0.027 C 
BRANCH   4   5
ATOM      5  C   UNL     1     133.458 126.381 137.960  1.00  0.00     0.014 C 
BRANCH   5   6
ATOM      6  C   UNL     1     132.029 126.409 138.593  1.00  0.00     0.004 C 
ATOM      7  C   UNL     1     131.744 127.600 139.516  1.00  0.00     0.004 C 
ENDBRANCH   5   6
BRANCH   5   8
ATOM      8  C   UNL     1     134.288 125.100 138.296  1.00  0.00    -0.011 C 
ATOM      9  C   UNL     1     134.213 124.671 139.771  1.00  0.00     0.008 C 
ATOM     10  C   UNL     1     135.758 125.239 137.865  1.00  0.00     0.008 C 
ENDBRANCH   5   8
ENDBRANCH   4   5
ENDBRANCH   1   3
BRANCH   1  11
ATOM     11  C   UNL     1     132.294 130.079 136.207  1.00  0.00     0.002 C 
ATOM     12  C   UNL     1     130.959 129.311 136.282  1.00  0.00     0.005 C 
ATOM     13  C   UNL     1     132.036 131.380 137.033  1.00  0.00    -0.023 C 
ATOM     14  C   UNL     1     129.853 130.334 136.518  1.00  0.00     0.009 C 
ATOM     15  C   UNL     1     130.551 131.682 136.690  1.00  0.00     0.021 C 
ATOM     16  C   UNL     1     132.249 131.144 138.573  1.00  0.00     0.008 C 
ATOM     17  C   UNL     1     132.916 132.560 136.553  1.00  0.00     0.012 C 
ATOM     18  C   UNL     1     129.908 132.591 137.722  1.00  0.00    -0.067 C 
ATOM     19  C   UNL     1     131.548 132.172 139.488  1.00  0.00     0.009 C 
ATOM     20  C   UNL     1     130.042 132.200 139.178  1.00  0.00     0.021 C 
ATOM     21  C   UNL     1     129.653 133.868 137.391  1.00  0.00    -0.027 C 
ATOM     22  C   UNL     1     129.087 133.039 140.125  1.00  0.00    -0.023 C 
ATOM     23  C   UNL     1     129.710 134.947 138.425  1.00  0.00     0.031 C 
ATOM     24  C   UNL     1     128.974 134.571 139.726  1.00  0.00     0.002 C 
ATOM     25  C   UNL     1     129.447 132.844 141.640  1.00  0.00     0.010 C 
ATOM     26  C   UNL     1     127.666 132.419 139.946  1.00  0.00     0.012 C 
ATOM     27  C   UNL     1     129.363 135.540 140.864  1.00  0.00     0.036 C 
ATOM     28  C   UNL     1     130.560 133.751 142.217  1.00  0.00     0.032 C 
ATOM     29  C   UNL     1     130.679 135.124 141.532  1.00  0.00     0.114 C 
BRANCH  29  30
ATOM     30  O   UNL     1     131.101 136.101 142.452  1.00  0.00    -0.393 OA
ATOM     31  H   UNL     1     130.368 136.237 143.110  1.00  0.00     0.210 HD
ENDBRANCH  29  30
ENDBRANCH   1  11
TORSDOF 6
ENDMDL
MODEL 5
REMARK VINA RESULT:    -7.769      2.693      7.686
REMARK INTER + INTRA:         -11.964
REMARK INTER:                  -9.797
REMARK INTRA:                  -2.167
REMARK UNBOUND:                -1.697
REMARK SMILES CC[C@H](C=C[C@@H](C)[C@H]1CC[C@H]2C3=CC[C@@H]4C[C@@H](O)CC[C@]4(C)[C@@H]3CC[C@@]12C)C(C)C
REMARK SMILES IDX 6 1 7 2 5 3 4 4 3 5 2 6 1 7 28 8 29 9 30 10 8 11 9 12 26 13
REMARK SMILES IDX 10 14 11 15 25 16 27 17 12 18 24 19 23 20 13 21 21 22 14 23
REMARK SMILES IDX 15 24 20 25 22 26 16 27 19 28 17 29 18 30
REMARK H PARENT 18 31
REMARK Flexibility Score: inf
ROOT
ATOM      1  C   UNL     1     131.324 127.497 138.728  1.00  0.00     0.012 C 
ATOM      2  C   UNL     1     132.165 126.237 138.468  1.00  0.00     0.012 C 
ENDROOT
BRANCH   1   3
ATOM      3  C   UNL     1     129.873 127.077 138.891  1.00  0.00    -0.028 C 
ATOM      4  C   UNL     1     129.045 127.513 139.862  1.00  0.00    -0.027 C 
BRANCH   4   5
ATOM      5  C   UNL     1     129.413 128.527 140.940  1.00  0.00     0.014 C 
BRANCH   5   6
ATOM      6  C   UNL     1     128.352 129.663 141.096  1.00  0.00     0.004 C 
ATOM      7  C   UNL     1     128.754 131.022 140.510  1.00  0.00     0.004 C 
ENDBRANCH   5   6
BRANCH   5   8
ATOM      8  C   UNL     1     129.784 127.802 142.275  1.00  0.00    -0.011 C 
ATOM      9  C   UNL     1     131.291 127.570 142.467  1.00  0.00     0.008 C 
ATOM     10  C   UNL     1     129.024 126.474 142.437  1.00  0.00     0.008 C 
ENDBRANCH   5   8
ENDBRANCH   4   5
ENDBRANCH   1   3
BRANCH   1  11
ATOM     11  C   UNL     1     131.456 128.560 137.586  1.00  0.00     0.002 C 
ATOM     12  C   UNL     1     130.080 129.097 137.147  1.00  0.00     0.005 C 
ATOM     13  C   UNL     1     132.297 129.844 137.874  1.00  0.00    -0.023 C 
ATOM     14  C   UNL     1     130.292 130.495 136.576  1.00  0.00     0.009 C 
ATOM     15  C   UNL     1     131.772 130.817 136.781  1.00  0.00     0.021 C 
ATOM     16  C   UNL     1     132.040 130.395 139.325  1.00  0.00     0.008 C 
ATOM     17  C   UNL     1     133.813 129.612 137.658  1.00  0.00     0.012 C 
ATOM     18  C   UNL     1     132.052 132.267 137.135  1.00  0.00    -0.067 C 
ATOM     19  C   UNL     1     132.402 131.883 139.526  1.00  0.00     0.009 C 
ATOM     20  C   UNL     1     131.634 132.744 138.509  1.00  0.00     0.021 C 
ATOM     21  C   UNL     1     133.008 132.925 136.458  1.00  0.00    -0.027 C 
ATOM     22  C   UNL     1     131.694 134.322 138.650  1.00  0.00    -0.023 C 
ATOM     23  C   UNL     1     133.814 133.993 137.126  1.00  0.00     0.031 C 
ATOM     24  C   UNL     1     132.948 134.981 137.933  1.00  0.00     0.002 C 
ATOM     25  C   UNL     1     131.556 134.782 140.145  1.00  0.00     0.010 C 
ATOM     26  C   UNL     1     130.422 134.859 137.924  1.00  0.00     0.012 C 
ATOM     27  C   UNL     1     133.832 135.825 138.877  1.00  0.00     0.036 C 
ATOM     28  C   UNL     1     132.850 134.810 140.991  1.00  0.00     0.032 C 
ATOM     29  C   UNL     1     134.132 135.080 140.183  1.00  0.00     0.114 C 
BRANCH  29  30
ATOM     30  O   UNL     1     135.067 135.790 140.958  1.00  0.00    -0.393 OA
ATOM     31  H   UNL     1     134.615 136.603 141.310  1.00  0.00     0.210 HD
ENDBRANCH  29  30
ENDBRANCH   1  11
TORSDOF 6
ENDMDL
MODEL 6
REMARK VINA RESULT:    -7.752      2.607      7.629
REMARK INTER + INTRA:         -11.941
REMARK INTER:                  -9.850
REMARK INTRA:                  -2.092
REMARK UNBOUND:                -1.697
REMARK SMILES CC[C@H](C=C[C@@H](C)[C@H]1CC[C@H]2C3=CC[C@@H]4C[C@@H](O)CC[C@]4(C)[C@@H]3CC[C@@]12C)C(C)C
REMARK SMILES IDX 6 1 7 2 5 3 4 4 3 5 2 6 1 7 28 8 29 9 30 10 8 11 9 12 26 13
REMARK SMILES IDX 10 14 11 15 25 16 27 17 12 18 24 19 23 20 13 21 21 22 14 23
REMARK SMILES IDX 15 24 20 25 22 26 16 27 19 28 17 29 18 30
REMARK H PARENT 18 31
REMARK Flexibility Score: inf
ROOT
ATOM      1  C   UNL     1     134.734 125.550 139.257  1.00  0.00     0.012 C 
ATOM      2  C   UNL     1     136.156 125.192 139.722  1.00  0.00     0.012 C 
ENDROOT
BRANCH   1   3
ATOM      3  C   UNL     1     133.941 124.262 139.112  1.00  0.00    -0.028 C 
ATOM      4  C   UNL     1     132.655 124.097 139.483  1.00  0.00    -0.027 C 
BRANCH   4   5
ATOM      5  C   UNL     1     131.768 125.186 140.079  1.00  0.00     0.014 C 
BRANCH   5   6
ATOM      6  C   UNL     1     130.463 125.426 139.254  1.00  0.00     0.004 C 
ATOM      7  C   UNL     1     130.130 126.896 138.967  1.00  0.00     0.004 C 
ENDBRANCH   5   6
BRANCH   5   8
ATOM      8  C   UNL     1     131.531 124.931 141.603  1.00  0.00    -0.011 C 
ATOM      9  C   UNL     1     130.098 124.495 141.952  1.00  0.00     0.008 C 
ATOM     10  C   UNL     1     131.931 126.147 142.457  1.00  0.00     0.008 C 
ENDBRANCH   5   8
ENDBRANCH   4   5
ENDBRANCH   1   3
BRANCH   1  11
ATOM     11  C   UNL     1     134.720 126.350 137.911  1.00  0.00     0.002 C 
ATOM     12  C   UNL     1     133.610 125.850 136.965  1.00  0.00     0.005 C 
ATOM     13  C   UNL     1     134.501 127.895 137.980  1.00  0.00    -0.023 C 
ATOM     14  C   UNL     1     133.232 127.009 136.048  1.00  0.00     0.009 C 
ATOM     15  C   UNL     1     134.041 128.213 136.531  1.00  0.00     0.021 C 
ATOM     16  C   UNL     1     133.408 128.281 139.044  1.00  0.00     0.008 C 
ATOM     17  C   UNL     1     135.815 128.659 138.272  1.00  0.00     0.012 C 
ATOM     18  C   UNL     1     133.298 129.535 136.452  1.00  0.00    -0.067 C 
ATOM     19  C   UNL     1     132.767 129.671 138.836  1.00  0.00     0.009 C 
ATOM     20  C   UNL     1     132.160 129.756 137.426  1.00  0.00     0.021 C 
ATOM     21  C   UNL     1     133.909 130.588 135.883  1.00  0.00    -0.027 C 
ATOM     22  C   UNL     1     131.277 131.018 137.054  1.00  0.00    -0.023 C 
ATOM     23  C   UNL     1     133.625 131.978 136.357  1.00  0.00     0.031 C 
ATOM     24  C   UNL     1     132.119 132.257 136.529  1.00  0.00     0.002 C 
ATOM     25  C   UNL     1     130.301 131.415 138.218  1.00  0.00     0.010 C 
ATOM     26  C   UNL     1     130.363 130.561 135.875  1.00  0.00     0.012 C 
ATOM     27  C   UNL     1     131.901 133.549 137.347  1.00  0.00     0.036 C 
ATOM     28  C   UNL     1     130.871 132.331 139.326  1.00  0.00     0.032 C 
ATOM     29  C   UNL     1     131.985 133.282 138.854  1.00  0.00     0.114 C 
BRANCH  29  30
ATOM     30  O   UNL     1     131.948 134.488 139.577  1.00  0.00    -0.393 OA
ATOM     31  H   UNL     1     131.933 134.262 140.545  1.00  0.00     0.210 HD
ENDBRANCH  29  30
ENDBRANCH   1  11
TORSDOF 6
ENDMDL
MODEL 7
REMARK VINA RESULT:    -7.706      2.897      4.480
REMARK INTER + INTRA:         -11.881
REMARK INTER:                 -10.426
REMARK INTRA:                  -1.455
REMARK UNBOUND:                -1.697
REMARK SMILES CC[C@H](C=C[C@@H](C)[C@H]1CC[C@H]2C3=CC[C@@H]4C[C@@H](O)CC[C@]4(C)[C@@H]3CC[C@@]12C)C(C)C
REMARK SMILES IDX 6 1 7 2 5 3 4 4 3 5 2 6 1 7 28 8 29 9 30 10 8 11 9 12 26 13
REMARK SMILES IDX 10 14 11 15 25 16 27 17 12 18 24 19 23 20 13 21 21 22 14 23
REMARK SMILES IDX 15 24 20 25 22 26 16 27 19 28 17 29 18 30
REMARK H PARENT 18 31
REMARK Flexibility Score: inf
ROOT
ATOM      1  C   UNL     1     128.720 131.536 141.758  1.00  0.00     0.012 C 
ATOM      2  C   UNL     1     128.824 132.548 142.910  1.00  0.00     0.012 C 
ENDROOT
BRANCH   1   3
ATOM      3  C   UNL     1     127.501 131.887 140.922  1.00  0.00    -0.028 C 
ATOM      4  C   UNL     1     127.500 132.727 139.867  1.00  0.00    -0.027 C 
BRANCH   4   5
ATOM      5  C   UNL     1     128.728 133.440 139.313  1.00  0.00     0.014 C 
BRANCH   5   6
ATOM      6  C   UNL     1     128.855 133.316 137.760  1.00  0.00     0.004 C 
ATOM      7  C   UNL     1     129.576 132.058 137.260  1.00  0.00     0.004 C 
ENDBRANCH   5   6
BRANCH   5   8
ATOM      8  C   UNL     1     128.805 134.906 139.851  1.00  0.00    -0.011 C 
ATOM      9  C   UNL     1     128.559 135.982 138.781  1.00  0.00     0.008 C 
ATOM     10  C   UNL     1     130.133 135.182 140.576  1.00  0.00     0.008 C 
ENDBRANCH   5   8
ENDBRANCH   4   5
ENDBRANCH   1   3
BRANCH   1  11
ATOM     11  C   UNL     1     128.627 130.055 142.259  1.00  0.00     0.002 C 
ATOM     12  C   UNL     1     127.590 129.247 141.453  1.00  0.00     0.005 C 
ATOM     13  C   UNL     1     129.920 129.181 142.206  1.00  0.00    -0.023 C 
ATOM     14  C   UNL     1     128.000 127.780 141.517  1.00  0.00     0.009 C 
ATOM     15  C   UNL     1     129.333 127.744 142.265  1.00  0.00     0.021 C 
ATOM     16  C   UNL     1     130.739 129.430 140.886  1.00  0.00     0.008 C 
ATOM     17  C   UNL     1     130.828 129.406 143.441  1.00  0.00     0.012 C 
ATOM     18  C   UNL     1     130.315 126.711 141.740  1.00  0.00    -0.067 C 
ATOM     19  C   UNL     1     131.713 128.294 140.506  1.00  0.00     0.009 C 
ATOM     20  C   UNL     1     130.943 126.969 140.387  1.00  0.00     0.021 C 
ATOM     21  C   UNL     1     130.918 125.889 142.615  1.00  0.00    -0.027 C 
ATOM     22  C   UNL     1     131.699 125.698 139.815  1.00  0.00    -0.023 C 
ATOM     23  C   UNL     1     132.304 125.391 142.357  1.00  0.00     0.031 C 
ATOM     24  C   UNL     1     132.500 124.881 140.916  1.00  0.00     0.002 C 
ATOM     25  C   UNL     1     132.592 126.058 138.575  1.00  0.00     0.010 C 
ATOM     26  C   UNL     1     130.583 124.752 139.272  1.00  0.00     0.012 C 
ATOM     27  C   UNL     1     134.004 124.723 140.600  1.00  0.00     0.036 C 
ATOM     28  C   UNL     1     134.017 126.584 138.868  1.00  0.00     0.032 C 
ATOM     29  C   UNL     1     134.633 126.055 140.175  1.00  0.00     0.114 C 
BRANCH  29  30
ATOM     30  O   UNL     1     136.029 125.930 140.050  1.00  0.00    -0.393 OA
ATOM     31  H   UNL     1     136.262 126.059 139.092  1.00  0.00     0.210 HD
ENDBRANCH  29  30
ENDBRANCH   1  11
TORSDOF 6
ENDMDL
MODEL 8
REMARK VINA RESULT:    -7.680      3.305      6.866
REMARK INTER + INTRA:         -11.846
REMARK INTER:                 -10.010
REMARK INTRA:                  -1.836
REMARK UNBOUND:                -1.697
REMARK SMILES CC[C@H](C=C[C@@H](C)[C@H]1CC[C@H]2C3=CC[C@@H]4C[C@@H](O)CC[C@]4(C)[C@@H]3CC[C@@]12C)C(C)C
REMARK SMILES IDX 6 1 7 2 5 3 4 4 3 5 2 6 1 7 28 8 29 9 30 10 8 11 9 12 26 13
REMARK SMILES IDX 10 14 11 15 25 16 27 17 12 18 24 19 23 20 13 21 21 22 14 23
REMARK SMILES IDX 15 24 20 25 22 26 16 27 19 28 17 29 18 30
REMARK H PARENT 18 31
REMARK Flexibility Score: inf
ROOT
ATOM      1  C   UNL     1     130.642 125.778 140.921  1.00  0.00     0.012 C 
ATOM      2  C   UNL     1     129.820 124.497 141.134  1.00  0.00     0.012 C 
ENDROOT
BRANCH   1   3
ATOM      3  C   UNL     1     132.112 125.437 141.100  1.00  0.00    -0.028 C 
ATOM      4  C   UNL     1     133.050 125.516 140.134  1.00  0.00    -0.027 C 
BRANCH   4   5
ATOM      5  C   UNL     1     132.800 125.994 138.707  1.00  0.00     0.014 C 
BRANCH   5   6
ATOM      6  C   UNL     1     132.952 127.540 138.548  1.00  0.00     0.004 C 
ATOM      7  C   UNL     1     133.876 128.218 139.568  1.00  0.00     0.004 C 
ENDBRANCH   5   6
BRANCH   5   8
ATOM      8  C   UNL     1     133.639 125.155 137.690  1.00  0.00    -0.011 C 
ATOM      9  C   UNL     1     135.009 124.705 138.224  1.00  0.00     0.008 C 
ATOM     10  C   UNL     1     133.816 125.888 136.348  1.00  0.00     0.008 C 
ENDBRANCH   5   8
ENDBRANCH   4   5
ENDBRANCH   1   3
BRANCH   1  11
ATOM     11  C   UNL     1     130.230 126.931 141.898  1.00  0.00     0.002 C 
ATOM     12  C   UNL     1     131.451 127.509 142.642  1.00  0.00     0.005 C 
ATOM     13  C   UNL     1     129.520 128.184 141.293  1.00  0.00    -0.023 C 
ATOM     14  C   UNL     1     131.118 128.948 143.021  1.00  0.00     0.009 C 
ATOM     15  C   UNL     1     129.752 129.245 142.404  1.00  0.00     0.021 C 
ATOM     16  C   UNL     1     130.162 128.614 139.923  1.00  0.00     0.008 C 
ATOM     17  C   UNL     1     127.997 127.963 141.115  1.00  0.00     0.012 C 
ATOM     18  C   UNL     1     129.602 130.660 141.872  1.00  0.00    -0.067 C 
ATOM     19  C   UNL     1     129.893 130.078 139.514  1.00  0.00     0.009 C 
ATOM     20  C   UNL     1     130.379 131.024 140.625  1.00  0.00     0.021 C 
ATOM     21  C   UNL     1     128.512 131.367 142.215  1.00  0.00    -0.027 C 
ATOM     22  C   UNL     1     130.386 132.584 140.346  1.00  0.00    -0.023 C 
ATOM     23  C   UNL     1     127.932 132.373 141.273  1.00  0.00     0.031 C 
ATOM     24  C   UNL     1     128.998 133.295 140.648  1.00  0.00     0.002 C 
ATOM     25  C   UNL     1     130.924 132.920 138.910  1.00  0.00     0.010 C 
ATOM     26  C   UNL     1     131.428 133.186 141.339  1.00  0.00     0.012 C 
ATOM     27  C   UNL     1     128.412 134.054 139.437  1.00  0.00     0.036 C 
ATOM     28  C   UNL     1     129.902 132.872 137.750  1.00  0.00     0.032 C 
ATOM     29  C   UNL     1     128.456 133.203 138.164  1.00  0.00     0.114 C 
BRANCH  29  30
ATOM     30  O   UNL     1     127.774 133.842 137.113  1.00  0.00    -0.393 OA
ATOM     31  H   UNL     1     127.999 133.366 136.269  1.00  0.00     0.210 HD
ENDBRANCH  29  30
ENDBRANCH   1  11
TORSDOF 6
ENDMDL
MODEL 9
REMARK VINA RESULT:    -7.521      2.312      3.795
REMARK INTER + INTRA:         -11.635
REMARK INTER:                  -9.544
REMARK INTRA:                  -2.092
REMARK UNBOUND:                -1.697
REMARK SMILES CC[C@H](C=C[C@@H](C)[C@H]1CC[C@H]2C3=CC[C@@H]4C[C@@H](O)CC[C@]4(C)[C@@H]3CC[C@@]12C)C(C)C
REMARK SMILES IDX 6 1 7 2 5 3 4 4 3 5 2 6 1 7 28 8 29 9 30 10 8 11 9 12 26 13
REMARK SMILES IDX 10 14 11 15 25 16 27 17 12 18 24 19 23 20 13 21 21 22 14 23
REMARK SMILES IDX 15 24 20 25 22 26 16 27 19 28 17 29 18 30
REMARK H PARENT 18 31
REMARK Flexibility Score: inf
ROOT
ATOM      1  C   UNL     1     129.663 134.399 141.420  1.00  0.00     0.012 C 
ATOM      2  C   UNL     1     129.721 135.424 142.565  1.00  0.00     0.012 C 
ENDROOT
BRANCH   1   3
ATOM      3  C   UNL     1     129.126 135.096 140.181  1.00  0.00    -0.028 C 
ATOM      4  C   UNL     1     129.749 135.139 138.986  1.00  0.00    -0.027 C 
BRANCH   4   5
ATOM      5  C   UNL     1     131.079 134.468 138.665  1.00  0.00     0.014 C 
BRANCH   5   6
ATOM      6  C   UNL     1     130.978 133.451 137.483  1.00  0.00     0.004 C 
ATOM      7  C   UNL     1     129.862 132.407 137.609  1.00  0.00     0.004 C 
ENDBRANCH   5   6
BRANCH   5   8
ATOM      8  C   UNL     1     132.211 135.534 138.503  1.00  0.00    -0.011 C 
ATOM      9  C   UNL     1     133.444 135.031 137.736  1.00  0.00     0.008 C 
ATOM     10  C   UNL     1     132.641 136.125 139.857  1.00  0.00     0.008 C 
ENDBRANCH   5   8
ENDBRANCH   4   5
ENDBRANCH   1   3
BRANCH   1  11
ATOM     11  C   UNL     1     128.780 133.153 141.768  1.00  0.00     0.002 C 
ATOM     12  C   UNL     1     127.806 132.811 140.623  1.00  0.00     0.005 C 
ATOM     13  C   UNL     1     129.506 131.804 142.073  1.00  0.00    -0.023 C 
ATOM     14  C   UNL     1     127.490 131.321 140.719  1.00  0.00     0.009 C 
ATOM     15  C   UNL     1     128.364 130.774 141.847  1.00  0.00     0.021 C 
ATOM     16  C   UNL     1     130.718 131.561 141.101  1.00  0.00     0.008 C 
ATOM     17  C   UNL     1     129.982 131.715 143.544  1.00  0.00     0.012 C 
ATOM     18  C   UNL     1     128.905 129.378 141.595  1.00  0.00    -0.067 C 
ATOM     19  C   UNL     1     131.163 130.088 140.977  1.00  0.00     0.009 C 
ATOM     20  C   UNL     1     129.972 129.223 140.532  1.00  0.00     0.021 C 
ATOM     21  C   UNL     1     128.780 128.452 142.561  1.00  0.00    -0.027 C 
ATOM     22  C   UNL     1     130.234 127.707 140.149  1.00  0.00    -0.023 C 
ATOM     23  C   UNL     1     129.812 127.382 142.726  1.00  0.00     0.031 C 
ATOM     24  C   UNL     1     130.207 126.719 141.392  1.00  0.00     0.002 C 
ATOM     25  C   UNL     1     131.533 127.538 139.284  1.00  0.00     0.010 C 
ATOM     26  C   UNL     1     129.050 127.297 139.219  1.00  0.00     0.012 C 
ATOM     27  C   UNL     1     131.505 125.899 141.561  1.00  0.00     0.036 C 
ATOM     28  C   UNL     1     132.872 127.417 140.048  1.00  0.00     0.032 C 
ATOM     29  C   UNL     1     132.750 126.785 141.446  1.00  0.00     0.114 C 
BRANCH  29  30
ATOM     30  O   UNL     1     133.911 126.056 141.764  1.00  0.00    -0.393 OA
ATOM     31  H   UNL     1     134.009 125.331 141.090  1.00  0.00     0.210 HD
ENDBRANCH  29  30
ENDBRANCH   1  11
TORSDOF 6
ENDMDL
