MODEL 1
REMARK VINA RESULT:    -6.535      0.000      0.000
REMARK INTER + INTRA:          -7.998
REMARK INTER:                  -7.681
REMARK INTRA:                  -0.317
REMARK UNBOUND:                -0.317
REMARK SMILES O=c1cc(-c2ccc(O)c(O)c2)oc2cc(O)cc(O)c12
REMARK SMILES IDX 4 1 3 2 2 3 1 4 21 5 19 6 18 7 16 8 15 9 14 10 13 11 5 12
REMARK SMILES IDX 6 13 7 14 8 15 12 16 10 17 9 18 11 20 20 22 17 24
REMARK H PARENT 9 19 11 21 20 23 17 25
REMARK Flexibility Score: inf
ROOT
ATOM      1  C   UNL     1       9.036  13.332 -19.009  1.00  0.00     0.138 A 
ATOM      2  C   UNL     1       9.491  12.051 -19.353  1.00  0.00     0.100 A 
ATOM      3  C   UNL     1       9.658  11.088 -18.358  1.00  0.00     0.197 A 
ATOM      4  O   UNL     1      10.126   9.968 -18.688  1.00  0.00    -0.289 OA
ATOM      5  C   UNL     1       9.336  11.400 -17.016  1.00  0.00     0.107 A 
ATOM      6  C   UNL     1       9.428  10.485 -15.925  1.00  0.00     0.134 A 
ATOM      7  C   UNL     1       9.194  10.941 -14.621  1.00  0.00     0.093 A 
ATOM      8  C   UNL     1       8.815  12.263 -14.376  1.00  0.00     0.123 A 
ATOM      9  C   UNL     1       8.671  13.150 -15.440  1.00  0.00     0.094 A 
ATOM     10  C   UNL     1       8.929  12.734 -16.749  1.00  0.00     0.146 A 
ATOM     11  O   UNL     1       8.794  13.616 -17.734  1.00  0.00    -0.456 OA
ENDROOT
BRANCH   1  12
ATOM     12  C   UNL     1       8.840  14.395 -20.028  1.00  0.00     0.021 A 
ATOM     13  C   UNL     1       8.894  14.116 -21.406  1.00  0.00     0.016 A 
ATOM     14  C   UNL     1       8.696  15.133 -22.340  1.00  0.00     0.051 A 
ATOM     15  C   UNL     1       8.433  16.443 -21.929  1.00  0.00     0.157 A 
ATOM     16  C   UNL     1       8.563  15.709 -19.614  1.00  0.00     0.062 A 
ATOM     17  C   UNL     1       8.363  16.735 -20.546  1.00  0.00     0.158 A 
BRANCH  15  18
ATOM     18  O   UNL     1       8.247  17.414 -22.915  1.00  0.00    -0.504 OA
ATOM     19  H   UNL     1       7.936  17.213 -23.854  1.00  0.00     0.293 HD
ENDBRANCH  15  18
BRANCH  17  20
ATOM     20  O   UNL     1       8.102  18.017 -20.059  1.00  0.00    -0.504 OA
ATOM     21  H   UNL     1       8.653  18.474 -19.346  1.00  0.00     0.293 HD
ENDBRANCH  17  20
ENDBRANCH   1  12
BRANCH   6  22
ATOM     22  O   UNL     1       9.717   9.125 -16.067  1.00  0.00    -0.507 OA
ATOM     23  H   UNL     1       9.044   8.417 -16.321  1.00  0.00     0.293 HD
ENDBRANCH   6  22
BRANCH   8  24
ATOM     24  O   UNL     1       8.570  12.704 -13.077  1.00  0.00    -0.508 OA
ATOM     25  H   UNL     1       8.208  12.079 -12.366  1.00  0.00     0.293 HD
ENDBRANCH   8  24
TORSDOF 5
ENDMDL
MODEL 2
REMARK VINA RESULT:    -6.457      2.003      7.272
REMARK INTER + INTRA:          -7.907
REMARK INTER:                  -7.644
REMARK INTRA:                  -0.263
REMARK UNBOUND:                -0.317
REMARK SMILES O=c1cc(-c2ccc(O)c(O)c2)oc2cc(O)cc(O)c12
REMARK SMILES IDX 4 1 3 2 2 3 1 4 21 5 19 6 18 7 16 8 15 9 14 10 13 11 5 12
REMARK SMILES IDX 6 13 7 14 8 15 12 16 10 17 9 18 11 20 20 22 17 24
REMARK H PARENT 9 19 11 21 20 23 17 25
REMARK Flexibility Score: inf
ROOT
ATOM      1  C   UNL     1       9.929  12.138 -16.998  1.00  0.00     0.138 A 
ATOM      2  C   UNL     1      10.766  13.183 -16.585  1.00  0.00     0.100 A 
ATOM      3  C   UNL     1      10.822  14.360 -17.334  1.00  0.00     0.197 A 
ATOM      4  O   UNL     1      11.628  15.255 -16.974  1.00  0.00    -0.289 OA
ATOM      5  C   UNL     1      10.009  14.500 -18.484  1.00  0.00     0.107 A 
ATOM      6  C   UNL     1       9.952  15.669 -19.301  1.00  0.00     0.134 A 
ATOM      7  C   UNL     1       9.198  15.650 -20.481  1.00  0.00     0.093 A 
ATOM      8  C   UNL     1       8.451  14.526 -20.842  1.00  0.00     0.123 A 
ATOM      9  C   UNL     1       8.458  13.399 -20.023  1.00  0.00     0.094 A 
ATOM     10  C   UNL     1       9.227  13.374 -18.857  1.00  0.00     0.146 A 
ATOM     11  O   UNL     1       9.217  12.274 -18.112  1.00  0.00    -0.456 OA
ENDROOT
BRANCH   1  12
ATOM     12  C   UNL     1       9.831  10.865 -16.238  1.00  0.00     0.021 A 
ATOM     13  C   UNL     1      10.681   9.776 -16.508  1.00  0.00     0.016 A 
ATOM     14  C   UNL     1      10.572   8.597 -15.771  1.00  0.00     0.051 A 
ATOM     15  C   UNL     1       9.627   8.475 -14.748  1.00  0.00     0.157 A 
ATOM     16  C   UNL     1       8.890  10.748 -15.201  1.00  0.00     0.062 A 
ATOM     17  C   UNL     1       8.775   9.567 -14.457  1.00  0.00     0.158 A 
BRANCH  15  18
ATOM     18  O   UNL     1       9.569   7.267 -14.050  1.00  0.00    -0.504 OA
ATOM     19  H   UNL     1       8.913   6.527 -14.254  1.00  0.00     0.293 HD
ENDBRANCH  15  18
BRANCH  17  20
ATOM     20  O   UNL     1       7.811   9.522 -13.449  1.00  0.00    -0.504 OA
ATOM     21  H   UNL     1       7.142  10.259 -13.273  1.00  0.00     0.293 HD
ENDBRANCH  17  20
ENDBRANCH   1  12
BRANCH   6  22
ATOM     22  O   UNL     1      10.591  16.872 -18.988  1.00  0.00    -0.507 OA
ATOM     23  H   UNL     1      11.563  16.960 -18.734  1.00  0.00     0.293 HD
ENDBRANCH   6  22
BRANCH   8  24
ATOM     24  O   UNL     1       7.692  14.521 -22.010  1.00  0.00    -0.508 OA
ATOM     25  H   UNL     1       7.432  13.655 -22.469  1.00  0.00     0.293 HD
ENDBRANCH   8  24
TORSDOF 5
ENDMDL
MODEL 3
REMARK VINA RESULT:    -6.367      1.957      7.000
REMARK INTER + INTRA:          -7.801
REMARK INTER:                  -7.538
REMARK INTRA:                  -0.263
REMARK UNBOUND:                -0.317
REMARK SMILES O=c1cc(-c2ccc(O)c(O)c2)oc2cc(O)cc(O)c12
REMARK SMILES IDX 4 1 3 2 2 3 1 4 21 5 19 6 18 7 16 8 15 9 14 10 13 11 5 12
REMARK SMILES IDX 6 13 7 14 8 15 12 16 10 17 9 18 11 20 20 22 17 24
REMARK H PARENT 9 19 11 21 20 23 17 25
REMARK Flexibility Score: inf
ROOT
ATOM      1  C   UNL     1       9.072  11.938 -18.141  1.00  0.00     0.138 A 
ATOM      2  C   UNL     1       8.326  11.662 -19.295  1.00  0.00     0.100 A 
ATOM      3  C   UNL     1       8.106  12.671 -20.232  1.00  0.00     0.197 A 
ATOM      4  O   UNL     1       7.381  12.411 -21.227  1.00  0.00    -0.289 OA
ATOM      5  C   UNL     1       8.664  13.956 -20.026  1.00  0.00     0.107 A 
ATOM      6  C   UNL     1       8.540  15.050 -20.934  1.00  0.00     0.134 A 
ATOM      7  C   UNL     1       9.038  16.308 -20.569  1.00  0.00     0.093 A 
ATOM      8  C   UNL     1       9.706  16.496 -19.358  1.00  0.00     0.123 A 
ATOM      9  C   UNL     1       9.878  15.420 -18.489  1.00  0.00     0.094 A 
ATOM     10  C   UNL     1       9.365  14.161 -18.808  1.00  0.00     0.146 A 
ATOM     11  O   UNL     1       9.539  13.166 -17.945  1.00  0.00    -0.456 OA
ENDROOT
BRANCH   1  12
ATOM     12  C   UNL     1       9.336  10.900 -17.111  1.00  0.00     0.021 A 
ATOM     13  C   UNL     1       8.542  10.786 -15.956  1.00  0.00     0.016 A 
ATOM     14  C   UNL     1       8.808   9.795 -15.011  1.00  0.00     0.051 A 
ATOM     15  C   UNL     1       9.859   8.892 -15.196  1.00  0.00     0.157 A 
ATOM     16  C   UNL     1      10.385   9.984 -17.304  1.00  0.00     0.062 A 
ATOM     17  C   UNL     1      10.658   8.987 -16.359  1.00  0.00     0.158 A 
BRANCH  15  18
ATOM     18  O   UNL     1      10.073   7.926 -14.210  1.00  0.00    -0.504 OA
ATOM     19  H   UNL     1      10.347   8.137 -13.262  1.00  0.00     0.293 HD
ENDBRANCH  15  18
BRANCH  17  20
ATOM     20  O   UNL     1      11.722   8.120 -16.616  1.00  0.00    -0.504 OA
ATOM     21  H   UNL     1      11.661   7.114 -16.547  1.00  0.00     0.293 HD
ENDBRANCH  17  20
ENDBRANCH   1  12
BRANCH   6  22
ATOM     22  O   UNL     1       7.967  14.950 -22.205  1.00  0.00    -0.507 OA
ATOM     23  H   UNL     1       7.034  14.615 -22.392  1.00  0.00     0.293 HD
ENDBRANCH   6  22
BRANCH   8  24
ATOM     24  O   UNL     1      10.210  17.747 -19.010  1.00  0.00    -0.508 OA
ATOM     25  H   UNL     1      11.120  18.058 -19.330  1.00  0.00     0.293 HD
ENDBRANCH   8  24
TORSDOF 5
ENDMDL
MODEL 4
REMARK VINA RESULT:    -6.300      2.175      7.165
REMARK INTER + INTRA:          -7.721
REMARK INTER:                  -7.448
REMARK INTRA:                  -0.273
REMARK UNBOUND:                -0.317
REMARK SMILES O=c1cc(-c2ccc(O)c(O)c2)oc2cc(O)cc(O)c12
REMARK SMILES IDX 4 1 3 2 2 3 1 4 21 5 19 6 18 7 16 8 15 9 14 10 13 11 5 12
REMARK SMILES IDX 6 13 7 14 8 15 12 16 10 17 9 18 11 20 20 22 17 24
REMARK H PARENT 9 19 11 21 20 23 17 25
REMARK Flexibility Score: inf
ROOT
ATOM      1  C   UNL     1       9.300  12.229 -18.532  1.00  0.00     0.138 A 
ATOM      2  C   UNL     1       9.917  13.159 -17.683  1.00  0.00     0.100 A 
ATOM      3  C   UNL     1      10.084  14.477 -18.107  1.00  0.00     0.197 A 
ATOM      4  O   UNL     1      10.696  15.272 -17.349  1.00  0.00    -0.289 OA
ATOM      5  C   UNL     1       9.600  14.873 -19.377  1.00  0.00     0.107 A 
ATOM      6  C   UNL     1       9.677  16.200 -19.898  1.00  0.00     0.134 A 
ATOM      7  C   UNL     1       9.269  16.449 -21.214  1.00  0.00     0.093 A 
ATOM      8  C   UNL     1       8.731  15.432 -22.007  1.00  0.00     0.123 A 
ATOM      9  C   UNL     1       8.602  14.146 -21.489  1.00  0.00     0.094 A 
ATOM     10  C   UNL     1       9.032  13.858 -20.191  1.00  0.00     0.146 A 
ATOM     11  O   UNL     1       8.904  12.614 -19.741  1.00  0.00    -0.456 OA
ENDROOT
BRANCH   1  12
ATOM     12  C   UNL     1       9.097  10.814 -18.130  1.00  0.00     0.021 A 
ATOM     13  C   UNL     1       7.864  10.162 -18.316  1.00  0.00     0.016 A 
ATOM     14  C   UNL     1       7.706   8.829 -17.938  1.00  0.00     0.051 A 
ATOM     15  C   UNL     1       8.768   8.112 -17.378  1.00  0.00     0.157 A 
ATOM     16  C   UNL     1      10.168  10.090 -17.580  1.00  0.00     0.062 A 
ATOM     17  C   UNL     1      10.017   8.751 -17.198  1.00  0.00     0.158 A 
BRANCH  15  18
ATOM     18  O   UNL     1       8.542   6.781 -17.019  1.00  0.00    -0.504 OA
ATOM     19  H   UNL     1       9.194   6.031 -17.193  1.00  0.00     0.293 HD
ENDBRANCH  15  18
BRANCH  17  20
ATOM     20  O   UNL     1      11.124   8.100 -16.649  1.00  0.00    -0.504 OA
ATOM     21  H   UNL     1      11.062   7.331 -15.998  1.00  0.00     0.293 HD
ENDBRANCH  17  20
ENDBRANCH   1  12
BRANCH   6  22
ATOM     22  O   UNL     1      10.118  17.304 -19.162  1.00  0.00    -0.507 OA
ATOM     23  H   UNL     1      10.218  18.238 -19.530  1.00  0.00     0.293 HD
ENDBRANCH   6  22
BRANCH   8  24
ATOM     24  O   UNL     1       8.314  15.692 -23.311  1.00  0.00    -0.508 OA
ATOM     25  H   UNL     1       8.970  15.713 -24.082  1.00  0.00     0.293 HD
ENDBRANCH   8  24
TORSDOF 5
ENDMDL
MODEL 5
REMARK VINA RESULT:    -6.153      2.456      3.841
REMARK INTER + INTRA:          -7.549
REMARK INTER:                  -7.283
REMARK INTRA:                  -0.266
REMARK UNBOUND:                -0.317
REMARK SMILES O=c1cc(-c2ccc(O)c(O)c2)oc2cc(O)cc(O)c12
REMARK SMILES IDX 4 1 3 2 2 3 1 4 21 5 19 6 18 7 16 8 15 9 14 10 13 11 5 12
REMARK SMILES IDX 6 13 7 14 8 15 12 16 10 17 9 18 11 20 20 22 17 24
REMARK H PARENT 9 19 11 21 20 23 17 25
REMARK Flexibility Score: inf
ROOT
ATOM      1  C   UNL     1       9.661  11.273 -16.323  1.00  0.00     0.138 A 
ATOM      2  C   UNL     1      10.167  10.060 -16.811  1.00  0.00     0.100 A 
ATOM      3  C   UNL     1       9.893   8.874 -16.130  1.00  0.00     0.197 A 
ATOM      4  O   UNL     1      10.411   7.810 -16.556  1.00  0.00    -0.289 OA
ATOM      5  C   UNL     1       9.081   8.900 -14.970  1.00  0.00     0.107 A 
ATOM      6  C   UNL     1       8.702   7.749 -14.218  1.00  0.00     0.134 A 
ATOM      7  C   UNL     1       7.991   7.910 -13.022  1.00  0.00     0.093 A 
ATOM      8  C   UNL     1       7.595   9.175 -12.583  1.00  0.00     0.123 A 
ATOM      9  C   UNL     1       7.914  10.301 -13.339  1.00  0.00     0.094 A 
ATOM     10  C   UNL     1       8.652  10.176 -14.519  1.00  0.00     0.146 A 
ATOM     11  O   UNL     1       8.947  11.277 -15.202  1.00  0.00    -0.456 OA
ENDROOT
BRANCH   1  12
ATOM     12  C   UNL     1       9.922  12.564 -17.009  1.00  0.00     0.021 A 
ATOM     13  C   UNL     1      10.699  13.574 -16.413  1.00  0.00     0.016 A 
ATOM     14  C   UNL     1      10.935  14.773 -17.086  1.00  0.00     0.051 A 
ATOM     15  C   UNL     1      10.415  14.991 -18.366  1.00  0.00     0.157 A 
ATOM     16  C   UNL     1       9.410  12.778 -18.301  1.00  0.00     0.062 A 
ATOM     17  C   UNL     1       9.643  13.979 -18.982  1.00  0.00     0.158 A 
BRANCH  15  18
ATOM     18  O   UNL     1      10.687  16.214 -18.983  1.00  0.00    -0.504 OA
ATOM     19  H   UNL     1      10.739  16.344 -19.982  1.00  0.00     0.293 HD
ENDBRANCH  15  18
BRANCH  17  20
ATOM     20  O   UNL     1       9.094  14.121 -20.258  1.00  0.00    -0.504 OA
ATOM     21  H   UNL     1       8.105  14.210 -20.441  1.00  0.00     0.293 HD
ENDBRANCH  17  20
ENDBRANCH   1  12
BRANCH   6  22
ATOM     22  O   UNL     1       8.973   6.434 -14.611  1.00  0.00    -0.507 OA
ATOM     23  H   UNL     1       8.359   5.863 -15.171  1.00  0.00     0.293 HD
ENDBRANCH   6  22
BRANCH   8  24
ATOM     24  O   UNL     1       6.875   9.325 -11.400  1.00  0.00    -0.508 OA
ATOM     25  H   UNL     1       7.261   9.820 -10.604  1.00  0.00     0.293 HD
ENDBRANCH   8  24
TORSDOF 5
ENDMDL
MODEL 6
REMARK VINA RESULT:    -6.027      1.597      2.839
REMARK INTER + INTRA:          -7.401
REMARK INTER:                  -7.138
REMARK INTRA:                  -0.263
REMARK UNBOUND:                -0.317
REMARK SMILES O=c1cc(-c2ccc(O)c(O)c2)oc2cc(O)cc(O)c12
REMARK SMILES IDX 4 1 3 2 2 3 1 4 21 5 19 6 18 7 16 8 15 9 14 10 13 11 5 12
REMARK SMILES IDX 6 13 7 14 8 15 12 16 10 17 9 18 11 20 20 22 17 24
REMARK H PARENT 9 19 11 21 20 23 17 25
REMARK Flexibility Score: inf
ROOT
ATOM      1  C   UNL     1       8.973  12.813 -18.305  1.00  0.00     0.138 A 
ATOM      2  C   UNL     1       8.085  12.798 -17.221  1.00  0.00     0.100 A 
ATOM      3  C   UNL     1       8.179  11.785 -16.265  1.00  0.00     0.197 A 
ATOM      4  O   UNL     1       7.330  11.762 -15.338  1.00  0.00    -0.289 OA
ATOM      5  C   UNL     1       9.191  10.801 -16.382  1.00  0.00     0.107 A 
ATOM      6  C   UNL     1       9.408   9.746 -15.446  1.00  0.00     0.134 A 
ATOM      7  C   UNL     1      10.365   8.763 -15.726  1.00  0.00     0.093 A 
ATOM      8  C   UNL     1      11.154   8.830 -16.876  1.00  0.00     0.123 A 
ATOM      9  C   UNL     1      10.985   9.886 -17.769  1.00  0.00     0.094 A 
ATOM     10  C   UNL     1      10.015  10.864 -17.536  1.00  0.00     0.146 A 
ATOM     11  O   UNL     1       9.878  11.847 -18.420  1.00  0.00    -0.456 OA
ENDROOT
BRANCH   1  12
ATOM     12  C   UNL     1       8.917  13.867 -19.350  1.00  0.00     0.021 A 
ATOM     13  C   UNL     1       8.369  13.619 -20.622  1.00  0.00     0.016 A 
ATOM     14  C   UNL     1       8.321  14.632 -21.580  1.00  0.00     0.051 A 
ATOM     15  C   UNL     1       8.806  15.912 -21.294  1.00  0.00     0.157 A 
ATOM     16  C   UNL     1       9.392  15.157 -19.058  1.00  0.00     0.062 A 
ATOM     17  C   UNL     1       9.346  16.180 -20.015  1.00  0.00     0.158 A 
BRANCH  15  18
ATOM     18  O   UNL     1       8.729  16.880 -22.298  1.00  0.00    -0.504 OA
ATOM     19  H   UNL     1       9.505  17.144 -22.888  1.00  0.00     0.293 HD
ENDBRANCH  15  18
BRANCH  17  20
ATOM     20  O   UNL     1       9.846  17.432 -19.654  1.00  0.00    -0.504 OA
ATOM     21  H   UNL     1       9.886  18.226 -20.278  1.00  0.00     0.293 HD
ENDBRANCH  17  20
ENDBRANCH   1  12
BRANCH   6  22
ATOM     22  O   UNL     1       8.735   9.632 -14.225  1.00  0.00    -0.507 OA
ATOM     23  H   UNL     1       7.737   9.716 -14.108  1.00  0.00     0.293 HD
ENDBRANCH   6  22
BRANCH   8  24
ATOM     24  O   UNL     1      12.114   7.856 -17.139  1.00  0.00    -0.508 OA
ATOM     25  H   UNL     1      12.209   7.034 -16.553  1.00  0.00     0.293 HD
ENDBRANCH   8  24
TORSDOF 5
ENDMDL
MODEL 7
REMARK VINA RESULT:    -5.992      2.000      6.828
REMARK INTER + INTRA:          -7.360
REMARK INTER:                  -7.042
REMARK INTRA:                  -0.318
REMARK UNBOUND:                -0.317
REMARK SMILES O=c1cc(-c2ccc(O)c(O)c2)oc2cc(O)cc(O)c12
REMARK SMILES IDX 4 1 3 2 2 3 1 4 21 5 19 6 18 7 16 8 15 9 14 10 13 11 5 12
REMARK SMILES IDX 6 13 7 14 8 15 12 16 10 17 9 18 11 20 20 22 17 24
REMARK H PARENT 9 19 11 21 20 23 17 25
REMARK Flexibility Score: inf
ROOT
ATOM      1  C   UNL     1       8.120  12.490 -17.119  1.00  0.00     0.138 A 
ATOM      2  C   UNL     1       7.807  11.897 -18.351  1.00  0.00     0.100 A 
ATOM      3  C   UNL     1       8.035  12.602 -19.533  1.00  0.00     0.197 A 
ATOM      4  O   UNL     1       7.687  12.070 -20.618  1.00  0.00    -0.289 OA
ATOM      5  C   UNL     1       8.610  13.895 -19.481  1.00  0.00     0.107 A 
ATOM      6  C   UNL     1       8.925  14.690 -20.624  1.00  0.00     0.134 A 
ATOM      7  C   UNL     1       9.384  16.001 -20.446  1.00  0.00     0.093 A 
ATOM      8  C   UNL     1       9.596  16.525 -19.169  1.00  0.00     0.123 A 
ATOM      9  C   UNL     1       9.341  15.737 -18.048  1.00  0.00     0.094 A 
ATOM     10  C   UNL     1       8.851  14.437 -18.191  1.00  0.00     0.146 A 
ATOM     11  O   UNL     1       8.608  13.725 -17.095  1.00  0.00    -0.456 OA
ENDROOT
BRANCH   1  12
ATOM     12  C   UNL     1       7.898  11.784 -15.831  1.00  0.00     0.021 A 
ATOM     13  C   UNL     1       7.411  10.465 -15.785  1.00  0.00     0.016 A 
ATOM     14  C   UNL     1       7.222   9.824 -14.561  1.00  0.00     0.051 A 
ATOM     15  C   UNL     1       7.520  10.473 -13.359  1.00  0.00     0.157 A 
ATOM     16  C   UNL     1       8.210  12.432 -14.624  1.00  0.00     0.062 A 
ATOM     17  C   UNL     1       8.023  11.795 -13.390  1.00  0.00     0.158 A 
BRANCH  15  18
ATOM     18  O   UNL     1       7.306   9.776 -12.168  1.00  0.00    -0.504 OA
ATOM     19  H   UNL     1       7.216  10.215 -11.264  1.00  0.00     0.293 HD
ENDBRANCH  15  18
BRANCH  17  20
ATOM     20  O   UNL     1       8.347  12.506 -12.234  1.00  0.00    -0.504 OA
ATOM     21  H   UNL     1       7.771  12.529 -11.404  1.00  0.00     0.293 HD
ENDBRANCH  17  20
ENDBRANCH   1  12
BRANCH   6  22
ATOM     22  O   UNL     1       8.832  14.235 -21.942  1.00  0.00    -0.507 OA
ATOM     23  H   UNL     1       8.128  13.598 -22.284  1.00  0.00     0.293 HD
ENDBRANCH   6  22
BRANCH   8  24
ATOM     24  O   UNL     1      10.067  17.825 -19.001  1.00  0.00    -0.508 OA
ATOM     25  H   UNL     1      10.899  18.152 -19.479  1.00  0.00     0.293 HD
ENDBRANCH   8  24
TORSDOF 5
ENDMDL
MODEL 8
REMARK VINA RESULT:    -5.861      2.544      4.742
REMARK INTER + INTRA:          -7.206
REMARK INTER:                  -6.926
REMARK INTRA:                  -0.280
REMARK UNBOUND:                -0.317
REMARK SMILES O=c1cc(-c2ccc(O)c(O)c2)oc2cc(O)cc(O)c12
REMARK SMILES IDX 4 1 3 2 2 3 1 4 21 5 19 6 18 7 16 8 15 9 14 10 13 11 5 12
REMARK SMILES IDX 6 13 7 14 8 15 12 16 10 17 9 18 11 20 20 22 17 24
REMARK H PARENT 9 19 11 21 20 23 17 25
REMARK Flexibility Score: inf
ROOT
ATOM      1  C   UNL     1       9.125  12.036 -15.506  1.00  0.00     0.138 A 
ATOM      2  C   UNL     1       8.638  12.317 -14.222  1.00  0.00     0.100 A 
ATOM      3  C   UNL     1       8.107  11.288 -13.444  1.00  0.00     0.197 A 
ATOM      4  O   UNL     1       7.621  11.581 -12.321  1.00  0.00    -0.289 OA
ATOM      5  C   UNL     1       8.094   9.963 -13.945  1.00  0.00     0.107 A 
ATOM      6  C   UNL     1       7.616   8.828 -13.225  1.00  0.00     0.134 A 
ATOM      7  C   UNL     1       7.546   7.585 -13.867  1.00  0.00     0.093 A 
ATOM      8  C   UNL     1       7.992   7.424 -15.180  1.00  0.00     0.123 A 
ATOM      9  C   UNL     1       8.510   8.516 -15.873  1.00  0.00     0.094 A 
ATOM     10  C   UNL     1       8.562   9.777 -15.273  1.00  0.00     0.146 A 
ATOM     11  O   UNL     1       9.051  10.795 -15.973  1.00  0.00    -0.456 OA
ENDROOT
BRANCH   1  12
ATOM     12  C   UNL     1       9.700  13.094 -16.375  1.00  0.00     0.021 A 
ATOM     13  C   UNL     1      10.826  13.841 -15.984  1.00  0.00     0.016 A 
ATOM     14  C   UNL     1      11.351  14.822 -16.826  1.00  0.00     0.051 A 
ATOM     15  C   UNL     1      10.776  15.076 -18.075  1.00  0.00     0.157 A 
ATOM     16  C   UNL     1       9.131  13.340 -17.637  1.00  0.00     0.062 A 
ATOM     17  C   UNL     1       9.652  14.323 -18.487  1.00  0.00     0.158 A 
BRANCH  15  18
ATOM     18  O   UNL     1      11.349  16.073 -18.868  1.00  0.00    -0.504 OA
ATOM     19  H   UNL     1      11.300  17.059 -18.658  1.00  0.00     0.293 HD
ENDBRANCH  15  18
BRANCH  17  20
ATOM     20  O   UNL     1       9.027  14.516 -19.721  1.00  0.00    -0.504 OA
ATOM     21  H   UNL     1       9.249  13.992 -20.555  1.00  0.00     0.293 HD
ENDBRANCH  17  20
ENDBRANCH   1  12
BRANCH   6  22
ATOM     22  O   UNL     1       7.226   8.860 -11.883  1.00  0.00    -0.507 OA
ATOM     23  H   UNL     1       7.603   8.267 -11.159  1.00  0.00     0.293 HD
ENDBRANCH   6  22
BRANCH   8  24
ATOM     24  O   UNL     1       7.932   6.181 -15.805  1.00  0.00    -0.508 OA
ATOM     25  H   UNL     1       7.894   6.097 -16.815  1.00  0.00     0.293 HD
ENDBRANCH   8  24
TORSDOF 5
ENDMDL
MODEL 9
REMARK VINA RESULT:    -5.707      2.007      2.926
REMARK INTER + INTRA:          -7.025
REMARK INTER:                  -6.734
REMARK INTRA:                  -0.291
REMARK UNBOUND:                -0.317
REMARK SMILES O=c1cc(-c2ccc(O)c(O)c2)oc2cc(O)cc(O)c12
REMARK SMILES IDX 4 1 3 2 2 3 1 4 21 5 19 6 18 7 16 8 15 9 14 10 13 11 5 12
REMARK SMILES IDX 6 13 7 14 8 15 12 16 10 17 9 18 11 20 20 22 17 24
REMARK H PARENT 9 19 11 21 20 23 17 25
REMARK Flexibility Score: inf
ROOT
ATOM      1  C   UNL     1       9.498  12.376 -18.660  1.00  0.00     0.138 A 
ATOM      2  C   UNL     1      10.551  12.400 -17.736  1.00  0.00     0.100 A 
ATOM      3  C   UNL     1      10.807  11.276 -16.950  1.00  0.00     0.197 A 
ATOM      4  O   UNL     1      11.718  11.349 -16.086  1.00  0.00    -0.289 OA
ATOM      5  C   UNL     1      10.022  10.110 -17.116  1.00  0.00     0.107 A 
ATOM      6  C   UNL     1      10.217   8.891 -16.399  1.00  0.00     0.134 A 
ATOM      7  C   UNL     1       9.305   7.841 -16.563  1.00  0.00     0.093 A 
ATOM      8  C   UNL     1       8.240   7.944 -17.462  1.00  0.00     0.123 A 
ATOM      9  C   UNL     1       8.073   9.110 -18.205  1.00  0.00     0.094 A 
ATOM     10  C   UNL     1       8.946  10.188 -18.039  1.00  0.00     0.146 A 
ATOM     11  O   UNL     1       8.742  11.287 -18.758  1.00  0.00    -0.456 OA
ENDROOT
BRANCH   1  12
ATOM     12  C   UNL     1       9.183  13.544 -19.522  1.00  0.00     0.021 A 
ATOM     13  C   UNL     1       8.385  13.419 -20.674  1.00  0.00     0.016 A 
ATOM     14  C   UNL     1       8.098  14.537 -21.458  1.00  0.00     0.051 A 
ATOM     15  C   UNL     1       8.587  15.800 -21.112  1.00  0.00     0.157 A 
ATOM     16  C   UNL     1       9.664  14.816 -19.167  1.00  0.00     0.062 A 
ATOM     17  C   UNL     1       9.379  15.942 -19.949  1.00  0.00     0.158 A 
BRANCH  15  18
ATOM     18  O   UNL     1       8.264  16.876 -21.942  1.00  0.00    -0.504 OA
ATOM     19  H   UNL     1       8.814  17.719 -22.013  1.00  0.00     0.293 HD
ENDBRANCH  15  18
BRANCH  17  20
ATOM     20  O   UNL     1       9.900  17.170 -19.538  1.00  0.00    -0.504 OA
ATOM     21  H   UNL     1       9.901  17.492 -18.580  1.00  0.00     0.293 HD
ENDBRANCH  17  20
ENDBRANCH   1  12
BRANCH   6  22
ATOM     22  O   UNL     1      11.295   8.652 -15.542  1.00  0.00    -0.507 OA
ATOM     23  H   UNL     1      11.366   8.994 -14.595  1.00  0.00     0.293 HD
ENDBRANCH   6  22
BRANCH   8  24
ATOM     24  O   UNL     1       7.346   6.889 -17.630  1.00  0.00    -0.508 OA
ATOM     25  H   UNL     1       7.644   5.999 -18.014  1.00  0.00     0.293 HD
ENDBRANCH   8  24
TORSDOF 5
ENDMDL
