MODEL 1
REMARK VINA RESULT:    -4.883      0.000      0.000
REMARK INTER + INTRA:          -5.026
REMARK INTER:                  -5.026
REMARK INTRA:                   0.000
REMARK UNBOUND:                 0.000
REMARK SMILES O=c1ccc2ccc(O)cc2o1
REMARK SMILES IDX 6 1 7 2 8 3 10 4 11 5 5 6 4 7 3 8 2 9 1 10 12 11 9 12
REMARK H PARENT 9 13
REMARK Flexibility Score: inf
ROOT
ATOM      1  C   UNL     1      15.590  37.381  48.373  1.00  0.00     0.016 A 
ATOM      2  C   UNL     1      16.334  37.755  49.497  1.00  0.00     0.047 A 
ATOM      3  C   UNL     1      15.748  37.748  50.768  1.00  0.00     0.119 A 
ATOM      4  C   UNL     1      14.406  37.365  50.917  1.00  0.00     0.094 A 
ATOM      5  C   UNL     1      13.654  36.988  49.799  1.00  0.00     0.142 A 
ATOM      6  C   UNL     1      14.249  36.996  48.519  1.00  0.00     0.018 A 
ATOM      7  C   UNL     1      13.473  36.615  47.420  1.00  0.00     0.019 A 
ATOM      8  C   UNL     1      12.144  36.241  47.618  1.00  0.00     0.094 A 
ATOM      9  C   UNL     1      11.621  36.258  48.916  1.00  0.00     0.336 A 
ATOM     10  O   UNL     1      10.424  35.924  49.115  1.00  0.00    -0.246 OA
ATOM     11  O   UNL     1      12.382  36.624  49.944  1.00  0.00    -0.423 OA
ENDROOT
BRANCH   3  12
ATOM     12  O   UNL     1      16.504  38.125  51.875  1.00  0.00    -0.508 OA
ATOM     13  H   UNL     1      16.563  37.541  52.701  1.00  0.00     0.293 HD
ENDBRANCH   3  12
TORSDOF 1
ENDMDL
MODEL 2
REMARK VINA RESULT:    -4.768      2.134      2.890
REMARK INTER + INTRA:          -4.907
REMARK INTER:                  -4.907
REMARK INTRA:                   0.000
REMARK UNBOUND:                 0.000
REMARK SMILES O=c1ccc2ccc(O)cc2o1
REMARK SMILES IDX 6 1 7 2 8 3 10 4 11 5 5 6 4 7 3 8 2 9 1 10 12 11 9 12
REMARK H PARENT 9 13
REMARK Flexibility Score: inf
ROOT
ATOM      1  C   UNL     1      13.575  36.991  50.338  1.00  0.00     0.016 A 
ATOM      2  C   UNL     1      14.524  37.376  51.290  1.00  0.00     0.047 A 
ATOM      3  C   UNL     1      15.815  37.745  50.894  1.00  0.00     0.119 A 
ATOM      4  C   UNL     1      16.161  37.728  49.535  1.00  0.00     0.094 A 
ATOM      5  C   UNL     1      15.218  37.345  48.574  1.00  0.00     0.142 A 
ATOM      6  C   UNL     1      13.916  36.974  48.978  1.00  0.00     0.018 A 
ATOM      7  C   UNL     1      12.996  36.595  47.996  1.00  0.00     0.019 A 
ATOM      8  C   UNL     1      13.386  36.595  46.657  1.00  0.00     0.094 A 
ATOM      9  C   UNL     1      14.693  36.975  46.331  1.00  0.00     0.336 A 
ATOM     10  O   UNL     1      15.062  36.981  45.128  1.00  0.00    -0.246 OA
ATOM     11  O   UNL     1      15.549  37.331  47.285  1.00  0.00    -0.423 OA
ENDROOT
BRANCH   3  12
ATOM     12  O   UNL     1      16.746  38.125  51.857  1.00  0.00    -0.508 OA
ATOM     13  H   UNL     1      16.732  37.735  52.792  1.00  0.00     0.293 HD
ENDBRANCH   3  12
TORSDOF 1
ENDMDL
MODEL 3
REMARK VINA RESULT:    -4.516      0.870      4.233
REMARK INTER + INTRA:          -4.648
REMARK INTER:                  -4.648
REMARK INTRA:                   0.000
REMARK UNBOUND:                 0.000
REMARK SMILES O=c1ccc2ccc(O)cc2o1
REMARK SMILES IDX 6 1 7 2 8 3 10 4 11 5 5 6 4 7 3 8 2 9 1 10 12 11 9 12
REMARK H PARENT 9 13
REMARK Flexibility Score: inf
ROOT
ATOM      1  C   UNL     1      13.238  36.500  47.684  1.00  0.00     0.016 A 
ATOM      2  C   UNL     1      11.906  36.157  47.938  1.00  0.00     0.047 A 
ATOM      3  C   UNL     1      11.389  36.237  49.237  1.00  0.00     0.119 A 
ATOM      4  C   UNL     1      12.212  36.661  50.291  1.00  0.00     0.094 A 
ATOM      5  C   UNL     1      13.546  37.008  50.047  1.00  0.00     0.142 A 
ATOM      6  C   UNL     1      14.062  36.926  48.735  1.00  0.00     0.018 A 
ATOM      7  C   UNL     1      15.398  37.278  48.522  1.00  0.00     0.019 A 
ATOM      8  C   UNL     1      16.177  37.695  49.602  1.00  0.00     0.094 A 
ATOM      9  C   UNL     1      15.597  37.751  50.874  1.00  0.00     0.336 A 
ATOM     10  O   UNL     1      16.284  38.125  51.860  1.00  0.00    -0.246 OA
ATOM     11  O   UNL     1      14.323  37.411  51.050  1.00  0.00    -0.423 OA
ENDROOT
BRANCH   3  12
ATOM     12  O   UNL     1      10.061  35.891  49.470  1.00  0.00    -0.508 OA
ATOM     13  H   UNL     1       9.648  35.961  50.393  1.00  0.00     0.293 HD
ENDBRANCH   3  12
TORSDOF 1
ENDMDL
MODEL 4
REMARK VINA RESULT:    -4.426      1.986      2.826
REMARK INTER + INTRA:          -4.555
REMARK INTER:                  -4.555
REMARK INTRA:                   0.000
REMARK UNBOUND:                 0.000
REMARK SMILES O=c1ccc2ccc(O)cc2o1
REMARK SMILES IDX 6 1 7 2 8 3 10 4 11 5 5 6 4 7 3 8 2 9 1 10 12 11 9 12
REMARK H PARENT 9 13
REMARK Flexibility Score: inf
ROOT
ATOM      1  C   UNL     1      15.452  37.376  49.465  1.00  0.00     0.016 A 
ATOM      2  C   UNL     1      16.189  37.356  48.276  1.00  0.00     0.047 A 
ATOM      3  C   UNL     1      15.581  36.982  47.072  1.00  0.00     0.119 A 
ATOM      4  C   UNL     1      14.225  36.623  47.056  1.00  0.00     0.094 A 
ATOM      5  C   UNL     1      13.479  36.640  48.240  1.00  0.00     0.142 A 
ATOM      6  C   UNL     1      14.097  37.019  49.453  1.00  0.00     0.018 A 
ATOM      7  C   UNL     1      13.327  37.026  50.619  1.00  0.00     0.019 A 
ATOM      8  C   UNL     1      11.982  36.663  50.554  1.00  0.00     0.094 A 
ATOM      9  C   UNL     1      11.437  36.298  49.318  1.00  0.00     0.336 A 
ATOM     10  O   UNL     1      10.226  35.967  49.239  1.00  0.00    -0.246 OA
ATOM     11  O   UNL     1      12.192  36.300  48.222  1.00  0.00    -0.423 OA
ENDROOT
BRANCH   3  12
ATOM     12  O   UNL     1      16.330  36.967  45.899  1.00  0.00    -0.508 OA
ATOM     13  H   UNL     1      15.988  37.393  45.045  1.00  0.00     0.293 HD
ENDBRANCH   3  12
TORSDOF 1
ENDMDL
MODEL 5
REMARK VINA RESULT:    -4.263      2.060      4.291
REMARK INTER + INTRA:          -4.387
REMARK INTER:                  -4.387
REMARK INTRA:                   0.000
REMARK UNBOUND:                 0.000
REMARK SMILES O=c1ccc2ccc(O)cc2o1
REMARK SMILES IDX 6 1 7 2 8 3 10 4 11 5 5 6 4 7 3 8 2 9 1 10 12 11 9 12
REMARK H PARENT 9 13
REMARK Flexibility Score: inf
ROOT
ATOM      1  C   UNL     1      13.355  37.022  50.516  1.00  0.00     0.016 A 
ATOM      2  C   UNL     1      12.007  36.651  50.571  1.00  0.00     0.047 A 
ATOM      3  C   UNL     1      11.339  36.235  49.413  1.00  0.00     0.119 A 
ATOM      4  C   UNL     1      12.023  36.190  48.189  1.00  0.00     0.094 A 
ATOM      5  C   UNL     1      13.372  36.559  48.123  1.00  0.00     0.142 A 
ATOM      6  C   UNL     1      14.042  36.977  49.294  1.00  0.00     0.018 A 
ATOM      7  C   UNL     1      15.389  37.339  49.198  1.00  0.00     0.019 A 
ATOM      8  C   UNL     1      16.027  37.278  47.959  1.00  0.00     0.094 A 
ATOM      9  C   UNL     1      15.299  36.854  46.842  1.00  0.00     0.336 A 
ATOM     10  O   UNL     1      15.858  36.792  45.716  1.00  0.00    -0.246 OA
ATOM     11  O   UNL     1      14.019  36.514  46.961  1.00  0.00    -0.423 OA
ENDROOT
BRANCH   3  12
ATOM     12  O   UNL     1       9.997  35.870  49.488  1.00  0.00    -0.508 OA
ATOM     13  H   UNL     1       9.689  35.095  50.063  1.00  0.00     0.293 HD
ENDBRANCH   3  12
TORSDOF 1
ENDMDL
MODEL 6
REMARK VINA RESULT:    -4.184      2.243      4.087
REMARK INTER + INTRA:          -4.306
REMARK INTER:                  -4.306
REMARK INTRA:                   0.000
REMARK UNBOUND:                 0.000
REMARK SMILES O=c1ccc2ccc(O)cc2o1
REMARK SMILES IDX 6 1 7 2 8 3 10 4 11 5 5 6 4 7 3 8 2 9 1 10 12 11 9 12
REMARK H PARENT 9 13
REMARK Flexibility Score: inf
ROOT
ATOM      1  C   UNL     1      13.332  36.378  47.056  1.00  0.00     0.016 A 
ATOM      2  C   UNL     1      14.177  36.366  45.942  1.00  0.00     0.047 A 
ATOM      3  C   UNL     1      15.529  36.706  46.075  1.00  0.00     0.119 A 
ATOM      4  C   UNL     1      16.040  37.061  47.332  1.00  0.00     0.094 A 
ATOM      5  C   UNL     1      15.203  37.076  48.453  1.00  0.00     0.142 A 
ATOM      6  C   UNL     1      13.840  36.732  48.315  1.00  0.00     0.018 A 
ATOM      7  C   UNL     1      13.027  36.756  49.452  1.00  0.00     0.019 A 
ATOM      8  C   UNL     1      13.581  37.115  50.681  1.00  0.00     0.094 A 
ATOM      9  C   UNL     1      14.940  37.444  50.742  1.00  0.00     0.336 A 
ATOM     10  O   UNL     1      15.457  37.770  51.842  1.00  0.00    -0.246 OA
ATOM     11  O   UNL     1      15.691  37.413  49.645  1.00  0.00    -0.423 OA
ENDROOT
BRANCH   3  12
ATOM     12  O   UNL     1      16.354  36.689  44.954  1.00  0.00    -0.508 OA
ATOM     13  H   UNL     1      17.076  35.987  44.837  1.00  0.00     0.293 HD
ENDBRANCH   3  12
TORSDOF 1
ENDMDL
MODEL 7
REMARK VINA RESULT:    -3.967      7.595      9.365
REMARK INTER + INTRA:          -4.083
REMARK INTER:                  -4.083
REMARK INTRA:                   0.000
REMARK UNBOUND:                 0.000
REMARK SMILES O=c1ccc2ccc(O)cc2o1
REMARK SMILES IDX 6 1 7 2 8 3 10 4 11 5 5 6 4 7 3 8 2 9 1 10 12 11 9 12
REMARK H PARENT 9 13
REMARK Flexibility Score: inf
ROOT
ATOM      1  C   UNL     1      11.228  32.753  56.561  1.00  0.00     0.016 A 
ATOM      2  C   UNL     1      11.044  33.492  55.387  1.00  0.00     0.047 A 
ATOM      3  C   UNL     1      12.144  34.033  54.710  1.00  0.00     0.119 A 
ATOM      4  C   UNL     1      13.439  33.834  55.211  1.00  0.00     0.094 A 
ATOM      5  C   UNL     1      13.634  33.095  56.384  1.00  0.00     0.142 A 
ATOM      6  C   UNL     1      12.522  32.552  57.063  1.00  0.00     0.018 A 
ATOM      7  C   UNL     1      12.747  31.819  58.232  1.00  0.00     0.019 A 
ATOM      8  C   UNL     1      14.053  31.647  58.691  1.00  0.00     0.094 A 
ATOM      9  C   UNL     1      15.107  32.215  57.965  1.00  0.00     0.336 A 
ATOM     10  O   UNL     1      16.292  32.071  58.364  1.00  0.00    -0.246 OA
ATOM     11  O   UNL     1      14.865  32.908  56.856  1.00  0.00    -0.423 OA
ENDROOT
BRANCH   3  12
ATOM     12  O   UNL     1      11.940  34.766  53.544  1.00  0.00    -0.508 OA
ATOM     13  H   UNL     1      11.305  34.448  52.822  1.00  0.00     0.293 HD
ENDBRANCH   3  12
TORSDOF 1
ENDMDL
