MODEL 1
REMARK VINA RESULT:     5.384      0.000      0.000
REMARK INTER + INTRA:          17.129
REMARK INTER:                  14.197
REMARK INTRA:                   2.932
REMARK UNBOUND:                 2.932
REMARK SMILES CCCCCCCCCCCCCCCCCCCCCCCCCCCCCC(=O)[O-]
REMARK SMILES IDX 16 1 17 2 18 3 19 4 20 5 21 6 22 7 23 8 24 9 25 10 26 11
REMARK SMILES IDX 27 12 28 13 29 14 30 15 31 16 32 17 15 18 14 19 13 20 12 21
REMARK SMILES IDX 11 22 10 23 9 24 8 25 7 26 6 27 5 28 4 29 3 30 2 31 1 32
REMARK H PARENT
REMARK Flexibility Score: inf
ROOT
ATOM      1  C   UNL     1     121.107  68.391  -0.211  1.00  0.00     0.000 C 
ENDROOT
BRANCH   1   2
ATOM      2  C   UNL     1     120.554  69.264   0.932  1.00  0.00     0.000 C 
BRANCH   2   3
ATOM      3  C   UNL     1     120.475  70.755   0.562  1.00  0.00     0.000 C 
BRANCH   3   4
ATOM      4  C   UNL     1     120.126  71.649   1.765  1.00  0.00     0.000 C 
BRANCH   4   5
ATOM      5  C   UNL     1     120.097  70.926   3.126  1.00  0.00     0.000 C 
BRANCH   5   6
ATOM      6  C   UNL     1     121.231  71.317   4.094  1.00  0.00     0.000 C 
BRANCH   6   7
ATOM      7  C   UNL     1     120.741  71.666   5.514  1.00  0.00     0.000 C 
BRANCH   7   8
ATOM      8  C   UNL     1     120.428  70.417   6.354  1.00  0.00     0.000 C 
BRANCH   8   9
ATOM      9  C   UNL     1     121.097  70.443   7.740  1.00  0.00     0.000 C 
BRANCH   9  10
ATOM     10  C   UNL     1     122.300  71.405   7.832  1.00  0.00     0.000 C 
BRANCH  10  11
ATOM     11  C   UNL     1     122.539  71.902   9.269  1.00  0.00     0.000 C 
BRANCH  11  12
ATOM     12  C   UNL     1     121.729  71.097  10.298  1.00  0.00     0.000 C 
BRANCH  12  13
ATOM     13  C   UNL     1     120.510  71.875  10.847  1.00  0.00     0.006 C 
BRANCH  13  14
ATOM     14  C   UNL     1     119.902  72.830   9.813  1.00  0.00     0.053 C 
BRANCH  14  15
ATOM     15  C   UNL     1     120.802  74.000   9.552  1.00  0.00     0.041 C 
ATOM     16  O   UNL     1     121.225  74.232   8.389  1.00  0.00    -0.550 OA
ATOM     17  O   UNL     1     121.141  74.860  10.592  1.00  0.00    -0.550 OA
ENDBRANCH  14  15
ENDBRANCH  13  14
ENDBRANCH  12  13
ENDBRANCH  11  12
ENDBRANCH  10  11
ENDBRANCH   9  10
ENDBRANCH   8   9
ENDBRANCH   7   8
ENDBRANCH   6   7
ENDBRANCH   5   6
ENDBRANCH   4   5
ENDBRANCH   3   4
ENDBRANCH   2   3
ENDBRANCH   1   2
BRANCH   1  18
ATOM     18  C   UNL     1     120.236  67.173  -0.583  1.00  0.00     0.000 C 
BRANCH  18  19
ATOM     19  C   UNL     1     120.968  65.815  -0.600  1.00  0.00     0.000 C 
BRANCH  19  20
ATOM     20  C   UNL     1     120.679  64.939  -1.832  1.00  0.00     0.000 C 
BRANCH  20  21
ATOM     21  C   UNL     1     119.876  65.680  -2.914  1.00  0.00     0.000 C 
BRANCH  21  22
ATOM     22  C   UNL     1     120.304  65.313  -4.348  1.00  0.00     0.000 C 
BRANCH  22  23
ATOM     23  C   UNL     1     121.627  65.942  -4.830  1.00  0.00     0.000 C 
BRANCH  23  24
ATOM     24  C   UNL     1     122.249  65.205  -6.031  1.00  0.00    -0.000 C 
BRANCH  24  25
ATOM     25  C   UNL     1     121.268  64.231  -6.704  1.00  0.00    -0.000 C 
BRANCH  25  26
ATOM     26  C   UNL     1     121.004  64.565  -8.182  1.00  0.00    -0.000 C 
BRANCH  26  27
ATOM     27  C   UNL     1     120.610  66.040  -8.368  1.00  0.00    -0.000 C 
BRANCH  27  28
ATOM     28  C   UNL     1     121.031  66.914  -7.171  1.00  0.00    -0.000 C 
BRANCH  28  29
ATOM     29  C   UNL     1     120.097  68.121  -6.978  1.00  0.00    -0.000 C 
BRANCH  29  30
ATOM     30  C   UNL     1     119.988  68.533  -5.502  1.00  0.00    -0.000 C 
BRANCH  30  31
ATOM     31  C   UNL     1     120.669  69.886  -5.257  1.00  0.00    -0.003 C 
ATOM     32  C   UNL     1     120.428  70.374  -3.829  1.00  0.00     0.004 C 
ENDBRANCH  30  31
ENDBRANCH  29  30
ENDBRANCH  28  29
ENDBRANCH  27  28
ENDBRANCH  26  27
ENDBRANCH  25  26
ENDBRANCH  24  25
ENDBRANCH  23  24
ENDBRANCH  22  23
ENDBRANCH  21  22
ENDBRANCH  20  21
ENDBRANCH  19  20
ENDBRANCH  18  19
ENDBRANCH   1  18
TORSDOF 28
ENDMDL
MODEL 2
REMARK VINA RESULT:     5.519      4.840     13.561
REMARK INTER + INTRA:          17.484
REMARK INTER:                  15.346
REMARK INTRA:                   2.138
REMARK UNBOUND:                 2.932
REMARK SMILES CCCCCCCCCCCCCCCCCCCCCCCCCCCCCC(=O)[O-]
REMARK SMILES IDX 16 1 17 2 18 3 19 4 20 5 21 6 22 7 23 8 24 9 25 10 26 11
REMARK SMILES IDX 27 12 28 13 29 14 30 15 31 16 32 17 15 18 14 19 13 20 12 21
REMARK SMILES IDX 11 22 10 23 9 24 8 25 7 26 6 27 5 28 4 29 3 30 2 31 1 32
REMARK H PARENT
REMARK Flexibility Score: inf
ROOT
ATOM      1  C   UNL     1     122.694  69.449  -0.189  1.00  0.00     0.000 C 
ENDROOT
BRANCH   1   2
ATOM      2  C   UNL     1     121.550  68.491  -0.570  1.00  0.00     0.000 C 
BRANCH   2   3
ATOM      3  C   UNL     1     122.025  67.297  -1.416  1.00  0.00     0.000 C 
BRANCH   3   4
ATOM      4  C   UNL     1     121.203  67.117  -2.705  1.00  0.00     0.000 C 
BRANCH   4   5
ATOM      5  C   UNL     1     119.876  66.354  -2.530  1.00  0.00     0.000 C 
BRANCH   5   6
ATOM      6  C   UNL     1     119.911  64.878  -2.973  1.00  0.00     0.000 C 
BRANCH   6   7
ATOM      7  C   UNL     1     120.916  64.596  -4.109  1.00  0.00     0.000 C 
BRANCH   7   8
ATOM      8  C   UNL     1     120.242  64.012  -5.361  1.00  0.00     0.000 C 
BRANCH   8   9
ATOM      9  C   UNL     1     120.572  64.799  -6.642  1.00  0.00     0.000 C 
BRANCH   9  10
ATOM     10  C   UNL     1     120.005  66.234  -6.653  1.00  0.00     0.000 C 
BRANCH  10  11
ATOM     11  C   UNL     1     120.847  67.200  -5.800  1.00  0.00     0.000 C 
BRANCH  11  12
ATOM     12  C   UNL     1     120.026  68.406  -5.318  1.00  0.00     0.000 C 
BRANCH  12  13
ATOM     13  C   UNL     1     120.740  69.757  -5.562  1.00  0.00     0.006 C 
BRANCH  13  14
ATOM     14  C   UNL     1     120.511  70.300  -6.978  1.00  0.00     0.053 C 
BRANCH  14  15
ATOM     15  C   UNL     1     120.857  69.278  -8.019  1.00  0.00     0.041 C 
ATOM     16  O   UNL     1     121.969  68.688  -7.988  1.00  0.00    -0.550 OA
ATOM     17  O   UNL     1     119.930  68.947  -9.002  1.00  0.00    -0.550 OA
ENDBRANCH  14  15
ENDBRANCH  13  14
ENDBRANCH  12  13
ENDBRANCH  11  12
ENDBRANCH  10  11
ENDBRANCH   9  10
ENDBRANCH   8   9
ENDBRANCH   7   8
ENDBRANCH   6   7
ENDBRANCH   5   6
ENDBRANCH   4   5
ENDBRANCH   3   4
ENDBRANCH   2   3
ENDBRANCH   1   2
BRANCH   1  18
ATOM     18  C   UNL     1     122.250  70.758   0.498  1.00  0.00     0.000 C 
BRANCH  18  19
ATOM     19  C   UNL     1     121.066  71.488  -0.168  1.00  0.00     0.000 C 
BRANCH  19  20
ATOM     20  C   UNL     1     120.816  72.917   0.344  1.00  0.00     0.000 C 
BRANCH  20  21
ATOM     21  C   UNL     1     119.992  72.948   1.642  1.00  0.00     0.000 C 
BRANCH  21  22
ATOM     22  C   UNL     1     120.855  72.815   2.913  1.00  0.00     0.000 C 
BRANCH  22  23
ATOM     23  C   UNL     1     120.082  72.828   4.247  1.00  0.00     0.000 C 
BRANCH  23  24
ATOM     24  C   UNL     1     120.999  72.749   5.482  1.00  0.00    -0.000 C 
BRANCH  24  25
ATOM     25  C   UNL     1     120.294  72.144   6.708  1.00  0.00    -0.000 C 
BRANCH  25  26
ATOM     26  C   UNL     1     120.412  70.612   6.776  1.00  0.00    -0.000 C 
BRANCH  26  27
ATOM     27  C   UNL     1     119.891  70.062   8.115  1.00  0.00    -0.000 C 
BRANCH  27  28
ATOM     28  C   UNL     1     120.350  70.913   9.314  1.00  0.00    -0.000 C 
BRANCH  28  29
ATOM     29  C   UNL     1     120.708  72.351   8.902  1.00  0.00    -0.000 C 
BRANCH  29  30
ATOM     30  C   UNL     1     120.956  73.254  10.120  1.00  0.00    -0.000 C 
BRANCH  30  31
ATOM     31  C   UNL     1     119.919  74.383  10.189  1.00  0.00    -0.003 C 
ATOM     32  C   UNL     1     120.430  75.551  11.031  1.00  0.00     0.004 C 
ENDBRANCH  30  31
ENDBRANCH  29  30
ENDBRANCH  28  29
ENDBRANCH  27  28
ENDBRANCH  26  27
ENDBRANCH  25  26
ENDBRANCH  24  25
ENDBRANCH  23  24
ENDBRANCH  22  23
ENDBRANCH  21  22
ENDBRANCH  20  21
ENDBRANCH  19  20
ENDBRANCH  18  19
ENDBRANCH   1  18
TORSDOF 28
ENDMDL
MODEL 3
REMARK VINA RESULT:     7.059      3.511     12.815
REMARK INTER + INTRA:          21.545
REMARK INTER:                  14.341
REMARK INTRA:                   7.204
REMARK UNBOUND:                 2.932
REMARK SMILES CCCCCCCCCCCCCCCCCCCCCCCCCCCCCC(=O)[O-]
REMARK SMILES IDX 16 1 17 2 18 3 19 4 20 5 21 6 22 7 23 8 24 9 25 10 26 11
REMARK SMILES IDX 27 12 28 13 29 14 30 15 31 16 32 17 15 18 14 19 13 20 12 21
REMARK SMILES IDX 11 22 10 23 9 24 8 25 7 26 6 27 5 28 4 29 3 30 2 31 1 32
REMARK H PARENT
REMARK Flexibility Score: inf
ROOT
ATOM      1  C   UNL     1     122.727  69.461  -0.192  1.00  0.00     0.000 C 
ENDROOT
BRANCH   1   2
ATOM      2  C   UNL     1     121.588  68.495  -0.567  1.00  0.00     0.000 C 
BRANCH   2   3
ATOM      3  C   UNL     1     122.074  67.276  -1.369  1.00  0.00     0.000 C 
BRANCH   3   4
ATOM      4  C   UNL     1     121.302  67.084  -2.687  1.00  0.00     0.000 C 
BRANCH   4   5
ATOM      5  C   UNL     1     119.941  66.375  -2.546  1.00  0.00     0.000 C 
BRANCH   5   6
ATOM      6  C   UNL     1     119.943  64.883  -2.931  1.00  0.00     0.000 C 
BRANCH   6   7
ATOM      7  C   UNL     1     120.933  64.536  -4.063  1.00  0.00     0.000 C 
BRANCH   7   8
ATOM      8  C   UNL     1     120.231  63.961  -5.304  1.00  0.00     0.000 C 
BRANCH   8   9
ATOM      9  C   UNL     1     120.603  64.702  -6.601  1.00  0.00     0.000 C 
BRANCH   9  10
ATOM     10  C   UNL     1     119.949  66.093  -6.730  1.00  0.00     0.000 C 
BRANCH  10  11
ATOM     11  C   UNL     1     120.951  67.233  -6.473  1.00  0.00     0.000 C 
BRANCH  11  12
ATOM     12  C   UNL     1     120.249  68.594  -6.331  1.00  0.00     0.000 C 
BRANCH  12  13
ATOM     13  C   UNL     1     121.242  69.771  -6.183  1.00  0.00     0.006 C 
BRANCH  13  14
ATOM     14  C   UNL     1     121.310  70.311  -4.749  1.00  0.00     0.053 C 
BRANCH  14  15
ATOM     15  C   UNL     1     120.306  69.638  -3.863  1.00  0.00     0.041 C 
ATOM     16  O   UNL     1     119.875  68.489  -4.146  1.00  0.00    -0.550 OA
ATOM     17  O   UNL     1     119.875  70.267  -2.699  1.00  0.00    -0.550 OA
ENDBRANCH  14  15
ENDBRANCH  13  14
ENDBRANCH  12  13
ENDBRANCH  11  12
ENDBRANCH  10  11
ENDBRANCH   9  10
ENDBRANCH   8   9
ENDBRANCH   7   8
ENDBRANCH   6   7
ENDBRANCH   5   6
ENDBRANCH   4   5
ENDBRANCH   3   4
ENDBRANCH   2   3
ENDBRANCH   1   2
BRANCH   1  18
ATOM     18  C   UNL     1     122.277  70.781   0.468  1.00  0.00     0.000 C 
BRANCH  18  19
ATOM     19  C   UNL     1     121.059  71.466  -0.185  1.00  0.00     0.000 C 
BRANCH  19  20
ATOM     20  C   UNL     1     120.821  72.921   0.256  1.00  0.00     0.000 C 
BRANCH  20  21
ATOM     21  C   UNL     1     120.117  73.022   1.619  1.00  0.00     0.000 C 
BRANCH  21  22
ATOM     22  C   UNL     1     121.075  72.846   2.813  1.00  0.00     0.000 C 
BRANCH  22  23
ATOM     23  C   UNL     1     120.400  72.622   4.181  1.00  0.00     0.000 C 
BRANCH  23  24
ATOM     24  C   UNL     1     121.345  72.008   5.232  1.00  0.00    -0.000 C 
BRANCH  24  25
ATOM     25  C   UNL     1     120.589  71.386   6.418  1.00  0.00    -0.000 C 
BRANCH  25  26
ATOM     26  C   UNL     1     120.461  69.856   6.316  1.00  0.00    -0.000 C 
BRANCH  26  27
ATOM     27  C   UNL     1     119.909  69.245   7.614  1.00  0.00    -0.000 C 
BRANCH  27  28
ATOM     28  C   UNL     1     120.621  69.790   8.867  1.00  0.00    -0.000 C 
BRANCH  28  29
ATOM     29  C   UNL     1     121.197  71.198   8.639  1.00  0.00    -0.000 C 
BRANCH  29  30
ATOM     30  C   UNL     1     120.611  72.225   9.620  1.00  0.00    -0.000 C 
BRANCH  30  31
ATOM     31  C   UNL     1     120.243  71.563  10.955  1.00  0.00    -0.003 C 
ATOM     32  C   UNL     1     120.084  70.051  10.795  1.00  0.00     0.004 C 
ENDBRANCH  30  31
ENDBRANCH  29  30
ENDBRANCH  28  29
ENDBRANCH  27  28
ENDBRANCH  26  27
ENDBRANCH  25  26
ENDBRANCH  24  25
ENDBRANCH  23  24
ENDBRANCH  22  23
ENDBRANCH  21  22
ENDBRANCH  20  21
ENDBRANCH  19  20
ENDBRANCH  18  19
ENDBRANCH   1  18
TORSDOF 28
ENDMDL
