MODEL 1
REMARK VINA RESULT:     6.132      0.000      0.000
REMARK INTER + INTRA:           7.181
REMARK INTER:                   7.566
REMARK INTRA:                  -0.385
REMARK UNBOUND:                -0.385
REMARK SMILES Oc1cc(O)c2cc(O)c(-c3cc(O)c(O)c(O)c3)[o+]c2c1
REMARK SMILES IDX 10 1 20 2 21 3 22 4 2 5 3 6 4 7 6 8 7 9 8 10 11 11 12 12
REMARK SMILES IDX 13 13 19 14 15 15 17 16 14 17 16 19 18 21 9 23 1 25 5 27
REMARK H PARENT 14 18 16 20 18 22 9 24 1 26 5 28
REMARK Flexibility Score: inf
ROOT
ATOM      1  C   UNL     1     -21.728 -15.919 -14.397  1.00  0.00     0.402 A 
ATOM      2  O   UNL     1     -22.375 -16.882 -13.746  1.00  0.00    -0.202 OA
ATOM      3  C   UNL     1     -23.674 -17.118 -13.895  1.00  0.00     0.368 A 
ATOM      4  C   UNL     1     -24.266 -18.151 -13.165  1.00  0.00     0.162 A 
ATOM      5  C   UNL     1     -25.632 -18.419 -13.299  1.00  0.00     0.128 A 
ATOM      6  C   UNL     1     -26.408 -17.649 -14.169  1.00  0.00     0.093 A 
ATOM      7  C   UNL     1     -25.840 -16.608 -14.912  1.00  0.00     0.136 A 
ATOM      8  C   UNL     1     -24.454 -16.333 -14.780  1.00  0.00     0.125 A 
ATOM      9  C   UNL     1     -23.796 -15.319 -15.494  1.00  0.00     0.078 A 
ATOM     10  C   UNL     1     -22.425 -15.110 -15.315  1.00  0.00     0.223 A 
ENDROOT
BRANCH   1  11
ATOM     11  C   UNL     1     -20.280 -15.748 -14.137  1.00  0.00     0.091 A 
ATOM     12  C   UNL     1     -19.813 -14.877 -13.140  1.00  0.00     0.068 A 
ATOM     13  C   UNL     1     -18.440 -14.748 -12.896  1.00  0.00     0.162 A 
ATOM     14  C   UNL     1     -19.355 -16.513 -14.862  1.00  0.00     0.068 A 
ATOM     15  C   UNL     1     -17.515 -15.496 -13.637  1.00  0.00     0.200 A 
ATOM     16  C   UNL     1     -17.980 -16.393 -14.629  1.00  0.00     0.162 A 
BRANCH  13  17
ATOM     17  O   UNL     1     -17.985 -13.875 -11.908  1.00  0.00    -0.504 OA
ATOM     18  H   UNL     1     -18.238 -13.997 -10.934  1.00  0.00     0.293 HD
ENDBRANCH  13  17
BRANCH  15  19
ATOM     19  O   UNL     1     -16.157 -15.323 -13.357  1.00  0.00    -0.502 OA
ATOM     20  H   UNL     1     -15.582 -16.012 -12.895  1.00  0.00     0.293 HD
ENDBRANCH  15  19
BRANCH  16  21
ATOM     21  O   UNL     1     -17.119 -17.178 -15.398  1.00  0.00    -0.504 OA
ATOM     22  H   UNL     1     -16.143 -16.969 -15.546  1.00  0.00     0.293 HD
ENDBRANCH  16  21
ENDBRANCH   1  11
BRANCH  10  23
ATOM     23  O   UNL     1     -21.761 -14.136 -16.060  1.00  0.00    -0.500 OA
ATOM     24  H   UNL     1     -20.753 -14.138 -16.160  1.00  0.00     0.294 HD
ENDBRANCH  10  23
BRANCH   5  25
ATOM     25  O   UNL     1     -26.227 -19.448 -12.575  1.00  0.00    -0.507 OA
ATOM     26  H   UNL     1     -27.233 -19.510 -12.469  1.00  0.00     0.293 HD
ENDBRANCH   5  25
BRANCH   7  27
ATOM     27  O   UNL     1     -26.685 -15.883 -15.756  1.00  0.00    -0.507 OA
ATOM     28  H   UNL     1     -26.398 -15.085 -16.304  1.00  0.00     0.293 HD
ENDBRANCH   7  27
TORSDOF 7
ENDMDL
MODEL 2
REMARK VINA RESULT:     7.471      2.049      6.675
REMARK INTER + INTRA:           8.833
REMARK INTER:                   8.620
REMARK INTRA:                   0.213
REMARK UNBOUND:                -0.385
REMARK SMILES Oc1cc(O)c2cc(O)c(-c3cc(O)c(O)c(O)c3)[o+]c2c1
REMARK SMILES IDX 10 1 20 2 21 3 22 4 2 5 3 6 4 7 6 8 7 9 8 10 11 11 12 12
REMARK SMILES IDX 13 13 19 14 15 15 17 16 14 17 16 19 18 21 9 23 1 25 5 27
REMARK H PARENT 14 18 16 20 18 22 9 24 1 26 5 28
REMARK Flexibility Score: inf
ROOT
ATOM      1  C   UNL     1     -23.584 -16.864 -13.046  1.00  0.00     0.402 A 
ATOM      2  O   UNL     1     -22.364 -16.397 -12.793  1.00  0.00    -0.202 OA
ATOM      3  C   UNL     1     -21.705 -15.593 -13.619  1.00  0.00     0.368 A 
ATOM      4  C   UNL     1     -20.425 -15.157 -13.267  1.00  0.00     0.162 A 
ATOM      5  C   UNL     1     -19.707 -14.313 -14.120  1.00  0.00     0.128 A 
ATOM      6  C   UNL     1     -20.272 -13.904 -15.329  1.00  0.00     0.093 A 
ATOM      7  C   UNL     1     -21.552 -14.326 -15.706  1.00  0.00     0.136 A 
ATOM      8  C   UNL     1     -22.286 -15.181 -14.843  1.00  0.00     0.125 A 
ATOM      9  C   UNL     1     -23.580 -15.644 -15.132  1.00  0.00     0.078 A 
ATOM     10  C   UNL     1     -24.243 -16.482 -14.230  1.00  0.00     0.223 A 
ENDROOT
BRANCH   1  11
ATOM     11  C   UNL     1     -24.212 -17.762 -12.050  1.00  0.00     0.091 A 
ATOM     12  C   UNL     1     -23.967 -17.615 -10.675  1.00  0.00     0.068 A 
ATOM     13  C   UNL     1     -24.587 -18.461  -9.748  1.00  0.00     0.162 A 
ATOM     14  C   UNL     1     -25.114 -18.745 -12.479  1.00  0.00     0.068 A 
ATOM     15  C   UNL     1     -25.472 -19.459 -10.181  1.00  0.00     0.200 A 
ATOM     16  C   UNL     1     -25.741 -19.599 -11.564  1.00  0.00     0.162 A 
BRANCH  13  17
ATOM     17  O   UNL     1     -24.333 -18.312  -8.385  1.00  0.00    -0.504 OA
ATOM     18  H   UNL     1     -24.866 -18.817  -7.687  1.00  0.00     0.293 HD
ENDBRANCH  13  17
BRANCH  15  19
ATOM     19  O   UNL     1     -26.058 -20.280  -9.215  1.00  0.00    -0.502 OA
ATOM     20  H   UNL     1     -26.988 -20.143  -8.844  1.00  0.00     0.293 HD
ENDBRANCH  15  19
BRANCH  16  21
ATOM     21  O   UNL     1     -26.618 -20.561 -12.067  1.00  0.00    -0.504 OA
ATOM     22  H   UNL     1     -27.528 -20.352 -12.451  1.00  0.00     0.293 HD
ENDBRANCH  16  21
ENDBRANCH   1  11
BRANCH  10  23
ATOM     23  O   UNL     1     -25.547 -16.902 -14.492  1.00  0.00    -0.500 OA
ATOM     24  H   UNL     1     -26.347 -16.317 -14.281  1.00  0.00     0.294 HD
ENDBRANCH  10  23
BRANCH   5  25
ATOM     25  O   UNL     1     -18.431 -13.875 -13.774  1.00  0.00    -0.507 OA
ATOM     26  H   UNL     1     -17.812 -14.440 -13.204  1.00  0.00     0.293 HD
ENDBRANCH   5  25
BRANCH   7  27
ATOM     27  O   UNL     1     -22.044 -13.875 -16.934  1.00  0.00    -0.507 OA
ATOM     28  H   UNL     1     -22.283 -12.915 -17.136  1.00  0.00     0.293 HD
ENDBRANCH   7  27
TORSDOF 7
ENDMDL
MODEL 3
REMARK VINA RESULT:     7.520      3.334      5.735
REMARK INTER + INTRA:           8.894
REMARK INTER:                   8.536
REMARK INTRA:                   0.358
REMARK UNBOUND:                -0.385
REMARK SMILES Oc1cc(O)c2cc(O)c(-c3cc(O)c(O)c(O)c3)[o+]c2c1
REMARK SMILES IDX 10 1 20 2 21 3 22 4 2 5 3 6 4 7 6 8 7 9 8 10 11 11 12 12
REMARK SMILES IDX 13 13 19 14 15 15 17 16 14 17 16 19 18 21 9 23 1 25 5 27
REMARK H PARENT 14 18 16 20 18 22 9 24 1 26 5 28
REMARK Flexibility Score: inf
ROOT
ATOM      1  C   UNL     1     -24.372 -17.262 -13.667  1.00  0.00     0.402 A 
ATOM      2  O   UNL     1     -23.447 -17.306 -12.712  1.00  0.00    -0.202 OA
ATOM      3  C   UNL     1     -23.603 -17.977 -11.576  1.00  0.00     0.368 A 
ATOM      4  C   UNL     1     -22.575 -17.962 -10.630  1.00  0.00     0.162 A 
ATOM      5  C   UNL     1     -22.714 -18.657  -9.424  1.00  0.00     0.128 A 
ATOM      6  C   UNL     1     -23.887 -19.370  -9.165  1.00  0.00     0.093 A 
ATOM      7  C   UNL     1     -24.932 -19.402 -10.096  1.00  0.00     0.136 A 
ATOM      8  C   UNL     1     -24.795 -18.699 -11.321  1.00  0.00     0.125 A 
ATOM      9  C   UNL     1     -25.784 -18.686 -12.318  1.00  0.00     0.078 A 
ATOM     10  C   UNL     1     -25.576 -17.974 -13.503  1.00  0.00     0.223 A 
ENDROOT
BRANCH   1  11
ATOM     11  C   UNL     1     -24.085 -16.470 -14.885  1.00  0.00     0.091 A 
ATOM     12  C   UNL     1     -24.880 -16.584 -16.036  1.00  0.00     0.068 A 
ATOM     13  C   UNL     1     -24.604 -15.809 -17.170  1.00  0.00     0.162 A 
ATOM     14  C   UNL     1     -23.031 -15.545 -14.873  1.00  0.00     0.068 A 
ATOM     15  C   UNL     1     -23.536 -14.901 -17.164  1.00  0.00     0.200 A 
ATOM     16  C   UNL     1     -22.743 -14.766 -15.999  1.00  0.00     0.162 A 
BRANCH  13  17
ATOM     17  O   UNL     1     -25.395 -15.933 -18.311  1.00  0.00    -0.504 OA
ATOM     18  H   UNL     1     -25.452 -16.804 -18.827  1.00  0.00     0.293 HD
ENDBRANCH  13  17
BRANCH  15  19
ATOM     19  O   UNL     1     -23.300 -14.159 -18.324  1.00  0.00    -0.502 OA
ATOM     20  H   UNL     1     -22.530 -14.327 -18.956  1.00  0.00     0.293 HD
ENDBRANCH  15  19
BRANCH  16  21
ATOM     21  O   UNL     1     -21.671 -13.875 -15.917  1.00  0.00    -0.504 OA
ATOM     22  H   UNL     1     -20.744 -14.132 -15.611  1.00  0.00     0.293 HD
ENDBRANCH  16  21
ENDBRANCH   1  11
BRANCH  10  23
ATOM     23  O   UNL     1     -26.537 -18.000 -14.514  1.00  0.00    -0.500 OA
ATOM     24  H   UNL     1     -27.353 -17.401 -14.488  1.00  0.00     0.294 HD
ENDBRANCH  10  23
BRANCH   5  25
ATOM     25  O   UNL     1     -21.692 -18.645  -8.478  1.00  0.00    -0.507 OA
ATOM     26  H   UNL     1     -21.512 -19.445  -7.882  1.00  0.00     0.293 HD
ENDBRANCH   5  25
BRANCH   7  27
ATOM     27  O   UNL     1     -26.072 -20.135  -9.758  1.00  0.00    -0.507 OA
ATOM     28  H   UNL     1     -26.084 -21.131  -9.597  1.00  0.00     0.293 HD
ENDBRANCH   7  27
TORSDOF 7
ENDMDL
MODEL 4
REMARK VINA RESULT:     7.763      2.058      6.829
REMARK INTER + INTRA:           9.194
REMARK INTER:                   9.012
REMARK INTRA:                   0.182
REMARK UNBOUND:                -0.385
REMARK SMILES Oc1cc(O)c2cc(O)c(-c3cc(O)c(O)c(O)c3)[o+]c2c1
REMARK SMILES IDX 10 1 20 2 21 3 22 4 2 5 3 6 4 7 6 8 7 9 8 10 11 11 12 12
REMARK SMILES IDX 13 13 19 14 15 15 17 16 14 17 16 19 18 21 9 23 1 25 5 27
REMARK H PARENT 14 18 16 20 18 22 9 24 1 26 5 28
REMARK Flexibility Score: inf
ROOT
ATOM      1  C   UNL     1     -23.584 -16.860 -13.053  1.00  0.00     0.402 A 
ATOM      2  O   UNL     1     -22.367 -16.395 -12.787  1.00  0.00    -0.202 OA
ATOM      3  C   UNL     1     -21.698 -15.591 -13.607  1.00  0.00     0.368 A 
ATOM      4  C   UNL     1     -20.421 -15.156 -13.241  1.00  0.00     0.162 A 
ATOM      5  C   UNL     1     -19.694 -14.313 -14.086  1.00  0.00     0.128 A 
ATOM      6  C   UNL     1     -20.245 -13.904 -15.302  1.00  0.00     0.093 A 
ATOM      7  C   UNL     1     -21.522 -14.326 -15.693  1.00  0.00     0.136 A 
ATOM      8  C   UNL     1     -22.265 -15.180 -14.837  1.00  0.00     0.125 A 
ATOM      9  C   UNL     1     -23.557 -15.642 -15.140  1.00  0.00     0.078 A 
ATOM     10  C   UNL     1     -24.230 -16.479 -14.244  1.00  0.00     0.223 A 
ENDROOT
BRANCH   1  11
ATOM     11  C   UNL     1     -24.223 -17.758 -12.063  1.00  0.00     0.091 A 
ATOM     12  C   UNL     1     -25.158 -18.729 -12.453  1.00  0.00     0.068 A 
ATOM     13  C   UNL     1     -25.734 -19.583 -11.504  1.00  0.00     0.162 A 
ATOM     14  C   UNL     1     -23.847 -17.677 -10.715  1.00  0.00     0.068 A 
ATOM     15  C   UNL     1     -25.374 -19.485 -10.153  1.00  0.00     0.200 A 
ATOM     16  C   UNL     1     -24.415 -18.523  -9.755  1.00  0.00     0.162 A 
BRANCH  13  17
ATOM     17  O   UNL     1     -26.668 -20.541 -11.899  1.00  0.00    -0.504 OA
ATOM     18  H   UNL     1     -27.625 -20.291 -12.118  1.00  0.00     0.293 HD
ENDBRANCH  13  17
BRANCH  15  19
ATOM     19  O   UNL     1     -25.984 -20.356  -9.247  1.00  0.00    -0.502 OA
ATOM     20  H   UNL     1     -25.661 -21.295  -9.059  1.00  0.00     0.293 HD
ENDBRANCH  15  19
BRANCH  16  21
ATOM     21  O   UNL     1     -23.999 -18.375  -8.431  1.00  0.00    -0.504 OA
ATOM     22  H   UNL     1     -23.869 -17.484  -7.974  1.00  0.00     0.293 HD
ENDBRANCH  16  21
ENDBRANCH   1  11
BRANCH  10  23
ATOM     23  O   UNL     1     -25.531 -16.898 -14.521  1.00  0.00    -0.500 OA
ATOM     24  H   UNL     1     -26.190 -17.112 -13.781  1.00  0.00     0.294 HD
ENDBRANCH  10  23
BRANCH   5  25
ATOM     25  O   UNL     1     -18.421 -13.875 -13.726  1.00  0.00    -0.507 OA
ATOM     26  H   UNL     1     -18.233 -12.900 -13.525  1.00  0.00     0.293 HD
ENDBRANCH   5  25
BRANCH   7  27
ATOM     27  O   UNL     1     -22.000 -13.875 -16.926  1.00  0.00    -0.507 OA
ATOM     28  H   UNL     1     -22.476 -12.996 -17.067  1.00  0.00     0.293 HD
ENDBRANCH   7  27
TORSDOF 7
ENDMDL
MODEL 5
REMARK VINA RESULT:     7.932      1.221      7.127
REMARK INTER + INTRA:           9.402
REMARK INTER:                   9.786
REMARK INTRA:                  -0.384
REMARK UNBOUND:                -0.385
REMARK SMILES Oc1cc(O)c2cc(O)c(-c3cc(O)c(O)c(O)c3)[o+]c2c1
REMARK SMILES IDX 10 1 20 2 21 3 22 4 2 5 3 6 4 7 6 8 7 9 8 10 11 11 12 12
REMARK SMILES IDX 13 13 19 14 15 15 17 16 14 17 16 19 18 21 9 23 1 25 5 27
REMARK H PARENT 14 18 16 20 18 22 9 24 1 26 5 28
REMARK Flexibility Score: inf
ROOT
ATOM      1  C   UNL     1     -21.729 -15.949 -13.897  1.00  0.00     0.402 A 
ATOM      2  O   UNL     1     -20.750 -16.678 -14.426  1.00  0.00    -0.202 OA
ATOM      3  C   UNL     1     -19.462 -16.387 -14.278  1.00  0.00     0.368 A 
ATOM      4  C   UNL     1     -18.506 -17.212 -14.875  1.00  0.00     0.162 A 
ATOM      5  C   UNL     1     -17.144 -16.928 -14.739  1.00  0.00     0.128 A 
ATOM      6  C   UNL     1     -16.738 -15.813 -14.002  1.00  0.00     0.093 A 
ATOM      7  C   UNL     1     -17.675 -14.971 -13.393  1.00  0.00     0.136 A 
ATOM      8  C   UNL     1     -19.059 -15.256 -13.528  1.00  0.00     0.125 A 
ATOM      9  C   UNL     1     -20.069 -14.476 -12.942  1.00  0.00     0.078 A 
ATOM     10  C   UNL     1     -21.413 -14.823 -13.115  1.00  0.00     0.223 A 
ENDROOT
BRANCH   1  11
ATOM     11  C   UNL     1     -23.128 -16.371 -14.141  1.00  0.00     0.091 A 
ATOM     12  C   UNL     1     -23.870 -15.855 -15.216  1.00  0.00     0.068 A 
ATOM     13  C   UNL     1     -25.183 -16.283 -15.443  1.00  0.00     0.162 A 
ATOM     14  C   UNL     1     -23.708 -17.347 -13.320  1.00  0.00     0.068 A 
ATOM     15  C   UNL     1     -25.770 -17.244 -14.606  1.00  0.00     0.200 A 
ATOM     16  C   UNL     1     -25.020 -17.784 -13.534  1.00  0.00     0.162 A 
BRANCH  13  17
ATOM     17  O   UNL     1     -25.916 -15.761 -16.508  1.00  0.00    -0.504 OA
ATOM     18  H   UNL     1     -25.683 -14.867 -16.925  1.00  0.00     0.293 HD
ENDBRANCH  13  17
BRANCH  15  19
ATOM     19  O   UNL     1     -27.086 -17.630 -14.873  1.00  0.00    -0.502 OA
ATOM     20  H   UNL     1     -27.900 -17.138 -14.532  1.00  0.00     0.293 HD
ENDBRANCH  15  19
BRANCH  16  21
ATOM     21  O   UNL     1     -25.534 -18.750 -12.667  1.00  0.00    -0.504 OA
ATOM     22  H   UNL     1     -25.833 -18.561 -11.722  1.00  0.00     0.293 HD
ENDBRANCH  16  21
ENDBRANCH   1  11
BRANCH  10  23
ATOM     23  O   UNL     1     -22.414 -14.077 -12.493  1.00  0.00    -0.500 OA
ATOM     24  H   UNL     1     -22.660 -13.147 -12.811  1.00  0.00     0.294 HD
ENDBRANCH  10  23
BRANCH   5  25
ATOM     25  O   UNL     1     -16.186 -17.747 -15.332  1.00  0.00    -0.507 OA
ATOM     26  H   UNL     1     -16.403 -18.319 -16.139  1.00  0.00     0.293 HD
ENDBRANCH   5  25
BRANCH   7  27
ATOM     27  O   UNL     1     -17.188 -13.875 -12.676  1.00  0.00    -0.507 OA
ATOM     28  H   UNL     1     -16.435 -13.921 -12.005  1.00  0.00     0.293 HD
ENDBRANCH   7  27
TORSDOF 7
ENDMDL
MODEL 6
REMARK VINA RESULT:     8.070      1.235      7.099
REMARK INTER + INTRA:           9.572
REMARK INTER:                   9.951
REMARK INTRA:                  -0.379
REMARK UNBOUND:                -0.385
REMARK SMILES Oc1cc(O)c2cc(O)c(-c3cc(O)c(O)c(O)c3)[o+]c2c1
REMARK SMILES IDX 10 1 20 2 21 3 22 4 2 5 3 6 4 7 6 8 7 9 8 10 11 11 12 12
REMARK SMILES IDX 13 13 19 14 15 15 17 16 14 17 16 19 18 21 9 23 1 25 5 27
REMARK H PARENT 14 18 16 20 18 22 9 24 1 26 5 28
REMARK Flexibility Score: inf
ROOT
ATOM      1  C   UNL     1     -21.733 -16.020 -13.944  1.00  0.00     0.402 A 
ATOM      2  O   UNL     1     -20.743 -16.739 -14.465  1.00  0.00    -0.202 OA
ATOM      3  C   UNL     1     -19.459 -16.430 -14.316  1.00  0.00     0.368 A 
ATOM      4  C   UNL     1     -18.490 -17.246 -14.904  1.00  0.00     0.162 A 
ATOM      5  C   UNL     1     -17.132 -16.942 -14.766  1.00  0.00     0.128 A 
ATOM      6  C   UNL     1     -16.743 -15.817 -14.036  1.00  0.00     0.093 A 
ATOM      7  C   UNL     1     -17.694 -14.983 -13.436  1.00  0.00     0.136 A 
ATOM      8  C   UNL     1     -19.073 -15.288 -13.572  1.00  0.00     0.125 A 
ATOM      9  C   UNL     1     -20.095 -14.517 -12.995  1.00  0.00     0.078 A 
ATOM     10  C   UNL     1     -21.434 -14.883 -13.169  1.00  0.00     0.223 A 
ENDROOT
BRANCH   1  11
ATOM     11  C   UNL     1     -23.125 -16.462 -14.189  1.00  0.00     0.091 A 
ATOM     12  C   UNL     1     -23.767 -17.367 -13.329  1.00  0.00     0.068 A 
ATOM     13  C   UNL     1     -25.091 -17.755 -13.568  1.00  0.00     0.162 A 
ATOM     14  C   UNL     1     -23.839 -15.925 -15.270  1.00  0.00     0.068 A 
ATOM     15  C   UNL     1     -25.797 -17.235 -14.662  1.00  0.00     0.200 A 
ATOM     16  C   UNL     1     -25.163 -16.305 -15.520  1.00  0.00     0.162 A 
BRANCH  13  17
ATOM     17  O   UNL     1     -25.720 -18.660 -12.712  1.00  0.00    -0.504 OA
ATOM     18  H   UNL     1     -25.444 -18.752 -11.741  1.00  0.00     0.293 HD
ENDBRANCH  13  17
BRANCH  15  19
ATOM     19  O   UNL     1     -27.112 -17.661 -14.857  1.00  0.00    -0.502 OA
ATOM     20  H   UNL     1     -27.920 -17.061 -14.771  1.00  0.00     0.293 HD
ENDBRANCH  15  19
BRANCH  16  21
ATOM     21  O   UNL     1     -25.805 -15.736 -16.622  1.00  0.00    -0.504 OA
ATOM     22  H   UNL     1     -26.046 -16.244 -17.460  1.00  0.00     0.293 HD
ENDBRANCH  16  21
ENDBRANCH   1  11
BRANCH  10  23
ATOM     23  O   UNL     1     -22.447 -14.147 -12.555  1.00  0.00    -0.500 OA
ATOM     24  H   UNL     1     -23.219 -14.598 -12.080  1.00  0.00     0.294 HD
ENDBRANCH  10  23
BRANCH   5  25
ATOM     25  O   UNL     1     -16.161 -17.752 -15.350  1.00  0.00    -0.507 OA
ATOM     26  H   UNL     1     -15.174 -17.613 -15.168  1.00  0.00     0.293 HD
ENDBRANCH   5  25
BRANCH   7  27
ATOM     27  O   UNL     1     -17.223 -13.875 -12.726  1.00  0.00    -0.507 OA
ATOM     28  H   UNL     1     -17.705 -12.990 -12.662  1.00  0.00     0.293 HD
ENDBRANCH   7  27
TORSDOF 7
ENDMDL
