MODEL 1
REMARK VINA RESULT:    -3.557      0.000      0.000
REMARK INTER + INTRA:          -7.863
REMARK INTER:                  -6.053
REMARK INTRA:                  -1.810
REMARK UNBOUND:                -1.810
REMARK SMILES CCCCCCCCCCCCCC(=O)[O-]
REMARK SMILES IDX 8 1 9 2 10 3 11 4 12 5 13 6 14 7 15 8 16 9 7 10 6 11 5 12
REMARK SMILES IDX 4 13 3 14 2 15 1 16
REMARK H PARENT
REMARK Flexibility Score: inf
ROOT
ATOM      1  C   UNL     1      -2.120  -8.423 -39.693  1.00  0.00     0.000 C 
ENDROOT
BRANCH   1   2
ATOM      2  C   UNL     1      -0.743  -8.897 -40.181  1.00  0.00     0.000 C 
BRANCH   2   3
ATOM      3  C   UNL     1      -0.493 -10.358 -39.788  1.00  0.00     0.000 C 
BRANCH   3   4
ATOM      4  C   UNL     1       0.366 -11.072 -40.841  1.00  0.00     0.000 C 
BRANCH   4   5
ATOM      5  C   UNL     1       0.376 -10.341 -42.192  1.00  0.00     0.006 C 
BRANCH   5   6
ATOM      6  C   UNL     1       1.795 -10.057 -42.701  1.00  0.00     0.053 C 
BRANCH   6   7
ATOM      7  C   UNL     1       2.088 -10.879 -43.916  1.00  0.00     0.041 C 
ATOM      8  O   UNL     1       2.381 -10.319 -45.005  1.00  0.00    -0.550 OA
ATOM      9  O   UNL     1       2.086 -12.266 -43.834  1.00  0.00    -0.550 OA
ENDBRANCH   6   7
ENDBRANCH   5   6
ENDBRANCH   4   5
ENDBRANCH   3   4
ENDBRANCH   2   3
ENDBRANCH   1   2
BRANCH   1  10
ATOM     10  C   UNL     1      -3.166  -8.351 -40.820  1.00  0.00     0.000 C 
BRANCH  10  11
ATOM     11  C   UNL     1      -2.587  -8.358 -42.247  1.00  0.00    -0.000 C 
BRANCH  11  12
ATOM     12  C   UNL     1      -3.263  -9.389 -43.164  1.00  0.00    -0.000 C 
BRANCH  12  13
ATOM     13  C   UNL     1      -4.456 -10.053 -42.458  1.00  0.00    -0.000 C 
BRANCH  13  14
ATOM     14  C   UNL     1      -4.360 -11.587 -42.451  1.00  0.00    -0.000 C 
BRANCH  14  15
ATOM     15  C   UNL     1      -2.914 -12.090 -42.321  1.00  0.00    -0.003 C 
ATOM     16  C   UNL     1      -2.794 -13.135 -41.217  1.00  0.00     0.004 C 
ENDBRANCH  14  15
ENDBRANCH  13  14
ENDBRANCH  12  13
ENDBRANCH  11  12
ENDBRANCH  10  11
ENDBRANCH   1  10
TORSDOF 12
ENDMDL
MODEL 2
REMARK VINA RESULT:    -3.479      4.333      6.176
REMARK INTER + INTRA:          -7.728
REMARK INTER:                  -6.860
REMARK INTRA:                  -0.869
REMARK UNBOUND:                -1.810
REMARK SMILES CCCCCCCCCCCCCC(=O)[O-]
REMARK SMILES IDX 8 1 9 2 10 3 11 4 12 5 13 6 14 7 15 8 16 9 7 10 6 11 5 12
REMARK SMILES IDX 4 13 3 14 2 15 1 16
REMARK H PARENT
REMARK Flexibility Score: inf
ROOT
ATOM      1  C   UNL     1      -0.887  -8.612 -39.654  1.00  0.00     0.000 C 
ENDROOT
BRANCH   1   2
ATOM      2  C   UNL     1      -1.265  -7.531 -38.631  1.00  0.00     0.000 C 
BRANCH   2   3
ATOM      3  C   UNL     1      -0.319  -7.561 -37.424  1.00  0.00     0.000 C 
BRANCH   3   4
ATOM      4  C   UNL     1      -1.080  -7.280 -36.121  1.00  0.00     0.000 C 
BRANCH   4   5
ATOM      5  C   UNL     1      -1.406  -8.559 -35.336  1.00  0.00     0.006 C 
BRANCH   5   6
ATOM      6  C   UNL     1      -0.482  -9.729 -35.703  1.00  0.00     0.053 C 
BRANCH   6   7
ATOM      7  C   UNL     1      -0.749 -10.902 -34.814  1.00  0.00     0.041 C 
ATOM      8  O   UNL     1      -0.843 -10.745 -33.568  1.00  0.00    -0.550 OA
ATOM      9  O   UNL     1      -0.943 -12.162 -35.366  1.00  0.00    -0.550 OA
ENDBRANCH   6   7
ENDBRANCH   5   6
ENDBRANCH   4   5
ENDBRANCH   3   4
ENDBRANCH   2   3
ENDBRANCH   1   2
BRANCH   1  10
ATOM     10  C   UNL     1      -1.938  -8.781 -40.767  1.00  0.00     0.000 C 
BRANCH  10  11
ATOM     11  C   UNL     1      -1.378  -9.231 -42.128  1.00  0.00    -0.000 C 
BRANCH  11  12
ATOM     12  C   UNL     1      -1.172 -10.750 -42.221  1.00  0.00    -0.000 C 
BRANCH  12  13
ATOM     13  C   UNL     1       0.245 -11.083 -42.713  1.00  0.00    -0.000 C 
BRANCH  13  14
ATOM     14  C   UNL     1       1.250  -9.955 -42.429  1.00  0.00    -0.000 C 
BRANCH  14  15
ATOM     15  C   UNL     1       2.565 -10.470 -41.826  1.00  0.00    -0.003 C 
ATOM     16  C   UNL     1       2.531 -11.984 -41.645  1.00  0.00     0.004 C 
ENDBRANCH  14  15
ENDBRANCH  13  14
ENDBRANCH  12  13
ENDBRANCH  11  12
ENDBRANCH  10  11
ENDBRANCH   1  10
TORSDOF 12
ENDMDL
MODEL 3
REMARK VINA RESULT:    -3.454      1.490      2.258
REMARK INTER + INTRA:          -7.687
REMARK INTER:                  -5.864
REMARK INTRA:                  -1.823
REMARK UNBOUND:                -1.810
REMARK SMILES CCCCCCCCCCCCCC(=O)[O-]
REMARK SMILES IDX 8 1 9 2 10 3 11 4 12 5 13 6 14 7 15 8 16 9 7 10 6 11 5 12
REMARK SMILES IDX 4 13 3 14 2 15 1 16
REMARK H PARENT
REMARK Flexibility Score: inf
ROOT
ATOM      1  C   UNL     1      -2.537  -8.425 -41.959  1.00  0.00     0.000 C 
ENDROOT
BRANCH   1   2
ATOM      2  C   UNL     1      -1.879  -8.704 -40.600  1.00  0.00     0.000 C 
BRANCH   2   3
ATOM      3  C   UNL     1      -0.480  -9.306 -40.779  1.00  0.00     0.000 C 
BRANCH   3   4
ATOM      4  C   UNL     1      -0.205  -9.628 -42.255  1.00  0.00     0.000 C 
BRANCH   4   5
ATOM      5  C   UNL     1       1.244  -9.326 -42.667  1.00  0.00     0.006 C 
BRANCH   5   6
ATOM      6  C   UNL     1       1.996 -10.575 -43.146  1.00  0.00     0.053 C 
BRANCH   6   7
ATOM      7  C   UNL     1       2.636 -11.274 -41.988  1.00  0.00     0.041 C 
ATOM      8  O   UNL     1       3.753 -10.888 -41.555  1.00  0.00    -0.550 OA
ATOM      9  O   UNL     1       1.976 -12.320 -41.355  1.00  0.00    -0.550 OA
ENDBRANCH   6   7
ENDBRANCH   5   6
ENDBRANCH   4   5
ENDBRANCH   3   4
ENDBRANCH   2   3
ENDBRANCH   1   2
BRANCH   1  10
ATOM     10  C   UNL     1      -3.974  -8.971 -42.056  1.00  0.00     0.000 C 
BRANCH  10  11
ATOM     11  C   UNL     1      -4.188 -10.053 -43.130  1.00  0.00    -0.000 C 
BRANCH  11  12
ATOM     12  C   UNL     1      -4.275 -11.471 -42.545  1.00  0.00    -0.000 C 
BRANCH  12  13
ATOM     13  C   UNL     1      -2.890 -12.134 -42.504  1.00  0.00    -0.000 C 
BRANCH  13  14
ATOM     14  C   UNL     1      -2.487 -12.572 -41.087  1.00  0.00    -0.000 C 
BRANCH  14  15
ATOM     15  C   UNL     1      -3.652 -12.495 -40.088  1.00  0.00    -0.003 C 
ATOM     16  C   UNL     1      -3.298 -11.609 -38.899  1.00  0.00     0.004 C 
ENDBRANCH  14  15
ENDBRANCH  13  14
ENDBRANCH  12  13
ENDBRANCH  11  12
ENDBRANCH  10  11
ENDBRANCH   1  10
TORSDOF 12
ENDMDL
MODEL 4
REMARK VINA RESULT:    -3.445      2.096      4.286
REMARK INTER + INTRA:          -7.672
REMARK INTER:                  -6.170
REMARK INTRA:                  -1.502
REMARK UNBOUND:                -1.810
REMARK SMILES CCCCCCCCCCCCCC(=O)[O-]
REMARK SMILES IDX 8 1 9 2 10 3 11 4 12 5 13 6 14 7 15 8 16 9 7 10 6 11 5 12
REMARK SMILES IDX 4 13 3 14 2 15 1 16
REMARK H PARENT
REMARK Flexibility Score: inf
ROOT
ATOM      1  C   UNL     1      -3.080 -10.448 -41.168  1.00  0.00     0.000 C 
ENDROOT
BRANCH   1   2
ATOM      2  C   UNL     1      -2.907  -8.985 -41.602  1.00  0.00     0.000 C 
BRANCH   2   3
ATOM      3  C   UNL     1      -1.649  -8.811 -42.461  1.00  0.00     0.000 C 
BRANCH   3   4
ATOM      4  C   UNL     1      -0.726 -10.031 -42.338  1.00  0.00     0.000 C 
BRANCH   4   5
ATOM      5  C   UNL     1       0.610  -9.697 -41.657  1.00  0.00     0.006 C 
BRANCH   5   6
ATOM      6  C   UNL     1       1.822 -10.020 -42.541  1.00  0.00     0.053 C 
BRANCH   6   7
ATOM      7  C   UNL     1       2.653 -11.095 -41.915  1.00  0.00     0.041 C 
ATOM      8  O   UNL     1       2.199 -12.264 -41.806  1.00  0.00    -0.550 OA
ATOM      9  O   UNL     1       3.949 -10.817 -41.497  1.00  0.00    -0.550 OA
ENDBRANCH   6   7
ENDBRANCH   5   6
ENDBRANCH   4   5
ENDBRANCH   3   4
ENDBRANCH   2   3
ENDBRANCH   1   2
BRANCH   1  10
ATOM     10  C   UNL     1      -3.682 -10.591 -39.757  1.00  0.00     0.000 C 
BRANCH  10  11
ATOM     11  C   UNL     1      -2.787 -11.320 -38.739  1.00  0.00    -0.000 C 
BRANCH  11  12
ATOM     12  C   UNL     1      -1.331 -10.829 -38.759  1.00  0.00    -0.000 C 
BRANCH  12  13
ATOM     13  C   UNL     1      -1.154  -9.598 -37.856  1.00  0.00    -0.000 C 
BRANCH  13  14
ATOM     14  C   UNL     1      -0.771  -8.336 -38.646  1.00  0.00    -0.000 C 
BRANCH  14  15
ATOM     15  C   UNL     1      -0.755  -7.072 -37.774  1.00  0.00    -0.003 C 
ATOM     16  C   UNL     1      -0.779  -7.428 -36.291  1.00  0.00     0.004 C 
ENDBRANCH  14  15
ENDBRANCH  13  14
ENDBRANCH  12  13
ENDBRANCH  11  12
ENDBRANCH  10  11
ENDBRANCH   1  10
TORSDOF 12
ENDMDL
MODEL 5
REMARK VINA RESULT:    -3.423      2.826      4.777
REMARK INTER + INTRA:          -7.633
REMARK INTER:                  -6.601
REMARK INTRA:                  -1.032
REMARK UNBOUND:                -1.810
REMARK SMILES CCCCCCCCCCCCCC(=O)[O-]
REMARK SMILES IDX 8 1 9 2 10 3 11 4 12 5 13 6 14 7 15 8 16 9 7 10 6 11 5 12
REMARK SMILES IDX 4 13 3 14 2 15 1 16
REMARK H PARENT
REMARK Flexibility Score: inf
ROOT
ATOM      1  C   UNL     1      -2.424  -8.830 -40.182  1.00  0.00     0.000 C 
ENDROOT
BRANCH   1   2
ATOM      2  C   UNL     1      -2.639  -8.327 -41.617  1.00  0.00     0.000 C 
BRANCH   2   3
ATOM      3  C   UNL     1      -2.115  -9.342 -42.641  1.00  0.00     0.000 C 
BRANCH   3   4
ATOM      4  C   UNL     1      -1.875 -10.710 -41.986  1.00  0.00     0.000 C 
BRANCH   4   5
ATOM      5  C   UNL     1      -0.462 -11.252 -42.247  1.00  0.00     0.006 C 
BRANCH   5   6
ATOM      6  C   UNL     1       0.567 -10.734 -41.234  1.00  0.00     0.053 C 
BRANCH   6   7
ATOM      7  C   UNL     1       1.717 -10.090 -41.942  1.00  0.00     0.041 C 
ATOM      8  O   UNL     1       1.519  -9.128 -42.729  1.00  0.00    -0.550 OA
ATOM      9  O   UNL     1       3.015 -10.520 -41.694  1.00  0.00    -0.550 OA
ENDBRANCH   6   7
ENDBRANCH   5   6
ENDBRANCH   4   5
ENDBRANCH   3   4
ENDBRANCH   2   3
ENDBRANCH   1   2
BRANCH   1  10
ATOM     10  C   UNL     1      -1.395  -7.993 -39.399  1.00  0.00     0.000 C 
BRANCH  10  11
ATOM     11  C   UNL     1      -0.744  -8.713 -38.205  1.00  0.00    -0.000 C 
BRANCH  11  12
ATOM     12  C   UNL     1      -0.362  -7.759 -37.063  1.00  0.00    -0.000 C 
BRANCH  12  13
ATOM     13  C   UNL     1      -1.135  -8.100 -35.780  1.00  0.00    -0.000 C 
BRANCH  13  14
ATOM     14  C   UNL     1      -1.280  -9.614 -35.562  1.00  0.00    -0.000 C 
BRANCH  14  15
ATOM     15  C   UNL     1       0.027 -10.275 -35.098  1.00  0.00    -0.003 C 
ATOM     16  C   UNL     1      -0.252 -11.562 -34.328  1.00  0.00     0.004 C 
ENDBRANCH  14  15
ENDBRANCH  13  14
ENDBRANCH  12  13
ENDBRANCH  11  12
ENDBRANCH  10  11
ENDBRANCH   1  10
TORSDOF 12
ENDMDL
MODEL 6
REMARK VINA RESULT:    -3.405      1.075      3.111
REMARK INTER + INTRA:          -7.603
REMARK INTER:                  -5.854
REMARK INTRA:                  -1.748
REMARK UNBOUND:                -1.810
REMARK SMILES CCCCCCCCCCCCCC(=O)[O-]
REMARK SMILES IDX 8 1 9 2 10 3 11 4 12 5 13 6 14 7 15 8 16 9 7 10 6 11 5 12
REMARK SMILES IDX 4 13 3 14 2 15 1 16
REMARK H PARENT
REMARK Flexibility Score: inf
ROOT
ATOM      1  C   UNL     1      -2.724 -12.421 -42.079  1.00  0.00     0.000 C 
ENDROOT
BRANCH   1   2
ATOM      2  C   UNL     1      -1.486 -11.594 -42.455  1.00  0.00     0.000 C 
BRANCH   2   3
ATOM      3  C   UNL     1      -0.596 -11.347 -41.232  1.00  0.00     0.000 C 
BRANCH   3   4
ATOM      4  C   UNL     1      -0.107  -9.892 -41.192  1.00  0.00     0.000 C 
BRANCH   4   5
ATOM      5  C   UNL     1       0.818  -9.545 -42.368  1.00  0.00     0.006 C 
BRANCH   5   6
ATOM      6  C   UNL     1       2.048 -10.459 -42.443  1.00  0.00     0.053 C 
BRANCH   6   7
ATOM      7  C   UNL     1       2.158 -11.075 -43.802  1.00  0.00     0.041 C 
ATOM      8  O   UNL     1       2.081 -12.324 -43.940  1.00  0.00    -0.550 OA
ATOM      9  O   UNL     1       2.296 -10.266 -44.923  1.00  0.00    -0.550 OA
ENDBRANCH   6   7
ENDBRANCH   5   6
ENDBRANCH   4   5
ENDBRANCH   3   4
ENDBRANCH   2   3
ENDBRANCH   1   2
BRANCH   1  10
ATOM     10  C   UNL     1      -4.045 -11.664 -42.302  1.00  0.00     0.000 C 
BRANCH  10  11
ATOM     11  C   UNL     1      -4.807 -11.291 -41.017  1.00  0.00    -0.000 C 
BRANCH  11  12
ATOM     12  C   UNL     1      -5.040  -9.780 -40.875  1.00  0.00    -0.000 C 
BRANCH  12  13
ATOM     13  C   UNL     1      -3.705  -9.021 -40.817  1.00  0.00    -0.000 C 
BRANCH  13  14
ATOM     14  C   UNL     1      -3.610  -7.911 -41.876  1.00  0.00    -0.000 C 
BRANCH  14  15
ATOM     15  C   UNL     1      -2.916  -8.377 -43.164  1.00  0.00    -0.003 C 
ATOM     16  C   UNL     1      -3.909  -8.476 -44.318  1.00  0.00     0.004 C 
ENDBRANCH  14  15
ENDBRANCH  13  14
ENDBRANCH  12  13
ENDBRANCH  11  12
ENDBRANCH  10  11
ENDBRANCH   1  10
TORSDOF 12
ENDMDL
MODEL 7
REMARK VINA RESULT:    -3.357      4.957      6.750
REMARK INTER + INTRA:          -7.522
REMARK INTER:                  -6.366
REMARK INTRA:                  -1.156
REMARK UNBOUND:                -1.810
REMARK SMILES CCCCCCCCCCCCCC(=O)[O-]
REMARK SMILES IDX 8 1 9 2 10 3 11 4 12 5 13 6 14 7 15 8 16 9 7 10 6 11 5 12
REMARK SMILES IDX 4 13 3 14 2 15 1 16
REMARK H PARENT
REMARK Flexibility Score: inf
ROOT
ATOM      1  C   UNL     1      -0.367  -7.616 -37.380  1.00  0.00     0.000 C 
ENDROOT
BRANCH   1   2
ATOM      2  C   UNL     1      -1.147  -7.227 -36.116  1.00  0.00     0.000 C 
BRANCH   2   3
ATOM      3  C   UNL     1      -1.488  -8.465 -35.277  1.00  0.00     0.000 C 
BRANCH   3   4
ATOM      4  C   UNL     1      -0.542  -9.629 -35.605  1.00  0.00     0.000 C 
BRANCH   4   5
ATOM      5  C   UNL     1      -1.294 -10.925 -35.946  1.00  0.00     0.006 C 
BRANCH   5   6
ATOM      6  C   UNL     1      -1.786 -11.669 -34.698  1.00  0.00     0.053 C 
BRANCH   6   7
ATOM      7  C   UNL     1      -0.718 -11.695 -33.651  1.00  0.00     0.041 C 
ATOM      8  O   UNL     1      -0.891 -11.101 -32.554  1.00  0.00    -0.550 OA
ATOM      9  O   UNL     1       0.449 -12.417 -33.866  1.00  0.00    -0.550 OA
ENDBRANCH   6   7
ENDBRANCH   5   6
ENDBRANCH   4   5
ENDBRANCH   3   4
ENDBRANCH   2   3
ENDBRANCH   1   2
BRANCH   1  10
ATOM     10  C   UNL     1      -1.150  -7.347 -38.678  1.00  0.00     0.000 C 
BRANCH  10  11
ATOM     11  C   UNL     1      -1.445  -8.594 -39.530  1.00  0.00    -0.000 C 
BRANCH  11  12
ATOM     12  C   UNL     1      -0.381  -9.691 -39.378  1.00  0.00    -0.000 C 
BRANCH  12  13
ATOM     13  C   UNL     1      -0.702 -10.897 -40.275  1.00  0.00    -0.000 C 
BRANCH  13  14
ATOM     14  C   UNL     1       0.412 -11.190 -41.292  1.00  0.00    -0.000 C 
BRANCH  14  15
ATOM     15  C   UNL     1       1.324  -9.979 -41.540  1.00  0.00    -0.003 C 
ATOM     16  C   UNL     1       1.450  -9.683 -43.031  1.00  0.00     0.004 C 
ENDBRANCH  14  15
ENDBRANCH  13  14
ENDBRANCH  12  13
ENDBRANCH  11  12
ENDBRANCH  10  11
ENDBRANCH   1  10
TORSDOF 12
ENDMDL
MODEL 8
REMARK VINA RESULT:    -3.356      3.235      5.075
REMARK INTER + INTRA:          -7.520
REMARK INTER:                  -6.672
REMARK INTRA:                  -0.849
REMARK UNBOUND:                -1.810
REMARK SMILES CCCCCCCCCCCCCC(=O)[O-]
REMARK SMILES IDX 8 1 9 2 10 3 11 4 12 5 13 6 14 7 15 8 16 9 7 10 6 11 5 12
REMARK SMILES IDX 4 13 3 14 2 15 1 16
REMARK H PARENT
REMARK Flexibility Score: inf
ROOT
ATOM      1  C   UNL     1      -1.272  -7.616 -38.994  1.00  0.00     0.000 C 
ENDROOT
BRANCH   1   2
ATOM      2  C   UNL     1      -1.053  -9.024 -39.568  1.00  0.00     0.000 C 
BRANCH   2   3
ATOM      3  C   UNL     1      -1.448  -9.082 -41.049  1.00  0.00     0.000 C 
BRANCH   3   4
ATOM      4  C   UNL     1      -0.573 -10.086 -41.813  1.00  0.00     0.000 C 
BRANCH   4   5
ATOM      5  C   UNL     1       0.722  -9.457 -42.347  1.00  0.00     0.006 C 
BRANCH   5   6
ATOM      6  C   UNL     1       1.980 -10.063 -41.710  1.00  0.00     0.053 C 
BRANCH   6   7
ATOM      7  C   UNL     1       2.293 -11.387 -42.332  1.00  0.00     0.041 C 
ATOM      8  O   UNL     1       2.388 -12.418 -41.615  1.00  0.00    -0.550 OA
ATOM      9  O   UNL     1       2.431 -11.493 -43.711  1.00  0.00    -0.550 OA
ENDBRANCH   6   7
ENDBRANCH   5   6
ENDBRANCH   4   5
ENDBRANCH   3   4
ENDBRANCH   2   3
ENDBRANCH   1   2
BRANCH   1  10
ATOM     10  C   UNL     1      -0.380  -7.318 -37.775  1.00  0.00     0.000 C 
BRANCH  10  11
ATOM     11  C   UNL     1      -1.139  -6.948 -36.488  1.00  0.00    -0.000 C 
BRANCH  11  12
ATOM     12  C   UNL     1      -1.421  -8.161 -35.588  1.00  0.00    -0.000 C 
BRANCH  12  13
ATOM     13  C   UNL     1      -0.366  -9.259 -35.800  1.00  0.00    -0.000 C 
BRANCH  13  14
ATOM     14  C   UNL     1      -0.917 -10.667 -35.526  1.00  0.00    -0.000 C 
BRANCH  14  15
ATOM     15  C   UNL     1      -1.754 -10.738 -34.241  1.00  0.00    -0.003 C 
ATOM     16  C   UNL     1      -0.937 -11.304 -33.084  1.00  0.00     0.004 C 
ENDBRANCH  14  15
ENDBRANCH  13  14
ENDBRANCH  12  13
ENDBRANCH  11  12
ENDBRANCH  10  11
ENDBRANCH   1  10
TORSDOF 12
ENDMDL
MODEL 9
REMARK VINA RESULT:    -3.235     11.990     14.472
REMARK INTER + INTRA:          -7.314
REMARK INTER:                  -5.524
REMARK INTRA:                  -1.790
REMARK UNBOUND:                -1.810
REMARK SMILES CCCCCCCCCCCCCC(=O)[O-]
REMARK SMILES IDX 8 1 9 2 10 3 11 4 12 5 13 6 14 7 15 8 16 9 7 10 6 11 5 12
REMARK SMILES IDX 4 13 3 14 2 15 1 16
REMARK H PARENT
REMARK Flexibility Score: inf
ROOT
ATOM      1  C   UNL     1      -0.936 -25.067 -43.572  1.00  0.00     0.000 C 
ENDROOT
BRANCH   1   2
ATOM      2  C   UNL     1       0.585 -24.886 -43.692  1.00  0.00     0.000 C 
BRANCH   2   3
ATOM      3  C   UNL     1       0.929 -23.732 -44.641  1.00  0.00     0.000 C 
BRANCH   3   4
ATOM      4  C   UNL     1      -0.298 -22.843 -44.894  1.00  0.00     0.000 C 
BRANCH   4   5
ATOM      5  C   UNL     1      -0.043 -21.369 -44.545  1.00  0.00     0.006 C 
BRANCH   5   6
ATOM      6  C   UNL     1      -0.219 -21.076 -43.049  1.00  0.00     0.053 C 
BRANCH   6   7
ATOM      7  C   UNL     1       0.108 -19.647 -42.756  1.00  0.00     0.041 C 
ATOM      8  O   UNL     1      -0.799 -18.774 -42.762  1.00  0.00    -0.550 OA
ATOM      9  O   UNL     1       1.409 -19.285 -42.425  1.00  0.00    -0.550 OA
ENDBRANCH   6   7
ENDBRANCH   5   6
ENDBRANCH   4   5
ENDBRANCH   3   4
ENDBRANCH   2   3
ENDBRANCH   1   2
BRANCH   1  10
ATOM     10  C   UNL     1      -1.385 -26.529 -43.751  1.00  0.00     0.000 C 
BRANCH  10  11
ATOM     11  C   UNL     1      -2.571 -26.732 -44.711  1.00  0.00    -0.000 C 
BRANCH  11  12
ATOM     12  C   UNL     1      -2.751 -25.569 -45.698  1.00  0.00    -0.000 C 
BRANCH  12  13
ATOM     13  C   UNL     1      -2.273 -25.964 -47.104  1.00  0.00    -0.000 C 
BRANCH  13  14
ATOM     14  C   UNL     1      -0.785 -25.653 -47.331  1.00  0.00    -0.000 C 
BRANCH  14  15
ATOM     15  C   UNL     1       0.092 -26.914 -47.328  1.00  0.00    -0.003 C 
ATOM     16  C   UNL     1       1.534 -26.579 -46.958  1.00  0.00     0.004 C 
ENDBRANCH  14  15
ENDBRANCH  13  14
ENDBRANCH  12  13
ENDBRANCH  11  12
ENDBRANCH  10  11
ENDBRANCH   1  10
TORSDOF 12
ENDMDL
