MODEL 1
REMARK VINA RESULT:    -2.024      0.000      0.000
REMARK INTER + INTRA:          -4.389
REMARK INTER:                  -3.680
REMARK INTRA:                  -0.709
REMARK UNBOUND:                -0.709
REMARK SMILES CCCCCCCCCCCCCCCC(=O)[O-]
REMARK SMILES IDX 9 1 10 2 11 3 12 4 13 5 14 6 15 7 16 8 17 9 18 10 8 11 7 12
REMARK SMILES IDX 6 13 5 14 4 15 3 16 2 17 1 18
REMARK H PARENT
REMARK Flexibility Score: inf
ROOT
ATOM      1  C   UNL     1      -0.476  30.586  24.905  1.00  0.00     0.000 C 
ENDROOT
BRANCH   1   2
ATOM      2  C   UNL     1      -1.750  31.185  24.281  1.00  0.00     0.000 C 
BRANCH   2   3
ATOM      3  C   UNL     1      -2.973  31.242  25.217  1.00  0.00     0.000 C 
BRANCH   3   4
ATOM      4  C   UNL     1      -3.627  32.631  25.359  1.00  0.00     0.000 C 
BRANCH   4   5
ATOM      5  C   UNL     1      -3.795  33.125  26.807  1.00  0.00     0.000 C 
BRANCH   5   6
ATOM      6  C   UNL     1      -2.764  32.516  27.768  1.00  0.00     0.006 C 
BRANCH   6   7
ATOM      7  C   UNL     1      -3.455  31.735  28.890  1.00  0.00     0.053 C 
BRANCH   7   8
ATOM      8  C   UNL     1      -4.697  31.075  28.382  1.00  0.00     0.041 C 
ATOM      9  O   UNL     1      -4.621  30.009  27.716  1.00  0.00    -0.550 OA
ATOM     10  O   UNL     1      -5.937  31.665  28.599  1.00  0.00    -0.550 OA
ENDBRANCH   7   8
ENDBRANCH   6   7
ENDBRANCH   5   6
ENDBRANCH   4   5
ENDBRANCH   3   4
ENDBRANCH   2   3
ENDBRANCH   1   2
BRANCH   1  11
ATOM     11  C   UNL     1      -0.065  31.286  26.211  1.00  0.00     0.000 C 
BRANCH  11  12
ATOM     12  C   UNL     1       1.453  31.502  26.311  1.00  0.00    -0.000 C 
BRANCH  12  13
ATOM     13  C   UNL     1       2.156  30.407  27.135  1.00  0.00    -0.000 C 
BRANCH  13  14
ATOM     14  C   UNL     1       2.667  30.924  28.490  1.00  0.00    -0.000 C 
BRANCH  14  15
ATOM     15  C   UNL     1       2.449  32.435  28.666  1.00  0.00    -0.000 C 
BRANCH  15  16
ATOM     16  C   UNL     1       3.743  33.125  29.125  1.00  0.00    -0.000 C 
BRANCH  16  17
ATOM     17  C   UNL     1       4.958  32.187  29.084  1.00  0.00    -0.003 C 
ATOM     18  C   UNL     1       6.207  32.859  28.514  1.00  0.00     0.004 C 
ENDBRANCH  16  17
ENDBRANCH  15  16
ENDBRANCH  14  15
ENDBRANCH  13  14
ENDBRANCH  12  13
ENDBRANCH  11  12
ENDBRANCH   1  11
TORSDOF 14
ENDMDL
MODEL 2
REMARK VINA RESULT:    -1.687     18.131     20.689
REMARK INTER + INTRA:          -3.775
REMARK INTER:                  -3.253
REMARK INTRA:                  -0.522
REMARK UNBOUND:                -0.709
REMARK SMILES CCCCCCCCCCCCCCCC(=O)[O-]
REMARK SMILES IDX 9 1 10 2 11 3 12 4 13 5 14 6 15 7 16 8 17 9 18 10 8 11 7 12
REMARK SMILES IDX 6 13 5 14 4 15 3 16 2 17 1 18
REMARK H PARENT
REMARK Flexibility Score: inf
ROOT
ATOM      1  C   UNL     1       5.584  14.880  18.266  1.00  0.00     0.000 C 
ENDROOT
BRANCH   1   2
ATOM      2  C   UNL     1       5.583  15.120  19.788  1.00  0.00     0.000 C 
BRANCH   2   3
ATOM      3  C   UNL     1       5.501  16.598  20.217  1.00  0.00     0.000 C 
BRANCH   3   4
ATOM      4  C   UNL     1       6.320  16.964  21.472  1.00  0.00     0.000 C 
BRANCH   4   5
ATOM      5  C   UNL     1       5.508  17.598  22.615  1.00  0.00     0.000 C 
BRANCH   5   6
ATOM      6  C   UNL     1       6.323  18.606  23.437  1.00  0.00     0.006 C 
BRANCH   6   7
ATOM      7  C   UNL     1       7.743  18.089  23.688  1.00  0.00     0.053 C 
BRANCH   7   8
ATOM      8  C   UNL     1       7.794  17.292  24.953  1.00  0.00     0.041 C 
ATOM      9  O   UNL     1       8.146  17.838  26.032  1.00  0.00    -0.550 OA
ATOM     10  O   UNL     1       7.502  15.933  24.932  1.00  0.00    -0.550 OA
ENDBRANCH   7   8
ENDBRANCH   6   7
ENDBRANCH   5   6
ENDBRANCH   4   5
ENDBRANCH   3   4
ENDBRANCH   2   3
ENDBRANCH   1   2
BRANCH   1  11
ATOM     11  C   UNL     1       4.474  13.918  17.813  1.00  0.00     0.000 C 
BRANCH  11  12
ATOM     12  C   UNL     1       4.062  14.143  16.350  1.00  0.00    -0.000 C 
BRANCH  12  13
ATOM     13  C   UNL     1       2.574  13.837  16.098  1.00  0.00    -0.000 C 
BRANCH  13  14
ATOM     14  C   UNL     1       2.181  13.994  14.620  1.00  0.00    -0.000 C 
BRANCH  14  15
ATOM     15  C   UNL     1       3.373  14.373  13.728  1.00  0.00    -0.000 C 
BRANCH  15  16
ATOM     16  C   UNL     1       3.611  13.306  12.649  1.00  0.00    -0.000 C 
BRANCH  16  17
ATOM     17  C   UNL     1       3.987  13.914  11.290  1.00  0.00    -0.003 C 
ATOM     18  C   UNL     1       3.982  12.886  10.159  1.00  0.00     0.004 C 
ENDBRANCH  16  17
ENDBRANCH  15  16
ENDBRANCH  14  15
ENDBRANCH  13  14
ENDBRANCH  12  13
ENDBRANCH  11  12
ENDBRANCH   1  11
TORSDOF 14
ENDMDL
MODEL 3
REMARK VINA RESULT:    -1.680     18.711     20.617
REMARK INTER + INTRA:          -3.764
REMARK INTER:                  -3.290
REMARK INTRA:                  -0.474
REMARK UNBOUND:                -0.709
REMARK SMILES CCCCCCCCCCCCCCCC(=O)[O-]
REMARK SMILES IDX 9 1 10 2 11 3 12 4 13 5 14 6 15 7 16 8 17 9 18 10 8 11 7 12
REMARK SMILES IDX 6 13 5 14 4 15 3 16 2 17 1 18
REMARK H PARENT
REMARK Flexibility Score: inf
ROOT
ATOM      1  C   UNL     1       5.341  14.250  19.069  1.00  0.00     0.000 C 
ENDROOT
BRANCH   1   2
ATOM      2  C   UNL     1       5.519  14.049  17.553  1.00  0.00     0.000 C 
BRANCH   2   3
ATOM      3  C   UNL     1       4.263  14.331  16.704  1.00  0.00     0.000 C 
BRANCH   3   4
ATOM      4  C   UNL     1       4.417  14.058  15.194  1.00  0.00     0.000 C 
BRANCH   4   5
ATOM      5  C   UNL     1       3.128  14.223  14.370  1.00  0.00     0.000 C 
BRANCH   5   6
ATOM      6  C   UNL     1       3.401  14.510  12.886  1.00  0.00     0.006 C 
BRANCH   6   7
ATOM      7  C   UNL     1       3.822  13.234  12.150  1.00  0.00     0.053 C 
BRANCH   7   8
ATOM      8  C   UNL     1       3.919  13.486  10.679  1.00  0.00     0.041 C 
ATOM      9  O   UNL     1       2.894  13.398   9.952  1.00  0.00    -0.550 OA
ATOM     10  O   UNL     1       5.150  13.769  10.101  1.00  0.00    -0.550 OA
ENDBRANCH   7   8
ENDBRANCH   6   7
ENDBRANCH   5   6
ENDBRANCH   4   5
ENDBRANCH   3   4
ENDBRANCH   2   3
ENDBRANCH   1   2
BRANCH   1  11
ATOM     11  C   UNL     1       6.150  15.439  19.613  1.00  0.00     0.000 C 
BRANCH  11  12
ATOM     12  C   UNL     1       5.311  16.360  20.512  1.00  0.00    -0.000 C 
BRANCH  12  13
ATOM     13  C   UNL     1       6.176  17.226  21.447  1.00  0.00    -0.000 C 
BRANCH  13  14
ATOM     14  C   UNL     1       5.386  17.764  22.652  1.00  0.00    -0.000 C 
BRANCH  14  15
ATOM     15  C   UNL     1       6.134  18.879  23.398  1.00  0.00    -0.000 C 
BRANCH  15  16
ATOM     16  C   UNL     1       7.570  18.448  23.732  1.00  0.00    -0.000 C 
BRANCH  16  17
ATOM     17  C   UNL     1       7.682  17.795  25.118  1.00  0.00    -0.003 C 
ATOM     18  C   UNL     1       7.625  16.268  25.059  1.00  0.00     0.004 C 
ENDBRANCH  16  17
ENDBRANCH  15  16
ENDBRANCH  14  15
ENDBRANCH  13  14
ENDBRANCH  12  13
ENDBRANCH  11  12
ENDBRANCH   1  11
TORSDOF 14
ENDMDL
MODEL 4
REMARK VINA RESULT:    -1.661     17.666     20.193
REMARK INTER + INTRA:          -3.729
REMARK INTER:                  -3.158
REMARK INTRA:                  -0.571
REMARK UNBOUND:                -0.709
REMARK SMILES CCCCCCCCCCCCCCCC(=O)[O-]
REMARK SMILES IDX 9 1 10 2 11 3 12 4 13 5 14 6 15 7 16 8 17 9 18 10 8 11 7 12
REMARK SMILES IDX 6 13 5 14 4 15 3 16 2 17 1 18
REMARK H PARENT
REMARK Flexibility Score: inf
ROOT
ATOM      1  C   UNL     1       5.700  14.729  19.401  1.00  0.00     0.000 C 
ENDROOT
BRANCH   1   2
ATOM      2  C   UNL     1       5.516  16.231  19.688  1.00  0.00     0.000 C 
BRANCH   2   3
ATOM      3  C   UNL     1       5.171  16.580  21.149  1.00  0.00     0.000 C 
BRANCH   3   4
ATOM      4  C   UNL     1       6.057  17.667  21.791  1.00  0.00     0.000 C 
BRANCH   4   5
ATOM      5  C   UNL     1       5.330  18.599  22.776  1.00  0.00     0.000 C 
BRANCH   5   6
ATOM      6  C   UNL     1       6.133  18.856  24.059  1.00  0.00     0.006 C 
BRANCH   6   7
ATOM      7  C   UNL     1       7.569  18.341  23.918  1.00  0.00     0.053 C 
BRANCH   7   8
ATOM      8  C   UNL     1       7.874  17.341  24.987  1.00  0.00     0.041 C 
ATOM      9  O   UNL     1       7.790  16.108  24.744  1.00  0.00    -0.550 OA
ATOM     10  O   UNL     1       8.203  17.769  26.268  1.00  0.00    -0.550 OA
ENDBRANCH   7   8
ENDBRANCH   6   7
ENDBRANCH   5   6
ENDBRANCH   4   5
ENDBRANCH   3   4
ENDBRANCH   2   3
ENDBRANCH   1   2
BRANCH   1  11
ATOM     11  C   UNL     1       5.521  14.379  17.915  1.00  0.00     0.000 C 
BRANCH  11  12
ATOM     12  C   UNL     1       4.102  13.885  17.593  1.00  0.00    -0.000 C 
BRANCH  12  13
ATOM     13  C   UNL     1       3.647  14.267  16.173  1.00  0.00    -0.000 C 
BRANCH  13  14
ATOM     14  C   UNL     1       2.212  13.806  15.868  1.00  0.00    -0.000 C 
BRANCH  14  15
ATOM     15  C   UNL     1       1.955  13.630  14.364  1.00  0.00    -0.000 C 
BRANCH  15  16
ATOM     16  C   UNL     1       3.076  14.278  13.537  1.00  0.00    -0.000 C 
BRANCH  16  17
ATOM     17  C   UNL     1       3.679  13.315  12.503  1.00  0.00    -0.003 C 
ATOM     18  C   UNL     1       4.008  14.001  11.177  1.00  0.00     0.004 C 
ENDBRANCH  16  17
ENDBRANCH  15  16
ENDBRANCH  14  15
ENDBRANCH  13  14
ENDBRANCH  12  13
ENDBRANCH  11  12
ENDBRANCH   1  11
TORSDOF 14
ENDMDL
MODEL 5
REMARK VINA RESULT:    -1.650     17.398     19.309
REMARK INTER + INTRA:          -3.709
REMARK INTER:                  -2.881
REMARK INTRA:                  -0.828
REMARK UNBOUND:                -0.709
REMARK SMILES CCCCCCCCCCCCCCCC(=O)[O-]
REMARK SMILES IDX 9 1 10 2 11 3 12 4 13 5 14 6 15 7 16 8 17 9 18 10 8 11 7 12
REMARK SMILES IDX 6 13 5 14 4 15 3 16 2 17 1 18
REMARK H PARENT
REMARK Flexibility Score: inf
ROOT
ATOM      1  C   UNL     1       5.186  16.266  19.497  1.00  0.00     0.000 C 
ENDROOT
BRANCH   1   2
ATOM      2  C   UNL     1       5.853  14.892  19.296  1.00  0.00     0.000 C 
BRANCH   2   3
ATOM      3  C   UNL     1       5.495  14.177  17.978  1.00  0.00     0.000 C 
BRANCH   3   4
ATOM      4  C   UNL     1       4.028  14.333  17.525  1.00  0.00     0.000 C 
BRANCH   4   5
ATOM      5  C   UNL     1       3.760  13.966  16.055  1.00  0.00     0.000 C 
BRANCH   5   6
ATOM      6  C   UNL     1       2.264  13.855  15.731  1.00  0.00     0.006 C 
BRANCH   6   7
ATOM      7  C   UNL     1       2.046  13.520  14.252  1.00  0.00     0.053 C 
BRANCH   7   8
ATOM      8  C   UNL     1       2.955  14.339  13.390  1.00  0.00     0.041 C 
ATOM      9  O   UNL     1       2.778  15.581  13.285  1.00  0.00    -0.550 OA
ATOM     10  O   UNL     1       3.967  13.722  12.664  1.00  0.00    -0.550 OA
ENDBRANCH   7   8
ENDBRANCH   6   7
ENDBRANCH   5   6
ENDBRANCH   4   5
ENDBRANCH   3   4
ENDBRANCH   2   3
ENDBRANCH   1   2
BRANCH   1  11
ATOM     11  C   UNL     1       6.110  17.282  20.188  1.00  0.00     0.000 C 
BRANCH  11  12
ATOM     12  C   UNL     1       6.283  16.996  21.688  1.00  0.00    -0.000 C 
BRANCH  12  13
ATOM     13  C   UNL     1       5.060  17.424  22.520  1.00  0.00    -0.000 C 
BRANCH  13  14
ATOM     14  C   UNL     1       5.132  18.894  22.962  1.00  0.00    -0.000 C 
BRANCH  14  15
ATOM     15  C   UNL     1       6.439  19.227  23.697  1.00  0.00    -0.000 C 
BRANCH  15  16
ATOM     16  C   UNL     1       6.516  18.487  25.041  1.00  0.00    -0.000 C 
BRANCH  16  17
ATOM     17  C   UNL     1       7.831  17.713  25.214  1.00  0.00    -0.003 C 
ATOM     18  C   UNL     1       7.670  16.211  24.977  1.00  0.00     0.004 C 
ENDBRANCH  16  17
ENDBRANCH  15  16
ENDBRANCH  14  15
ENDBRANCH  13  14
ENDBRANCH  12  13
ENDBRANCH  11  12
ENDBRANCH   1  11
TORSDOF 14
ENDMDL
MODEL 6
REMARK VINA RESULT:    -1.638     18.625     21.127
REMARK INTER + INTRA:          -3.688
REMARK INTER:                  -3.216
REMARK INTRA:                  -0.472
REMARK UNBOUND:                -0.709
REMARK SMILES CCCCCCCCCCCCCCCC(=O)[O-]
REMARK SMILES IDX 9 1 10 2 11 3 12 4 13 5 14 6 15 7 16 8 17 9 18 10 8 11 7 12
REMARK SMILES IDX 6 13 5 14 4 15 3 16 2 17 1 18
REMARK H PARENT
REMARK Flexibility Score: inf
ROOT
ATOM      1  C   UNL     1       4.589  13.728  17.595  1.00  0.00     0.000 C 
ENDROOT
BRANCH   1   2
ATOM      2  C   UNL     1       5.719  14.556  18.235  1.00  0.00     0.000 C 
BRANCH   2   3
ATOM      3  C   UNL     1       5.497  14.933  19.713  1.00  0.00     0.000 C 
BRANCH   3   4
ATOM      4  C   UNL     1       5.334  16.442  19.988  1.00  0.00     0.000 C 
BRANCH   4   5
ATOM      5  C   UNL     1       6.494  17.090  20.762  1.00  0.00     0.000 C 
BRANCH   5   6
ATOM      6  C   UNL     1       6.122  17.442  22.210  1.00  0.00     0.006 C 
BRANCH   6   7
ATOM      7  C   UNL     1       7.369  17.497  23.099  1.00  0.00     0.053 C 
BRANCH   7   8
ATOM      8  C   UNL     1       7.054  18.156  24.404  1.00  0.00     0.041 C 
ATOM      9  O   UNL     1       6.125  19.003  24.477  1.00  0.00    -0.550 OA
ATOM     10  O   UNL     1       7.819  17.873  25.529  1.00  0.00    -0.550 OA
ENDBRANCH   7   8
ENDBRANCH   6   7
ENDBRANCH   5   6
ENDBRANCH   4   5
ENDBRANCH   3   4
ENDBRANCH   2   3
ENDBRANCH   1   2
BRANCH   1  11
ATOM     11  C   UNL     1       4.050  14.355  16.299  1.00  0.00     0.000 C 
BRANCH  11  12
ATOM     12  C   UNL     1       2.596  13.951  16.010  1.00  0.00    -0.000 C 
BRANCH  12  13
ATOM     13  C   UNL     1       2.287  13.880  14.503  1.00  0.00    -0.000 C 
BRANCH  13  14
ATOM     14  C   UNL     1       3.482  14.305  13.635  1.00  0.00    -0.000 C 
BRANCH  14  15
ATOM     15  C   UNL     1       3.788  13.298  12.517  1.00  0.00    -0.000 C 
BRANCH  15  16
ATOM     16  C   UNL     1       3.810  13.991  11.146  1.00  0.00    -0.000 C 
BRANCH  16  17
ATOM     17  C   UNL     1       4.472  13.131  10.060  1.00  0.00    -0.003 C 
ATOM     18  C   UNL     1       5.833  13.673   9.622  1.00  0.00     0.004 C 
ENDBRANCH  16  17
ENDBRANCH  15  16
ENDBRANCH  14  15
ENDBRANCH  13  14
ENDBRANCH  12  13
ENDBRANCH  11  12
ENDBRANCH   1  11
TORSDOF 14
ENDMDL
MODEL 7
REMARK VINA RESULT:    -1.617      1.290      1.965
REMARK INTER + INTRA:          -3.648
REMARK INTER:                  -3.119
REMARK INTRA:                  -0.530
REMARK UNBOUND:                -0.709
REMARK SMILES CCCCCCCCCCCCCCCC(=O)[O-]
REMARK SMILES IDX 9 1 10 2 11 3 12 4 13 5 14 6 15 7 16 8 17 9 18 10 8 11 7 12
REMARK SMILES IDX 6 13 5 14 4 15 3 16 2 17 1 18
REMARK H PARENT
REMARK Flexibility Score: inf
ROOT
ATOM      1  C   UNL     1       0.874  30.716  25.373  1.00  0.00     0.000 C 
ENDROOT
BRANCH   1   2
ATOM      2  C   UNL     1      -0.473  30.805  24.631  1.00  0.00     0.000 C 
BRANCH   2   3
ATOM      3  C   UNL     1      -1.691  31.119  25.522  1.00  0.00     0.000 C 
BRANCH   3   4
ATOM      4  C   UNL     1      -3.043  31.191  24.783  1.00  0.00     0.000 C 
BRANCH   4   5
ATOM      5  C   UNL     1      -3.650  32.600  24.675  1.00  0.00     0.000 C 
BRANCH   5   6
ATOM      6  C   UNL     1      -4.574  32.944  25.852  1.00  0.00     0.006 C 
BRANCH   6   7
ATOM      7  C   UNL     1      -3.772  33.120  27.145  1.00  0.00     0.053 C 
BRANCH   7   8
ATOM      8  C   UNL     1      -4.086  32.022  28.110  1.00  0.00     0.041 C 
ATOM      9  O   UNL     1      -5.280  31.673  28.306  1.00  0.00    -0.550 OA
ATOM     10  O   UNL     1      -3.064  31.417  28.832  1.00  0.00    -0.550 OA
ENDBRANCH   7   8
ENDBRANCH   6   7
ENDBRANCH   5   6
ENDBRANCH   4   5
ENDBRANCH   3   4
ENDBRANCH   2   3
ENDBRANCH   1   2
BRANCH   1  11
ATOM     11  C   UNL     1       0.726  30.864  26.896  1.00  0.00     0.000 C 
BRANCH  11  12
ATOM     12  C   UNL     1       1.743  31.850  27.493  1.00  0.00    -0.000 C 
BRANCH  12  13
ATOM     13  C   UNL     1       3.201  31.456  27.191  1.00  0.00    -0.000 C 
BRANCH  13  14
ATOM     14  C   UNL     1       4.173  32.639  27.329  1.00  0.00    -0.000 C 
BRANCH  14  15
ATOM     15  C   UNL     1       4.545  32.931  28.790  1.00  0.00    -0.000 C 
BRANCH  15  16
ATOM     16  C   UNL     1       6.062  33.117  28.942  1.00  0.00    -0.000 C 
BRANCH  16  17
ATOM     17  C   UNL     1       6.805  31.785  29.125  1.00  0.00    -0.003 C 
ATOM     18  C   UNL     1       8.315  31.919  28.935  1.00  0.00     0.004 C 
ENDBRANCH  16  17
ENDBRANCH  15  16
ENDBRANCH  14  15
ENDBRANCH  13  14
ENDBRANCH  12  13
ENDBRANCH  11  12
ENDBRANCH   1  11
TORSDOF 14
ENDMDL
MODEL 8
REMARK VINA RESULT:    -1.395      1.953      6.165
REMARK INTER + INTRA:          -3.245
REMARK INTER:                  -2.570
REMARK INTRA:                  -0.675
REMARK UNBOUND:                -0.709
REMARK SMILES CCCCCCCCCCCCCCCC(=O)[O-]
REMARK SMILES IDX 9 1 10 2 11 3 12 4 13 5 14 6 15 7 16 8 17 9 18 10 8 11 7 12
REMARK SMILES IDX 6 13 5 14 4 15 3 16 2 17 1 18
REMARK H PARENT
REMARK Flexibility Score: inf
ROOT
ATOM      1  C   UNL     1       2.231  33.059  27.879  1.00  0.00     0.000 C 
ENDROOT
BRANCH   1   2
ATOM      2  C   UNL     1       2.910  32.015  26.974  1.00  0.00     0.000 C 
BRANCH   2   3
ATOM      3  C   UNL     1       2.678  30.546  27.381  1.00  0.00     0.000 C 
BRANCH   3   4
ATOM      4  C   UNL     1       1.599  29.802  26.569  1.00  0.00     0.000 C 
BRANCH   4   5
ATOM      5  C   UNL     1       0.923  30.639  25.469  1.00  0.00     0.000 C 
BRANCH   5   6
ATOM      6  C   UNL     1      -0.599  30.442  25.420  1.00  0.00     0.006 C 
BRANCH   6   7
ATOM      7  C   UNL     1      -1.285  31.636  24.749  1.00  0.00     0.053 C 
BRANCH   7   8
ATOM      8  C   UNL     1      -2.769  31.547  24.910  1.00  0.00     0.041 C 
ATOM      9  O   UNL     1      -3.486  32.571  24.753  1.00  0.00    -0.550 OA
ATOM     10  O   UNL     1      -3.358  30.345  25.283  1.00  0.00    -0.550 OA
ENDBRANCH   7   8
ENDBRANCH   6   7
ENDBRANCH   5   6
ENDBRANCH   4   5
ENDBRANCH   3   4
ENDBRANCH   2   3
ENDBRANCH   1   2
BRANCH   1  11
ATOM     11  C   UNL     1       1.363  32.423  28.977  1.00  0.00     0.000 C 
BRANCH  11  12
ATOM     12  C   UNL     1      -0.001  33.115  29.125  1.00  0.00    -0.000 C 
BRANCH  12  13
ATOM     13  C   UNL     1      -0.931  32.859  27.925  1.00  0.00    -0.000 C 
BRANCH  13  14
ATOM     14  C   UNL     1      -2.412  33.093  28.265  1.00  0.00    -0.000 C 
BRANCH  14  15
ATOM     15  C   UNL     1      -3.285  31.862  27.976  1.00  0.00    -0.000 C 
BRANCH  15  16
ATOM     16  C   UNL     1      -4.742  32.274  27.717  1.00  0.00    -0.000 C 
BRANCH  16  17
ATOM     17  C   UNL     1      -5.700  31.772  28.807  1.00  0.00    -0.003 C 
ATOM     18  C   UNL     1      -5.627  30.258  29.009  1.00  0.00     0.004 C 
ENDBRANCH  16  17
ENDBRANCH  15  16
ENDBRANCH  14  15
ENDBRANCH  13  14
ENDBRANCH  12  13
ENDBRANCH  11  12
ENDBRANCH   1  11
TORSDOF 14
ENDMDL
