MODEL 1
REMARK VINA RESULT:    -7.096      0.000      0.000
REMARK INTER + INTRA:          -8.459
REMARK INTER:                  -8.340
REMARK INTRA:                  -0.118
REMARK UNBOUND:                -0.118
REMARK SMILES O=c1c(O)c(-c2ccc(O)cc2)oc2cc(O)cc(O)c12
REMARK SMILES IDX 5 1 3 2 2 3 1 4 21 5 19 6 18 7 16 8 15 9 14 10 13 11 6 12
REMARK SMILES IDX 7 13 8 14 9 15 12 16 11 17 10 18 4 20 20 22 17 24
REMARK H PARENT 10 19 4 21 20 23 17 25
REMARK Flexibility Score: inf
ROOT
ATOM      1  C   UNL     1      -5.258  -5.600   6.220  1.00  0.00     0.180 A 
ATOM      2  C   UNL     1      -6.057  -4.923   5.283  1.00  0.00     0.208 A 
ATOM      3  C   UNL     1      -6.765  -3.781   5.690  1.00  0.00     0.238 A 
ATOM      4  O   UNL     1      -7.521  -3.211   4.861  1.00  0.00    -0.285 OA
ATOM      5  C   UNL     1      -6.653  -3.321   7.025  1.00  0.00     0.111 A 
ATOM      6  C   UNL     1      -7.293  -2.152   7.535  1.00  0.00     0.134 A 
ATOM      7  C   UNL     1      -7.217  -1.865   8.904  1.00  0.00     0.093 A 
ATOM      8  C   UNL     1      -6.469  -2.668   9.768  1.00  0.00     0.123 A 
ATOM      9  C   UNL     1      -5.791  -3.777   9.267  1.00  0.00     0.094 A 
ATOM     10  C   UNL     1      -5.878  -4.110   7.914  1.00  0.00     0.146 A 
ATOM     11  O   UNL     1      -5.225  -5.183   7.481  1.00  0.00    -0.452 OA
ENDROOT
BRANCH   1  12
ATOM     12  C   UNL     1      -4.462  -6.796   5.860  1.00  0.00     0.021 A 
ATOM     13  C   UNL     1      -5.081  -7.987   5.437  1.00  0.00     0.016 A 
ATOM     14  C   UNL     1      -4.309  -9.096   5.079  1.00  0.00     0.047 A 
ATOM     15  C   UNL     1      -2.911  -9.026   5.127  1.00  0.00     0.115 A 
ATOM     16  C   UNL     1      -3.060  -6.727   5.885  1.00  0.00     0.016 A 
ATOM     17  C   UNL     1      -2.290  -7.839   5.527  1.00  0.00     0.047 A 
BRANCH  15  18
ATOM     18  O   UNL     1      -2.131 -10.125   4.773  1.00  0.00    -0.508 OA
ATOM     19  H   UNL     1      -1.265 -10.336   5.255  1.00  0.00     0.293 HD
ENDBRANCH  15  18
ENDBRANCH   1  12
BRANCH   2  20
ATOM     20  O   UNL     1      -6.171  -5.407   3.977  1.00  0.00    -0.502 OA
ATOM     21  H   UNL     1      -7.063  -5.640   3.559  1.00  0.00     0.293 HD
ENDBRANCH   2  20
BRANCH   6  22
ATOM     22  O   UNL     1      -7.989  -1.234   6.743  1.00  0.00    -0.507 OA
ATOM     23  H   UNL     1      -8.109  -1.312   5.744  1.00  0.00     0.293 HD
ENDBRANCH   6  22
BRANCH   8  24
ATOM     24  O   UNL     1      -6.385  -2.367  11.125  1.00  0.00    -0.508 OA
ATOM     25  H   UNL     1      -7.184  -2.469  11.741  1.00  0.00     0.293 HD
ENDBRANCH   8  24
TORSDOF 5
ENDMDL
MODEL 2
REMARK VINA RESULT:    -7.017      1.348      2.999
REMARK INTER + INTRA:          -8.366
REMARK INTER:                  -8.244
REMARK INTRA:                  -0.123
REMARK UNBOUND:                -0.118
REMARK SMILES O=c1c(O)c(-c2ccc(O)cc2)oc2cc(O)cc(O)c12
REMARK SMILES IDX 5 1 3 2 2 3 1 4 21 5 19 6 18 7 16 8 15 9 14 10 13 11 6 12
REMARK SMILES IDX 7 13 8 14 9 15 12 16 11 17 10 18 4 20 20 22 17 24
REMARK H PARENT 10 19 4 21 20 23 17 25
REMARK Flexibility Score: inf
ROOT
ATOM      1  C   UNL     1      -5.329  -5.280   6.589  1.00  0.00     0.180 A 
ATOM      2  C   UNL     1      -5.043  -4.718   7.845  1.00  0.00     0.208 A 
ATOM      3  C   UNL     1      -5.668  -3.516   8.212  1.00  0.00     0.238 A 
ATOM      4  O   UNL     1      -5.367  -2.990   9.315  1.00  0.00    -0.285 OA
ATOM      5  C   UNL     1      -6.584  -2.898   7.326  1.00  0.00     0.111 A 
ATOM      6  C   UNL     1      -7.305  -1.700   7.611  1.00  0.00     0.134 A 
ATOM      7  C   UNL     1      -8.084  -1.108   6.609  1.00  0.00     0.093 A 
ATOM      8  C   UNL     1      -8.220  -1.707   5.354  1.00  0.00     0.123 A 
ATOM      9  C   UNL     1      -7.567  -2.907   5.087  1.00  0.00     0.094 A 
ATOM     10  C   UNL     1      -6.754  -3.503   6.053  1.00  0.00     0.146 A 
ATOM     11  O   UNL     1      -6.141  -4.642   5.753  1.00  0.00    -0.452 OA
ENDROOT
BRANCH   1  12
ATOM     12  C   UNL     1      -4.729  -6.557   6.140  1.00  0.00     0.021 A 
ATOM     13  C   UNL     1      -5.524  -7.690   5.883  1.00  0.00     0.016 A 
ATOM     14  C   UNL     1      -4.937  -8.878   5.437  1.00  0.00     0.047 A 
ATOM     15  C   UNL     1      -3.553  -8.946   5.231  1.00  0.00     0.115 A 
ATOM     16  C   UNL     1      -3.345  -6.628   5.909  1.00  0.00     0.016 A 
ATOM     17  C   UNL     1      -2.761  -7.818   5.465  1.00  0.00     0.047 A 
BRANCH  15  18
ATOM     18  O   UNL     1      -2.958 -10.125   4.788  1.00  0.00    -0.508 OA
ATOM     19  H   UNL     1      -3.336 -11.033   5.031  1.00  0.00     0.293 HD
ENDBRANCH  15  18
ENDBRANCH   1  12
BRANCH   2  20
ATOM     20  O   UNL     1      -4.121  -5.333   8.695  1.00  0.00    -0.502 OA
ATOM     21  H   UNL     1      -3.148  -5.461   8.443  1.00  0.00     0.293 HD
ENDBRANCH   2  20
BRANCH   6  22
ATOM     22  O   UNL     1      -7.311  -1.072   8.859  1.00  0.00    -0.507 OA
ATOM     23  H   UNL     1      -6.574  -1.148   9.545  1.00  0.00     0.293 HD
ENDBRANCH   6  22
BRANCH   8  24
ATOM     24  O   UNL     1      -9.009  -1.120   4.369  1.00  0.00    -0.508 OA
ATOM     25  H   UNL     1      -9.047  -1.494   3.427  1.00  0.00     0.293 HD
ENDBRANCH   8  24
TORSDOF 5
ENDMDL
MODEL 3
REMARK VINA RESULT:    -6.962      1.871      6.784
REMARK INTER + INTRA:          -8.301
REMARK INTER:                  -8.013
REMARK INTRA:                  -0.288
REMARK UNBOUND:                -0.118
REMARK SMILES O=c1c(O)c(-c2ccc(O)cc2)oc2cc(O)cc(O)c12
REMARK SMILES IDX 5 1 3 2 2 3 1 4 21 5 19 6 18 7 16 8 15 9 14 10 13 11 6 12
REMARK SMILES IDX 7 13 8 14 9 15 12 16 11 17 10 18 4 20 20 22 17 24
REMARK H PARENT 10 19 4 21 20 23 17 25
REMARK Flexibility Score: inf
ROOT
ATOM      1  C   UNL     1      -5.249  -6.191   6.676  1.00  0.00     0.180 A 
ATOM      2  C   UNL     1      -6.323  -6.818   6.020  1.00  0.00     0.208 A 
ATOM      3  C   UNL     1      -6.054  -7.830   5.085  1.00  0.00     0.238 A 
ATOM      4  O   UNL     1      -7.016  -8.349   4.462  1.00  0.00    -0.285 OA
ATOM      5  C   UNL     1      -4.715  -8.215   4.830  1.00  0.00     0.111 A 
ATOM      6  C   UNL     1      -4.328  -9.256   3.933  1.00  0.00     0.134 A 
ATOM      7  C   UNL     1      -2.971  -9.462   3.660  1.00  0.00     0.093 A 
ATOM      8  C   UNL     1      -1.984  -8.709   4.300  1.00  0.00     0.123 A 
ATOM      9  C   UNL     1      -2.350  -7.731   5.222  1.00  0.00     0.094 A 
ATOM     10  C   UNL     1      -3.697  -7.477   5.488  1.00  0.00     0.146 A 
ATOM     11  O   UNL     1      -4.003  -6.528   6.366  1.00  0.00    -0.452 OA
ENDROOT
BRANCH   1  12
ATOM     12  C   UNL     1      -5.454  -5.133   7.692  1.00  0.00     0.021 A 
ATOM     13  C   UNL     1      -5.560  -3.778   7.327  1.00  0.00     0.016 A 
ATOM     14  C   UNL     1      -5.778  -2.799   8.301  1.00  0.00     0.047 A 
ATOM     15  C   UNL     1      -5.907  -3.162   9.648  1.00  0.00     0.115 A 
ATOM     16  C   UNL     1      -5.606  -5.490   9.041  1.00  0.00     0.016 A 
ATOM     17  C   UNL     1      -5.823  -4.508  10.013  1.00  0.00     0.047 A 
BRANCH  15  18
ATOM     18  O   UNL     1      -6.123  -2.195  10.627  1.00  0.00    -0.508 OA
ATOM     19  H   UNL     1      -6.693  -2.386  11.443  1.00  0.00     0.293 HD
ENDBRANCH  15  18
ENDBRANCH   1  12
BRANCH   2  20
ATOM     20  O   UNL     1      -7.635  -6.407   6.271  1.00  0.00    -0.502 OA
ATOM     21  H   UNL     1      -8.253  -6.911   6.897  1.00  0.00     0.293 HD
ENDBRANCH   2  20
BRANCH   6  22
ATOM     22  O   UNL     1      -5.229 -10.125   3.312  1.00  0.00    -0.507 OA
ATOM     23  H   UNL     1      -5.008 -11.061   3.006  1.00  0.00     0.293 HD
ENDBRANCH   6  22
BRANCH   8  24
ATOM     24  O   UNL     1      -0.635  -8.931   4.034  1.00  0.00    -0.508 OA
ATOM     25  H   UNL     1      -0.332  -9.684   3.428  1.00  0.00     0.293 HD
ENDBRANCH   8  24
TORSDOF 5
ENDMDL
MODEL 4
REMARK VINA RESULT:    -6.862     11.863     13.639
REMARK INTER + INTRA:          -8.184
REMARK INTER:                  -8.089
REMARK INTRA:                  -0.095
REMARK UNBOUND:                -0.118
REMARK SMILES O=c1c(O)c(-c2ccc(O)cc2)oc2cc(O)cc(O)c12
REMARK SMILES IDX 5 1 3 2 2 3 1 4 21 5 19 6 18 7 16 8 15 9 14 10 13 11 6 12
REMARK SMILES IDX 7 13 8 14 9 15 12 16 11 17 10 18 4 20 20 22 17 24
REMARK H PARENT 10 19 4 21 20 23 17 25
REMARK Flexibility Score: inf
ROOT
ATOM      1  C   UNL     1      -1.009  -4.938  -6.272  1.00  0.00     0.180 A 
ATOM      2  C   UNL     1      -1.587  -4.023  -7.168  1.00  0.00     0.208 A 
ATOM      3  C   UNL     1      -2.974  -3.805  -7.120  1.00  0.00     0.238 A 
ATOM      4  O   UNL     1      -3.492  -3.025  -7.961  1.00  0.00    -0.285 OA
ATOM      5  C   UNL     1      -3.762  -4.493  -6.166  1.00  0.00     0.111 A 
ATOM      6  C   UNL     1      -5.169  -4.319  -6.001  1.00  0.00     0.134 A 
ATOM      7  C   UNL     1      -5.867  -5.148  -5.115  1.00  0.00     0.093 A 
ATOM      8  C   UNL     1      -5.200  -6.099  -4.340  1.00  0.00     0.123 A 
ATOM      9  C   UNL     1      -3.818  -6.235  -4.451  1.00  0.00     0.094 A 
ATOM     10  C   UNL     1      -3.099  -5.448  -5.353  1.00  0.00     0.146 A 
ATOM     11  O   UNL     1      -1.784  -5.618  -5.434  1.00  0.00    -0.452 OA
ENDROOT
BRANCH   1  12
ATOM     12  C   UNL     1       0.448  -5.203  -6.246  1.00  0.00     0.021 A 
ATOM     13  C   UNL     1       1.117  -5.733  -7.365  1.00  0.00     0.016 A 
ATOM     14  C   UNL     1       2.497  -5.952  -7.325  1.00  0.00     0.047 A 
ATOM     15  C   UNL     1       3.228  -5.632  -6.174  1.00  0.00     0.115 A 
ATOM     16  C   UNL     1       1.192  -4.865  -5.103  1.00  0.00     0.016 A 
ATOM     17  C   UNL     1       2.572  -5.086  -5.066  1.00  0.00     0.047 A 
BRANCH  15  18
ATOM     18  O   UNL     1       4.603  -5.847  -6.122  1.00  0.00    -0.508 OA
ATOM     19  H   UNL     1       5.187  -5.379  -5.439  1.00  0.00     0.293 HD
ENDBRANCH  15  18
ENDBRANCH   1  12
BRANCH   2  20
ATOM     20  O   UNL     1      -0.794  -3.371  -8.116  1.00  0.00    -0.502 OA
ATOM     21  H   UNL     1      -0.136  -2.642  -7.867  1.00  0.00     0.293 HD
ENDBRANCH   2  20
BRANCH   6  22
ATOM     22  O   UNL     1      -5.916  -3.338  -6.658  1.00  0.00    -0.507 OA
ATOM     23  H   UNL     1      -5.880  -2.351  -6.449  1.00  0.00     0.293 HD
ENDBRANCH   6  22
BRANCH   8  24
ATOM     24  O   UNL     1      -5.900  -6.909  -3.449  1.00  0.00    -0.508 OA
ATOM     25  H   UNL     1      -6.631  -6.535  -2.855  1.00  0.00     0.293 HD
ENDBRANCH   8  24
TORSDOF 5
ENDMDL
MODEL 5
REMARK VINA RESULT:    -6.799      1.620      6.630
REMARK INTER + INTRA:          -8.110
REMARK INTER:                  -8.115
REMARK INTRA:                   0.005
REMARK UNBOUND:                -0.118
REMARK SMILES O=c1c(O)c(-c2ccc(O)cc2)oc2cc(O)cc(O)c12
REMARK SMILES IDX 5 1 3 2 2 3 1 4 21 5 19 6 18 7 16 8 15 9 14 10 13 11 6 12
REMARK SMILES IDX 7 13 8 14 9 15 12 16 11 17 10 18 4 20 20 22 17 24
REMARK H PARENT 10 19 4 21 20 23 17 25
REMARK Flexibility Score: inf
ROOT
ATOM      1  C   UNL     1      -6.271  -4.647   6.066  1.00  0.00     0.180 A 
ATOM      2  C   UNL     1      -7.224  -5.388   5.348  1.00  0.00     0.208 A 
ATOM      3  C   UNL     1      -6.848  -6.618   4.784  1.00  0.00     0.238 A 
ATOM      4  O   UNL     1      -7.690  -7.251   4.096  1.00  0.00    -0.285 OA
ATOM      5  C   UNL     1      -5.527  -7.098   4.961  1.00  0.00     0.111 A 
ATOM      6  C   UNL     1      -5.048  -8.350   4.468  1.00  0.00     0.134 A 
ATOM      7  C   UNL     1      -3.689  -8.664   4.588  1.00  0.00     0.093 A 
ATOM      8  C   UNL     1      -2.805  -7.801   5.240  1.00  0.00     0.123 A 
ATOM      9  C   UNL     1      -3.276  -6.605   5.776  1.00  0.00     0.094 A 
ATOM     10  C   UNL     1      -4.619  -6.247   5.641  1.00  0.00     0.146 A 
ATOM     11  O   UNL     1      -5.023  -5.092   6.158  1.00  0.00    -0.452 OA
ENDROOT
BRANCH   1  12
ATOM     12  C   UNL     1      -6.599  -3.354   6.710  1.00  0.00     0.021 A 
ATOM     13  C   UNL     1      -7.182  -2.300   5.982  1.00  0.00     0.016 A 
ATOM     14  C   UNL     1      -7.506  -1.097   6.616  1.00  0.00     0.047 A 
ATOM     15  C   UNL     1      -7.264  -0.936   7.987  1.00  0.00     0.115 A 
ATOM     16  C   UNL     1      -6.380  -3.192   8.088  1.00  0.00     0.016 A 
ATOM     17  C   UNL     1      -6.704  -1.986   8.719  1.00  0.00     0.047 A 
BRANCH  15  18
ATOM     18  O   UNL     1      -7.581   0.259   8.629  1.00  0.00    -0.508 OA
ATOM     19  H   UNL     1      -8.061   1.009   8.145  1.00  0.00     0.293 HD
ENDBRANCH  15  18
ENDBRANCH   1  12
BRANCH   2  20
ATOM     20  O   UNL     1      -8.516  -4.885   5.168  1.00  0.00    -0.502 OA
ATOM     21  H   UNL     1      -8.693  -3.931   4.876  1.00  0.00     0.293 HD
ENDBRANCH   2  20
BRANCH   6  22
ATOM     22  O   UNL     1      -5.864  -9.322   3.883  1.00  0.00    -0.507 OA
ATOM     23  H   UNL     1      -6.825  -9.178   3.611  1.00  0.00     0.293 HD
ENDBRANCH   6  22
BRANCH   8  24
ATOM     24  O   UNL     1      -1.457  -8.128   5.369  1.00  0.00    -0.508 OA
ATOM     25  H   UNL     1      -1.111  -9.052   5.135  1.00  0.00     0.293 HD
ENDBRANCH   8  24
TORSDOF 5
ENDMDL
MODEL 6
REMARK VINA RESULT:    -6.663      1.882      6.937
REMARK INTER + INTRA:          -7.950
REMARK INTER:                  -7.681
REMARK INTRA:                  -0.269
REMARK UNBOUND:                -0.118
REMARK SMILES O=c1c(O)c(-c2ccc(O)cc2)oc2cc(O)cc(O)c12
REMARK SMILES IDX 5 1 3 2 2 3 1 4 21 5 19 6 18 7 16 8 15 9 14 10 13 11 6 12
REMARK SMILES IDX 7 13 8 14 9 15 12 16 11 17 10 18 4 20 20 22 17 24
REMARK H PARENT 10 19 4 21 20 23 17 25
REMARK Flexibility Score: inf
ROOT
ATOM      1  C   UNL     1      -5.682  -5.476   6.856  1.00  0.00     0.180 A 
ATOM      2  C   UNL     1      -4.300  -5.693   6.713  1.00  0.00     0.208 A 
ATOM      3  C   UNL     1      -3.857  -6.768   5.926  1.00  0.00     0.238 A 
ATOM      4  O   UNL     1      -2.621  -6.989   5.846  1.00  0.00    -0.285 OA
ATOM      5  C   UNL     1      -4.800  -7.604   5.280  1.00  0.00     0.111 A 
ATOM      6  C   UNL     1      -4.463  -8.697   4.427  1.00  0.00     0.134 A 
ATOM      7  C   UNL     1      -5.476  -9.536   3.947  1.00  0.00     0.093 A 
ATOM      8  C   UNL     1      -6.819  -9.281   4.235  1.00  0.00     0.123 A 
ATOM      9  C   UNL     1      -7.162  -8.182   5.018  1.00  0.00     0.094 A 
ATOM     10  C   UNL     1      -6.171  -7.348   5.542  1.00  0.00     0.146 A 
ATOM     11  O   UNL     1      -6.542  -6.317   6.293  1.00  0.00    -0.452 OA
ENDROOT
BRANCH   1  12
ATOM     12  C   UNL     1      -6.225  -4.349   7.649  1.00  0.00     0.021 A 
ATOM     13  C   UNL     1      -6.266  -3.041   7.131  1.00  0.00     0.016 A 
ATOM     14  C   UNL     1      -6.807  -1.998   7.888  1.00  0.00     0.047 A 
ATOM     15  C   UNL     1      -7.324  -2.249   9.165  1.00  0.00     0.115 A 
ATOM     16  C   UNL     1      -6.766  -4.596   8.922  1.00  0.00     0.016 A 
ATOM     17  C   UNL     1      -7.305  -3.550   9.677  1.00  0.00     0.047 A 
BRANCH  15  18
ATOM     18  O   UNL     1      -7.864  -1.217   9.929  1.00  0.00    -0.508 OA
ATOM     19  H   UNL     1      -8.859  -1.157  10.111  1.00  0.00     0.293 HD
ENDBRANCH  15  18
ENDBRANCH   1  12
BRANCH   2  20
ATOM     20  O   UNL     1      -3.388  -4.869   7.377  1.00  0.00    -0.502 OA
ATOM     21  H   UNL     1      -3.432  -4.700   8.375  1.00  0.00     0.293 HD
ENDBRANCH   2  20
BRANCH   6  22
ATOM     22  O   UNL     1      -3.163  -8.984   4.004  1.00  0.00    -0.507 OA
ATOM     23  H   UNL     1      -2.343  -8.936   4.591  1.00  0.00     0.293 HD
ENDBRANCH   6  22
BRANCH   8  24
ATOM     24  O   UNL     1      -7.822 -10.112   3.741  1.00  0.00    -0.508 OA
ATOM     25  H   UNL     1      -7.605 -10.956   3.223  1.00  0.00     0.293 HD
ENDBRANCH   8  24
TORSDOF 5
ENDMDL
MODEL 7
REMARK VINA RESULT:    -6.403      2.074      2.742
REMARK INTER + INTRA:          -7.644
REMARK INTER:                  -7.698
REMARK INTRA:                   0.054
REMARK UNBOUND:                -0.118
REMARK SMILES O=c1c(O)c(-c2ccc(O)cc2)oc2cc(O)cc(O)c12
REMARK SMILES IDX 5 1 3 2 2 3 1 4 21 5 19 6 18 7 16 8 15 9 14 10 13 11 6 12
REMARK SMILES IDX 7 13 8 14 9 15 12 16 11 17 10 18 4 20 20 22 17 24
REMARK H PARENT 10 19 4 21 20 23 17 25
REMARK Flexibility Score: inf
ROOT
ATOM      1  C   UNL     1      -6.492  -4.383   5.954  1.00  0.00     0.180 A 
ATOM      2  C   UNL     1      -7.526  -4.520   5.013  1.00  0.00     0.208 A 
ATOM      3  C   UNL     1      -8.419  -3.453   4.821  1.00  0.00     0.238 A 
ATOM      4  O   UNL     1      -9.375  -3.603   4.016  1.00  0.00    -0.285 OA
ATOM      5  C   UNL     1      -8.255  -2.257   5.560  1.00  0.00     0.111 A 
ATOM      6  C   UNL     1      -9.076  -1.098   5.417  1.00  0.00     0.134 A 
ATOM      7  C   UNL     1      -8.906  -0.019   6.294  1.00  0.00     0.093 A 
ATOM      8  C   UNL     1      -7.901  -0.031   7.264  1.00  0.00     0.123 A 
ATOM      9  C   UNL     1      -7.057  -1.133   7.372  1.00  0.00     0.094 A 
ATOM     10  C   UNL     1      -7.226  -2.240   6.537  1.00  0.00     0.146 A 
ATOM     11  O   UNL     1      -6.405  -3.274   6.680  1.00  0.00    -0.452 OA
ENDROOT
BRANCH   1  12
ATOM     12  C   UNL     1      -5.497  -5.454   6.195  1.00  0.00     0.021 A 
ATOM     13  C   UNL     1      -4.856  -6.112   5.129  1.00  0.00     0.016 A 
ATOM     14  C   UNL     1      -3.903  -7.103   5.381  1.00  0.00     0.047 A 
ATOM     15  C   UNL     1      -3.569  -7.440   6.699  1.00  0.00     0.115 A 
ATOM     16  C   UNL     1      -5.141  -5.783   7.513  1.00  0.00     0.016 A 
ATOM     17  C   UNL     1      -4.188  -6.776   7.762  1.00  0.00     0.047 A 
BRANCH  15  18
ATOM     18  O   UNL     1      -2.621  -8.426   6.962  1.00  0.00    -0.508 OA
ATOM     19  H   UNL     1      -1.653  -8.320   6.681  1.00  0.00     0.293 HD
ENDBRANCH  15  18
ENDBRANCH   1  12
BRANCH   2  20
ATOM     20  O   UNL     1      -7.681  -5.718   4.309  1.00  0.00    -0.502 OA
ATOM     21  H   UNL     1      -8.256  -6.479   4.650  1.00  0.00     0.293 HD
ENDBRANCH   2  20
BRANCH   6  22
ATOM     22  O   UNL     1     -10.047  -0.947   4.423  1.00  0.00    -0.507 OA
ATOM     23  H   UNL     1     -11.036  -0.846   4.596  1.00  0.00     0.293 HD
ENDBRANCH   6  22
BRANCH   8  24
ATOM     24  O   UNL     1      -7.728   1.053   8.122  1.00  0.00    -0.508 OA
ATOM     25  H   UNL     1      -7.558   1.987   7.767  1.00  0.00     0.293 HD
ENDBRANCH   8  24
TORSDOF 5
ENDMDL
MODEL 8
REMARK VINA RESULT:    -6.371     11.619     13.365
REMARK INTER + INTRA:          -7.607
REMARK INTER:                  -7.532
REMARK INTRA:                  -0.075
REMARK UNBOUND:                -0.118
REMARK SMILES O=c1c(O)c(-c2ccc(O)cc2)oc2cc(O)cc(O)c12
REMARK SMILES IDX 5 1 3 2 2 3 1 4 21 5 19 6 18 7 16 8 15 9 14 10 13 11 6 12
REMARK SMILES IDX 7 13 8 14 9 15 12 16 11 17 10 18 4 20 20 22 17 24
REMARK H PARENT 10 19 4 21 20 23 17 25
REMARK Flexibility Score: inf
ROOT
ATOM      1  C   UNL     1      -1.884  -4.887  -6.222  1.00  0.00     0.180 A 
ATOM      2  C   UNL     1      -2.559  -3.961  -7.035  1.00  0.00     0.208 A 
ATOM      3  C   UNL     1      -3.946  -3.806  -6.885  1.00  0.00     0.238 A 
ATOM      4  O   UNL     1      -4.552  -3.014  -7.653  1.00  0.00    -0.285 OA
ATOM      5  C   UNL     1      -4.639  -4.568  -5.913  1.00  0.00     0.111 A 
ATOM      6  C   UNL     1      -6.037  -4.463  -5.648  1.00  0.00     0.134 A 
ATOM      7  C   UNL     1      -6.639  -5.359  -4.756  1.00  0.00     0.093 A 
ATOM      8  C   UNL     1      -5.882  -6.312  -4.070  1.00  0.00     0.123 A 
ATOM      9  C   UNL     1      -4.507  -6.382  -4.279  1.00  0.00     0.094 A 
ATOM     10  C   UNL     1      -3.883  -5.527  -5.190  1.00  0.00     0.146 A 
ATOM     11  O   UNL     1      -2.571  -5.635  -5.366  1.00  0.00    -0.452 OA
ENDROOT
BRANCH   1  12
ATOM     12  C   UNL     1      -0.419  -5.089  -6.304  1.00  0.00     0.021 A 
ATOM     13  C   UNL     1       0.414  -4.879  -5.189  1.00  0.00     0.016 A 
ATOM     14  C   UNL     1       1.791  -5.099  -5.284  1.00  0.00     0.047 A 
ATOM     15  C   UNL     1       2.352  -5.544  -6.488  1.00  0.00     0.115 A 
ATOM     16  C   UNL     1       0.149  -5.556  -7.501  1.00  0.00     0.016 A 
ATOM     17  C   UNL     1       1.527  -5.775  -7.593  1.00  0.00     0.047 A 
BRANCH  15  18
ATOM     18  O   UNL     1       3.723  -5.766  -6.594  1.00  0.00    -0.508 OA
ATOM     19  H   UNL     1       4.115  -6.699  -6.527  1.00  0.00     0.293 HD
ENDBRANCH  15  18
ENDBRANCH   1  12
BRANCH   2  20
ATOM     20  O   UNL     1      -1.859  -3.235  -8.003  1.00  0.00    -0.502 OA
ATOM     21  H   UNL     1      -1.404  -3.677  -8.792  1.00  0.00     0.293 HD
ENDBRANCH   2  20
BRANCH   6  22
ATOM     22  O   UNL     1      -6.867  -3.488  -6.209  1.00  0.00    -0.507 OA
ATOM     23  H   UNL     1      -6.608  -2.523  -6.347  1.00  0.00     0.293 HD
ENDBRANCH   6  22
BRANCH   8  24
ATOM     24  O   UNL     1      -6.486  -7.189  -3.173  1.00  0.00    -0.508 OA
ATOM     25  H   UNL     1      -6.391  -7.071  -2.171  1.00  0.00     0.293 HD
ENDBRANCH   8  24
TORSDOF 5
ENDMDL
MODEL 9
REMARK VINA RESULT:    -6.323     11.579     14.458
REMARK INTER + INTRA:          -7.550
REMARK INTER:                  -7.265
REMARK INTRA:                  -0.285
REMARK UNBOUND:                -0.118
REMARK SMILES O=c1c(O)c(-c2ccc(O)cc2)oc2cc(O)cc(O)c12
REMARK SMILES IDX 5 1 3 2 2 3 1 4 21 5 19 6 18 7 16 8 15 9 14 10 13 11 6 12
REMARK SMILES IDX 7 13 8 14 9 15 12 16 11 17 10 18 4 20 20 22 17 24
REMARK H PARENT 10 19 4 21 20 23 17 25
REMARK Flexibility Score: inf
ROOT
ATOM      1  C   UNL     1      -4.108  -5.010  -5.908  1.00  0.00     0.180 A 
ATOM      2  C   UNL     1      -4.336  -6.397  -5.892  1.00  0.00     0.208 A 
ATOM      3  C   UNL     1      -3.266  -7.267  -6.155  1.00  0.00     0.238 A 
ATOM      4  O   UNL     1      -3.489  -8.505  -6.193  1.00  0.00    -0.285 OA
ATOM      5  C   UNL     1      -1.977  -6.740  -6.414  1.00  0.00     0.111 A 
ATOM      6  C   UNL     1      -0.812  -7.529  -6.653  1.00  0.00     0.134 A 
ATOM      7  C   UNL     1       0.382  -6.901  -7.027  1.00  0.00     0.093 A 
ATOM      8  C   UNL     1       0.470  -5.509  -7.108  1.00  0.00     0.123 A 
ATOM      9  C   UNL     1      -0.647  -4.729  -6.818  1.00  0.00     0.094 A 
ATOM     10  C   UNL     1      -1.862  -5.327  -6.477  1.00  0.00     0.146 A 
ATOM     11  O   UNL     1      -2.904  -4.545  -6.219  1.00  0.00    -0.452 OA
ENDROOT
BRANCH   1  12
ATOM     12  C   UNL     1      -5.181  -4.031  -5.616  1.00  0.00     0.021 A 
ATOM     13  C   UNL     1      -5.961  -3.472  -6.645  1.00  0.00     0.016 A 
ATOM     14  C   UNL     1      -6.985  -2.568  -6.343  1.00  0.00     0.047 A 
ATOM     15  C   UNL     1      -7.249  -2.222  -5.012  1.00  0.00     0.115 A 
ATOM     16  C   UNL     1      -5.467  -3.696  -4.283  1.00  0.00     0.016 A 
ATOM     17  C   UNL     1      -6.490  -2.790  -3.985  1.00  0.00     0.047 A 
BRANCH  15  18
ATOM     18  O   UNL     1      -8.265  -1.322  -4.700  1.00  0.00    -0.508 OA
ATOM     19  H   UNL     1      -8.061  -0.387  -4.366  1.00  0.00     0.293 HD
ENDBRANCH  15  18
ENDBRANCH   1  12
BRANCH   2  20
ATOM     20  O   UNL     1      -5.621  -6.895  -5.655  1.00  0.00    -0.502 OA
ATOM     21  H   UNL     1      -5.850  -7.877  -5.751  1.00  0.00     0.293 HD
ENDBRANCH   2  20
BRANCH   6  22
ATOM     22  O   UNL     1      -0.769  -8.919  -6.510  1.00  0.00    -0.507 OA
ATOM     23  H   UNL     1      -0.851  -9.577  -7.271  1.00  0.00     0.293 HD
ENDBRANCH   6  22
BRANCH   8  24
ATOM     24  O   UNL     1       1.665  -4.892  -7.466  1.00  0.00    -0.508 OA
ATOM     25  H   UNL     1       2.391  -5.392  -7.966  1.00  0.00     0.293 HD
ENDBRANCH   8  24
TORSDOF 5
ENDMDL
