MODEL 1
REMARK VINA RESULT:    -1.698      0.000      0.000
REMARK INTER + INTRA:          -3.468
REMARK INTER:                  -3.088
REMARK INTRA:                  -0.380
REMARK UNBOUND:                -0.380
REMARK SMILES CCCCCCCCCCCCCCCC(=O)[O-]
REMARK SMILES IDX 9 1 10 2 11 3 12 4 13 5 14 6 15 7 16 8 17 9 18 10 8 11 7 12
REMARK SMILES IDX 6 13 5 14 4 15 3 16 2 17 1 18
REMARK H PARENT
REMARK Flexibility Score: inf
ROOT
ATOM      1  C   UNL     1      -0.631  59.668  -4.842  1.00  0.00     0.000 C 
ENDROOT
BRANCH   1   2
ATOM      2  C   UNL     1       0.615  60.485  -4.457  1.00  0.00     0.000 C 
BRANCH   2   3
ATOM      3  C   UNL     1       1.863  59.595  -4.278  1.00  0.00     0.000 C 
BRANCH   3   4
ATOM      4  C   UNL     1       2.595  59.291  -5.596  1.00  0.00     0.000 C 
BRANCH   4   5
ATOM      5  C   UNL     1       1.640  58.882  -6.728  1.00  0.00     0.000 C 
BRANCH   5   6
ATOM      6  C   UNL     1       2.288  58.957  -8.122  1.00  0.00     0.006 C 
BRANCH   6   7
ATOM      7  C   UNL     1       3.808  59.196  -8.091  1.00  0.00     0.053 C 
BRANCH   7   8
ATOM      8  C   UNL     1       4.160  60.652  -8.046  1.00  0.00     0.041 C 
ATOM      9  O   UNL     1       3.253  61.521  -7.970  1.00  0.00    -0.550 OA
ATOM     10  O   UNL     1       5.489  61.052  -8.125  1.00  0.00    -0.550 OA
ENDBRANCH   7   8
ENDBRANCH   6   7
ENDBRANCH   5   6
ENDBRANCH   4   5
ENDBRANCH   3   4
ENDBRANCH   2   3
ENDBRANCH   1   2
BRANCH   1  11
ATOM     11  C   UNL     1      -1.636  59.532  -3.687  1.00  0.00     0.000 C 
BRANCH  11  12
ATOM     12  C   UNL     1      -2.470  60.808  -3.475  1.00  0.00    -0.000 C 
BRANCH  12  13
ATOM     13  C   UNL     1      -3.907  60.678  -4.010  1.00  0.00    -0.000 C 
BRANCH  13  14
ATOM     14  C   UNL     1      -4.384  59.233  -4.261  1.00  0.00    -0.000 C 
BRANCH  14  15
ATOM     15  C   UNL     1      -4.638  58.875  -5.739  1.00  0.00    -0.000 C 
BRANCH  15  16
ATOM     16  C   UNL     1      -4.558  60.062  -6.720  1.00  0.00    -0.000 C 
BRANCH  16  17
ATOM     17  C   UNL     1      -3.503  59.912  -7.832  1.00  0.00    -0.003 C 
ATOM     18  C   UNL     1      -2.366  58.967  -7.449  1.00  0.00     0.004 C 
ENDBRANCH  16  17
ENDBRANCH  15  16
ENDBRANCH  14  15
ENDBRANCH  13  14
ENDBRANCH  12  13
ENDBRANCH  11  12
ENDBRANCH   1  11
TORSDOF 14
ENDMDL
MODEL 2
REMARK VINA RESULT:    -0.820      1.724      2.647
REMARK INTER + INTRA:          -1.872
REMARK INTER:                  -1.410
REMARK INTRA:                  -0.462
REMARK UNBOUND:                -0.380
REMARK SMILES CCCCCCCCCCCCCCCC(=O)[O-]
REMARK SMILES IDX 9 1 10 2 11 3 12 4 13 5 14 6 15 7 16 8 17 9 18 10 8 11 7 12
REMARK SMILES IDX 6 13 5 14 4 15 3 16 2 17 1 18
REMARK H PARENT
REMARK Flexibility Score: inf
ROOT
ATOM      1  C   UNL     1       1.369  60.579  -4.285  1.00  0.00     0.000 C 
ENDROOT
BRANCH   1   2
ATOM      2  C   UNL     1       1.490  59.586  -5.455  1.00  0.00     0.000 C 
BRANCH   2   3
ATOM      3  C   UNL     1       2.096  60.241  -6.715  1.00  0.00     0.000 C 
BRANCH   3   4
ATOM      4  C   UNL     1       3.628  60.365  -6.667  1.00  0.00     0.000 C 
BRANCH   4   5
ATOM      5  C   UNL     1       4.285  60.178  -8.042  1.00  0.00     0.000 C 
BRANCH   5   6
ATOM      6  C   UNL     1       5.163  58.916  -8.125  1.00  0.00     0.006 C 
BRANCH   6   7
ATOM      7  C   UNL     1       6.415  58.967  -7.231  1.00  0.00     0.053 C 
BRANCH   7   8
ATOM      8  C   UNL     1       7.449  59.923  -7.742  1.00  0.00     0.041 C 
ATOM      9  O   UNL     1       7.112  61.075  -8.125  1.00  0.00    -0.550 OA
ATOM     10  O   UNL     1       8.779  59.532  -7.832  1.00  0.00    -0.550 OA
ENDBRANCH   7   8
ENDBRANCH   6   7
ENDBRANCH   5   6
ENDBRANCH   4   5
ENDBRANCH   3   4
ENDBRANCH   2   3
ENDBRANCH   1   2
BRANCH   1  11
ATOM     11  C   UNL     1      -0.086  60.806  -3.844  1.00  0.00     0.000 C 
BRANCH  11  12
ATOM     12  C   UNL     1      -0.364  60.279  -2.426  1.00  0.00    -0.000 C 
BRANCH  12  13
ATOM     13  C   UNL     1      -1.784  59.707  -2.268  1.00  0.00    -0.000 C 
BRANCH  13  14
ATOM     14  C   UNL     1      -2.316  58.930  -3.490  1.00  0.00    -0.000 C 
BRANCH  14  15
ATOM     15  C   UNL     1      -3.713  59.360  -3.981  1.00  0.00    -0.000 C 
BRANCH  15  16
ATOM     16  C   UNL     1      -3.731  60.616  -4.876  1.00  0.00    -0.000 C 
BRANCH  16  17
ATOM     17  C   UNL     1      -4.551  60.474  -6.171  1.00  0.00    -0.003 C 
ATOM     18  C   UNL     1      -4.773  59.019  -6.579  1.00  0.00     0.004 C 
ENDBRANCH  16  17
ENDBRANCH  15  16
ENDBRANCH  14  15
ENDBRANCH  13  14
ENDBRANCH  12  13
ENDBRANCH  11  12
ENDBRANCH   1  11
TORSDOF 14
ENDMDL
MODEL 3
REMARK VINA RESULT:     0.027      3.325      5.728
REMARK INTER + INTRA:          -0.331
REMARK INTER:                   0.774
REMARK INTRA:                  -1.105
REMARK UNBOUND:                -0.380
REMARK SMILES CCCCCCCCCCCCCCCC(=O)[O-]
REMARK SMILES IDX 9 1 10 2 11 3 12 4 13 5 14 6 15 7 16 8 17 9 18 10 8 11 7 12
REMARK SMILES IDX 6 13 5 14 4 15 3 16 2 17 1 18
REMARK H PARENT
REMARK Flexibility Score: inf
ROOT
ATOM      1  C   UNL     1      -4.506  59.860  -4.788  1.00  0.00     0.000 C 
ENDROOT
BRANCH   1   2
ATOM      2  C   UNL     1      -3.664  58.974  -3.853  1.00  0.00     0.000 C 
BRANCH   2   3
ATOM      3  C   UNL     1      -2.149  59.198  -4.045  1.00  0.00     0.000 C 
BRANCH   3   4
ATOM      4  C   UNL     1      -1.476  59.901  -2.854  1.00  0.00     0.000 C 
BRANCH   4   5
ATOM      5  C   UNL     1      -0.294  60.787  -3.275  1.00  0.00     0.000 C 
BRANCH   5   6
ATOM      6  C   UNL     1       0.908  60.685  -2.318  1.00  0.00     0.006 C 
BRANCH   6   7
ATOM      7  C   UNL     1       0.523  60.711  -0.828  1.00  0.00     0.053 C 
BRANCH   7   8
ATOM      8  C   UNL     1       1.204  61.814  -0.078  1.00  0.00     0.041 C 
ATOM      9  O   UNL     1       1.469  61.679   1.146  1.00  0.00    -0.550 OA
ATOM     10  O   UNL     1       1.514  63.008  -0.719  1.00  0.00    -0.550 OA
ENDBRANCH   7   8
ENDBRANCH   6   7
ENDBRANCH   5   6
ENDBRANCH   4   5
ENDBRANCH   3   4
ENDBRANCH   2   3
ENDBRANCH   1   2
BRANCH   1  11
ATOM     11  C   UNL     1      -3.661  60.892  -5.553  1.00  0.00     0.000 C 
BRANCH  11  12
ATOM     12  C   UNL     1      -3.730  60.699  -7.078  1.00  0.00    -0.000 C 
BRANCH  12  13
ATOM     13  C   UNL     1      -3.539  59.232  -7.504  1.00  0.00    -0.000 C 
BRANCH  13  14
ATOM     14  C   UNL     1      -2.154  58.897  -8.092  1.00  0.00    -0.000 C 
BRANCH  14  15
ATOM     15  C   UNL     1      -0.991  58.919  -7.081  1.00  0.00    -0.000 C 
BRANCH  15  16
ATOM     16  C   UNL     1       0.418  58.876  -7.706  1.00  0.00    -0.000 C 
BRANCH  16  17
ATOM     17  C   UNL     1       1.573  59.098  -6.713  1.00  0.00    -0.003 C 
ATOM     18  C   UNL     1       2.840  59.628  -7.381  1.00  0.00     0.004 C 
ENDBRANCH  16  17
ENDBRANCH  15  16
ENDBRANCH  14  15
ENDBRANCH  13  14
ENDBRANCH  12  13
ENDBRANCH  11  12
ENDBRANCH   1  11
TORSDOF 14
ENDMDL
MODEL 4
REMARK VINA RESULT:     0.162      2.310      5.201
REMARK INTER + INTRA:          -0.085
REMARK INTER:                   0.724
REMARK INTRA:                  -0.808
REMARK UNBOUND:                -0.380
REMARK SMILES CCCCCCCCCCCCCCCC(=O)[O-]
REMARK SMILES IDX 9 1 10 2 11 3 12 4 13 5 14 6 15 7 16 8 17 9 18 10 8 11 7 12
REMARK SMILES IDX 6 13 5 14 4 15 3 16 2 17 1 18
REMARK H PARENT
REMARK Flexibility Score: inf
ROOT
ATOM      1  C   UNL     1      -4.150  59.342  -4.397  1.00  0.00     0.000 C 
ENDROOT
BRANCH   1   2
ATOM      2  C   UNL     1      -3.863  60.747  -4.957  1.00  0.00     0.000 C 
BRANCH   2   3
ATOM      3  C   UNL     1      -3.227  60.696  -6.362  1.00  0.00     0.000 C 
BRANCH   3   4
ATOM      4  C   UNL     1      -3.261  59.297  -7.001  1.00  0.00     0.000 C 
BRANCH   4   5
ATOM      5  C   UNL     1      -1.974  58.960  -7.769  1.00  0.00     0.000 C 
BRANCH   5   6
ATOM      6  C   UNL     1      -0.734  58.875  -6.860  1.00  0.00     0.006 C 
BRANCH   6   7
ATOM      7  C   UNL     1       0.602  58.989  -7.615  1.00  0.00     0.053 C 
BRANCH   7   8
ATOM      8  C   UNL     1       1.717  59.479  -6.742  1.00  0.00     0.041 C 
ATOM      9  O   UNL     1       2.851  58.935  -6.797  1.00  0.00    -0.550 OA
ATOM     10  O   UNL     1       1.495  60.512  -5.839  1.00  0.00    -0.550 OA
ENDBRANCH   7   8
ENDBRANCH   6   7
ENDBRANCH   5   6
ENDBRANCH   4   5
ENDBRANCH   3   4
ENDBRANCH   2   3
ENDBRANCH   1   2
BRANCH   1  11
ATOM     11  C   UNL     1      -3.921  59.247  -2.879  1.00  0.00     0.000 C 
BRANCH  11  12
ATOM     12  C   UNL     1      -2.467  58.891  -2.522  1.00  0.00    -0.000 C 
BRANCH  12  13
ATOM     13  C   UNL     1      -1.442  59.542  -3.468  1.00  0.00    -0.000 C 
BRANCH  13  14
ATOM     14  C   UNL     1      -0.690  60.756  -2.884  1.00  0.00    -0.000 C 
BRANCH  14  15
ATOM     15  C   UNL     1       0.832  60.570  -2.731  1.00  0.00    -0.000 C 
BRANCH  15  16
ATOM     16  C   UNL     1       1.352  60.614  -1.279  1.00  0.00    -0.000 C 
BRANCH  16  17
ATOM     17  C   UNL     1       0.740  61.725  -0.407  1.00  0.00    -0.003 C 
ATOM     18  C   UNL     1       1.714  62.269   0.635  1.00  0.00     0.004 C 
ENDBRANCH  16  17
ENDBRANCH  15  16
ENDBRANCH  14  15
ENDBRANCH  13  14
ENDBRANCH  12  13
ENDBRANCH  11  12
ENDBRANCH   1  11
TORSDOF 14
ENDMDL
MODEL 5
REMARK VINA RESULT:     0.615      3.454      5.468
REMARK INTER + INTRA:           0.738
REMARK INTER:                   2.097
REMARK INTRA:                  -1.359
REMARK UNBOUND:                -0.380
REMARK SMILES CCCCCCCCCCCCCCCC(=O)[O-]
REMARK SMILES IDX 9 1 10 2 11 3 12 4 13 5 14 6 15 7 16 8 17 9 18 10 8 11 7 12
REMARK SMILES IDX 6 13 5 14 4 15 3 16 2 17 1 18
REMARK H PARENT
REMARK Flexibility Score: inf
ROOT
ATOM      1  C   UNL     1       2.373  60.536  -6.612  1.00  0.00     0.000 C 
ENDROOT
BRANCH   1   2
ATOM      2  C   UNL     1       2.941  59.414  -5.725  1.00  0.00     0.000 C 
BRANCH   2   3
ATOM      3  C   UNL     1       2.338  59.432  -4.304  1.00  0.00     0.000 C 
BRANCH   3   4
ATOM      4  C   UNL     1       1.415  60.635  -4.044  1.00  0.00     0.000 C 
BRANCH   4   5
ATOM      5  C   UNL     1      -0.068  60.312  -4.286  1.00  0.00     0.000 C 
BRANCH   5   6
ATOM      6  C   UNL     1      -0.859  60.098  -2.983  1.00  0.00     0.006 C 
BRANCH   6   7
ATOM      7  C   UNL     1      -0.087  60.494  -1.712  1.00  0.00     0.053 C 
BRANCH   7   8
ATOM      8  C   UNL     1      -0.499  59.691  -0.516  1.00  0.00     0.041 C 
ATOM      9  O   UNL     1      -1.587  59.056  -0.523  1.00  0.00    -0.550 OA
ATOM     10  O   UNL     1       0.299  59.672   0.622  1.00  0.00    -0.550 OA
ENDBRANCH   7   8
ENDBRANCH   6   7
ENDBRANCH   5   6
ENDBRANCH   4   5
ENDBRANCH   3   4
ENDBRANCH   2   3
ENDBRANCH   1   2
BRANCH   1  11
ATOM     11  C   UNL     1       1.751  60.009  -7.915  1.00  0.00     0.000 C 
BRANCH  11  12
ATOM     12  C   UNL     1       0.740  58.875  -7.671  1.00  0.00    -0.000 C 
BRANCH  12  13
ATOM     13  C   UNL     1      -0.686  59.238  -8.125  1.00  0.00    -0.000 C 
BRANCH  13  14
ATOM     14  C   UNL     1      -1.796  58.940  -7.097  1.00  0.00    -0.000 C 
BRANCH  14  15
ATOM     15  C   UNL     1      -3.187  59.497  -7.456  1.00  0.00    -0.000 C 
BRANCH  15  16
ATOM     16  C   UNL     1      -4.283  59.244  -6.401  1.00  0.00    -0.000 C 
BRANCH  16  17
ATOM     17  C   UNL     1      -4.059  59.954  -5.053  1.00  0.00    -0.003 C 
ATOM     18  C   UNL     1      -4.097  58.997  -3.863  1.00  0.00     0.004 C 
ENDBRANCH  16  17
ENDBRANCH  15  16
ENDBRANCH  14  15
ENDBRANCH  13  14
ENDBRANCH  12  13
ENDBRANCH  11  12
ENDBRANCH   1  11
TORSDOF 14
ENDMDL
MODEL 6
REMARK VINA RESULT:     0.672     22.046     24.507
REMARK INTER + INTRA:           0.841
REMARK INTER:                   1.341
REMARK INTRA:                  -0.500
REMARK UNBOUND:                -0.380
REMARK SMILES CCCCCCCCCCCCCCCC(=O)[O-]
REMARK SMILES IDX 9 1 10 2 11 3 12 4 13 5 14 6 15 7 16 8 17 9 18 10 8 11 7 12
REMARK SMILES IDX 6 13 5 14 4 15 3 16 2 17 1 18
REMARK H PARENT
REMARK Flexibility Score: inf
ROOT
ATOM      1  C   UNL     1      15.121  77.732   2.100  1.00  0.00     0.000 C 
ENDROOT
BRANCH   1   2
ATOM      2  C   UNL     1      14.700  78.438   3.402  1.00  0.00     0.000 C 
BRANCH   2   3
ATOM      3  C   UNL     1      14.827  77.516   4.633  1.00  0.00     0.000 C 
BRANCH   3   4
ATOM      4  C   UNL     1      14.325  78.159   5.937  1.00  0.00     0.000 C 
BRANCH   4   5
ATOM      5  C   UNL     1      14.612  77.298   7.176  1.00  0.00     0.000 C 
BRANCH   5   6
ATOM      6  C   UNL     1      15.125  75.889   6.826  1.00  0.00     0.006 C 
BRANCH   6   7
ATOM      7  C   UNL     1      14.071  74.781   6.999  1.00  0.00     0.053 C 
BRANCH   7   8
ATOM      8  C   UNL     1      14.633  73.547   7.637  1.00  0.00     0.041 C 
ATOM      9  O   UNL     1      14.887  72.531   6.938  1.00  0.00    -0.550 OA
ATOM     10  O   UNL     1      14.842  73.504   9.011  1.00  0.00    -0.550 OA
ENDBRANCH   7   8
ENDBRANCH   6   7
ENDBRANCH   5   6
ENDBRANCH   4   5
ENDBRANCH   3   4
ENDBRANCH   2   3
ENDBRANCH   1   2
BRANCH   1  11
ATOM     11  C   UNL     1      14.700  78.505   0.840  1.00  0.00     0.000 C 
BRANCH  11  12
ATOM     12  C   UNL     1      14.959  77.713  -0.454  1.00  0.00    -0.000 C 
BRANCH  12  13
ATOM     13  C   UNL     1      14.023  76.501  -0.610  1.00  0.00    -0.000 C 
BRANCH  13  14
ATOM     14  C   UNL     1      13.697  76.109  -2.065  1.00  0.00    -0.000 C 
BRANCH  14  15
ATOM     15  C   UNL     1      13.152  77.252  -2.944  1.00  0.00    -0.000 C 
BRANCH  15  16
ATOM     16  C   UNL     1      12.720  76.833  -4.364  1.00  0.00    -0.000 C 
BRANCH  16  17
ATOM     17  C   UNL     1      13.719  77.197  -5.477  1.00  0.00    -0.003 C 
ATOM     18  C   UNL     1      13.330  78.464  -6.235  1.00  0.00     0.004 C 
ENDBRANCH  16  17
ENDBRANCH  15  16
ENDBRANCH  14  15
ENDBRANCH  13  14
ENDBRANCH  12  13
ENDBRANCH  11  12
ENDBRANCH   1  11
TORSDOF 14
ENDMDL
MODEL 7
REMARK VINA RESULT:     0.747      3.274      5.070
REMARK INTER + INTRA:           0.978
REMARK INTER:                   0.728
REMARK INTRA:                   0.250
REMARK UNBOUND:                -0.380
REMARK SMILES CCCCCCCCCCCCCCCC(=O)[O-]
REMARK SMILES IDX 9 1 10 2 11 3 12 4 13 5 14 6 15 7 16 8 17 9 18 10 8 11 7 12
REMARK SMILES IDX 6 13 5 14 4 15 3 16 2 17 1 18
REMARK H PARENT
REMARK Flexibility Score: inf
ROOT
ATOM      1  C   UNL     1       0.847  58.897  -7.953  1.00  0.00     0.000 C 
ENDROOT
BRANCH   1   2
ATOM      2  C   UNL     1       1.627  58.875  -6.627  1.00  0.00     0.000 C 
BRANCH   2   3
ATOM      3  C   UNL     1       2.286  60.236  -6.315  1.00  0.00     0.000 C 
BRANCH   3   4
ATOM      4  C   UNL     1       1.505  61.076  -5.291  1.00  0.00     0.000 C 
BRANCH   4   5
ATOM      5  C   UNL     1       1.070  60.265  -4.061  1.00  0.00     0.000 C 
BRANCH   5   6
ATOM      6  C   UNL     1       0.640  61.148  -2.876  1.00  0.00     0.006 C 
BRANCH   6   7
ATOM      7  C   UNL     1      -0.167  60.400  -1.800  1.00  0.00     0.053 C 
BRANCH   7   8
ATOM      8  C   UNL     1       0.497  60.431  -0.457  1.00  0.00     0.041 C 
ATOM      9  O   UNL     1       0.137  59.632   0.446  1.00  0.00    -0.550 OA
ATOM     10  O   UNL     1       1.488  61.368  -0.189  1.00  0.00    -0.550 OA
ENDBRANCH   7   8
ENDBRANCH   6   7
ENDBRANCH   5   6
ENDBRANCH   4   5
ENDBRANCH   3   4
ENDBRANCH   2   3
ENDBRANCH   1   2
BRANCH   1  11
ATOM     11  C   UNL     1      -0.677  58.912  -7.749  1.00  0.00     0.000 C 
BRANCH  11  12
ATOM     12  C   UNL     1      -1.078  59.349  -6.329  1.00  0.00    -0.000 C 
BRANCH  12  13
ATOM     13  C   UNL     1      -2.489  58.876  -5.935  1.00  0.00    -0.000 C 
BRANCH  13  14
ATOM     14  C   UNL     1      -3.646  59.588  -6.665  1.00  0.00    -0.000 C 
BRANCH  14  15
ATOM     15  C   UNL     1      -4.372  60.670  -5.842  1.00  0.00    -0.000 C 
BRANCH  15  16
ATOM     16  C   UNL     1      -4.095  60.631  -4.326  1.00  0.00    -0.000 C 
BRANCH  16  17
ATOM     17  C   UNL     1      -4.086  59.222  -3.707  1.00  0.00    -0.003 C 
ATOM     18  C   UNL     1      -3.092  59.084  -2.555  1.00  0.00     0.004 C 
ENDBRANCH  16  17
ENDBRANCH  15  16
ENDBRANCH  14  15
ENDBRANCH  13  14
ENDBRANCH  12  13
ENDBRANCH  11  12
ENDBRANCH   1  11
TORSDOF 14
ENDMDL
