MODEL 1
REMARK VINA RESULT:    -5.312      0.000      0.000
REMARK INTER + INTRA:          -6.486
REMARK INTER:                  -6.244
REMARK INTRA:                  -0.242
REMARK UNBOUND:                -0.242
REMARK SMILES O=c1c(O)c(-c2ccc(O)cc2)oc2cc(O)cc(O)c12
REMARK SMILES IDX 5 1 3 2 2 3 1 4 21 5 19 6 18 7 16 8 15 9 14 10 13 11 6 12
REMARK SMILES IDX 7 13 8 14 9 15 12 16 11 17 10 18 4 20 20 22 17 24
REMARK H PARENT 10 19 4 21 20 23 17 25
REMARK Flexibility Score: inf
ROOT
ATOM      1  C   UNL     1     121.188 128.537 130.268  1.00  0.00     0.180 A 
ATOM      2  C   UNL     1     121.900 127.624 131.070  1.00  0.00     0.208 A 
ATOM      3  C   UNL     1     121.257 126.452 131.497  1.00  0.00     0.238 A 
ATOM      4  O   UNL     1     121.881 125.632 132.224  1.00  0.00    -0.285 OA
ATOM      5  C   UNL     1     119.926 126.204 131.102  1.00  0.00     0.111 A 
ATOM      6  C   UNL     1     119.208 125.046 131.486  1.00  0.00     0.134 A 
ATOM      7  C   UNL     1     117.888 124.867 131.044  1.00  0.00     0.093 A 
ATOM      8  C   UNL     1     117.275 125.820 130.226  1.00  0.00     0.123 A 
ATOM      9  C   UNL     1     117.980 126.966 129.844  1.00  0.00     0.094 A 
ATOM     10  C   UNL     1     119.296 127.163 130.275  1.00  0.00     0.146 A 
ATOM     11  O   UNL     1     119.940 128.262 129.903  1.00  0.00    -0.452 OA
ENDROOT
BRANCH   1  12
ATOM     12  C   UNL     1     121.792 129.804 129.793  1.00  0.00     0.021 A 
ATOM     13  C   UNL     1     121.988 130.894 130.661  1.00  0.00     0.016 A 
ATOM     14  C   UNL     1     122.537 132.088 130.183  1.00  0.00     0.047 A 
ATOM     15  C   UNL     1     122.883 132.213 128.834  1.00  0.00     0.115 A 
ATOM     16  C   UNL     1     122.123 129.945 128.435  1.00  0.00     0.016 A 
ATOM     17  C   UNL     1     122.673 131.139 127.960  1.00  0.00     0.047 A 
BRANCH  15  18
ATOM     18  O   UNL     1     123.431 133.409 128.373  1.00  0.00    -0.508 OA
ATOM     19  H   UNL     1     123.446 134.241 128.951  1.00  0.00     0.293 HD
ENDBRANCH  15  18
ENDBRANCH   1  12
BRANCH   2  20
ATOM     20  O   UNL     1     123.235 127.870 131.405  1.00  0.00    -0.502 OA
ATOM     21  H   UNL     1     123.576 127.796 132.356  1.00  0.00     0.293 HD
ENDBRANCH   2  20
BRANCH   6  22
ATOM     22  O   UNL     1     119.792 124.075 132.301  1.00  0.00    -0.507 OA
ATOM     23  H   UNL     1     119.513 123.952 133.267  1.00  0.00     0.293 HD
ENDBRANCH   6  22
BRANCH   8  24
ATOM     24  O   UNL     1     115.965 125.618 129.800  1.00  0.00    -0.508 OA
ATOM     25  H   UNL     1     115.635 125.976 128.912  1.00  0.00     0.293 HD
ENDBRANCH   8  24
TORSDOF 5
ENDMDL
MODEL 2
REMARK VINA RESULT:    -5.246      2.094      6.985
REMARK INTER + INTRA:          -6.408
REMARK INTER:                  -6.179
REMARK INTRA:                  -0.229
REMARK UNBOUND:                -0.242
REMARK SMILES O=c1c(O)c(-c2ccc(O)cc2)oc2cc(O)cc(O)c12
REMARK SMILES IDX 5 1 3 2 2 3 1 4 21 5 19 6 18 7 16 8 15 9 14 10 13 11 6 12
REMARK SMILES IDX 7 13 8 14 9 15 12 16 11 17 10 18 4 20 20 22 17 24
REMARK H PARENT 10 19 4 21 20 23 17 25
REMARK Flexibility Score: inf
ROOT
ATOM      1  C   UNL     1     121.250 127.521 130.653  1.00  0.00     0.180 A 
ATOM      2  C   UNL     1     120.825 128.864 130.679  1.00  0.00     0.208 A 
ATOM      3  C   UNL     1     121.664 129.850 130.139  1.00  0.00     0.238 A 
ATOM      4  O   UNL     1     121.299 131.057 130.167  1.00  0.00    -0.285 OA
ATOM      5  C   UNL     1     122.899 129.480 129.567  1.00  0.00     0.111 A 
ATOM      6  C   UNL     1     123.800 130.412 128.998  1.00  0.00     0.134 A 
ATOM      7  C   UNL     1     125.006 129.962 128.440  1.00  0.00     0.093 A 
ATOM      8  C   UNL     1     125.327 128.602 128.437  1.00  0.00     0.123 A 
ATOM      9  C   UNL     1     124.441 127.677 128.998  1.00  0.00     0.094 A 
ATOM     10  C   UNL     1     123.234 128.105 129.561  1.00  0.00     0.146 A 
ATOM     11  O   UNL     1     122.413 127.207 130.091  1.00  0.00    -0.452 OA
ENDROOT
BRANCH   1  12
ATOM     12  C   UNL     1     120.429 126.425 131.219  1.00  0.00     0.021 A 
ATOM     13  C   UNL     1     120.774 125.802 132.432  1.00  0.00     0.016 A 
ATOM     14  C   UNL     1     119.998 124.752 132.933  1.00  0.00     0.047 A 
ATOM     15  C   UNL     1     118.878 124.305 132.225  1.00  0.00     0.115 A 
ATOM     16  C   UNL     1     119.315 125.956 130.503  1.00  0.00     0.016 A 
ATOM     17  C   UNL     1     118.540 124.907 131.007  1.00  0.00     0.047 A 
BRANCH  15  18
ATOM     18  O   UNL     1     118.113 123.259 132.738  1.00  0.00    -0.508 OA
ATOM     19  H   UNL     1     117.368 122.834 132.198  1.00  0.00     0.293 HD
ENDBRANCH  15  18
ENDBRANCH   1  12
BRANCH   2  20
ATOM     20  O   UNL     1     119.575 129.199 131.207  1.00  0.00    -0.502 OA
ATOM     21  H   UNL     1     119.287 128.919 132.137  1.00  0.00     0.293 HD
ENDBRANCH   2  20
BRANCH   6  22
ATOM     22  O   UNL     1     123.509 131.776 128.984  1.00  0.00    -0.507 OA
ATOM     23  H   UNL     1     123.963 132.425 129.616  1.00  0.00     0.293 HD
ENDBRANCH   6  22
BRANCH   8  24
ATOM     24  O   UNL     1     126.530 128.181 127.876  1.00  0.00    -0.508 OA
ATOM     25  H   UNL     1     126.574 127.806 126.936  1.00  0.00     0.293 HD
ENDBRANCH   8  24
TORSDOF 5
ENDMDL
MODEL 3
REMARK VINA RESULT:    -5.229     14.689     17.550
REMARK INTER + INTRA:          -6.388
REMARK INTER:                  -6.146
REMARK INTRA:                  -0.242
REMARK UNBOUND:                -0.242
REMARK SMILES O=c1c(O)c(-c2ccc(O)cc2)oc2cc(O)cc(O)c12
REMARK SMILES IDX 5 1 3 2 2 3 1 4 21 5 19 6 18 7 16 8 15 9 14 10 13 11 6 12
REMARK SMILES IDX 7 13 8 14 9 15 12 16 11 17 10 18 4 20 20 22 17 24
REMARK H PARENT 10 19 4 21 20 23 17 25
REMARK Flexibility Score: inf
ROOT
ATOM      1  C   UNL     1     135.143 134.037 134.445  1.00  0.00     0.180 A 
ATOM      2  C   UNL     1     135.188 135.174 135.276  1.00  0.00     0.208 A 
ATOM      3  C   UNL     1     135.369 136.435 134.689  1.00  0.00     0.238 A 
ATOM      4  O   UNL     1     135.422 137.459 135.424  1.00  0.00    -0.285 OA
ATOM      5  C   UNL     1     135.483 136.543 133.288  1.00  0.00     0.111 A 
ATOM      6  C   UNL     1     135.663 137.777 132.618  1.00  0.00     0.134 A 
ATOM      7  C   UNL     1     135.759 137.801 131.219  1.00  0.00     0.093 A 
ATOM      8  C   UNL     1     135.675 136.620 130.478  1.00  0.00     0.123 A 
ATOM      9  C   UNL     1     135.497 135.398 131.134  1.00  0.00     0.094 A 
ATOM     10  C   UNL     1     135.401 135.352 132.529  1.00  0.00     0.146 A 
ATOM     11  O   UNL     1     135.238 134.178 133.127  1.00  0.00    -0.452 OA
ENDROOT
BRANCH   1  12
ATOM     12  C   UNL     1     134.973 132.670 134.991  1.00  0.00     0.021 A 
ATOM     13  C   UNL     1     136.025 132.006 135.647  1.00  0.00     0.016 A 
ATOM     14  C   UNL     1     135.847 130.707 136.131  1.00  0.00     0.047 A 
ATOM     15  C   UNL     1     134.625 130.050 135.955  1.00  0.00     0.115 A 
ATOM     16  C   UNL     1     133.755 131.996 134.799  1.00  0.00     0.016 A 
ATOM     17  C   UNL     1     133.579 130.697 135.285  1.00  0.00     0.047 A 
BRANCH  15  18
ATOM     18  O   UNL     1     134.463 128.755 136.445  1.00  0.00    -0.508 OA
ATOM     19  H   UNL     1     135.136 128.341 137.078  1.00  0.00     0.293 HD
ENDBRANCH  15  18
ENDBRANCH   1  12
BRANCH   2  20
ATOM     20  O   UNL     1     135.022 135.045 136.658  1.00  0.00    -0.502 OA
ATOM     21  H   UNL     1     135.797 135.125 137.306  1.00  0.00     0.293 HD
ENDBRANCH   2  20
BRANCH   6  22
ATOM     22  O   UNL     1     135.750 138.975 133.329  1.00  0.00    -0.507 OA
ATOM     23  H   UNL     1     136.596 139.532 133.334  1.00  0.00     0.293 HD
ENDBRANCH   6  22
BRANCH   8  24
ATOM     24  O   UNL     1     135.772 136.671 129.089  1.00  0.00    -0.508 OA
ATOM     25  H   UNL     1     136.233 135.940 128.562  1.00  0.00     0.293 HD
ENDBRANCH   8  24
TORSDOF 5
ENDMDL
MODEL 4
REMARK VINA RESULT:    -5.162      1.333      3.057
REMARK INTER + INTRA:          -6.309
REMARK INTER:                  -6.331
REMARK INTRA:                   0.022
REMARK UNBOUND:                -0.242
REMARK SMILES O=c1c(O)c(-c2ccc(O)cc2)oc2cc(O)cc(O)c12
REMARK SMILES IDX 5 1 3 2 2 3 1 4 21 5 19 6 18 7 16 8 15 9 14 10 13 11 6 12
REMARK SMILES IDX 7 13 8 14 9 15 12 16 11 17 10 18 4 20 20 22 17 24
REMARK H PARENT 10 19 4 21 20 23 17 25
REMARK Flexibility Score: inf
ROOT
ATOM      1  C   UNL     1     120.588 128.593 129.875  1.00  0.00     0.180 A 
ATOM      2  C   UNL     1     119.543 128.062 129.093  1.00  0.00     0.208 A 
ATOM      3  C   UNL     1     118.929 126.869 129.503  1.00  0.00     0.238 A 
ATOM      4  O   UNL     1     117.999 126.379 128.805  1.00  0.00    -0.285 OA
ATOM      5  C   UNL     1     119.352 126.239 130.691  1.00  0.00     0.111 A 
ATOM      6  C   UNL     1     118.782 125.038 131.176  1.00  0.00     0.134 A 
ATOM      7  C   UNL     1     119.254 124.477 132.372  1.00  0.00     0.093 A 
ATOM      8  C   UNL     1     120.279 125.095 133.094  1.00  0.00     0.123 A 
ATOM      9  C   UNL     1     120.846 126.282 132.619  1.00  0.00     0.094 A 
ATOM     10  C   UNL     1     120.391 126.855 131.427  1.00  0.00     0.146 A 
ATOM     11  O   UNL     1     120.950 127.980 130.997  1.00  0.00    -0.452 OA
ENDROOT
BRANCH   1  12
ATOM     12  C   UNL     1     121.298 129.838 129.498  1.00  0.00     0.021 A 
ATOM     13  C   UNL     1     121.802 130.030 128.199  1.00  0.00     0.016 A 
ATOM     14  C   UNL     1     122.490 131.203 127.875  1.00  0.00     0.047 A 
ATOM     15  C   UNL     1     122.696 132.190 128.845  1.00  0.00     0.115 A 
ATOM     16  C   UNL     1     121.527 130.824 130.472  1.00  0.00     0.016 A 
ATOM     17  C   UNL     1     122.215 131.996 130.146  1.00  0.00     0.047 A 
BRANCH  15  18
ATOM     18  O   UNL     1     123.383 133.354 128.506  1.00  0.00    -0.508 OA
ATOM     19  H   UNL     1     123.394 134.160 129.121  1.00  0.00     0.293 HD
ENDBRANCH  15  18
ENDBRANCH   1  12
BRANCH   2  20
ATOM     20  O   UNL     1     119.109 128.733 127.946  1.00  0.00    -0.502 OA
ATOM     21  H   UNL     1     119.595 128.662 127.060  1.00  0.00     0.293 HD
ENDBRANCH   2  20
BRANCH   6  22
ATOM     22  O   UNL     1     117.756 124.396 130.480  1.00  0.00    -0.507 OA
ATOM     23  H   UNL     1     116.805 124.746 130.491  1.00  0.00     0.293 HD
ENDBRANCH   6  22
BRANCH   8  24
ATOM     24  O   UNL     1     120.728 124.518 134.280  1.00  0.00    -0.508 OA
ATOM     25  H   UNL     1     120.083 124.219 135.001  1.00  0.00     0.293 HD
ENDBRANCH   8  24
TORSDOF 5
ENDMDL
MODEL 5
REMARK VINA RESULT:    -5.011      1.897      3.190
REMARK INTER + INTRA:          -6.132
REMARK INTER:                  -5.846
REMARK INTRA:                  -0.286
REMARK UNBOUND:                -0.242
REMARK SMILES O=c1c(O)c(-c2ccc(O)cc2)oc2cc(O)cc(O)c12
REMARK SMILES IDX 5 1 3 2 2 3 1 4 21 5 19 6 18 7 16 8 15 9 14 10 13 11 6 12
REMARK SMILES IDX 7 13 8 14 9 15 12 16 11 17 10 18 4 20 20 22 17 24
REMARK H PARENT 10 19 4 21 20 23 17 25
REMARK Flexibility Score: inf
ROOT
ATOM      1  C   UNL     1     120.994 127.861 129.674  1.00  0.00     0.180 A 
ATOM      2  C   UNL     1     119.970 128.232 128.781  1.00  0.00     0.208 A 
ATOM      3  C   UNL     1     118.741 127.557 128.840  1.00  0.00     0.238 A 
ATOM      4  O   UNL     1     117.820 127.874 128.039  1.00  0.00    -0.285 OA
ATOM      5  C   UNL     1     118.550 126.539 129.798  1.00  0.00     0.111 A 
ATOM      6  C   UNL     1     117.342 125.813 129.926  1.00  0.00     0.134 A 
ATOM      7  C   UNL     1     117.228 124.820 130.911  1.00  0.00     0.093 A 
ATOM      8  C   UNL     1     118.294 124.542 131.770  1.00  0.00     0.123 A 
ATOM      9  C   UNL     1     119.490 125.256 131.648  1.00  0.00     0.094 A 
ATOM     10  C   UNL     1     119.625 126.248 130.671  1.00  0.00     0.146 A 
ATOM     11  O   UNL     1     120.773 126.907 130.573  1.00  0.00    -0.452 OA
ENDROOT
BRANCH   1  12
ATOM     12  C   UNL     1     122.324 128.514 129.661  1.00  0.00     0.021 A 
ATOM     13  C   UNL     1     122.564 129.702 130.375  1.00  0.00     0.016 A 
ATOM     14  C   UNL     1     123.821 130.314 130.327  1.00  0.00     0.047 A 
ATOM     15  C   UNL     1     124.846 129.757 129.556  1.00  0.00     0.115 A 
ATOM     16  C   UNL     1     123.353 127.972 128.872  1.00  0.00     0.016 A 
ATOM     17  C   UNL     1     124.608 128.585 128.826  1.00  0.00     0.047 A 
BRANCH  15  18
ATOM     18  O   UNL     1     126.093 130.377 129.520  1.00  0.00    -0.508 OA
ATOM     19  H   UNL     1     126.208 131.349 129.780  1.00  0.00     0.293 HD
ENDBRANCH  15  18
ENDBRANCH   1  12
BRANCH   2  20
ATOM     20  O   UNL     1     120.167 129.278 127.875  1.00  0.00    -0.502 OA
ATOM     21  H   UNL     1     119.442 129.950 127.657  1.00  0.00     0.293 HD
ENDBRANCH   2  20
BRANCH   6  22
ATOM     22  O   UNL     1     116.258 126.067 129.084  1.00  0.00    -0.507 OA
ATOM     23  H   UNL     1     115.493 125.410 128.987  1.00  0.00     0.293 HD
ENDBRANCH   6  22
BRANCH   8  24
ATOM     24  O   UNL     1     118.154 123.553 132.740  1.00  0.00    -0.508 OA
ATOM     25  H   UNL     1     118.856 123.409 133.456  1.00  0.00     0.293 HD
ENDBRANCH   8  24
TORSDOF 5
ENDMDL
MODEL 6
REMARK VINA RESULT:    -4.903      9.922     14.519
REMARK INTER + INTRA:          -6.004
REMARK INTER:                  -5.707
REMARK INTRA:                  -0.298
REMARK UNBOUND:                -0.242
REMARK SMILES O=c1c(O)c(-c2ccc(O)cc2)oc2cc(O)cc(O)c12
REMARK SMILES IDX 5 1 3 2 2 3 1 4 21 5 19 6 18 7 16 8 15 9 14 10 13 11 6 12
REMARK SMILES IDX 7 13 8 14 9 15 12 16 11 17 10 18 4 20 20 22 17 24
REMARK H PARENT 10 19 4 21 20 23 17 25
REMARK Flexibility Score: inf
ROOT
ATOM      1  C   UNL     1     132.080 133.556 129.444  1.00  0.00     0.180 A 
ATOM      2  C   UNL     1     133.440 133.620 129.805  1.00  0.00     0.208 A 
ATOM      3  C   UNL     1     134.052 134.878 129.921  1.00  0.00     0.238 A 
ATOM      4  O   UNL     1     135.272 134.947 130.232  1.00  0.00    -0.285 OA
ATOM      5  C   UNL     1     133.294 136.045 129.694  1.00  0.00     0.111 A 
ATOM      6  C   UNL     1     133.834 137.350 129.793  1.00  0.00     0.134 A 
ATOM      7  C   UNL     1     133.012 138.463 129.561  1.00  0.00     0.093 A 
ATOM      8  C   UNL     1     131.663 138.297 129.235  1.00  0.00     0.123 A 
ATOM      9  C   UNL     1     131.125 137.011 129.134  1.00  0.00     0.094 A 
ATOM     10  C   UNL     1     131.928 135.888 129.360  1.00  0.00     0.146 A 
ATOM     11  O   UNL     1     131.394 134.678 129.253  1.00  0.00    -0.452 OA
ENDROOT
BRANCH   1  12
ATOM     12  C   UNL     1     131.369 132.266 129.285  1.00  0.00     0.021 A 
ATOM     13  C   UNL     1     131.392 131.562 128.068  1.00  0.00     0.016 A 
ATOM     14  C   UNL     1     130.691 130.359 127.934  1.00  0.00     0.047 A 
ATOM     15  C   UNL     1     129.951 129.852 129.007  1.00  0.00     0.115 A 
ATOM     16  C   UNL     1     130.606 131.761 130.351  1.00  0.00     0.016 A 
ATOM     17  C   UNL     1     129.907 130.558 130.216  1.00  0.00     0.047 A 
BRANCH  15  18
ATOM     18  O   UNL     1     129.260 128.651 128.859  1.00  0.00    -0.508 OA
ATOM     19  H   UNL     1     128.785 128.215 129.641  1.00  0.00     0.293 HD
ENDBRANCH  15  18
ENDBRANCH   1  12
BRANCH   2  20
ATOM     20  O   UNL     1     134.156 132.450 130.073  1.00  0.00    -0.502 OA
ATOM     21  H   UNL     1     134.584 131.897 129.341  1.00  0.00     0.293 HD
ENDBRANCH   2  20
BRANCH   6  22
ATOM     22  O   UNL     1     135.176 137.550 130.119  1.00  0.00    -0.507 OA
ATOM     23  H   UNL     1     135.837 136.782 130.154  1.00  0.00     0.293 HD
ENDBRANCH   6  22
BRANCH   8  24
ATOM     24  O   UNL     1     130.868 139.418 129.010  1.00  0.00    -0.508 OA
ATOM     25  H   UNL     1     130.202 139.743 129.701  1.00  0.00     0.293 HD
ENDBRANCH   8  24
TORSDOF 5
ENDMDL
MODEL 7
REMARK VINA RESULT:    -4.825     14.700     18.461
REMARK INTER + INTRA:          -5.913
REMARK INTER:                  -5.629
REMARK INTRA:                  -0.285
REMARK UNBOUND:                -0.242
REMARK SMILES O=c1c(O)c(-c2ccc(O)cc2)oc2cc(O)cc(O)c12
REMARK SMILES IDX 5 1 3 2 2 3 1 4 21 5 19 6 18 7 16 8 15 9 14 10 13 11 6 12
REMARK SMILES IDX 7 13 8 14 9 15 12 16 11 17 10 18 4 20 20 22 17 24
REMARK H PARENT 10 19 4 21 20 23 17 25
REMARK Flexibility Score: inf
ROOT
ATOM      1  C   UNL     1     131.149 139.136 138.220  1.00  0.00     0.180 A 
ATOM      2  C   UNL     1     131.902 139.532 139.343  1.00  0.00     0.208 A 
ATOM      3  C   UNL     1     133.282 139.737 139.195  1.00  0.00     0.238 A 
ATOM      4  O   UNL     1     133.969 140.080 140.196  1.00  0.00    -0.285 OA
ATOM      5  C   UNL     1     133.882 139.563 137.930  1.00  0.00     0.111 A 
ATOM      6  C   UNL     1     135.264 139.754 137.696  1.00  0.00     0.134 A 
ATOM      7  C   UNL     1     135.783 139.571 136.405  1.00  0.00     0.093 A 
ATOM      8  C   UNL     1     134.948 139.204 135.347  1.00  0.00     0.123 A 
ATOM      9  C   UNL     1     133.581 139.014 135.573  1.00  0.00     0.094 A 
ATOM     10  C   UNL     1     133.045 139.190 136.852  1.00  0.00     0.146 A 
ATOM     11  O   UNL     1     131.745 138.998 137.041  1.00  0.00    -0.452 OA
ENDROOT
BRANCH   1  12
ATOM     12  C   UNL     1     129.691 138.883 138.301  1.00  0.00     0.021 A 
ATOM     13  C   UNL     1     128.758 139.929 138.181  1.00  0.00     0.016 A 
ATOM     14  C   UNL     1     127.388 139.668 138.286  1.00  0.00     0.047 A 
ATOM     15  C   UNL     1     126.935 138.367 138.525  1.00  0.00     0.115 A 
ATOM     16  C   UNL     1     129.229 137.582 138.561  1.00  0.00     0.016 A 
ATOM     17  C   UNL     1     127.859 137.324 138.665  1.00  0.00     0.047 A 
BRANCH  15  18
ATOM     18  O   UNL     1     125.566 138.123 138.625  1.00  0.00    -0.508 OA
ATOM     19  H   UNL     1     125.144 137.828 139.498  1.00  0.00     0.293 HD
ENDBRANCH  15  18
ENDBRANCH   1  12
BRANCH   2  20
ATOM     20  O   UNL     1     131.276 139.745 140.574  1.00  0.00    -0.502 OA
ATOM     21  H   UNL     1     130.778 140.601 140.788  1.00  0.00     0.293 HD
ENDBRANCH   2  20
BRANCH   6  22
ATOM     22  O   UNL     1     136.125 140.121 138.732  1.00  0.00    -0.507 OA
ATOM     23  H   UNL     1     137.078 140.415 138.554  1.00  0.00     0.293 HD
ENDBRANCH   6  22
BRANCH   8  24
ATOM     24  O   UNL     1     135.488 139.029 134.075  1.00  0.00    -0.508 OA
ATOM     25  H   UNL     1     135.367 139.724 133.348  1.00  0.00     0.293 HD
ENDBRANCH   8  24
TORSDOF 5
ENDMDL
MODEL 8
REMARK VINA RESULT:    -4.788      2.464      6.648
REMARK INTER + INTRA:          -5.870
REMARK INTER:                  -5.584
REMARK INTRA:                  -0.286
REMARK UNBOUND:                -0.242
REMARK SMILES O=c1c(O)c(-c2ccc(O)cc2)oc2cc(O)cc(O)c12
REMARK SMILES IDX 5 1 3 2 2 3 1 4 21 5 19 6 18 7 16 8 15 9 14 10 13 11 6 12
REMARK SMILES IDX 7 13 8 14 9 15 12 16 11 17 10 18 4 20 20 22 17 24
REMARK H PARENT 10 19 4 21 20 23 17 25
REMARK Flexibility Score: inf
ROOT
ATOM      1  C   UNL     1     120.847 128.720 129.419  1.00  0.00     0.180 A 
ATOM      2  C   UNL     1     120.930 129.830 130.283  1.00  0.00     0.208 A 
ATOM      3  C   UNL     1     122.185 130.408 130.525  1.00  0.00     0.238 A 
ATOM      4  O   UNL     1     122.274 131.395 131.305  1.00  0.00    -0.285 OA
ATOM      5  C   UNL     1     123.329 129.883 129.888  1.00  0.00     0.111 A 
ATOM      6  C   UNL     1     124.629 130.410 130.074  1.00  0.00     0.134 A 
ATOM      7  C   UNL     1     125.716 129.837 129.397  1.00  0.00     0.093 A 
ATOM      8  C   UNL     1     125.528 128.752 128.537  1.00  0.00     0.123 A 
ATOM      9  C   UNL     1     124.246 128.227 128.349  1.00  0.00     0.094 A 
ATOM     10  C   UNL     1     123.149 128.783 129.016  1.00  0.00     0.146 A 
ATOM     11  O   UNL     1     121.944 128.262 128.825  1.00  0.00    -0.452 OA
ENDROOT
BRANCH   1  12
ATOM     12  C   UNL     1     119.561 128.044 129.129  1.00  0.00     0.021 A 
ATOM     13  C   UNL     1     118.702 128.506 128.115  1.00  0.00     0.016 A 
ATOM     14  C   UNL     1     117.481 127.867 127.877  1.00  0.00     0.047 A 
ATOM     15  C   UNL     1     117.098 126.769 128.654  1.00  0.00     0.115 A 
ATOM     16  C   UNL     1     119.159 126.954 129.919  1.00  0.00     0.016 A 
ATOM     17  C   UNL     1     117.939 126.315 129.678  1.00  0.00     0.047 A 
BRANCH  15  18
ATOM     18  O   UNL     1     115.880 126.141 128.404  1.00  0.00    -0.508 OA
ATOM     19  H   UNL     1     115.837 125.200 128.031  1.00  0.00     0.293 HD
ENDBRANCH  15  18
ENDBRANCH   1  12
BRANCH   2  20
ATOM     20  O   UNL     1     119.775 130.361 130.862  1.00  0.00    -0.502 OA
ATOM     21  H   UNL     1     119.318 131.190 130.499  1.00  0.00     0.293 HD
ENDBRANCH   2  20
BRANCH   6  22
ATOM     22  O   UNL     1     124.851 131.494 130.926  1.00  0.00    -0.507 OA
ATOM     23  H   UNL     1     125.468 132.255 130.670  1.00  0.00     0.293 HD
ENDBRANCH   6  22
BRANCH   8  24
ATOM     24  O   UNL     1     126.624 128.202 127.875  1.00  0.00    -0.508 OA
ATOM     25  H   UNL     1     126.593 127.268 127.483  1.00  0.00     0.293 HD
ENDBRANCH   8  24
TORSDOF 5
ENDMDL
MODEL 9
REMARK VINA RESULT:    -3.799     14.880     18.540
REMARK INTER + INTRA:          -4.707
REMARK INTER:                  -4.475
REMARK INTRA:                  -0.232
REMARK UNBOUND:                -0.242
REMARK SMILES O=c1c(O)c(-c2ccc(O)cc2)oc2cc(O)cc(O)c12
REMARK SMILES IDX 5 1 3 2 2 3 1 4 21 5 19 6 18 7 16 8 15 9 14 10 13 11 6 12
REMARK SMILES IDX 7 13 8 14 9 15 12 16 11 17 10 18 4 20 20 22 17 24
REMARK H PARENT 10 19 4 21 20 23 17 25
REMARK Flexibility Score: inf
ROOT
ATOM      1  C   UNL     1     131.213 138.977 138.607  1.00  0.00     0.180 A 
ATOM      2  C   UNL     1     132.370 139.339 137.890  1.00  0.00     0.208 A 
ATOM      3  C   UNL     1     133.618 139.247 138.525  1.00  0.00     0.238 A 
ATOM      4  O   UNL     1     134.659 139.579 137.896  1.00  0.00    -0.285 OA
ATOM      5  C   UNL     1     133.692 138.779 139.853  1.00  0.00     0.111 A 
ATOM      6  C   UNL     1     134.910 138.653 140.563  1.00  0.00     0.134 A 
ATOM      7  C   UNL     1     134.900 138.171 141.881  1.00  0.00     0.093 A 
ATOM      8  C   UNL     1     133.701 137.810 142.499  1.00  0.00     0.123 A 
ATOM      9  C   UNL     1     132.494 137.933 141.803  1.00  0.00     0.094 A 
ATOM     10  C   UNL     1     132.482 138.414 140.489  1.00  0.00     0.146 A 
ATOM     11  O   UNL     1     131.322 138.526 139.853  1.00  0.00    -0.452 OA
ENDROOT
BRANCH   1  12
ATOM     12  C   UNL     1     129.859 139.064 138.012  1.00  0.00     0.021 A 
ATOM     13  C   UNL     1     128.957 140.076 138.387  1.00  0.00     0.016 A 
ATOM     14  C   UNL     1     127.675 140.121 137.830  1.00  0.00     0.047 A 
ATOM     15  C   UNL     1     127.275 139.152 136.904  1.00  0.00     0.115 A 
ATOM     16  C   UNL     1     129.442 138.082 137.098  1.00  0.00     0.016 A 
ATOM     17  C   UNL     1     128.161 138.130 136.541  1.00  0.00     0.047 A 
BRANCH  15  18
ATOM     18  O   UNL     1     125.995 139.212 136.356  1.00  0.00    -0.508 OA
ATOM     19  H   UNL     1     125.292 139.844 136.722  1.00  0.00     0.293 HD
ENDBRANCH  15  18
ENDBRANCH   1  12
BRANCH   2  20
ATOM     20  O   UNL     1     132.274 139.752 136.558  1.00  0.00    -0.502 OA
ATOM     21  H   UNL     1     132.473 139.131 135.783  1.00  0.00     0.293 HD
ENDBRANCH   2  20
BRANCH   6  22
ATOM     22  O   UNL     1     136.125 139.004 139.973  1.00  0.00    -0.507 OA
ATOM     23  H   UNL     1     136.622 139.847 140.236  1.00  0.00     0.293 HD
ENDBRANCH   6  22
BRANCH   8  24
ATOM     24  O   UNL     1     133.719 137.333 143.808  1.00  0.00    -0.508 OA
ATOM     25  H   UNL     1     133.431 137.912 144.587  1.00  0.00     0.293 HD
ENDBRANCH   8  24
TORSDOF 5
ENDMDL
