MODEL 1
REMARK VINA RESULT:    -5.024      0.000      0.000
REMARK INTER + INTRA:         -11.922
REMARK INTER:                  -9.430
REMARK INTRA:                  -2.492
REMARK UNBOUND:                -2.492
REMARK SMILES CCCCCCCCC=CCCCCCCCC(=O)[O-]
REMARK SMILES IDX 10 1 9 2 11 3 12 4 13 5 14 6 15 7 16 8 17 9 18 10 19 11
REMARK SMILES IDX 20 12 8 13 7 14 6 15 5 16 4 17 3 18 2 19 1 20
REMARK H PARENT
REMARK Flexibility Score: inf
ROOT
ATOM      1  C   UNL     1      -4.794  13.523  -0.636  1.00  0.00    -0.031 C 
ATOM      2  C   UNL     1      -4.989  13.871  -1.923  1.00  0.00    -0.031 C 
ENDROOT
BRANCH   1   3
ATOM      3  C   UNL     1      -3.580  12.789  -0.122  1.00  0.00     0.027 C 
BRANCH   3   4
ATOM      4  C   UNL     1      -3.787  11.262  -0.074  1.00  0.00     0.004 C 
BRANCH   4   5
ATOM      5  C   UNL     1      -3.221  10.516  -1.298  1.00  0.00     0.000 C 
BRANCH   5   6
ATOM      6  C   UNL     1      -4.270   9.829  -2.193  1.00  0.00     0.000 C 
BRANCH   6   7
ATOM      7  C   UNL     1      -5.737  10.128  -1.833  1.00  0.00     0.000 C 
BRANCH   7   8
ATOM      8  C   UNL     1      -6.559   8.859  -1.569  1.00  0.00     0.006 C 
BRANCH   8   9
ATOM      9  C   UNL     1      -6.256   8.288  -0.181  1.00  0.00     0.053 C 
BRANCH   9  10
ATOM     10  C   UNL     1      -5.838   6.855  -0.284  1.00  0.00     0.041 C 
ATOM     11  O   UNL     1      -6.129   6.043   0.634  1.00  0.00    -0.550 OA
ATOM     12  O   UNL     1      -5.083   6.427  -1.370  1.00  0.00    -0.550 OA
ENDBRANCH   9  10
ENDBRANCH   8   9
ENDBRANCH   7   8
ENDBRANCH   6   7
ENDBRANCH   5   6
ENDBRANCH   4   5
ENDBRANCH   3   4
ENDBRANCH   1   3
BRANCH   2  13
ATOM     13  C   UNL     1      -3.989  13.653  -3.030  1.00  0.00     0.027 C 
BRANCH  13  14
ATOM     14  C   UNL     1      -4.698  13.567  -4.388  1.00  0.00     0.004 C 
BRANCH  14  15
ATOM     15  C   UNL     1      -5.700  12.400  -4.469  1.00  0.00     0.000 C 
BRANCH  15  16
ATOM     16  C   UNL     1      -6.398  12.231  -5.831  1.00  0.00     0.000 C 
BRANCH  16  17
ATOM     17  C   UNL     1      -7.056  10.851  -5.999  1.00  0.00    -0.000 C 
BRANCH  17  18
ATOM     18  C   UNL     1      -6.294   9.730  -5.269  1.00  0.00    -0.000 C 
BRANCH  18  19
ATOM     19  C   UNL     1      -7.014   8.371  -5.227  1.00  0.00    -0.003 C 
ATOM     20  C   UNL     1      -6.074   7.200  -4.942  1.00  0.00     0.004 C 
ENDBRANCH  18  19
ENDBRANCH  17  18
ENDBRANCH  16  17
ENDBRANCH  15  16
ENDBRANCH  14  15
ENDBRANCH  13  14
ENDBRANCH   2  13
TORSDOF 15
ENDMDL
MODEL 2
REMARK VINA RESULT:    -4.839      0.917      1.782
REMARK INTER + INTRA:         -11.574
REMARK INTER:                  -9.275
REMARK INTRA:                  -2.299
REMARK UNBOUND:                -2.492
REMARK SMILES CCCCCCCCC=CCCCCCCCC(=O)[O-]
REMARK SMILES IDX 10 1 9 2 11 3 12 4 13 5 14 6 15 7 16 8 17 9 18 10 19 11
REMARK SMILES IDX 20 12 8 13 7 14 6 15 5 16 4 17 3 18 2 19 1 20
REMARK H PARENT
REMARK Flexibility Score: inf
ROOT
ATOM      1  C   UNL     1      -3.193  13.457  -1.898  1.00  0.00    -0.031 C 
ATOM      2  C   UNL     1      -3.447  13.399  -3.220  1.00  0.00    -0.031 C 
ENDROOT
BRANCH   1   3
ATOM      3  C   UNL     1      -4.236  13.704  -0.836  1.00  0.00     0.027 C 
BRANCH   3   4
ATOM      4  C   UNL     1      -4.857  12.398  -0.302  1.00  0.00     0.004 C 
BRANCH   4   5
ATOM      5  C   UNL     1      -3.893  11.550   0.550  1.00  0.00     0.000 C 
BRANCH   5   6
ATOM      6  C   UNL     1      -3.554  10.161  -0.025  1.00  0.00     0.000 C 
BRANCH   6   7
ATOM      7  C   UNL     1      -3.547  10.073  -1.563  1.00  0.00     0.000 C 
BRANCH   7   8
ATOM      8  C   UNL     1      -4.518   9.013  -2.106  1.00  0.00     0.006 C 
BRANCH   8   9
ATOM      9  C   UNL     1      -5.538   8.607  -1.038  1.00  0.00     0.053 C 
BRANCH   9  10
ATOM     10  C   UNL     1      -5.391   7.158  -0.697  1.00  0.00     0.041 C 
ATOM     11  O   UNL     1      -5.099   6.323  -1.594  1.00  0.00    -0.550 OA
ATOM     12  O   UNL     1      -5.624   6.721   0.601  1.00  0.00    -0.550 OA
ENDBRANCH   9  10
ENDBRANCH   8   9
ENDBRANCH   7   8
ENDBRANCH   6   7
ENDBRANCH   5   6
ENDBRANCH   4   5
ENDBRANCH   3   4
ENDBRANCH   1   3
BRANCH   2  13
ATOM     13  C   UNL     1      -4.822  13.491  -3.832  1.00  0.00     0.027 C 
BRANCH  13  14
ATOM     14  C   UNL     1      -5.452  12.097  -3.954  1.00  0.00     0.004 C 
BRANCH  14  15
ATOM     15  C   UNL     1      -6.195  11.889  -5.287  1.00  0.00     0.000 C 
BRANCH  15  16
ATOM     16  C   UNL     1      -6.968  10.563  -5.405  1.00  0.00     0.000 C 
BRANCH  16  17
ATOM     17  C   UNL     1      -7.511  10.064  -4.055  1.00  0.00    -0.000 C 
BRANCH  17  18
ATOM     18  C   UNL     1      -7.814   8.555  -4.052  1.00  0.00    -0.000 C 
BRANCH  18  19
ATOM     19  C   UNL     1      -7.263   7.775  -5.259  1.00  0.00    -0.003 C 
ATOM     20  C   UNL     1      -6.020   6.950  -4.926  1.00  0.00     0.004 C 
ENDBRANCH  18  19
ENDBRANCH  17  18
ENDBRANCH  16  17
ENDBRANCH  15  16
ENDBRANCH  14  15
ENDBRANCH  13  14
ENDBRANCH   2  13
TORSDOF 15
ENDMDL
MODEL 3
REMARK VINA RESULT:    -4.814      1.417      4.483
REMARK INTER + INTRA:         -11.527
REMARK INTER:                  -8.774
REMARK INTRA:                  -2.753
REMARK UNBOUND:                -2.492
REMARK SMILES CCCCCCCCC=CCCCCCCCC(=O)[O-]
REMARK SMILES IDX 10 1 9 2 11 3 12 4 13 5 14 6 15 7 16 8 17 9 18 10 19 11
REMARK SMILES IDX 20 12 8 13 7 14 6 15 5 16 4 17 3 18 2 19 1 20
REMARK H PARENT
REMARK Flexibility Score: inf
ROOT
ATOM      1  C   UNL     1      -4.982  13.410  -4.272  1.00  0.00    -0.031 C 
ATOM      2  C   UNL     1      -3.972  13.697  -3.428  1.00  0.00    -0.031 C 
ENDROOT
BRANCH   1   3
ATOM      3  C   UNL     1      -5.653  12.063  -4.380  1.00  0.00     0.027 C 
BRANCH   3   4
ATOM      4  C   UNL     1      -6.324  11.843  -5.750  1.00  0.00     0.004 C 
BRANCH   4   5
ATOM      5  C   UNL     1      -7.170  10.559  -5.832  1.00  0.00     0.000 C 
BRANCH   5   6
ATOM      6  C   UNL     1      -7.555   9.937  -4.476  1.00  0.00     0.000 C 
BRANCH   6   7
ATOM      7  C   UNL     1      -7.500   8.399  -4.421  1.00  0.00     0.000 C 
BRANCH   7   8
ATOM      8  C   UNL     1      -6.111   7.863  -4.042  1.00  0.00     0.006 C 
BRANCH   8   9
ATOM      9  C   UNL     1      -5.598   8.530  -2.762  1.00  0.00     0.053 C 
BRANCH   9  10
ATOM     10  C   UNL     1      -5.766   7.614  -1.591  1.00  0.00     0.041 C 
ATOM     11  O   UNL     1      -6.476   7.964  -0.611  1.00  0.00    -0.550 OA
ATOM     12  O   UNL     1      -5.099   6.395  -1.559  1.00  0.00    -0.550 OA
ENDBRANCH   9  10
ENDBRANCH   8   9
ENDBRANCH   7   8
ENDBRANCH   6   7
ENDBRANCH   5   6
ENDBRANCH   4   5
ENDBRANCH   3   4
ENDBRANCH   1   3
BRANCH   2  13
ATOM     13  C   UNL     1      -3.413  12.740  -2.406  1.00  0.00     0.027 C 
BRANCH  13  14
ATOM     14  C   UNL     1      -3.472  13.355  -1.001  1.00  0.00     0.004 C 
BRANCH  14  15
ATOM     15  C   UNL     1      -3.589  12.298   0.113  1.00  0.00     0.000 C 
BRANCH  15  16
ATOM     16  C   UNL     1      -4.530  11.121  -0.199  1.00  0.00     0.000 C 
BRANCH  16  17
ATOM     17  C   UNL     1      -6.002  11.429   0.125  1.00  0.00    -0.000 C 
BRANCH  17  18
ATOM     18  C   UNL     1      -6.896  11.471  -1.128  1.00  0.00    -0.000 C 
BRANCH  18  19
ATOM     19  C   UNL     1      -7.625  12.806  -1.366  1.00  0.00    -0.003 C 
ATOM     20  C   UNL     1      -6.973  13.983  -0.641  1.00  0.00     0.004 C 
ENDBRANCH  18  19
ENDBRANCH  17  18
ENDBRANCH  16  17
ENDBRANCH  15  16
ENDBRANCH  14  15
ENDBRANCH  13  14
ENDBRANCH   2  13
TORSDOF 15
ENDMDL
MODEL 4
REMARK VINA RESULT:    -4.704      2.836      5.061
REMARK INTER + INTRA:         -11.320
REMARK INTER:                  -8.571
REMARK INTRA:                  -2.750
REMARK UNBOUND:                -2.492
REMARK SMILES CCCCCCCCC=CCCCCCCCC(=O)[O-]
REMARK SMILES IDX 10 1 9 2 11 3 12 4 13 5 14 6 15 7 16 8 17 9 18 10 19 11
REMARK SMILES IDX 20 12 8 13 7 14 6 15 5 16 4 17 3 18 2 19 1 20
REMARK H PARENT
REMARK Flexibility Score: inf
ROOT
ATOM      1  C   UNL     1      -5.852  12.600  -5.465  1.00  0.00    -0.031 C 
ATOM      2  C   UNL     1      -6.925  11.979  -5.992  1.00  0.00    -0.031 C 
ENDROOT
BRANCH   1   3
ATOM      3  C   UNL     1      -5.483  12.581  -4.002  1.00  0.00     0.027 C 
BRANCH   3   4
ATOM      4  C   UNL     1      -4.364  13.584  -3.660  1.00  0.00     0.004 C 
BRANCH   4   5
ATOM      5  C   UNL     1      -3.397  13.091  -2.567  1.00  0.00     0.000 C 
BRANCH   5   6
ATOM      6  C   UNL     1      -3.632  11.648  -2.081  1.00  0.00     0.000 C 
BRANCH   6   7
ATOM      7  C   UNL     1      -3.775  11.485  -0.556  1.00  0.00     0.000 C 
BRANCH   7   8
ATOM      8  C   UNL     1      -3.697  12.820   0.198  1.00  0.00     0.006 C 
BRANCH   8   9
ATOM      9  C   UNL     1      -5.073  13.229   0.733  1.00  0.00     0.053 C 
BRANCH   9  10
ATOM     10  C   UNL     1      -5.728  14.201  -0.196  1.00  0.00     0.041 C 
ATOM     11  O   UNL     1      -5.252  15.358  -0.340  1.00  0.00    -0.550 OA
ATOM     12  O   UNL     1      -6.893  13.847  -0.865  1.00  0.00    -0.550 OA
ENDBRANCH   9  10
ENDBRANCH   8   9
ENDBRANCH   7   8
ENDBRANCH   6   7
ENDBRANCH   5   6
ENDBRANCH   4   5
ENDBRANCH   3   4
ENDBRANCH   1   3
BRANCH   2  13
ATOM     13  C   UNL     1      -7.874  11.103  -5.214  1.00  0.00     0.027 C 
BRANCH  13  14
ATOM     14  C   UNL     1      -7.981   9.715  -5.861  1.00  0.00     0.004 C 
BRANCH  14  15
ATOM     15  C   UNL     1      -7.481   8.585  -4.941  1.00  0.00     0.000 C 
BRANCH  15  16
ATOM     16  C   UNL     1      -5.951   8.451  -4.842  1.00  0.00     0.000 C 
BRANCH  16  17
ATOM     17  C   UNL     1      -5.398   8.889  -3.475  1.00  0.00    -0.000 C 
BRANCH  17  18
ATOM     18  C   UNL     1      -6.091   8.184  -2.294  1.00  0.00    -0.000 C 
BRANCH  18  19
ATOM     19  C   UNL     1      -6.513   9.108  -1.139  1.00  0.00    -0.003 C 
ATOM     20  C   UNL     1      -7.245  10.365  -1.611  1.00  0.00     0.004 C 
ENDBRANCH  18  19
ENDBRANCH  17  18
ENDBRANCH  16  17
ENDBRANCH  15  16
ENDBRANCH  14  15
ENDBRANCH  13  14
ENDBRANCH   2  13
TORSDOF 15
ENDMDL
MODEL 5
REMARK VINA RESULT:    -4.609      2.996      3.968
REMARK INTER + INTRA:         -11.143
REMARK INTER:                  -8.135
REMARK INTRA:                  -3.008
REMARK UNBOUND:                -2.492
REMARK SMILES CCCCCCCCC=CCCCCCCCC(=O)[O-]
REMARK SMILES IDX 10 1 9 2 11 3 12 4 13 5 14 6 15 7 16 8 17 9 18 10 19 11
REMARK SMILES IDX 20 12 8 13 7 14 6 15 5 16 4 17 3 18 2 19 1 20
REMARK H PARENT
REMARK Flexibility Score: inf
ROOT
ATOM      1  C   UNL     1      -3.622  11.210  -0.758  1.00  0.00    -0.031 C 
ATOM      2  C   UNL     1      -3.553  12.536  -0.986  1.00  0.00    -0.031 C 
ENDROOT
BRANCH   1   3
ATOM      3  C   UNL     1      -3.401  10.149  -1.808  1.00  0.00     0.027 C 
BRANCH   3   4
ATOM      4  C   UNL     1      -4.686   9.362  -2.134  1.00  0.00     0.004 C 
BRANCH   4   5
ATOM      5  C   UNL     1      -5.824   9.576  -1.118  1.00  0.00     0.000 C 
BRANCH   5   6
ATOM      6  C   UNL     1      -7.231   9.727  -1.727  1.00  0.00     0.000 C 
BRANCH   6   7
ATOM      7  C   UNL     1      -7.808  11.155  -1.700  1.00  0.00     0.000 C 
BRANCH   7   8
ATOM      8  C   UNL     1      -7.259  12.000  -0.542  1.00  0.00     0.006 C 
BRANCH   8   9
ATOM      9  C   UNL     1      -7.315  13.493  -0.879  1.00  0.00     0.053 C 
BRANCH   9  10
ATOM     10  C   UNL     1      -6.826  14.309   0.276  1.00  0.00     0.041 C 
ATOM     11  O   UNL     1      -7.445  14.287   1.374  1.00  0.00    -0.550 OA
ATOM     12  O   UNL     1      -5.717  15.133   0.127  1.00  0.00    -0.550 OA
ENDBRANCH   9  10
ENDBRANCH   8   9
ENDBRANCH   7   8
ENDBRANCH   6   7
ENDBRANCH   5   6
ENDBRANCH   4   5
ENDBRANCH   3   4
ENDBRANCH   1   3
BRANCH   2  13
ATOM     13  C   UNL     1      -3.164  13.160  -2.302  1.00  0.00     0.027 C 
BRANCH  13  14
ATOM     14  C   UNL     1      -4.345  13.937  -2.900  1.00  0.00     0.004 C 
BRANCH  14  15
ATOM     15  C   UNL     1      -4.742  13.438  -4.303  1.00  0.00     0.000 C 
BRANCH  15  16
ATOM     16  C   UNL     1      -5.713  12.243  -4.321  1.00  0.00     0.000 C 
BRANCH  16  17
ATOM     17  C   UNL     1      -6.540  12.164  -5.615  1.00  0.00    -0.000 C 
BRANCH  17  18
ATOM     18  C   UNL     1      -7.071  10.747  -5.902  1.00  0.00    -0.000 C 
BRANCH  18  19
ATOM     19  C   UNL     1      -6.258   9.604  -5.267  1.00  0.00    -0.003 C 
ATOM     20  C   UNL     1      -7.054   8.307  -5.124  1.00  0.00     0.004 C 
ENDBRANCH  18  19
ENDBRANCH  17  18
ENDBRANCH  16  17
ENDBRANCH  15  16
ENDBRANCH  14  15
ENDBRANCH  13  14
ENDBRANCH   2  13
TORSDOF 15
ENDMDL
MODEL 6
REMARK VINA RESULT:    -4.599      1.997      5.082
REMARK INTER + INTRA:         -11.125
REMARK INTER:                  -8.921
REMARK INTRA:                  -2.203
REMARK UNBOUND:                -2.492
REMARK SMILES CCCCCCCCC=CCCCCCCCC(=O)[O-]
REMARK SMILES IDX 10 1 9 2 11 3 12 4 13 5 14 6 15 7 16 8 17 9 18 10 19 11
REMARK SMILES IDX 20 12 8 13 7 14 6 15 5 16 4 17 3 18 2 19 1 20
REMARK H PARENT
REMARK Flexibility Score: inf
ROOT
ATOM      1  C   UNL     1      -3.524  11.672  -2.109  1.00  0.00    -0.031 C 
ATOM      2  C   UNL     1      -3.778  11.235  -0.860  1.00  0.00    -0.031 C 
ENDROOT
BRANCH   1   3
ATOM      3  C   UNL     1      -3.314  13.118  -2.484  1.00  0.00     0.027 C 
BRANCH   3   4
ATOM      4  C   UNL     1      -4.183  13.551  -3.682  1.00  0.00     0.004 C 
BRANCH   4   5
ATOM      5  C   UNL     1      -5.490  12.750  -3.827  1.00  0.00     0.000 C 
BRANCH   5   6
ATOM      6  C   UNL     1      -5.915  12.439  -5.275  1.00  0.00     0.000 C 
BRANCH   6   7
ATOM      7  C   UNL     1      -6.469  11.020  -5.506  1.00  0.00     0.000 C 
BRANCH   7   8
ATOM      8  C   UNL     1      -6.353  10.123  -4.265  1.00  0.00     0.006 C 
BRANCH   8   9
ATOM      9  C   UNL     1      -5.755   8.761  -4.628  1.00  0.00     0.053 C 
BRANCH   9  10
ATOM     10  C   UNL     1      -6.842   7.769  -4.902  1.00  0.00     0.041 C 
ATOM     11  O   UNL     1      -7.998   7.952  -4.436  1.00  0.00    -0.550 OA
ATOM     12  O   UNL     1      -6.566   6.618  -5.630  1.00  0.00    -0.550 OA
ENDBRANCH   9  10
ENDBRANCH   8   9
ENDBRANCH   7   8
ENDBRANCH   6   7
ENDBRANCH   5   6
ENDBRANCH   4   5
ENDBRANCH   3   4
ENDBRANCH   1   3
BRANCH   2  13
ATOM     13  C   UNL     1      -3.810  12.113   0.364  1.00  0.00     0.027 C 
BRANCH  13  14
ATOM     14  C   UNL     1      -3.636  11.273   1.636  1.00  0.00     0.004 C 
BRANCH  14  15
ATOM     15  C   UNL     1      -3.393   9.780   1.341  1.00  0.00     0.000 C 
BRANCH  15  16
ATOM     16  C   UNL     1      -4.183   8.801   2.228  1.00  0.00     0.000 C 
BRANCH  16  17
ATOM     17  C   UNL     1      -5.153   7.917   1.426  1.00  0.00    -0.000 C 
BRANCH  17  18
ATOM     18  C   UNL     1      -6.099   8.731   0.524  1.00  0.00    -0.000 C 
BRANCH  18  19
ATOM     19  C   UNL     1      -6.160   8.267  -0.943  1.00  0.00    -0.003 C 
ATOM     20  C   UNL     1      -5.294   7.040  -1.222  1.00  0.00     0.004 C 
ENDBRANCH  18  19
ENDBRANCH  17  18
ENDBRANCH  16  17
ENDBRANCH  15  16
ENDBRANCH  14  15
ENDBRANCH  13  14
ENDBRANCH   2  13
TORSDOF 15
ENDMDL
MODEL 7
REMARK VINA RESULT:    -4.556      1.718      4.424
REMARK INTER + INTRA:         -11.043
REMARK INTER:                  -8.319
REMARK INTRA:                  -2.723
REMARK UNBOUND:                -2.492
REMARK SMILES CCCCCCCCC=CCCCCCCCC(=O)[O-]
REMARK SMILES IDX 10 1 9 2 11 3 12 4 13 5 14 6 15 7 16 8 17 9 18 10 19 11
REMARK SMILES IDX 20 12 8 13 7 14 6 15 5 16 4 17 3 18 2 19 1 20
REMARK H PARENT
REMARK Flexibility Score: inf
ROOT
ATOM      1  C   UNL     1      -3.210  13.182  -2.119  1.00  0.00    -0.031 C 
ATOM      2  C   UNL     1      -3.465  13.555  -0.850  1.00  0.00    -0.031 C 
ENDROOT
BRANCH   1   3
ATOM      3  C   UNL     1      -3.916  13.736  -3.333  1.00  0.00     0.027 C 
BRANCH   3   4
ATOM      4  C   UNL     1      -5.141  12.894  -3.740  1.00  0.00     0.004 C 
BRANCH   4   5
ATOM      5  C   UNL     1      -5.528  13.033  -5.225  1.00  0.00     0.000 C 
BRANCH   5   6
ATOM      6  C   UNL     1      -6.731  12.181  -5.674  1.00  0.00     0.000 C 
BRANCH   6   7
ATOM      7  C   UNL     1      -7.053  10.974  -4.773  1.00  0.00     0.000 C 
BRANCH   7   8
ATOM      8  C   UNL     1      -6.288   9.705  -5.175  1.00  0.00     0.006 C 
BRANCH   8   9
ATOM      9  C   UNL     1      -7.207   8.481  -5.152  1.00  0.00     0.053 C 
BRANCH   9  10
ATOM     10  C   UNL     1      -6.437   7.255  -4.773  1.00  0.00     0.041 C 
ATOM     11  O   UNL     1      -6.315   6.305  -5.591  1.00  0.00    -0.550 OA
ATOM     12  O   UNL     1      -5.895   7.140  -3.498  1.00  0.00    -0.550 OA
ENDBRANCH   9  10
ENDBRANCH   8   9
ENDBRANCH   7   8
ENDBRANCH   6   7
ENDBRANCH   5   6
ENDBRANCH   4   5
ENDBRANCH   3   4
ENDBRANCH   1   3
BRANCH   2  13
ATOM     13  C   UNL     1      -4.434  14.640  -0.455  1.00  0.00     0.027 C 
BRANCH  13  14
ATOM     14  C   UNL     1      -5.601  14.054   0.352  1.00  0.00     0.004 C 
BRANCH  14  15
ATOM     15  C   UNL     1      -6.763  13.570  -0.537  1.00  0.00     0.000 C 
BRANCH  15  16
ATOM     16  C   UNL     1      -6.890  12.042  -0.673  1.00  0.00     0.000 C 
BRANCH  16  17
ATOM     17  C   UNL     1      -6.197  11.280   0.469  1.00  0.00    -0.000 C 
BRANCH  17  18
ATOM     18  C   UNL     1      -5.110  10.311  -0.031  1.00  0.00    -0.000 C 
BRANCH  18  19
ATOM     19  C   UNL     1      -5.169   9.982  -1.534  1.00  0.00    -0.003 C 
ATOM     20  C   UNL     1      -3.790   9.756  -2.154  1.00  0.00     0.004 C 
ENDBRANCH  18  19
ENDBRANCH  17  18
ENDBRANCH  16  17
ENDBRANCH  15  16
ENDBRANCH  14  15
ENDBRANCH  13  14
ENDBRANCH   2  13
TORSDOF 15
ENDMDL
MODEL 8
REMARK VINA RESULT:    -4.538      1.307      2.071
REMARK INTER + INTRA:         -11.010
REMARK INTER:                  -8.183
REMARK INTRA:                  -2.827
REMARK UNBOUND:                -2.492
REMARK SMILES CCCCCCCCC=CCCCCCCCC(=O)[O-]
REMARK SMILES IDX 10 1 9 2 11 3 12 4 13 5 14 6 15 7 16 8 17 9 18 10 19 11
REMARK SMILES IDX 20 12 8 13 7 14 6 15 5 16 4 17 3 18 2 19 1 20
REMARK H PARENT
REMARK Flexibility Score: inf
ROOT
ATOM      1  C   UNL     1      -3.624  12.079  -1.152  1.00  0.00    -0.031 C 
ATOM      2  C   UNL     1      -3.768  12.048  -2.492  1.00  0.00    -0.031 C 
ENDROOT
BRANCH   1   3
ATOM      3  C   UNL     1      -3.930  13.275  -0.286  1.00  0.00     0.027 C 
BRANCH   3   4
ATOM      4  C   UNL     1      -5.254  13.123   0.489  1.00  0.00     0.004 C 
BRANCH   4   5
ATOM      5  C   UNL     1      -6.511  13.269  -0.390  1.00  0.00     0.000 C 
BRANCH   5   6
ATOM      6  C   UNL     1      -7.316  11.973  -0.607  1.00  0.00     0.000 C 
BRANCH   6   7
ATOM      7  C   UNL     1      -6.671  10.697  -0.035  1.00  0.00     0.000 C 
BRANCH   7   8
ATOM      8  C   UNL     1      -6.959   9.449  -0.883  1.00  0.00     0.006 C 
BRANCH   8   9
ATOM      9  C   UNL     1      -5.664   8.698  -1.209  1.00  0.00     0.053 C 
BRANCH   9  10
ATOM     10  C   UNL     1      -5.761   7.272  -0.767  1.00  0.00     0.041 C 
ATOM     11  O   UNL     1      -5.124   6.375  -1.380  1.00  0.00    -0.550 OA
ATOM     12  O   UNL     1      -6.593   6.926   0.291  1.00  0.00    -0.550 OA
ENDBRANCH   9  10
ENDBRANCH   8   9
ENDBRANCH   7   8
ENDBRANCH   6   7
ENDBRANCH   5   6
ENDBRANCH   4   5
ENDBRANCH   3   4
ENDBRANCH   1   3
BRANCH   2  13
ATOM     13  C   UNL     1      -4.332  13.176  -3.318  1.00  0.00     0.027 C 
BRANCH  13  14
ATOM     14  C   UNL     1      -5.500  12.681  -4.181  1.00  0.00     0.004 C 
BRANCH  14  15
ATOM     15  C   UNL     1      -5.737  11.164  -4.057  1.00  0.00     0.000 C 
BRANCH  15  16
ATOM     16  C   UNL     1      -6.736  10.573  -5.068  1.00  0.00     0.000 C 
BRANCH  16  17
ATOM     17  C   UNL     1      -7.975   9.958  -4.396  1.00  0.00    -0.000 C 
BRANCH  17  18
ATOM     18  C   UNL     1      -7.869   8.431  -4.227  1.00  0.00    -0.000 C 
BRANCH  18  19
ATOM     19  C   UNL     1      -7.058   7.708  -5.317  1.00  0.00    -0.003 C 
ATOM     20  C   UNL     1      -5.940   6.831  -4.752  1.00  0.00     0.004 C 
ENDBRANCH  18  19
ENDBRANCH  17  18
ENDBRANCH  16  17
ENDBRANCH  15  16
ENDBRANCH  14  15
ENDBRANCH  13  14
ENDBRANCH   2  13
TORSDOF 15
ENDMDL
MODEL 9
REMARK VINA RESULT:    -4.531      1.787      4.998
REMARK INTER + INTRA:         -10.997
REMARK INTER:                  -8.642
REMARK INTRA:                  -2.355
REMARK UNBOUND:                -2.492
REMARK SMILES CCCCCCCCC=CCCCCCCCC(=O)[O-]
REMARK SMILES IDX 10 1 9 2 11 3 12 4 13 5 14 6 15 7 16 8 17 9 18 10 19 11
REMARK SMILES IDX 20 12 8 13 7 14 6 15 5 16 4 17 3 18 2 19 1 20
REMARK H PARENT
REMARK Flexibility Score: inf
ROOT
ATOM      1  C   UNL     1      -3.660  12.458  -0.850  1.00  0.00    -0.031 C 
ATOM      2  C   UNL     1      -3.622  11.119  -0.701  1.00  0.00    -0.031 C 
ENDROOT
BRANCH   1   3
ATOM      3  C   UNL     1      -3.181  13.197  -2.075  1.00  0.00     0.027 C 
BRANCH   3   4
ATOM      4  C   UNL     1      -4.303  14.007  -2.755  1.00  0.00     0.004 C 
BRANCH   4   5
ATOM      5  C   UNL     1      -4.692  13.485  -4.151  1.00  0.00     0.000 C 
BRANCH   5   6
ATOM      6  C   UNL     1      -5.658  12.285  -4.160  1.00  0.00     0.000 C 
BRANCH   6   7
ATOM      7  C   UNL     1      -6.463  12.100  -5.460  1.00  0.00     0.000 C 
BRANCH   7   8
ATOM      8  C   UNL     1      -6.569  10.631  -5.895  1.00  0.00     0.006 C 
BRANCH   8   9
ATOM      9  C   UNL     1      -7.353   9.811  -4.866  1.00  0.00     0.053 C 
BRANCH   9  10
ATOM     10  C   UNL     1      -6.965   8.368  -4.941  1.00  0.00     0.041 C 
ATOM     11  O   UNL     1      -7.835   7.470  -4.793  1.00  0.00    -0.550 OA
ATOM     12  O   UNL     1      -5.634   8.014  -5.126  1.00  0.00    -0.550 OA
ENDBRANCH   9  10
ENDBRANCH   8   9
ENDBRANCH   7   8
ENDBRANCH   6   7
ENDBRANCH   5   6
ENDBRANCH   4   5
ENDBRANCH   3   4
ENDBRANCH   1   3
BRANCH   2  13
ATOM     13  C   UNL     1      -3.170  10.152  -1.765  1.00  0.00     0.027 C 
BRANCH  13  14
ATOM     14  C   UNL     1      -4.379   9.482  -2.433  1.00  0.00     0.004 C 
BRANCH  14  15
ATOM     15  C   UNL     1      -5.638   9.493  -1.545  1.00  0.00     0.000 C 
BRANCH  15  16
ATOM     16  C   UNL     1      -6.322   8.126  -1.364  1.00  0.00     0.000 C 
BRANCH  16  17
ATOM     17  C   UNL     1      -5.516   7.167  -0.472  1.00  0.00    -0.000 C 
BRANCH  17  18
ATOM     18  C   UNL     1      -5.699   7.448   1.031  1.00  0.00    -0.000 C 
BRANCH  18  19
ATOM     19  C   UNL     1      -4.559   8.244   1.689  1.00  0.00    -0.003 C 
ATOM     20  C   UNL     1      -5.038   9.524   2.375  1.00  0.00     0.004 C 
ENDBRANCH  18  19
ENDBRANCH  17  18
ENDBRANCH  16  17
ENDBRANCH  15  16
ENDBRANCH  14  15
ENDBRANCH  13  14
ENDBRANCH   2  13
TORSDOF 15
ENDMDL
