MODEL 1
REMARK VINA RESULT:    -5.214      0.000      0.000
REMARK INTER + INTRA:         -10.868
REMARK INTER:                  -9.482
REMARK INTRA:                  -1.386
REMARK UNBOUND:                -1.386
REMARK SMILES CCCCCCCCCCCCCCCC(=O)[O-]
REMARK SMILES IDX 9 1 10 2 11 3 12 4 13 5 14 6 15 7 16 8 17 9 18 10 8 11 7 12
REMARK SMILES IDX 6 13 5 14 4 15 3 16 2 17 1 18
REMARK H PARENT
REMARK Flexibility Score: inf
ROOT
ATOM      1  C   UNL     1      46.467   5.137 130.243  1.00  0.00     0.000 C 
ENDROOT
BRANCH   1   2
ATOM      2  C   UNL     1      47.666   4.486 130.952  1.00  0.00     0.000 C 
BRANCH   2   3
ATOM      3  C   UNL     1      47.240   3.407 131.962  1.00  0.00     0.000 C 
BRANCH   3   4
ATOM      4  C   UNL     1      46.014   3.842 132.792  1.00  0.00     0.000 C 
BRANCH   4   5
ATOM      5  C   UNL     1      45.888   3.106 134.137  1.00  0.00     0.000 C 
BRANCH   5   6
ATOM      6  C   UNL     1      44.674   2.163 134.191  1.00  0.00     0.006 C 
BRANCH   6   7
ATOM      7  C   UNL     1      43.898   2.140 132.868  1.00  0.00     0.053 C 
BRANCH   7   8
ATOM      8  C   UNL     1      43.920   0.783 132.234  1.00  0.00     0.041 C 
ATOM      9  O   UNL     1      42.921   0.366 131.590  1.00  0.00    -0.550 OA
ATOM     10  O   UNL     1      45.056  -0.011 132.332  1.00  0.00    -0.550 OA
ENDBRANCH   7   8
ENDBRANCH   6   7
ENDBRANCH   5   6
ENDBRANCH   4   5
ENDBRANCH   3   4
ENDBRANCH   2   3
ENDBRANCH   1   2
BRANCH   1  11
ATOM     11  C   UNL     1      46.875   6.351 129.393  1.00  0.00     0.000 C 
BRANCH  11  12
ATOM     12  C   UNL     1      46.974   5.975 127.910  1.00  0.00    -0.000 C 
BRANCH  12  13
ATOM     13  C   UNL     1      45.840   5.023 127.507  1.00  0.00    -0.000 C 
BRANCH  13  14
ATOM     14  C   UNL     1      44.837   5.723 126.583  1.00  0.00    -0.000 C 
BRANCH  14  15
ATOM     15  C   UNL     1      43.429   5.131 126.752  1.00  0.00    -0.000 C 
BRANCH  15  16
ATOM     16  C   UNL     1      42.469   6.074 127.499  1.00  0.00    -0.000 C 
BRANCH  16  17
ATOM     17  C   UNL     1      42.802   6.293 128.985  1.00  0.00    -0.003 C 
ATOM     18  C   UNL     1      43.452   7.647 129.260  1.00  0.00     0.004 C 
ENDBRANCH  16  17
ENDBRANCH  15  16
ENDBRANCH  14  15
ENDBRANCH  13  14
ENDBRANCH  12  13
ENDBRANCH  11  12
ENDBRANCH   1  11
TORSDOF 14
ENDMDL
MODEL 2
REMARK VINA RESULT:    -5.214      0.879      1.931
REMARK INTER + INTRA:         -10.866
REMARK INTER:                  -9.640
REMARK INTRA:                  -1.226
REMARK UNBOUND:                -1.386
REMARK SMILES CCCCCCCCCCCCCCCC(=O)[O-]
REMARK SMILES IDX 9 1 10 2 11 3 12 4 13 5 14 6 15 7 16 8 17 9 18 10 8 11 7 12
REMARK SMILES IDX 6 13 5 14 4 15 3 16 2 17 1 18
REMARK H PARENT
REMARK Flexibility Score: inf
ROOT
ATOM      1  C   UNL     1      47.916   5.251 129.847  1.00  0.00     0.000 C 
ENDROOT
BRANCH   1   2
ATOM      2  C   UNL     1      46.614   4.784 130.518  1.00  0.00     0.000 C 
BRANCH   2   3
ATOM      3  C   UNL     1      46.769   4.590 132.037  1.00  0.00     0.000 C 
BRANCH   3   4
ATOM      4  C   UNL     1      46.598   3.114 132.452  1.00  0.00     0.000 C 
BRANCH   4   5
ATOM      5  C   UNL     1      46.146   2.932 133.911  1.00  0.00     0.000 C 
BRANCH   5   6
ATOM      6  C   UNL     1      44.760   2.276 134.031  1.00  0.00     0.006 C 
BRANCH   6   7
ATOM      7  C   UNL     1      44.048   2.176 132.676  1.00  0.00     0.053 C 
BRANCH   7   8
ATOM      8  C   UNL     1      43.965   0.759 132.195  1.00  0.00     0.041 C 
ATOM      9  O   UNL     1      44.907  -0.045 132.422  1.00  0.00    -0.550 OA
ATOM     10  O   UNL     1      42.832   0.320 131.520  1.00  0.00    -0.550 OA
ENDBRANCH   7   8
ENDBRANCH   6   7
ENDBRANCH   5   6
ENDBRANCH   4   5
ENDBRANCH   3   4
ENDBRANCH   2   3
ENDBRANCH   1   2
BRANCH   1  11
ATOM     11  C   UNL     1      47.664   6.249 128.706  1.00  0.00     0.000 C 
BRANCH  11  12
ATOM     12  C   UNL     1      46.762   7.398 129.171  1.00  0.00    -0.000 C 
BRANCH  12  13
ATOM     13  C   UNL     1      45.517   7.517 128.283  1.00  0.00    -0.000 C 
BRANCH  13  14
ATOM     14  C   UNL     1      44.237   7.513 129.126  1.00  0.00    -0.000 C 
BRANCH  14  15
ATOM     15  C   UNL     1      43.457   6.203 128.935  1.00  0.00    -0.000 C 
BRANCH  15  16
ATOM     16  C   UNL     1      42.409   6.289 127.811  1.00  0.00    -0.000 C 
BRANCH  16  17
ATOM     17  C   UNL     1      42.764   5.508 126.534  1.00  0.00    -0.003 C 
ATOM     18  C   UNL     1      44.077   4.737 126.649  1.00  0.00     0.004 C 
ENDBRANCH  16  17
ENDBRANCH  15  16
ENDBRANCH  14  15
ENDBRANCH  13  14
ENDBRANCH  12  13
ENDBRANCH  11  12
ENDBRANCH   1  11
TORSDOF 14
ENDMDL
MODEL 3
REMARK VINA RESULT:    -5.120      0.758      1.667
REMARK INTER + INTRA:         -10.696
REMARK INTER:                  -9.283
REMARK INTRA:                  -1.414
REMARK UNBOUND:                -1.386
REMARK SMILES CCCCCCCCCCCCCCCC(=O)[O-]
REMARK SMILES IDX 9 1 10 2 11 3 12 4 13 5 14 6 15 7 16 8 17 9 18 10 8 11 7 12
REMARK SMILES IDX 6 13 5 14 4 15 3 16 2 17 1 18
REMARK H PARENT
REMARK Flexibility Score: inf
ROOT
ATOM      1  C   UNL     1      47.432   3.705 131.563  1.00  0.00     0.000 C 
ENDROOT
BRANCH   1   2
ATOM      2  C   UNL     1      46.010   4.098 131.997  1.00  0.00     0.000 C 
BRANCH   2   3
ATOM      3  C   UNL     1      45.857   4.165 133.526  1.00  0.00     0.000 C 
BRANCH   3   4
ATOM      4  C   UNL     1      46.210   2.824 134.203  1.00  0.00     0.000 C 
BRANCH   4   5
ATOM      5  C   UNL     1      45.181   2.375 135.255  1.00  0.00     0.000 C 
BRANCH   5   6
ATOM      6  C   UNL     1      44.357   1.157 134.806  1.00  0.00     0.006 C 
BRANCH   6   7
ATOM      7  C   UNL     1      43.491   1.465 133.578  1.00  0.00     0.053 C 
BRANCH   7   8
ATOM      8  C   UNL     1      43.822   0.569 132.424  1.00  0.00     0.041 C 
ATOM      9  O   UNL     1      42.969   0.350 131.525  1.00  0.00    -0.550 OA
ATOM     10  O   UNL     1      45.085  -0.003 132.329  1.00  0.00    -0.550 OA
ENDBRANCH   7   8
ENDBRANCH   6   7
ENDBRANCH   5   6
ENDBRANCH   4   5
ENDBRANCH   3   4
ENDBRANCH   2   3
ENDBRANCH   1   2
BRANCH   1  11
ATOM     11  C   UNL     1      47.970   4.600 130.436  1.00  0.00     0.000 C 
BRANCH  11  12
ATOM     12  C   UNL     1      46.963   5.700 130.080  1.00  0.00    -0.000 C 
BRANCH  12  13
ATOM     13  C   UNL     1      46.869   5.891 128.561  1.00  0.00    -0.000 C 
BRANCH  13  14
ATOM     14  C   UNL     1      46.303   4.637 127.883  1.00  0.00    -0.000 C 
BRANCH  14  15
ATOM     15  C   UNL     1      44.780   4.557 128.062  1.00  0.00    -0.000 C 
BRANCH  15  16
ATOM     16  C   UNL     1      44.010   5.369 127.005  1.00  0.00    -0.000 C 
BRANCH  16  17
ATOM     17  C   UNL     1      42.778   6.121 127.537  1.00  0.00    -0.003 C 
ATOM     18  C   UNL     1      43.004   6.740 128.915  1.00  0.00     0.004 C 
ENDBRANCH  16  17
ENDBRANCH  15  16
ENDBRANCH  14  15
ENDBRANCH  13  14
ENDBRANCH  12  13
ENDBRANCH  11  12
ENDBRANCH   1  11
TORSDOF 14
ENDMDL
MODEL 4
REMARK VINA RESULT:    -5.087      2.528      6.475
REMARK INTER + INTRA:         -10.635
REMARK INTER:                  -9.187
REMARK INTRA:                  -1.448
REMARK UNBOUND:                -1.386
REMARK SMILES CCCCCCCCCCCCCCCC(=O)[O-]
REMARK SMILES IDX 9 1 10 2 11 3 12 4 13 5 14 6 15 7 16 8 17 9 18 10 8 11 7 12
REMARK SMILES IDX 6 13 5 14 4 15 3 16 2 17 1 18
REMARK H PARENT
REMARK Flexibility Score: inf
ROOT
ATOM      1  C   UNL     1      45.642   4.243 131.266  1.00  0.00     0.000 C 
ENDROOT
BRANCH   1   2
ATOM      2  C   UNL     1      47.137   4.474 131.543  1.00  0.00     0.000 C 
BRANCH   2   3
ATOM      3  C   UNL     1      47.932   4.792 130.264  1.00  0.00     0.000 C 
BRANCH   3   4
ATOM      4  C   UNL     1      47.020   5.292 129.124  1.00  0.00     0.000 C 
BRANCH   4   5
ATOM      5  C   UNL     1      47.053   6.818 128.933  1.00  0.00     0.000 C 
BRANCH   5   6
ATOM      6  C   UNL     1      45.655   7.457 128.978  1.00  0.00     0.006 C 
BRANCH   6   7
ATOM      7  C   UNL     1      44.770   6.997 127.813  1.00  0.00     0.053 C 
BRANCH   7   8
ATOM      8  C   UNL     1      43.484   6.398 128.295  1.00  0.00     0.041 C 
ATOM      9  O   UNL     1      42.616   6.009 127.469  1.00  0.00    -0.550 OA
ATOM     10  O   UNL     1      43.256   6.245 129.657  1.00  0.00    -0.550 OA
ENDBRANCH   7   8
ENDBRANCH   6   7
ENDBRANCH   5   6
ENDBRANCH   4   5
ENDBRANCH   3   4
ENDBRANCH   2   3
ENDBRANCH   1   2
BRANCH   1  11
ATOM     11  C   UNL     1      44.822   4.096 132.557  1.00  0.00     0.000 C 
BRANCH  11  12
ATOM     12  C   UNL     1      45.738   4.035 133.785  1.00  0.00    -0.000 C 
BRANCH  12  13
ATOM     13  C   UNL     1      45.774   2.619 134.375  1.00  0.00    -0.000 C 
BRANCH  13  14
ATOM     14  C   UNL     1      44.360   2.038 134.496  1.00  0.00    -0.000 C 
BRANCH  14  15
ATOM     15  C   UNL     1      44.317   0.590 133.983  1.00  0.00    -0.000 C 
BRANCH  15  16
ATOM     16  C   UNL     1      44.462   0.492 132.454  1.00  0.00    -0.000 C 
BRANCH  16  17
ATOM     17  C   UNL     1      43.135   0.389 131.683  1.00  0.00    -0.003 C 
ATOM     18  C   UNL     1      41.952   0.017 132.575  1.00  0.00     0.004 C 
ENDBRANCH  16  17
ENDBRANCH  15  16
ENDBRANCH  14  15
ENDBRANCH  13  14
ENDBRANCH  12  13
ENDBRANCH  11  12
ENDBRANCH   1  11
TORSDOF 14
ENDMDL
MODEL 5
REMARK VINA RESULT:    -5.048      2.447      6.338
REMARK INTER + INTRA:         -10.565
REMARK INTER:                  -9.349
REMARK INTRA:                  -1.216
REMARK UNBOUND:                -1.386
REMARK SMILES CCCCCCCCCCCCCCCC(=O)[O-]
REMARK SMILES IDX 9 1 10 2 11 3 12 4 13 5 14 6 15 7 16 8 17 9 18 10 8 11 7 12
REMARK SMILES IDX 6 13 5 14 4 15 3 16 2 17 1 18
REMARK H PARENT
REMARK Flexibility Score: inf
ROOT
ATOM      1  C   UNL     1      46.982   4.880 130.387  1.00  0.00     0.000 C 
ENDROOT
BRANCH   1   2
ATOM      2  C   UNL     1      47.896   5.700 129.462  1.00  0.00     0.000 C 
BRANCH   2   3
ATOM      3  C   UNL     1      47.188   6.931 128.871  1.00  0.00     0.000 C 
BRANCH   3   4
ATOM      4  C   UNL     1      47.098   6.864 127.332  1.00  0.00     0.000 C 
BRANCH   4   5
ATOM      5  C   UNL     1      45.655   6.792 126.802  1.00  0.00     0.000 C 
BRANCH   5   6
ATOM      6  C   UNL     1      44.976   5.445 127.098  1.00  0.00     0.006 C 
BRANCH   6   7
ATOM      7  C   UNL     1      43.459   5.587 127.273  1.00  0.00     0.053 C 
BRANCH   7   8
ATOM      8  C   UNL     1      43.109   6.265 128.562  1.00  0.00     0.041 C 
ATOM      9  O   UNL     1      42.154   7.084 128.610  1.00  0.00    -0.550 OA
ATOM     10  O   UNL     1      43.822   5.970 129.718  1.00  0.00    -0.550 OA
ENDBRANCH   7   8
ENDBRANCH   6   7
ENDBRANCH   5   6
ENDBRANCH   4   5
ENDBRANCH   3   4
ENDBRANCH   2   3
ENDBRANCH   1   2
BRANCH   1  11
ATOM     11  C   UNL     1      47.771   3.929 131.300  1.00  0.00     0.000 C 
BRANCH  11  12
ATOM     12  C   UNL     1      46.865   3.332 132.384  1.00  0.00    -0.000 C 
BRANCH  12  13
ATOM     13  C   UNL     1      45.471   3.971 132.349  1.00  0.00    -0.000 C 
BRANCH  13  14
ATOM     14  C   UNL     1      44.382   2.929 132.635  1.00  0.00    -0.000 C 
BRANCH  14  15
ATOM     15  C   UNL     1      45.001   1.589 133.060  1.00  0.00    -0.000 C 
BRANCH  15  16
ATOM     16  C   UNL     1      44.351   0.381 132.362  1.00  0.00    -0.000 C 
BRANCH  16  17
ATOM     17  C   UNL     1      42.861   0.554 132.022  1.00  0.00    -0.003 C 
ATOM     18  C   UNL     1      41.946  -0.320 132.877  1.00  0.00     0.004 C 
ENDBRANCH  16  17
ENDBRANCH  15  16
ENDBRANCH  14  15
ENDBRANCH  13  14
ENDBRANCH  12  13
ENDBRANCH  11  12
ENDBRANCH   1  11
TORSDOF 14
ENDMDL
MODEL 6
REMARK VINA RESULT:    -5.036      2.523      6.346
REMARK INTER + INTRA:         -10.544
REMARK INTER:                  -9.290
REMARK INTRA:                  -1.254
REMARK UNBOUND:                -1.386
REMARK SMILES CCCCCCCCCCCCCCCC(=O)[O-]
REMARK SMILES IDX 9 1 10 2 11 3 12 4 13 5 14 6 15 7 16 8 17 9 18 10 8 11 7 12
REMARK SMILES IDX 6 13 5 14 4 15 3 16 2 17 1 18
REMARK H PARENT
REMARK Flexibility Score: inf
ROOT
ATOM      1  C   UNL     1      46.548   4.672 130.691  1.00  0.00     0.000 C 
ENDROOT
BRANCH   1   2
ATOM      2  C   UNL     1      47.750   4.885 129.756  1.00  0.00     0.000 C 
BRANCH   2   3
ATOM      3  C   UNL     1      47.585   6.122 128.856  1.00  0.00     0.000 C 
BRANCH   3   4
ATOM      4  C   UNL     1      46.490   7.076 129.377  1.00  0.00     0.000 C 
BRANCH   4   5
ATOM      5  C   UNL     1      45.571   7.622 128.271  1.00  0.00     0.000 C 
BRANCH   5   6
ATOM      6  C   UNL     1      44.078   7.420 128.579  1.00  0.00     0.006 C 
BRANCH   6   7
ATOM      7  C   UNL     1      43.695   5.936 128.642  1.00  0.00     0.053 C 
BRANCH   7   8
ATOM      8  C   UNL     1      43.913   5.249 127.329  1.00  0.00     0.041 C 
ATOM      9  O   UNL     1      44.900   4.484 127.169  1.00  0.00    -0.550 OA
ATOM     10  O   UNL     1      43.009   5.433 126.290  1.00  0.00    -0.550 OA
ENDBRANCH   7   8
ENDBRANCH   6   7
ENDBRANCH   5   6
ENDBRANCH   4   5
ENDBRANCH   3   4
ENDBRANCH   2   3
ENDBRANCH   1   2
BRANCH   1  11
ATOM     11  C   UNL     1      46.939   3.960 131.996  1.00  0.00     0.000 C 
BRANCH  11  12
ATOM     12  C   UNL     1      45.814   4.060 133.034  1.00  0.00    -0.000 C 
BRANCH  12  13
ATOM     13  C   UNL     1      45.948   2.964 134.098  1.00  0.00    -0.000 C 
BRANCH  13  14
ATOM     14  C   UNL     1      44.734   2.028 134.080  1.00  0.00    -0.000 C 
BRANCH  14  15
ATOM     15  C   UNL     1      43.913   2.219 132.795  1.00  0.00    -0.000 C 
BRANCH  15  16
ATOM     16  C   UNL     1      43.759   0.919 131.984  1.00  0.00    -0.000 C 
BRANCH  16  17
ATOM     17  C   UNL     1      42.344   0.315 131.991  1.00  0.00    -0.003 C 
ATOM     18  C   UNL     1      41.962  -0.299 133.336  1.00  0.00     0.004 C 
ENDBRANCH  16  17
ENDBRANCH  15  16
ENDBRANCH  14  15
ENDBRANCH  13  14
ENDBRANCH  12  13
ENDBRANCH  11  12
ENDBRANCH   1  11
TORSDOF 14
ENDMDL
MODEL 7
REMARK VINA RESULT:    -5.015      1.300      2.307
REMARK INTER + INTRA:         -10.505
REMARK INTER:                  -9.495
REMARK INTRA:                  -1.009
REMARK UNBOUND:                -1.386
REMARK SMILES CCCCCCCCCCCCCCCC(=O)[O-]
REMARK SMILES IDX 9 1 10 2 11 3 12 4 13 5 14 6 15 7 16 8 17 9 18 10 8 11 7 12
REMARK SMILES IDX 6 13 5 14 4 15 3 16 2 17 1 18
REMARK H PARENT
REMARK Flexibility Score: inf
ROOT
ATOM      1  C   UNL     1      47.044   3.456 131.986  1.00  0.00     0.000 C 
ENDROOT
BRANCH   1   2
ATOM      2  C   UNL     1      45.943   4.042 132.885  1.00  0.00     0.000 C 
BRANCH   2   3
ATOM      3  C   UNL     1      45.827   3.307 134.232  1.00  0.00     0.000 C 
BRANCH   3   4
ATOM      4  C   UNL     1      44.806   2.151 134.174  1.00  0.00     0.000 C 
BRANCH   4   5
ATOM      5  C   UNL     1      43.865   2.220 132.959  1.00  0.00     0.000 C 
BRANCH   5   6
ATOM      6  C   UNL     1      43.757   0.882 132.209  1.00  0.00     0.006 C 
BRANCH   6   7
ATOM      7  C   UNL     1      42.319   0.350 132.177  1.00  0.00     0.053 C 
BRANCH   7   8
ATOM      8  C   UNL     1      42.010  -0.490 133.378  1.00  0.00     0.041 C 
ATOM      9  O   UNL     1      40.816  -0.754 133.679  1.00  0.00    -0.550 OA
ATOM     10  O   UNL     1      43.044  -1.007 134.149  1.00  0.00    -0.550 OA
ENDBRANCH   7   8
ENDBRANCH   6   7
ENDBRANCH   5   6
ENDBRANCH   4   5
ENDBRANCH   3   4
ENDBRANCH   2   3
ENDBRANCH   1   2
BRANCH   1  11
ATOM     11  C   UNL     1      47.620   4.494 131.010  1.00  0.00     0.000 C 
BRANCH  11  12
ATOM     12  C   UNL     1      46.505   5.149 130.185  1.00  0.00    -0.000 C 
BRANCH  12  13
ATOM     13  C   UNL     1      46.920   5.293 128.716  1.00  0.00    -0.000 C 
BRANCH  13  14
ATOM     14  C   UNL     1      45.858   4.697 127.784  1.00  0.00    -0.000 C 
BRANCH  14  15
ATOM     15  C   UNL     1      45.078   5.806 127.060  1.00  0.00    -0.000 C 
BRANCH  15  16
ATOM     16  C   UNL     1      43.572   5.507 126.955  1.00  0.00    -0.000 C 
BRANCH  16  17
ATOM     17  C   UNL     1      42.689   6.271 127.957  1.00  0.00    -0.003 C 
ATOM     18  C   UNL     1      43.461   7.316 128.760  1.00  0.00     0.004 C 
ENDBRANCH  16  17
ENDBRANCH  15  16
ENDBRANCH  14  15
ENDBRANCH  13  14
ENDBRANCH  12  13
ENDBRANCH  11  12
ENDBRANCH   1  11
TORSDOF 14
ENDMDL
MODEL 8
REMARK VINA RESULT:    -4.845      6.665      9.624
REMARK INTER + INTRA:         -10.196
REMARK INTER:                  -8.753
REMARK INTRA:                  -1.443
REMARK UNBOUND:                -1.386
REMARK SMILES CCCCCCCCCCCCCCCC(=O)[O-]
REMARK SMILES IDX 9 1 10 2 11 3 12 4 13 5 14 6 15 7 16 8 17 9 18 10 8 11 7 12
REMARK SMILES IDX 6 13 5 14 4 15 3 16 2 17 1 18
REMARK H PARENT
REMARK Flexibility Score: inf
ROOT
ATOM      1  C   UNL     1      46.515   7.471 126.235  1.00  0.00     0.000 C 
ENDROOT
BRANCH   1   2
ATOM      2  C   UNL     1      46.447   8.126 124.847  1.00  0.00     0.000 C 
BRANCH   2   3
ATOM      3  C   UNL     1      47.620   9.088 124.589  1.00  0.00     0.000 C 
BRANCH   3   4
ATOM      4  C   UNL     1      47.302  10.102 123.470  1.00  0.00     0.000 C 
BRANCH   4   5
ATOM      5  C   UNL     1      46.839  11.472 123.993  1.00  0.00     0.000 C 
BRANCH   5   6
ATOM      6  C   UNL     1      45.308  11.602 124.056  1.00  0.00     0.006 C 
BRANCH   6   7
ATOM      7  C   UNL     1      44.630  11.095 122.777  1.00  0.00     0.053 C 
BRANCH   7   8
ATOM      8  C   UNL     1      44.860  12.019 121.621  1.00  0.00     0.041 C 
ATOM      9  O   UNL     1      44.747  13.264 121.771  1.00  0.00    -0.550 OA
ATOM     10  O   UNL     1      45.227  11.505 120.383  1.00  0.00    -0.550 OA
ENDBRANCH   7   8
ENDBRANCH   6   7
ENDBRANCH   5   6
ENDBRANCH   4   5
ENDBRANCH   3   4
ENDBRANCH   2   3
ENDBRANCH   1   2
BRANCH   1  11
ATOM     11  C   UNL     1      47.938   7.476 126.818  1.00  0.00     0.000 C 
BRANCH  11  12
ATOM     12  C   UNL     1      47.927   7.069 128.296  1.00  0.00    -0.000 C 
BRANCH  12  13
ATOM     13  C   UNL     1      47.283   5.689 128.482  1.00  0.00    -0.000 C 
BRANCH  13  14
ATOM     14  C   UNL     1      46.591   5.585 129.847  1.00  0.00    -0.000 C 
BRANCH  14  15
ATOM     15  C   UNL     1      45.150   5.077 129.695  1.00  0.00    -0.000 C 
BRANCH  15  16
ATOM     16  C   UNL     1      44.692   5.005 128.227  1.00  0.00    -0.000 C 
BRANCH  16  17
ATOM     17  C   UNL     1      43.537   5.952 127.861  1.00  0.00    -0.003 C 
ATOM     18  C   UNL     1      43.542   7.245 128.675  1.00  0.00     0.004 C 
ENDBRANCH  16  17
ENDBRANCH  15  16
ENDBRANCH  14  15
ENDBRANCH  13  14
ENDBRANCH  12  13
ENDBRANCH  11  12
ENDBRANCH   1  11
TORSDOF 14
ENDMDL
MODEL 9
REMARK VINA RESULT:    -4.818      4.732      8.043
REMARK INTER + INTRA:         -10.148
REMARK INTER:                  -9.146
REMARK INTRA:                  -1.001
REMARK UNBOUND:                -1.386
REMARK SMILES CCCCCCCCCCCCCCCC(=O)[O-]
REMARK SMILES IDX 9 1 10 2 11 3 12 4 13 5 14 6 15 7 16 8 17 9 18 10 8 11 7 12
REMARK SMILES IDX 6 13 5 14 4 15 3 16 2 17 1 18
REMARK H PARENT
REMARK Flexibility Score: inf
ROOT
ATOM      1  C   UNL     1      45.274   4.845 130.069  1.00  0.00     0.000 C 
ENDROOT
BRANCH   1   2
ATOM      2  C   UNL     1      44.590   5.817 129.094  1.00  0.00     0.000 C 
BRANCH   2   3
ATOM      3  C   UNL     1      45.469   7.037 128.763  1.00  0.00     0.000 C 
BRANCH   3   4
ATOM      4  C   UNL     1      45.845   7.091 127.268  1.00  0.00     0.000 C 
BRANCH   4   5
ATOM      5  C   UNL     1      47.361   7.146 127.016  1.00  0.00     0.000 C 
BRANCH   5   6
ATOM      6  C   UNL     1      47.724   7.870 125.708  1.00  0.00     0.006 C 
BRANCH   6   7
ATOM      7  C   UNL     1      46.493   8.139 124.833  1.00  0.00     0.053 C 
BRANCH   7   8
ATOM      8  C   UNL     1      46.658   9.376 124.006  1.00  0.00     0.041 C 
ATOM      9  O   UNL     1      45.955   9.550 122.975  1.00  0.00    -0.550 OA
ATOM     10  O   UNL     1      47.570  10.352 124.389  1.00  0.00    -0.550 OA
ENDBRANCH   7   8
ENDBRANCH   6   7
ENDBRANCH   5   6
ENDBRANCH   4   5
ENDBRANCH   3   4
ENDBRANCH   2   3
ENDBRANCH   1   2
BRANCH   1  11
ATOM     11  C   UNL     1      46.799   5.029 130.110  1.00  0.00     0.000 C 
BRANCH  11  12
ATOM     12  C   UNL     1      47.406   4.311 131.321  1.00  0.00    -0.000 C 
BRANCH  12  13
ATOM     13  C   UNL     1      46.395   4.217 132.470  1.00  0.00    -0.000 C 
BRANCH  13  14
ATOM     14  C   UNL     1      46.347   2.797 133.046  1.00  0.00    -0.000 C 
BRANCH  14  15
ATOM     15  C   UNL     1      45.029   2.553 133.797  1.00  0.00    -0.000 C 
BRANCH  15  16
ATOM     16  C   UNL     1      43.818   2.424 132.856  1.00  0.00    -0.000 C 
BRANCH  16  17
ATOM     17  C   UNL     1      43.770   1.122 132.038  1.00  0.00    -0.003 C 
ATOM     18  C   UNL     1      42.431   0.395 132.148  1.00  0.00     0.004 C 
ENDBRANCH  16  17
ENDBRANCH  15  16
ENDBRANCH  14  15
ENDBRANCH  13  14
ENDBRANCH  12  13
ENDBRANCH  11  12
ENDBRANCH   1  11
TORSDOF 14
ENDMDL
