MODEL 1
REMARK VINA RESULT:    -1.043      0.000      0.000
REMARK INTER + INTRA:          -0.781
REMARK INTER:                  -1.256
REMARK INTRA:                   0.474
REMARK UNBOUND:                 0.474
REMARK SMILES O=c1c(O)c(-c2ccc(O)c(O)c2)oc2cc(O)cc(O)c12
REMARK SMILES IDX 5 1 3 2 2 3 1 4 22 5 20 6 19 7 17 8 16 9 15 10 14 11 6 12
REMARK SMILES IDX 7 13 8 14 9 15 13 16 11 17 10 18 12 20 4 22 21 24 18 26
REMARK H PARENT 10 19 12 21 4 23 21 25 18 27
REMARK Flexibility Score: inf
ROOT
ATOM      1  C   UNL     1      55.833  27.733 -34.052  1.00  0.00     0.180 A 
ATOM      2  C   UNL     1      55.838  29.139 -34.086  1.00  0.00     0.208 A 
ATOM      3  C   UNL     1      56.163  29.847 -32.917  1.00  0.00     0.238 A 
ATOM      4  O   UNL     1      56.113  31.104 -32.939  1.00  0.00    -0.285 OA
ATOM      5  C   UNL     1      56.494  29.141 -31.735  1.00  0.00     0.111 A 
ATOM      6  C   UNL     1      56.879  29.756 -30.505  1.00  0.00     0.134 A 
ATOM      7  C   UNL     1      57.057  28.964 -29.364  1.00  0.00     0.093 A 
ATOM      8  C   UNL     1      56.930  27.574 -29.424  1.00  0.00     0.123 A 
ATOM      9  C   UNL     1      56.613  26.961 -30.634  1.00  0.00     0.094 A 
ATOM     10  C   UNL     1      56.393  27.727 -31.782  1.00  0.00     0.146 A 
ATOM     11  O   UNL     1      56.084  27.102 -32.911  1.00  0.00    -0.452 OA
ENDROOT
BRANCH   1  12
ATOM     12  C   UNL     1      55.526  26.918 -35.249  1.00  0.00     0.025 A 
ATOM     13  C   UNL     1      55.572  25.518 -35.161  1.00  0.00     0.016 A 
ATOM     14  C   UNL     1      55.307  24.729 -36.283  1.00  0.00     0.051 A 
ATOM     15  C   UNL     1      55.005  25.325 -37.511  1.00  0.00     0.157 A 
ATOM     16  C   UNL     1      55.242  27.516 -36.489  1.00  0.00     0.062 A 
ATOM     17  C   UNL     1      54.976  26.725 -37.618  1.00  0.00     0.158 A 
BRANCH  15  18
ATOM     18  O   UNL     1      54.741  24.512 -38.613  1.00  0.00    -0.504 OA
ATOM     19  H   UNL     1      55.480  24.156 -39.209  1.00  0.00     0.293 HD
ENDBRANCH  15  18
BRANCH  17  20
ATOM     20  O   UNL     1      54.691  27.327 -38.842  1.00  0.00    -0.504 OA
ATOM     21  H   UNL     1      54.379  28.289 -38.902  1.00  0.00     0.293 HD
ENDBRANCH  17  20
ENDBRANCH   1  12
BRANCH   2  22
ATOM     22  O   UNL     1      55.487  29.816 -35.257  1.00  0.00    -0.502 OA
ATOM     23  H   UNL     1      55.446  29.357 -36.159  1.00  0.00     0.293 HD
ENDBRANCH   2  22
BRANCH   6  24
ATOM     24  O   UNL     1      57.123  31.125 -30.360  1.00  0.00    -0.507 OA
ATOM     25  H   UNL     1      56.896  31.826 -31.049  1.00  0.00     0.293 HD
ENDBRANCH   6  24
BRANCH   8  26
ATOM     26  O   UNL     1      57.125  26.793 -28.288  1.00  0.00    -0.508 OA
ATOM     27  H   UNL     1      57.870  26.108 -28.238  1.00  0.00     0.293 HD
ENDBRANCH   8  26
TORSDOF 6
ENDMDL
MODEL 2
REMARK VINA RESULT:     1.381      1.306      2.292
REMARK INTER + INTRA:           2.138
REMARK INTER:                   1.598
REMARK INTRA:                   0.540
REMARK UNBOUND:                 0.474
REMARK SMILES O=c1c(O)c(-c2ccc(O)c(O)c2)oc2cc(O)cc(O)c12
REMARK SMILES IDX 5 1 3 2 2 3 1 4 22 5 20 6 19 7 17 8 16 9 15 10 14 11 6 12
REMARK SMILES IDX 7 13 8 14 9 15 13 16 11 17 10 18 12 20 4 22 21 24 18 26
REMARK H PARENT 10 19 12 21 4 23 21 25 18 27
REMARK Flexibility Score: inf
ROOT
ATOM      1  C   UNL     1      55.650  26.983 -35.360  1.00  0.00     0.180 A 
ATOM      2  C   UNL     1      55.759  28.328 -35.755  1.00  0.00     0.208 A 
ATOM      3  C   UNL     1      56.116  29.292 -34.799  1.00  0.00     0.238 A 
ATOM      4  O   UNL     1      56.158  30.501 -35.146  1.00  0.00    -0.285 OA
ATOM      5  C   UNL     1      56.376  28.898 -33.464  1.00  0.00     0.111 A 
ATOM      6  C   UNL     1      56.784  29.784 -32.422  1.00  0.00     0.134 A 
ATOM      7  C   UNL     1      56.886  29.307 -31.109  1.00  0.00     0.093 A 
ATOM      8  C   UNL     1      56.658  27.961 -30.813  1.00  0.00     0.123 A 
ATOM      9  C   UNL     1      56.317  27.076 -31.833  1.00  0.00     0.094 A 
ATOM     10  C   UNL     1      56.173  27.530 -33.147  1.00  0.00     0.146 A 
ATOM     11  O   UNL     1      55.837  26.655 -34.086  1.00  0.00    -0.452 OA
ENDROOT
BRANCH   1  12
ATOM     12  C   UNL     1      55.304  25.907 -36.315  1.00  0.00     0.025 A 
ATOM     13  C   UNL     1      55.145  26.216 -37.676  1.00  0.00     0.016 A 
ATOM     14  C   UNL     1      54.798  25.221 -38.592  1.00  0.00     0.051 A 
ATOM     15  C   UNL     1      54.591  23.907 -38.164  1.00  0.00     0.157 A 
ATOM     16  C   UNL     1      55.077  24.588 -35.883  1.00  0.00     0.062 A 
ATOM     17  C   UNL     1      54.726  23.587 -36.803  1.00  0.00     0.158 A 
BRANCH  15  18
ATOM     18  O   UNL     1      54.249  22.934 -39.103  1.00  0.00    -0.504 OA
ATOM     19  H   UNL     1      54.570  21.975 -39.026  1.00  0.00     0.293 HD
ENDBRANCH  15  18
BRANCH  17  20
ATOM     20  O   UNL     1      54.508  22.282 -36.366  1.00  0.00    -0.504 OA
ATOM     21  H   UNL     1      54.154  21.565 -36.989  1.00  0.00     0.293 HD
ENDBRANCH  17  20
ENDBRANCH   1  12
BRANCH   2  22
ATOM     22  O   UNL     1      55.478  28.699 -37.073  1.00  0.00    -0.502 OA
ATOM     23  H   UNL     1      55.643  29.634 -37.422  1.00  0.00     0.293 HD
ENDBRANCH   2  22
BRANCH   6  24
ATOM     24  O   UNL     1      57.125  31.125 -32.626  1.00  0.00    -0.507 OA
ATOM     25  H   UNL     1      56.635  31.755 -33.244  1.00  0.00     0.293 HD
ENDBRANCH   6  24
BRANCH   8  26
ATOM     26  O   UNL     1      56.777  27.490 -29.507  1.00  0.00    -0.508 OA
ATOM     27  H   UNL     1      56.014  27.568 -28.845  1.00  0.00     0.293 HD
ENDBRANCH   8  26
TORSDOF 6
ENDMDL
