MODEL 1
REMARK VINA RESULT:    -5.565      0.000      0.000
REMARK INTER + INTRA:         -15.931
REMARK INTER:                 -12.723
REMARK INTRA:                  -3.208
REMARK UNBOUND:                -3.208
REMARK SMILES CCCCCCCCCCCCCCCCCCCCCCCC(=O)[O-]
REMARK SMILES IDX 13 1 14 2 15 3 16 4 17 5 18 6 19 7 20 8 21 9 22 10 23 11
REMARK SMILES IDX 24 12 25 13 26 14 12 15 11 16 10 17 9 18 8 19 7 20 6 21 5 22
REMARK SMILES IDX 4 23 3 24 2 25 1 26
REMARK H PARENT
REMARK Flexibility Score: inf
ROOT
ATOM      1  C   UNL     1      21.210  -0.739  61.922  1.00  0.00     0.000 C 
ENDROOT
BRANCH   1   2
ATOM      2  C   UNL     1      21.420  -1.100  60.446  1.00  0.00     0.000 C 
BRANCH   2   3
ATOM      3  C   UNL     1      21.122  -2.582  60.186  1.00  0.00     0.000 C 
BRANCH   3   4
ATOM      4  C   UNL     1      22.354  -3.296  59.611  1.00  0.00     0.000 C 
BRANCH   4   5
ATOM      5  C   UNL     1      22.899  -2.620  58.341  1.00  0.00     0.000 C 
BRANCH   5   6
ATOM      6  C   UNL     1      24.328  -3.040  57.942  1.00  0.00     0.000 C 
BRANCH   6   7
ATOM      7  C   UNL     1      25.276  -3.338  59.121  1.00  0.00     0.000 C 
BRANCH   7   8
ATOM      8  C   UNL     1      26.279  -2.215  59.450  1.00  0.00     0.000 C 
BRANCH   8   9
ATOM      9  C   UNL     1      26.031  -1.491  60.788  1.00  0.00     0.000 C 
BRANCH   9  10
ATOM     10  C   UNL     1      25.735  -2.417  61.981  1.00  0.00     0.006 C 
BRANCH  10  11
ATOM     11  C   UNL     1      24.270  -2.355  62.435  1.00  0.00     0.053 C 
BRANCH  11  12
ATOM     12  C   UNL     1      23.785  -3.704  62.867  1.00  0.00     0.041 C 
ATOM     13  O   UNL     1      23.212  -3.847  63.981  1.00  0.00    -0.550 OA
ATOM     14  O   UNL     1      23.974  -4.808  62.044  1.00  0.00    -0.550 OA
ENDBRANCH  11  12
ENDBRANCH  10  11
ENDBRANCH   9  10
ENDBRANCH   8   9
ENDBRANCH   7   8
ENDBRANCH   6   7
ENDBRANCH   5   6
ENDBRANCH   4   5
ENDBRANCH   3   4
ENDBRANCH   2   3
ENDBRANCH   1   2
BRANCH   1  15
ATOM     15  C   UNL     1      21.291   0.781  62.129  1.00  0.00     0.000 C 
BRANCH  15  16
ATOM     16  C   UNL     1      21.384   1.180  63.612  1.00  0.00     0.000 C 
BRANCH  16  17
ATOM     17  C   UNL     1      21.171   2.681  63.897  1.00  0.00     0.000 C 
BRANCH  17  18
ATOM     18  C   UNL     1      22.307   3.367  64.682  1.00  0.00    -0.000 C 
BRANCH  18  19
ATOM     19  C   UNL     1      22.886   2.537  65.843  1.00  0.00    -0.000 C 
BRANCH  19  20
ATOM     20  C   UNL     1      24.289   3.007  66.269  1.00  0.00    -0.000 C 
BRANCH  20  21
ATOM     21  C   UNL     1      25.169   3.389  65.059  1.00  0.00    -0.000 C 
BRANCH  21  22
ATOM     22  C   UNL     1      26.142   2.279  64.626  1.00  0.00    -0.000 C 
BRANCH  22  23
ATOM     23  C   UNL     1      25.706   1.572  63.333  1.00  0.00    -0.000 C 
BRANCH  23  24
ATOM     24  C   UNL     1      25.571   2.537  62.139  1.00  0.00    -0.000 C 
BRANCH  24  25
ATOM     25  C   UNL     1      24.135   2.724  61.612  1.00  0.00    -0.003 C 
ATOM     26  C   UNL     1      23.691   4.185  61.590  1.00  0.00     0.004 C 
ENDBRANCH  24  25
ENDBRANCH  23  24
ENDBRANCH  22  23
ENDBRANCH  21  22
ENDBRANCH  20  21
ENDBRANCH  19  20
ENDBRANCH  18  19
ENDBRANCH  17  18
ENDBRANCH  16  17
ENDBRANCH  15  16
ENDBRANCH   1  15
TORSDOF 22
ENDMDL
MODEL 2
REMARK VINA RESULT:    -5.477      2.535      6.993
REMARK INTER + INTRA:         -15.730
REMARK INTER:                 -12.304
REMARK INTRA:                  -3.426
REMARK UNBOUND:                -3.208
REMARK SMILES CCCCCCCCCCCCCCCCCCCCCCCC(=O)[O-]
REMARK SMILES IDX 13 1 14 2 15 3 16 4 17 5 18 6 19 7 20 8 21 9 22 10 23 11
REMARK SMILES IDX 24 12 25 13 26 14 12 15 11 16 10 17 9 18 8 19 7 20 6 21 5 22
REMARK SMILES IDX 4 23 3 24 2 25 1 26
REMARK H PARENT
REMARK Flexibility Score: inf
ROOT
ATOM      1  C   UNL     1      20.988   0.991  62.257  1.00  0.00     0.000 C 
ENDROOT
BRANCH   1   2
ATOM      2  C   UNL     1      21.368   1.426  63.678  1.00  0.00     0.000 C 
BRANCH   2   3
ATOM      3  C   UNL     1      21.092   2.919  63.897  1.00  0.00     0.000 C 
BRANCH   3   4
ATOM      4  C   UNL     1      22.165   3.547  64.800  1.00  0.00     0.000 C 
BRANCH   4   5
ATOM      5  C   UNL     1      23.118   2.504  65.411  1.00  0.00     0.000 C 
BRANCH   5   6
ATOM      6  C   UNL     1      24.388   3.087  66.063  1.00  0.00     0.000 C 
BRANCH   6   7
ATOM      7  C   UNL     1      25.548   3.379  65.090  1.00  0.00     0.000 C 
BRANCH   7   8
ATOM      8  C   UNL     1      26.443   2.168  64.762  1.00  0.00     0.000 C 
BRANCH   8   9
ATOM      9  C   UNL     1      26.149   1.487  63.410  1.00  0.00     0.000 C 
BRANCH   9  10
ATOM     10  C   UNL     1      25.815   2.451  62.258  1.00  0.00     0.006 C 
BRANCH  10  11
ATOM     11  C   UNL     1      24.337   2.400  61.848  1.00  0.00     0.053 C 
BRANCH  11  12
ATOM     12  C   UNL     1      23.830   3.766  61.501  1.00  0.00     0.041 C 
ATOM     13  O   UNL     1      23.966   4.720  62.313  1.00  0.00    -0.550 OA
ATOM     14  O   UNL     1      23.198   3.984  60.282  1.00  0.00    -0.550 OA
ENDBRANCH  11  12
ENDBRANCH  10  11
ENDBRANCH   9  10
ENDBRANCH   8   9
ENDBRANCH   7   8
ENDBRANCH   6   7
ENDBRANCH   5   6
ENDBRANCH   4   5
ENDBRANCH   3   4
ENDBRANCH   2   3
ENDBRANCH   1   2
BRANCH   1  15
ATOM     15  C   UNL     1      21.905  -0.139  61.769  1.00  0.00     0.000 C 
BRANCH  15  16
ATOM     16  C   UNL     1      21.171  -1.483  61.612  1.00  0.00     0.000 C 
BRANCH  16  17
ATOM     17  C   UNL     1      21.837  -2.479  60.640  1.00  0.00     0.000 C 
BRANCH  17  18
ATOM     18  C   UNL     1      21.720  -2.115  59.147  1.00  0.00    -0.000 C 
BRANCH  18  19
ATOM     19  C   UNL     1      22.851  -2.661  58.255  1.00  0.00    -0.000 C 
BRANCH  19  20
ATOM     20  C   UNL     1      23.944  -3.388  59.059  1.00  0.00    -0.000 C 
BRANCH  20  21
ATOM     21  C   UNL     1      25.353  -2.829  58.767  1.00  0.00    -0.000 C 
BRANCH  21  22
ATOM     22  C   UNL     1      26.217  -2.639  60.025  1.00  0.00    -0.000 C 
BRANCH  22  23
ATOM     23  C   UNL     1      25.820  -1.398  60.842  1.00  0.00    -0.000 C 
BRANCH  23  24
ATOM     24  C   UNL     1      25.108  -1.752  62.162  1.00  0.00    -0.000 C 
BRANCH  24  25
ATOM     25  C   UNL     1      25.056  -3.256  62.491  1.00  0.00    -0.003 C 
ATOM     26  C   UNL     1      23.700  -3.704  63.032  1.00  0.00     0.004 C 
ENDBRANCH  24  25
ENDBRANCH  23  24
ENDBRANCH  22  23
ENDBRANCH  21  22
ENDBRANCH  20  21
ENDBRANCH  19  20
ENDBRANCH  18  19
ENDBRANCH  17  18
ENDBRANCH  16  17
ENDBRANCH  15  16
ENDBRANCH   1  15
TORSDOF 22
ENDMDL
MODEL 3
REMARK VINA RESULT:    -5.259      0.656      1.762
REMARK INTER + INTRA:         -15.231
REMARK INTER:                 -11.844
REMARK INTRA:                  -3.386
REMARK UNBOUND:                -3.208
REMARK SMILES CCCCCCCCCCCCCCCCCCCCCCCC(=O)[O-]
REMARK SMILES IDX 13 1 14 2 15 3 16 4 17 5 18 6 19 7 20 8 21 9 22 10 23 11
REMARK SMILES IDX 24 12 25 13 26 14 12 15 11 16 10 17 9 18 8 19 7 20 6 21 5 22
REMARK SMILES IDX 4 23 3 24 2 25 1 26
REMARK H PARENT
REMARK Flexibility Score: inf
ROOT
ATOM      1  C   UNL     1      21.743   0.840  63.089  1.00  0.00     0.000 C 
ENDROOT
BRANCH   1   2
ATOM      2  C   UNL     1      20.997   0.205  61.909  1.00  0.00     0.000 C 
BRANCH   2   3
ATOM      3  C   UNL     1      21.534  -1.199  61.600  1.00  0.00     0.000 C 
BRANCH   3   4
ATOM      4  C   UNL     1      21.218  -1.599  60.151  1.00  0.00     0.000 C 
BRANCH   4   5
ATOM      5  C   UNL     1      21.968  -2.866  59.702  1.00  0.00     0.000 C 
BRANCH   5   6
ATOM      6  C   UNL     1      23.110  -2.623  58.696  1.00  0.00     0.000 C 
BRANCH   6   7
ATOM      7  C   UNL     1      24.404  -3.415  58.971  1.00  0.00     0.000 C 
BRANCH   7   8
ATOM      8  C   UNL     1      25.693  -2.569  59.000  1.00  0.00     0.000 C 
BRANCH   8   9
ATOM      9  C   UNL     1      25.971  -1.850  60.334  1.00  0.00     0.000 C 
BRANCH   9  10
ATOM     10  C   UNL     1      25.906  -2.749  61.581  1.00  0.00     0.006 C 
BRANCH  10  11
ATOM     11  C   UNL     1      24.690  -2.452  62.469  1.00  0.00     0.053 C 
BRANCH  11  12
ATOM     12  C   UNL     1      23.920  -3.703  62.760  1.00  0.00     0.041 C 
ATOM     13  O   UNL     1      23.952  -4.671  61.954  1.00  0.00    -0.550 OA
ATOM     14  O   UNL     1      23.160  -3.798  63.920  1.00  0.00    -0.550 OA
ENDBRANCH  11  12
ENDBRANCH  10  11
ENDBRANCH   9  10
ENDBRANCH   8   9
ENDBRANCH   7   8
ENDBRANCH   6   7
ENDBRANCH   5   6
ENDBRANCH   4   5
ENDBRANCH   3   4
ENDBRANCH   2   3
ENDBRANCH   1   2
BRANCH   1  15
ATOM     15  C   UNL     1      21.224   2.260  63.361  1.00  0.00     0.000 C 
BRANCH  15  16
ATOM     16  C   UNL     1      22.162   3.078  64.267  1.00  0.00     0.000 C 
BRANCH  16  17
ATOM     17  C   UNL     1      22.723   2.313  65.483  1.00  0.00     0.000 C 
BRANCH  17  18
ATOM     18  C   UNL     1      23.878   3.016  66.224  1.00  0.00    -0.000 C 
BRANCH  18  19
ATOM     19  C   UNL     1      25.098   3.358  65.348  1.00  0.00    -0.000 C 
BRANCH  19  20
ATOM     20  C   UNL     1      26.120   2.211  65.276  1.00  0.00    -0.000 C 
BRANCH  20  21
ATOM     21  C   UNL     1      26.614   1.957  63.836  1.00  0.00    -0.000 C 
BRANCH  21  22
ATOM     22  C   UNL     1      25.709   1.010  63.029  1.00  0.00    -0.000 C 
BRANCH  22  23
ATOM     23  C   UNL     1      24.907   1.735  61.937  1.00  0.00    -0.000 C 
BRANCH  23  24
ATOM     24  C   UNL     1      25.197   3.247  61.884  1.00  0.00    -0.000 C 
BRANCH  24  25
ATOM     25  C   UNL     1      23.952   4.145  61.756  1.00  0.00    -0.003 C 
ATOM     26  C   UNL     1      23.180   3.918  60.458  1.00  0.00     0.004 C 
ENDBRANCH  24  25
ENDBRANCH  23  24
ENDBRANCH  22  23
ENDBRANCH  21  22
ENDBRANCH  20  21
ENDBRANCH  19  20
ENDBRANCH  18  19
ENDBRANCH  17  18
ENDBRANCH  16  17
ENDBRANCH  15  16
ENDBRANCH   1  15
TORSDOF 22
ENDMDL
MODEL 4
REMARK VINA RESULT:    -5.253      1.687      2.895
REMARK INTER + INTRA:         -15.218
REMARK INTER:                 -12.335
REMARK INTRA:                  -2.883
REMARK UNBOUND:                -3.208
REMARK SMILES CCCCCCCCCCCCCCCCCCCCCCCC(=O)[O-]
REMARK SMILES IDX 13 1 14 2 15 3 16 4 17 5 18 6 19 7 20 8 21 9 22 10 23 11
REMARK SMILES IDX 24 12 25 13 26 14 12 15 11 16 10 17 9 18 8 19 7 20 6 21 5 22
REMARK SMILES IDX 4 23 3 24 2 25 1 26
REMARK H PARENT
REMARK Flexibility Score: inf
ROOT
ATOM      1  C   UNL     1      20.820   0.713  61.966  1.00  0.00     0.000 C 
ENDROOT
BRANCH   1   2
ATOM      2  C   UNL     1      21.382  -0.581  61.365  1.00  0.00     0.000 C 
BRANCH   2   3
ATOM      3  C   UNL     1      21.965  -1.494  62.452  1.00  0.00     0.000 C 
BRANCH   3   4
ATOM      4  C   UNL     1      22.656  -2.715  61.828  1.00  0.00     0.000 C 
BRANCH   4   5
ATOM      5  C   UNL     1      23.718  -3.340  62.750  1.00  0.00     0.000 C 
BRANCH   5   6
ATOM      6  C   UNL     1      25.171  -2.933  62.437  1.00  0.00     0.000 C 
BRANCH   6   7
ATOM      7  C   UNL     1      25.354  -1.484  61.946  1.00  0.00     0.000 C 
BRANCH   7   8
ATOM      8  C   UNL     1      25.900  -1.347  60.510  1.00  0.00     0.000 C 
BRANCH   8   9
ATOM      9  C   UNL     1      26.369  -2.665  59.862  1.00  0.00     0.000 C 
BRANCH   9  10
ATOM     10  C   UNL     1      25.503  -3.155  58.689  1.00  0.00     0.006 C 
BRANCH  10  11
ATOM     11  C   UNL     1      24.038  -3.389  59.085  1.00  0.00     0.053 C 
BRANCH  11  12
ATOM     12  C   UNL     1      23.107  -2.803  58.069  1.00  0.00     0.041 C 
ATOM     13  O   UNL     1      23.407  -2.826  56.845  1.00  0.00    -0.550 OA
ATOM     14  O   UNL     1      21.911  -2.222  58.474  1.00  0.00    -0.550 OA
ENDBRANCH  11  12
ENDBRANCH  10  11
ENDBRANCH   9  10
ENDBRANCH   8   9
ENDBRANCH   7   8
ENDBRANCH   6   7
ENDBRANCH   5   6
ENDBRANCH   4   5
ENDBRANCH   3   4
ENDBRANCH   2   3
ENDBRANCH   1   2
BRANCH   1  15
ATOM     15  C   UNL     1      21.644   1.151  63.186  1.00  0.00     0.000 C 
BRANCH  15  16
ATOM     16  C   UNL     1      21.173   2.490  63.780  1.00  0.00     0.000 C 
BRANCH  16  17
ATOM     17  C   UNL     1      22.237   3.250  64.598  1.00  0.00     0.000 C 
BRANCH  17  18
ATOM     18  C   UNL     1      22.712   2.535  65.878  1.00  0.00    -0.000 C 
BRANCH  18  19
ATOM     19  C   UNL     1      24.097   2.975  66.391  1.00  0.00    -0.000 C 
BRANCH  19  20
ATOM     20  C   UNL     1      25.036   3.426  65.258  1.00  0.00    -0.000 C 
BRANCH  20  21
ATOM     21  C   UNL     1      26.148   2.392  64.976  1.00  0.00    -0.000 C 
BRANCH  21  22
ATOM     22  C   UNL     1      25.956   1.620  63.659  1.00  0.00    -0.000 C 
BRANCH  22  23
ATOM     23  C   UNL     1      25.877   2.541  62.431  1.00  0.00    -0.000 C 
BRANCH  23  24
ATOM     24  C   UNL     1      24.490   2.530  61.762  1.00  0.00    -0.000 C 
BRANCH  24  25
ATOM     25  C   UNL     1      23.812   3.908  61.645  1.00  0.00    -0.003 C 
ATOM     26  C   UNL     1      23.198   4.159  60.269  1.00  0.00     0.004 C 
ENDBRANCH  24  25
ENDBRANCH  23  24
ENDBRANCH  22  23
ENDBRANCH  21  22
ENDBRANCH  20  21
ENDBRANCH  19  20
ENDBRANCH  18  19
ENDBRANCH  17  18
ENDBRANCH  16  17
ENDBRANCH  15  16
ENDBRANCH   1  15
TORSDOF 22
ENDMDL
MODEL 5
REMARK VINA RESULT:    -5.226      2.570      6.767
REMARK INTER + INTRA:         -15.156
REMARK INTER:                 -12.434
REMARK INTRA:                  -2.722
REMARK UNBOUND:                -3.208
REMARK SMILES CCCCCCCCCCCCCCCCCCCCCCCC(=O)[O-]
REMARK SMILES IDX 13 1 14 2 15 3 16 4 17 5 18 6 19 7 20 8 21 9 22 10 23 11
REMARK SMILES IDX 24 12 25 13 26 14 12 15 11 16 10 17 9 18 8 19 7 20 6 21 5 22
REMARK SMILES IDX 4 23 3 24 2 25 1 26
REMARK H PARENT
REMARK Flexibility Score: inf
ROOT
ATOM      1  C   UNL     1      20.833   0.156  61.486  1.00  0.00     0.000 C 
ENDROOT
BRANCH   1   2
ATOM      2  C   UNL     1      21.046   0.477  62.970  1.00  0.00     0.000 C 
BRANCH   2   3
ATOM      3  C   UNL     1      21.376   1.961  63.178  1.00  0.00     0.000 C 
BRANCH   3   4
ATOM      4  C   UNL     1      21.550   2.279  64.671  1.00  0.00     0.000 C 
BRANCH   4   5
ATOM      5  C   UNL     1      22.602   3.371  64.933  1.00  0.00     0.000 C 
BRANCH   5   6
ATOM      6  C   UNL     1      23.803   2.926  65.790  1.00  0.00     0.000 C 
BRANCH   6   7
ATOM      7  C   UNL     1      25.184   3.349  65.253  1.00  0.00     0.000 C 
BRANCH   7   8
ATOM      8  C   UNL     1      26.160   2.188  64.979  1.00  0.00     0.000 C 
BRANCH   8   9
ATOM      9  C   UNL     1      26.098   1.605  63.553  1.00  0.00     0.000 C 
BRANCH   9  10
ATOM     10  C   UNL     1      25.829   2.636  62.443  1.00  0.00     0.006 C 
BRANCH  10  11
ATOM     11  C   UNL     1      24.469   2.437  61.761  1.00  0.00     0.053 C 
BRANCH  11  12
ATOM     12  C   UNL     1      23.843   3.755  61.420  1.00  0.00     0.041 C 
ATOM     13  O   UNL     1      23.941   4.730  62.212  1.00  0.00    -0.550 OA
ATOM     14  O   UNL     1      23.142   3.904  60.228  1.00  0.00    -0.550 OA
ENDBRANCH  11  12
ENDBRANCH  10  11
ENDBRANCH   9  10
ENDBRANCH   8   9
ENDBRANCH   7   8
ENDBRANCH   6   7
ENDBRANCH   5   6
ENDBRANCH   4   5
ENDBRANCH   3   4
ENDBRANCH   2   3
ENDBRANCH   1   2
BRANCH   1  15
ATOM     15  C   UNL     1      21.637  -1.087  61.076  1.00  0.00     0.000 C 
BRANCH  15  16
ATOM     16  C   UNL     1      22.311  -1.786  62.269  1.00  0.00     0.000 C 
BRANCH  16  17
ATOM     17  C   UNL     1      22.808  -3.219  61.988  1.00  0.00     0.000 C 
BRANCH  17  18
ATOM     18  C   UNL     1      23.993  -3.684  62.857  1.00  0.00    -0.000 C 
BRANCH  18  19
ATOM     19  C   UNL     1      25.382  -3.261  62.340  1.00  0.00    -0.000 C 
BRANCH  19  20
ATOM     20  C   UNL     1      25.488  -1.746  62.093  1.00  0.00    -0.000 C 
BRANCH  20  21
ATOM     21  C   UNL     1      25.815  -1.416  60.620  1.00  0.00    -0.000 C 
BRANCH  21  22
ATOM     22  C   UNL     1      26.344  -2.618  59.819  1.00  0.00    -0.000 C 
BRANCH  22  23
ATOM     23  C   UNL     1      25.449  -2.979  58.622  1.00  0.00    -0.000 C 
BRANCH  23  24
ATOM     24  C   UNL     1      23.984  -3.234  59.024  1.00  0.00    -0.000 C 
BRANCH  24  25
ATOM     25  C   UNL     1      22.933  -2.648  58.062  1.00  0.00    -0.003 C 
ATOM     26  C   UNL     1      23.289  -2.849  56.591  1.00  0.00     0.004 C 
ENDBRANCH  24  25
ENDBRANCH  23  24
ENDBRANCH  22  23
ENDBRANCH  21  22
ENDBRANCH  20  21
ENDBRANCH  19  20
ENDBRANCH  18  19
ENDBRANCH  17  18
ENDBRANCH  16  17
ENDBRANCH  15  16
ENDBRANCH   1  15
TORSDOF 22
ENDMDL
MODEL 6
REMARK VINA RESULT:    -4.988      1.862      7.296
REMARK INTER + INTRA:         -14.611
REMARK INTER:                 -11.953
REMARK INTRA:                  -2.658
REMARK UNBOUND:                -3.208
REMARK SMILES CCCCCCCCCCCCCCCCCCCCCCCC(=O)[O-]
REMARK SMILES IDX 13 1 14 2 15 3 16 4 17 5 18 6 19 7 20 8 21 9 22 10 23 11
REMARK SMILES IDX 24 12 25 13 26 14 12 15 11 16 10 17 9 18 8 19 7 20 6 21 5 22
REMARK SMILES IDX 4 23 3 24 2 25 1 26
REMARK H PARENT
REMARK Flexibility Score: inf
ROOT
ATOM      1  C   UNL     1      25.366  -0.412  61.850  1.00  0.00     0.000 C 
ENDROOT
BRANCH   1   2
ATOM      2  C   UNL     1      25.826   0.806  62.661  1.00  0.00     0.000 C 
BRANCH   2   3
ATOM      3  C   UNL     1      25.223   2.104  62.109  1.00  0.00     0.000 C 
BRANCH   3   4
ATOM      4  C   UNL     1      25.696   3.317  62.924  1.00  0.00     0.000 C 
BRANCH   4   5
ATOM      5  C   UNL     1      26.194   2.936  64.330  1.00  0.00     0.000 C 
BRANCH   5   6
ATOM      6  C   UNL     1      25.200   3.224  65.472  1.00  0.00     0.000 C 
BRANCH   6   7
ATOM      7  C   UNL     1      23.746   3.477  65.026  1.00  0.00     0.000 C 
BRANCH   7   8
ATOM      8  C   UNL     1      22.703   2.514  65.628  1.00  0.00     0.000 C 
BRANCH   8   9
ATOM      9  C   UNL     1      21.462   2.264  64.748  1.00  0.00     0.000 C 
BRANCH   9  10
ATOM     10  C   UNL     1      21.661   2.548  63.249  1.00  0.00     0.006 C 
BRANCH  10  11
ATOM     11  C   UNL     1      22.121   1.311  62.464  1.00  0.00     0.053 C 
BRANCH  11  12
ATOM     12  C   UNL     1      20.952   0.462  62.071  1.00  0.00     0.041 C 
ATOM     13  O   UNL     1      20.593   0.394  60.864  1.00  0.00    -0.550 OA
ATOM     14  O   UNL     1      20.252  -0.250  63.038  1.00  0.00    -0.550 OA
ENDBRANCH  11  12
ENDBRANCH  10  11
ENDBRANCH   9  10
ENDBRANCH   8   9
ENDBRANCH   7   8
ENDBRANCH   6   7
ENDBRANCH   5   6
ENDBRANCH   4   5
ENDBRANCH   3   4
ENDBRANCH   2   3
ENDBRANCH   1   2
BRANCH   1  15
ATOM     15  C   UNL     1      26.567  -1.141  61.231  1.00  0.00     0.000 C 
BRANCH  15  16
ATOM     16  C   UNL     1      26.213  -1.885  59.931  1.00  0.00     0.000 C 
BRANCH  16  17
ATOM     17  C   UNL     1      25.818  -3.365  60.115  1.00  0.00     0.000 C 
BRANCH  17  18
ATOM     18  C   UNL     1      25.592  -3.805  61.575  1.00  0.00    -0.000 C 
BRANCH  18  19
ATOM     19  C   UNL     1      24.200  -4.397  61.866  1.00  0.00    -0.000 C 
BRANCH  19  20
ATOM     20  C   UNL     1      23.298  -3.435  62.661  1.00  0.00    -0.000 C 
BRANCH  20  21
ATOM     21  C   UNL     1      22.633  -2.376  61.755  1.00  0.00    -0.000 C 
BRANCH  21  22
ATOM     22  C   UNL     1      21.730  -2.974  60.663  1.00  0.00    -0.000 C 
BRANCH  22  23
ATOM     23  C   UNL     1      21.996  -2.377  59.272  1.00  0.00    -0.000 C 
BRANCH  23  24
ATOM     24  C   UNL     1      22.891  -3.275  58.396  1.00  0.00    -0.000 C 
BRANCH  24  25
ATOM     25  C   UNL     1      23.597  -2.554  57.233  1.00  0.00    -0.003 C 
ATOM     26  C   UNL     1      23.165  -3.066  55.860  1.00  0.00     0.004 C 
ENDBRANCH  24  25
ENDBRANCH  23  24
ENDBRANCH  22  23
ENDBRANCH  21  22
ENDBRANCH  20  21
ENDBRANCH  19  20
ENDBRANCH  18  19
ENDBRANCH  17  18
ENDBRANCH  16  17
ENDBRANCH  15  16
ENDBRANCH   1  15
TORSDOF 22
ENDMDL
MODEL 7
REMARK VINA RESULT:    -4.972      2.202      6.646
REMARK INTER + INTRA:         -14.574
REMARK INTER:                 -11.791
REMARK INTRA:                  -2.782
REMARK UNBOUND:                -3.208
REMARK SMILES CCCCCCCCCCCCCCCCCCCCCCCC(=O)[O-]
REMARK SMILES IDX 13 1 14 2 15 3 16 4 17 5 18 6 19 7 20 8 21 9 22 10 23 11
REMARK SMILES IDX 24 12 25 13 26 14 12 15 11 16 10 17 9 18 8 19 7 20 6 21 5 22
REMARK SMILES IDX 4 23 3 24 2 25 1 26
REMARK H PARENT
REMARK Flexibility Score: inf
ROOT
ATOM      1  C   UNL     1      20.938   0.399  62.052  1.00  0.00     0.000 C 
ENDROOT
BRANCH   1   2
ATOM      2  C   UNL     1      21.283   0.940  63.445  1.00  0.00     0.000 C 
BRANCH   2   3
ATOM      3  C   UNL     1      21.899   2.343  63.361  1.00  0.00     0.000 C 
BRANCH   3   4
ATOM      4  C   UNL     1      22.513   2.589  61.975  1.00  0.00     0.000 C 
BRANCH   4   5
ATOM      5  C   UNL     1      23.588   3.690  61.982  1.00  0.00     0.000 C 
BRANCH   5   6
ATOM      6  C   UNL     1      25.040   3.182  61.883  1.00  0.00     0.000 C 
BRANCH   6   7
ATOM      7  C   UNL     1      25.208   1.654  62.001  1.00  0.00     0.000 C 
BRANCH   7   8
ATOM      8  C   UNL     1      25.886   1.172  63.299  1.00  0.00     0.000 C 
BRANCH   8   9
ATOM      9  C   UNL     1      26.410   2.294  64.217  1.00  0.00     0.000 C 
BRANCH   9  10
ATOM     10  C   UNL     1      25.729   2.375  65.595  1.00  0.00     0.006 C 
BRANCH  10  11
ATOM     11  C   UNL     1      24.495   3.287  65.597  1.00  0.00     0.053 C 
BRANCH  11  12
ATOM     12  C   UNL     1      23.510   2.854  66.638  1.00  0.00     0.041 C 
ATOM     13  O   UNL     1      22.501   2.172  66.314  1.00  0.00    -0.550 OA
ATOM     14  O   UNL     1      23.701   3.210  67.968  1.00  0.00    -0.550 OA
ENDBRANCH  11  12
ENDBRANCH  10  11
ENDBRANCH   9  10
ENDBRANCH   8   9
ENDBRANCH   7   8
ENDBRANCH   6   7
ENDBRANCH   5   6
ENDBRANCH   4   5
ENDBRANCH   3   4
ENDBRANCH   2   3
ENDBRANCH   1   2
BRANCH   1  15
ATOM     15  C   UNL     1      21.934  -0.690  61.628  1.00  0.00     0.000 C 
BRANCH  15  16
ATOM     16  C   UNL     1      21.252  -1.902  60.967  1.00  0.00     0.000 C 
BRANCH  16  17
ATOM     17  C   UNL     1      21.741  -2.226  59.540  1.00  0.00     0.000 C 
BRANCH  17  18
ATOM     18  C   UNL     1      22.841  -3.302  59.452  1.00  0.00    -0.000 C 
BRANCH  18  19
ATOM     19  C   UNL     1      23.963  -3.003  58.440  1.00  0.00    -0.000 C 
BRANCH  19  20
ATOM     20  C   UNL     1      25.360  -3.356  58.978  1.00  0.00    -0.000 C 
BRANCH  20  21
ATOM     21  C   UNL     1      26.187  -2.099  59.326  1.00  0.00    -0.000 C 
BRANCH  21  22
ATOM     22  C   UNL     1      26.236  -1.788  60.832  1.00  0.00    -0.000 C 
BRANCH  22  23
ATOM     23  C   UNL     1      25.835  -2.988  61.704  1.00  0.00    -0.000 C 
BRANCH  23  24
ATOM     24  C   UNL     1      24.538  -2.743  62.499  1.00  0.00    -0.000 C 
BRANCH  24  25
ATOM     25  C   UNL     1      23.650  -3.987  62.696  1.00  0.00    -0.003 C 
ATOM     26  C   UNL     1      23.258  -4.218  64.154  1.00  0.00     0.004 C 
ENDBRANCH  24  25
ENDBRANCH  23  24
ENDBRANCH  22  23
ENDBRANCH  21  22
ENDBRANCH  20  21
ENDBRANCH  19  20
ENDBRANCH  18  19
ENDBRANCH  17  18
ENDBRANCH  16  17
ENDBRANCH  15  16
ENDBRANCH   1  15
TORSDOF 22
ENDMDL
MODEL 8
REMARK VINA RESULT:    -4.946      1.696      2.709
REMARK INTER + INTRA:         -14.516
REMARK INTER:                 -11.661
REMARK INTRA:                  -2.855
REMARK UNBOUND:                -3.208
REMARK SMILES CCCCCCCCCCCCCCCCCCCCCCCC(=O)[O-]
REMARK SMILES IDX 13 1 14 2 15 3 16 4 17 5 18 6 19 7 20 8 21 9 22 10 23 11
REMARK SMILES IDX 24 12 25 13 26 14 12 15 11 16 10 17 9 18 8 19 7 20 6 21 5 22
REMARK SMILES IDX 4 23 3 24 2 25 1 26
REMARK H PARENT
REMARK Flexibility Score: inf
ROOT
ATOM      1  C   UNL     1      21.072   1.120  62.739  1.00  0.00     0.000 C 
ENDROOT
BRANCH   1   2
ATOM      2  C   UNL     1      21.423  -0.371  62.800  1.00  0.00     0.000 C 
BRANCH   2   3
ATOM      3  C   UNL     1      22.242  -0.802  61.576  1.00  0.00     0.000 C 
BRANCH   3   4
ATOM      4  C   UNL     1      21.321  -1.275  60.441  1.00  0.00     0.000 C 
BRANCH   4   5
ATOM      5  C   UNL     1      22.003  -2.280  59.496  1.00  0.00     0.000 C 
BRANCH   5   6
ATOM      6  C   UNL     1      22.019  -3.737  59.999  1.00  0.00     0.000 C 
BRANCH   6   7
ATOM      7  C   UNL     1      23.372  -4.221  60.560  1.00  0.00     0.000 C 
BRANCH   7   8
ATOM      8  C   UNL     1      23.511  -4.129  62.092  1.00  0.00     0.000 C 
BRANCH   8   9
ATOM      9  C   UNL     1      24.443  -3.009  62.597  1.00  0.00     0.000 C 
BRANCH   9  10
ATOM     10  C   UNL     1      25.789  -2.904  61.859  1.00  0.00     0.006 C 
BRANCH  10  11
ATOM     11  C   UNL     1      25.855  -1.702  60.907  1.00  0.00     0.053 C 
BRANCH  11  12
ATOM     12  C   UNL     1      26.361  -2.112  59.559  1.00  0.00     0.041 C 
ATOM     13  O   UNL     1      27.554  -1.876  59.229  1.00  0.00    -0.550 OA
ATOM     14  O   UNL     1      25.512  -2.748  58.661  1.00  0.00    -0.550 OA
ENDBRANCH  11  12
ENDBRANCH  10  11
ENDBRANCH   9  10
ENDBRANCH   8   9
ENDBRANCH   7   8
ENDBRANCH   6   7
ENDBRANCH   5   6
ENDBRANCH   4   5
ENDBRANCH   3   4
ENDBRANCH   2   3
ENDBRANCH   1   2
BRANCH   1  15
ATOM     15  C   UNL     1      21.109   1.747  64.141  1.00  0.00     0.000 C 
BRANCH  15  16
ATOM     16  C   UNL     1      21.280   3.276  64.110  1.00  0.00     0.000 C 
BRANCH  16  17
ATOM     17  C   UNL     1      22.562   3.801  64.788  1.00  0.00     0.000 C 
BRANCH  17  18
ATOM     18  C   UNL     1      23.195   2.848  65.821  1.00  0.00    -0.000 C 
BRANCH  18  19
ATOM     19  C   UNL     1      24.666   3.147  66.165  1.00  0.00    -0.000 C 
BRANCH  19  20
ATOM     20  C   UNL     1      25.555   3.277  64.915  1.00  0.00    -0.000 C 
BRANCH  20  21
ATOM     21  C   UNL     1      26.455   2.040  64.708  1.00  0.00    -0.000 C 
BRANCH  21  22
ATOM     22  C   UNL     1      26.240   1.336  63.357  1.00  0.00    -0.000 C 
BRANCH  22  23
ATOM     23  C   UNL     1      24.936   1.761  62.662  1.00  0.00    -0.000 C 
BRANCH  23  24
ATOM     24  C   UNL     1      25.112   2.999  61.762  1.00  0.00    -0.000 C 
BRANCH  24  25
ATOM     25  C   UNL     1      23.917   3.971  61.749  1.00  0.00    -0.003 C 
ATOM     26  C   UNL     1      23.191   4.010  60.406  1.00  0.00     0.004 C 
ENDBRANCH  24  25
ENDBRANCH  23  24
ENDBRANCH  22  23
ENDBRANCH  21  22
ENDBRANCH  20  21
ENDBRANCH  19  20
ENDBRANCH  18  19
ENDBRANCH  17  18
ENDBRANCH  16  17
ENDBRANCH  15  16
ENDBRANCH   1  15
TORSDOF 22
ENDMDL
MODEL 9
REMARK VINA RESULT:    -4.940      2.289      6.733
REMARK INTER + INTRA:         -14.501
REMARK INTER:                 -10.892
REMARK INTRA:                  -3.609
REMARK UNBOUND:                -3.208
REMARK SMILES CCCCCCCCCCCCCCCCCCCCCCCC(=O)[O-]
REMARK SMILES IDX 13 1 14 2 15 3 16 4 17 5 18 6 19 7 20 8 21 9 22 10 23 11
REMARK SMILES IDX 24 12 25 13 26 14 12 15 11 16 10 17 9 18 8 19 7 20 6 21 5 22
REMARK SMILES IDX 4 23 3 24 2 25 1 26
REMARK H PARENT
REMARK Flexibility Score: inf
ROOT
ATOM      1  C   UNL     1      20.749  -0.446  61.880  1.00  0.00     0.000 C 
ENDROOT
BRANCH   1   2
ATOM      2  C   UNL     1      21.740   0.472  62.605  1.00  0.00     0.000 C 
BRANCH   2   3
ATOM      3  C   UNL     1      21.243   0.829  64.013  1.00  0.00     0.000 C 
BRANCH   3   4
ATOM      4  C   UNL     1      21.151   2.352  64.190  1.00  0.00     0.000 C 
BRANCH   4   5
ATOM      5  C   UNL     1      22.469   2.979  64.678  1.00  0.00     0.000 C 
BRANCH   5   6
ATOM      6  C   UNL     1      23.115   3.980  63.700  1.00  0.00     0.000 C 
BRANCH   6   7
ATOM      7  C   UNL     1      22.917   3.656  62.206  1.00  0.00     0.000 C 
BRANCH   7   8
ATOM      8  C   UNL     1      24.216   3.565  61.381  1.00  0.00     0.000 C 
BRANCH   8   9
ATOM      9  C   UNL     1      25.486   3.248  62.196  1.00  0.00     0.000 C 
BRANCH   9  10
ATOM     10  C   UNL     1      25.764   1.750  62.407  1.00  0.00     0.006 C 
BRANCH  10  11
ATOM     11  C   UNL     1      25.561   1.305  63.862  1.00  0.00     0.053 C 
BRANCH  11  12
ATOM     12  C   UNL     1      26.379   2.141  64.798  1.00  0.00     0.041 C 
ATOM     13  O   UNL     1      25.854   3.113  65.406  1.00  0.00    -0.550 OA
ATOM     14  O   UNL     1      27.725   1.854  64.991  1.00  0.00    -0.550 OA
ENDBRANCH  11  12
ENDBRANCH  10  11
ENDBRANCH   9  10
ENDBRANCH   8   9
ENDBRANCH   7   8
ENDBRANCH   6   7
ENDBRANCH   5   6
ENDBRANCH   4   5
ENDBRANCH   3   4
ENDBRANCH   2   3
ENDBRANCH   1   2
BRANCH   1  15
ATOM     15  C   UNL     1      21.389  -1.059  60.626  1.00  0.00     0.000 C 
BRANCH  15  16
ATOM     16  C   UNL     1      21.161  -2.577  60.517  1.00  0.00     0.000 C 
BRANCH  16  17
ATOM     17  C   UNL     1      22.208  -3.333  59.673  1.00  0.00     0.000 C 
BRANCH  17  18
ATOM     18  C   UNL     1      22.821  -2.525  58.512  1.00  0.00    -0.000 C 
BRANCH  18  19
ATOM     19  C   UNL     1      24.198  -3.021  58.033  1.00  0.00    -0.000 C 
BRANCH  19  20
ATOM     20  C   UNL     1      25.125  -3.418  59.195  1.00  0.00    -0.000 C 
BRANCH  20  21
ATOM     21  C   UNL     1      26.224  -2.364  59.451  1.00  0.00    -0.000 C 
BRANCH  21  22
ATOM     22  C   UNL     1      26.051  -1.597  60.773  1.00  0.00    -0.000 C 
BRANCH  22  23
ATOM     23  C   UNL     1      25.666  -2.510  61.948  1.00  0.00    -0.000 C 
BRANCH  23  24
ATOM     24  C   UNL     1      24.284  -2.174  62.540  1.00  0.00    -0.000 C 
BRANCH  24  25
ATOM     25  C   UNL     1      23.521  -3.373  63.135  1.00  0.00    -0.003 C 
ATOM     26  C   UNL     1      23.890  -4.702  62.480  1.00  0.00     0.004 C 
ENDBRANCH  24  25
ENDBRANCH  23  24
ENDBRANCH  22  23
ENDBRANCH  21  22
ENDBRANCH  20  21
ENDBRANCH  19  20
ENDBRANCH  18  19
ENDBRANCH  17  18
ENDBRANCH  16  17
ENDBRANCH  15  16
ENDBRANCH   1  15
TORSDOF 22
ENDMDL
