MODEL 1
REMARK VINA RESULT:    -8.330      0.000      0.000
REMARK INTER + INTRA:         -10.381
REMARK INTER:                 -10.034
REMARK INTRA:                  -0.347
REMARK UNBOUND:                -0.347
REMARK SMILES Oc1cc(O)c2cc(O)c(-c3ccc(O)c(O)c3)[o+]c2c1
REMARK SMILES IDX 10 1 19 2 20 3 21 4 2 5 3 6 4 7 6 8 7 9 8 10 11 11 12 12
REMARK SMILES IDX 13 13 14 14 18 15 16 16 15 17 17 19 9 21 1 23 5 25
REMARK H PARENT 15 18 17 20 9 22 1 24 5 26
REMARK Flexibility Score: inf
ROOT
ATOM      1  C   UNL     1     -32.561  25.007   2.286  1.00  0.00     0.402 A 
ATOM      2  O   UNL     1     -31.830  24.897   1.177  1.00  0.00    -0.202 OA
ATOM      3  C   UNL     1     -30.582  25.347   1.081  1.00  0.00     0.368 A 
ATOM      4  C   UNL     1     -29.883  25.197  -0.120  1.00  0.00     0.162 A 
ATOM      5  C   UNL     1     -28.569  25.669  -0.235  1.00  0.00     0.128 A 
ATOM      6  C   UNL     1     -27.954  26.292   0.857  1.00  0.00     0.093 A 
ATOM      7  C   UNL     1     -28.643  26.449   2.069  1.00  0.00     0.136 A 
ATOM      8  C   UNL     1     -29.963  25.974   2.183  1.00  0.00     0.125 A 
ATOM      9  C   UNL     1     -30.695  26.096   3.371  1.00  0.00     0.078 A 
ATOM     10  C   UNL     1     -32.001  25.601   3.435  1.00  0.00     0.223 A 
ENDROOT
BRANCH   1  11
ATOM     11  C   UNL     1     -33.943  24.475   2.267  1.00  0.00     0.087 A 
ATOM     12  C   UNL     1     -35.049  25.317   2.053  1.00  0.00     0.022 A 
ATOM     13  C   UNL     1     -36.342  24.789   2.017  1.00  0.00     0.051 A 
ATOM     14  C   UNL     1     -36.548  23.413   2.180  1.00  0.00     0.157 A 
ATOM     15  C   UNL     1     -34.154  23.094   2.409  1.00  0.00     0.068 A 
ATOM     16  C   UNL     1     -35.451  22.563   2.373  1.00  0.00     0.158 A 
BRANCH  14  17
ATOM     17  O   UNL     1     -37.837  22.883   2.146  1.00  0.00    -0.504 OA
ATOM     18  H   UNL     1     -38.514  23.182   1.454  1.00  0.00     0.293 HD
ENDBRANCH  14  17
BRANCH  16  19
ATOM     19  O   UNL     1     -35.659  21.194   2.527  1.00  0.00    -0.504 OA
ATOM     20  H   UNL     1     -35.112  20.513   2.012  1.00  0.00     0.293 HD
ENDBRANCH  16  19
ENDBRANCH   1  11
BRANCH  10  21
ATOM     21  O   UNL     1     -32.717  25.673   4.629  1.00  0.00    -0.500 OA
ATOM     22  H   UNL     1     -32.492  26.354   5.344  1.00  0.00     0.294 HD
ENDBRANCH  10  21
BRANCH   5  23
ATOM     23  O   UNL     1     -27.865  25.525  -1.428  1.00  0.00    -0.507 OA
ATOM     24  H   UNL     1     -27.802  24.630  -1.901  1.00  0.00     0.293 HD
ENDBRANCH   5  23
BRANCH   7  25
ATOM     25  O   UNL     1     -28.017  27.070   3.150  1.00  0.00    -0.507 OA
ATOM     26  H   UNL     1     -27.044  26.899   3.370  1.00  0.00     0.293 HD
ENDBRANCH   7  25
TORSDOF 6
ENDMDL
MODEL 2
REMARK VINA RESULT:    -7.968      0.739      1.482
REMARK INTER + INTRA:          -9.945
REMARK INTER:                  -9.611
REMARK INTRA:                  -0.335
REMARK UNBOUND:                -0.347
REMARK SMILES Oc1cc(O)c2cc(O)c(-c3ccc(O)c(O)c3)[o+]c2c1
REMARK SMILES IDX 10 1 19 2 20 3 21 4 2 5 3 6 4 7 6 8 7 9 8 10 11 11 12 12
REMARK SMILES IDX 13 13 14 14 18 15 16 16 15 17 17 19 9 21 1 23 5 25
REMARK H PARENT 15 18 17 20 9 22 1 24 5 26
REMARK Flexibility Score: inf
ROOT
ATOM      1  C   UNL     1     -32.239  24.631   2.151  1.00  0.00     0.402 A 
ATOM      2  O   UNL     1     -31.484  24.457   1.068  1.00  0.00    -0.202 OA
ATOM      3  C   UNL     1     -30.319  25.071   0.886  1.00  0.00     0.368 A 
ATOM      4  C   UNL     1     -29.588  24.838  -0.282  1.00  0.00     0.162 A 
ATOM      5  C   UNL     1     -28.360  25.481  -0.487  1.00  0.00     0.128 A 
ATOM      6  C   UNL     1     -27.864  26.360   0.482  1.00  0.00     0.093 A 
ATOM      7  C   UNL     1     -28.586  26.604   1.660  1.00  0.00     0.136 A 
ATOM      8  C   UNL     1     -29.819  25.957   1.865  1.00  0.00     0.125 A 
ATOM      9  C   UNL     1     -30.578  26.156   3.025  1.00  0.00     0.078 A 
ATOM     10  C   UNL     1     -31.793  25.483   3.183  1.00  0.00     0.223 A 
ENDROOT
BRANCH   1  11
ATOM     11  C   UNL     1     -33.523  23.897   2.235  1.00  0.00     0.087 A 
ATOM     12  C   UNL     1     -33.577  22.568   2.691  1.00  0.00     0.022 A 
ATOM     13  C   UNL     1     -34.803  21.903   2.782  1.00  0.00     0.051 A 
ATOM     14  C   UNL     1     -35.991  22.559   2.434  1.00  0.00     0.157 A 
ATOM     15  C   UNL     1     -34.718  24.557   1.907  1.00  0.00     0.068 A 
ATOM     16  C   UNL     1     -35.949  23.890   1.999  1.00  0.00     0.158 A 
BRANCH  14  17
ATOM     17  O   UNL     1     -37.215  21.899   2.524  1.00  0.00    -0.504 OA
ATOM     18  H   UNL     1     -37.503  21.220   1.829  1.00  0.00     0.293 HD
ENDBRANCH  14  17
BRANCH  16  19
ATOM     19  O   UNL     1     -37.132  24.543   1.661  1.00  0.00    -0.504 OA
ATOM     20  H   UNL     1     -38.022  24.272   2.064  1.00  0.00     0.293 HD
ENDBRANCH  16  19
ENDBRANCH   1  11
BRANCH  10  21
ATOM     21  O   UNL     1     -32.530  25.637   4.357  1.00  0.00    -0.500 OA
ATOM     22  H   UNL     1     -33.505  25.366   4.412  1.00  0.00     0.294 HD
ENDBRANCH  10  21
BRANCH   5  23
ATOM     23  O   UNL     1     -27.625  25.255  -1.648  1.00  0.00    -0.507 OA
ATOM     24  H   UNL     1     -26.979  25.948  -2.010  1.00  0.00     0.293 HD
ENDBRANCH   5  23
BRANCH   7  25
ATOM     25  O   UNL     1     -28.078  27.481   2.619  1.00  0.00    -0.507 OA
ATOM     26  H   UNL     1     -27.327  28.125   2.405  1.00  0.00     0.293 HD
ENDBRANCH   7  25
TORSDOF 6
ENDMDL
MODEL 3
REMARK VINA RESULT:    -7.462      1.549      7.013
REMARK INTER + INTRA:          -9.336
REMARK INTER:                  -9.159
REMARK INTRA:                  -0.177
REMARK UNBOUND:                -0.347
REMARK SMILES Oc1cc(O)c2cc(O)c(-c3ccc(O)c(O)c3)[o+]c2c1
REMARK SMILES IDX 10 1 19 2 20 3 21 4 2 5 3 6 4 7 6 8 7 9 8 10 11 11 12 12
REMARK SMILES IDX 13 13 14 14 18 15 16 16 15 17 17 19 9 21 1 23 5 25
REMARK H PARENT 15 18 17 20 9 22 1 24 5 26
REMARK Flexibility Score: inf
ROOT
ATOM      1  C   UNL     1     -31.426  25.159   1.457  1.00  0.00     0.402 A 
ATOM      2  O   UNL     1     -31.695  23.862   1.601  1.00  0.00    -0.202 OA
ATOM      3  C   UNL     1     -32.912  23.397   1.865  1.00  0.00     0.368 A 
ATOM      4  C   UNL     1     -33.112  22.020   2.007  1.00  0.00     0.162 A 
ATOM      5  C   UNL     1     -34.389  21.518   2.288  1.00  0.00     0.128 A 
ATOM      6  C   UNL     1     -35.469  22.397   2.427  1.00  0.00     0.093 A 
ATOM      7  C   UNL     1     -35.285  23.780   2.287  1.00  0.00     0.136 A 
ATOM      8  C   UNL     1     -34.001  24.284   2.004  1.00  0.00     0.125 A 
ATOM      9  C   UNL     1     -33.760  25.654   1.845  1.00  0.00     0.078 A 
ATOM     10  C   UNL     1     -32.468  26.103   1.557  1.00  0.00     0.223 A 
ENDROOT
BRANCH   1  11
ATOM     11  C   UNL     1     -30.027  25.555   1.173  1.00  0.00     0.087 A 
ATOM     12  C   UNL     1     -29.387  25.176  -0.021  1.00  0.00     0.022 A 
ATOM     13  C   UNL     1     -28.074  25.581  -0.277  1.00  0.00     0.051 A 
ATOM     14  C   UNL     1     -27.389  26.381   0.646  1.00  0.00     0.157 A 
ATOM     15  C   UNL     1     -29.342  26.374   2.085  1.00  0.00     0.068 A 
ATOM     16  C   UNL     1     -28.025  26.781   1.828  1.00  0.00     0.158 A 
BRANCH  14  17
ATOM     17  O   UNL     1     -26.079  26.786   0.394  1.00  0.00    -0.504 OA
ATOM     18  H   UNL     1     -25.866  27.728   0.087  1.00  0.00     0.293 HD
ENDBRANCH  14  17
BRANCH  16  19
ATOM     19  O   UNL     1     -27.343  27.583   2.742  1.00  0.00    -0.504 OA
ATOM     20  H   UNL     1     -27.425  28.593   2.726  1.00  0.00     0.293 HD
ENDBRANCH  16  19
ENDBRANCH   1  11
BRANCH  10  21
ATOM     21  O   UNL     1     -32.230  27.461   1.348  1.00  0.00    -0.500 OA
ATOM     22  H   UNL     1     -32.178  27.855   0.416  1.00  0.00     0.294 HD
ENDBRANCH  10  21
BRANCH   5  23
ATOM     23  O   UNL     1     -34.596  20.148   2.432  1.00  0.00    -0.507 OA
ATOM     24  H   UNL     1     -34.455  19.681   3.320  1.00  0.00     0.293 HD
ENDBRANCH   5  23
BRANCH   7  25
ATOM     25  O   UNL     1     -36.371  24.645   2.425  1.00  0.00    -0.507 OA
ATOM     26  H   UNL     1     -36.935  24.921   1.631  1.00  0.00     0.293 HD
ENDBRANCH   7  25
TORSDOF 6
ENDMDL
MODEL 4
REMARK VINA RESULT:    -7.209      1.371      3.146
REMARK INTER + INTRA:          -9.031
REMARK INTER:                  -8.696
REMARK INTRA:                  -0.335
REMARK UNBOUND:                -0.347
REMARK SMILES Oc1cc(O)c2cc(O)c(-c3ccc(O)c(O)c3)[o+]c2c1
REMARK SMILES IDX 10 1 19 2 20 3 21 4 2 5 3 6 4 7 6 8 7 9 8 10 11 11 12 12
REMARK SMILES IDX 13 13 14 14 18 15 16 16 15 17 17 19 9 21 1 23 5 25
REMARK H PARENT 15 18 17 20 9 22 1 24 5 26
REMARK Flexibility Score: inf
ROOT
ATOM      1  C   UNL     1     -32.221  23.772   0.872  1.00  0.00     0.402 A 
ATOM      2  O   UNL     1     -31.581  24.675   1.614  1.00  0.00    -0.202 OA
ATOM      3  C   UNL     1     -30.394  25.175   1.286  1.00  0.00     0.368 A 
ATOM      4  C   UNL     1     -29.785  26.117   2.121  1.00  0.00     0.162 A 
ATOM      5  C   UNL     1     -28.533  26.651   1.789  1.00  0.00     0.128 A 
ATOM      6  C   UNL     1     -27.890  26.240   0.616  1.00  0.00     0.093 A 
ATOM      7  C   UNL     1     -28.489  25.298  -0.233  1.00  0.00     0.136 A 
ATOM      8  C   UNL     1     -29.747  24.762   0.102  1.00  0.00     0.125 A 
ATOM      9  C   UNL     1     -30.395  23.825  -0.712  1.00  0.00     0.078 A 
ATOM     10  C   UNL     1     -31.647  23.329  -0.338  1.00  0.00     0.223 A 
ENDROOT
BRANCH   1  11
ATOM     11  C   UNL     1     -33.535  23.281   1.347  1.00  0.00     0.087 A 
ATOM     12  C   UNL     1     -33.662  22.040   1.995  1.00  0.00     0.022 A 
ATOM     13  C   UNL     1     -34.909  21.608   2.455  1.00  0.00     0.051 A 
ATOM     14  C   UNL     1     -36.042  22.414   2.287  1.00  0.00     0.157 A 
ATOM     15  C   UNL     1     -34.671  24.095   1.200  1.00  0.00     0.068 A 
ATOM     16  C   UNL     1     -35.922  23.662   1.662  1.00  0.00     0.158 A 
BRANCH  14  17
ATOM     17  O   UNL     1     -37.288  21.986   2.744  1.00  0.00    -0.504 OA
ATOM     18  H   UNL     1     -38.137  22.488   2.514  1.00  0.00     0.293 HD
ENDBRANCH  14  17
BRANCH  16  19
ATOM     19  O   UNL     1     -37.050  24.465   1.503  1.00  0.00    -0.504 OA
ATOM     20  H   UNL     1     -37.074  25.217   0.823  1.00  0.00     0.293 HD
ENDBRANCH  16  19
ENDBRANCH   1  11
BRANCH  10  21
ATOM     21  O   UNL     1     -32.321  22.434  -1.167  1.00  0.00    -0.500 OA
ATOM     22  H   UNL     1     -32.778  21.608  -0.799  1.00  0.00     0.294 HD
ENDBRANCH  10  21
BRANCH   5  23
ATOM     23  O   UNL     1     -27.919  27.588   2.616  1.00  0.00    -0.507 OA
ATOM     24  H   UNL     1     -27.256  28.263   2.251  1.00  0.00     0.293 HD
ENDBRANCH   5  23
BRANCH   7  25
ATOM     25  O   UNL     1     -27.837  24.899  -1.401  1.00  0.00    -0.507 OA
ATOM     26  H   UNL     1     -28.245  25.052  -2.315  1.00  0.00     0.293 HD
ENDBRANCH   7  25
TORSDOF 6
ENDMDL
MODEL 5
REMARK VINA RESULT:    -7.196      1.457      1.996
REMARK INTER + INTRA:          -9.015
REMARK INTER:                  -8.786
REMARK INTRA:                  -0.228
REMARK UNBOUND:                -0.347
REMARK SMILES Oc1cc(O)c2cc(O)c(-c3ccc(O)c(O)c3)[o+]c2c1
REMARK SMILES IDX 10 1 19 2 20 3 21 4 2 5 3 6 4 7 6 8 7 9 8 10 11 11 12 12
REMARK SMILES IDX 13 13 14 14 18 15 16 16 15 17 17 19 9 21 1 23 5 25
REMARK H PARENT 15 18 17 20 9 22 1 24 5 26
REMARK Flexibility Score: inf
ROOT
ATOM      1  C   UNL     1     -30.837  25.316   1.499  1.00  0.00     0.402 A 
ATOM      2  O   UNL     1     -30.063  24.873   0.509  1.00  0.00    -0.202 OA
ATOM      3  C   UNL     1     -28.847  25.352   0.265  1.00  0.00     0.368 A 
ATOM      4  C   UNL     1     -28.100  24.836  -0.797  1.00  0.00     0.162 A 
ATOM      5  C   UNL     1     -26.818  25.334  -1.066  1.00  0.00     0.128 A 
ATOM      6  C   UNL     1     -26.284  26.352  -0.268  1.00  0.00     0.093 A 
ATOM      7  C   UNL     1     -27.022  26.879   0.802  1.00  0.00     0.136 A 
ATOM      8  C   UNL     1     -28.309  26.377   1.072  1.00  0.00     0.125 A 
ATOM      9  C   UNL     1     -29.087  26.860   2.132  1.00  0.00     0.078 A 
ATOM     10  C   UNL     1     -30.357  26.323   2.362  1.00  0.00     0.223 A 
ENDROOT
BRANCH   1  11
ATOM     11  C   UNL     1     -32.177  24.709   1.665  1.00  0.00     0.087 A 
ATOM     12  C   UNL     1     -33.349  25.469   1.502  1.00  0.00     0.022 A 
ATOM     13  C   UNL     1     -34.604  24.869   1.641  1.00  0.00     0.051 A 
ATOM     14  C   UNL     1     -34.706  23.503   1.929  1.00  0.00     0.157 A 
ATOM     15  C   UNL     1     -32.285  23.335   1.933  1.00  0.00     0.068 A 
ATOM     16  C   UNL     1     -33.544  22.733   2.072  1.00  0.00     0.158 A 
BRANCH  14  17
ATOM     17  O   UNL     1     -35.956  22.901   2.069  1.00  0.00    -0.504 OA
ATOM     18  H   UNL     1     -36.505  23.012   2.913  1.00  0.00     0.293 HD
ENDBRANCH  14  17
BRANCH  16  19
ATOM     19  O   UNL     1     -33.649  21.372   2.352  1.00  0.00    -0.504 OA
ATOM     20  H   UNL     1     -33.806  20.690   1.619  1.00  0.00     0.293 HD
ENDBRANCH  16  19
ENDBRANCH   1  11
BRANCH  10  21
ATOM     21  O   UNL     1     -31.116  26.763   3.445  1.00  0.00    -0.500 OA
ATOM     22  H   UNL     1     -31.258  26.185   4.265  1.00  0.00     0.294 HD
ENDBRANCH  10  21
BRANCH   5  23
ATOM     23  O   UNL     1     -26.067  24.826  -2.123  1.00  0.00    -0.507 OA
ATOM     24  H   UNL     1     -26.509  24.445  -2.952  1.00  0.00     0.293 HD
ENDBRANCH   5  23
BRANCH   7  25
ATOM     25  O   UNL     1     -26.476  27.892   1.592  1.00  0.00    -0.507 OA
ATOM     26  H   UNL     1     -25.540  27.823   1.973  1.00  0.00     0.293 HD
ENDBRANCH   7  25
TORSDOF 6
ENDMDL
MODEL 6
REMARK VINA RESULT:    -7.158      1.698      6.943
REMARK INTER + INTRA:          -8.969
REMARK INTER:                  -8.930
REMARK INTRA:                  -0.039
REMARK UNBOUND:                -0.347
REMARK SMILES Oc1cc(O)c2cc(O)c(-c3ccc(O)c(O)c3)[o+]c2c1
REMARK SMILES IDX 10 1 19 2 20 3 21 4 2 5 3 6 4 7 6 8 7 9 8 10 11 11 12 12
REMARK SMILES IDX 13 13 14 14 18 15 16 16 15 17 17 19 9 21 1 23 5 25
REMARK H PARENT 15 18 17 20 9 22 1 24 5 26
REMARK Flexibility Score: inf
ROOT
ATOM      1  C   UNL     1     -30.774  25.502   1.572  1.00  0.00     0.402 A 
ATOM      2  O   UNL     1     -31.115  24.239   1.318  1.00  0.00    -0.202 OA
ATOM      3  C   UNL     1     -32.309  23.734   1.611  1.00  0.00     0.368 A 
ATOM      4  C   UNL     1     -32.586  22.396   1.316  1.00  0.00     0.162 A 
ATOM      5  C   UNL     1     -33.840  21.851   1.623  1.00  0.00     0.128 A 
ATOM      6  C   UNL     1     -34.819  22.650   2.225  1.00  0.00     0.093 A 
ATOM      7  C   UNL     1     -34.556  23.994   2.526  1.00  0.00     0.136 A 
ATOM      8  C   UNL     1     -33.296  24.541   2.218  1.00  0.00     0.125 A 
ATOM      9  C   UNL     1     -32.980  25.878   2.488  1.00  0.00     0.078 A 
ATOM     10  C   UNL     1     -31.716  26.374   2.155  1.00  0.00     0.223 A 
ENDROOT
BRANCH   1  11
ATOM     11  C   UNL     1     -29.409  25.945   1.208  1.00  0.00     0.087 A 
ATOM     12  C   UNL     1     -28.612  26.674   2.108  1.00  0.00     0.022 A 
ATOM     13  C   UNL     1     -27.318  27.062   1.751  1.00  0.00     0.051 A 
ATOM     14  C   UNL     1     -26.798  26.717   0.497  1.00  0.00     0.157 A 
ATOM     15  C   UNL     1     -28.875  25.584  -0.040  1.00  0.00     0.068 A 
ATOM     16  C   UNL     1     -27.577  25.973  -0.399  1.00  0.00     0.158 A 
BRANCH  14  17
ATOM     17  O   UNL     1     -25.508  27.103   0.136  1.00  0.00    -0.504 OA
ATOM     18  H   UNL     1     -25.332  27.641  -0.704  1.00  0.00     0.293 HD
ENDBRANCH  14  17
BRANCH  16  19
ATOM     19  O   UNL     1     -27.054  25.625  -1.643  1.00  0.00    -0.504 OA
ATOM     20  H   UNL     1     -26.365  26.204  -2.110  1.00  0.00     0.293 HD
ENDBRANCH  16  19
ENDBRANCH   1  11
BRANCH  10  21
ATOM     21  O   UNL     1     -31.413  27.717   2.375  1.00  0.00    -0.500 OA
ATOM     22  H   UNL     1     -30.894  28.019   3.192  1.00  0.00     0.294 HD
ENDBRANCH  10  21
BRANCH   5  23
ATOM     23  O   UNL     1     -34.125  20.519   1.333  1.00  0.00    -0.507 OA
ATOM     24  H   UNL     1     -34.747  19.971   1.916  1.00  0.00     0.293 HD
ENDBRANCH   5  23
BRANCH   7  25
ATOM     25  O   UNL     1     -35.541  24.780   3.125  1.00  0.00    -0.507 OA
ATOM     26  H   UNL     1     -36.434  24.945   2.677  1.00  0.00     0.293 HD
ENDBRANCH   7  25
TORSDOF 6
ENDMDL
MODEL 7
REMARK VINA RESULT:    -7.097      2.936      4.675
REMARK INTER + INTRA:          -8.896
REMARK INTER:                  -8.914
REMARK INTRA:                   0.018
REMARK UNBOUND:                -0.347
REMARK SMILES Oc1cc(O)c2cc(O)c(-c3ccc(O)c(O)c3)[o+]c2c1
REMARK SMILES IDX 10 1 19 2 20 3 21 4 2 5 3 6 4 7 6 8 7 9 8 10 11 11 12 12
REMARK SMILES IDX 13 13 14 14 18 15 16 16 15 17 17 19 9 21 1 23 5 25
REMARK H PARENT 15 18 17 20 9 22 1 24 5 26
REMARK Flexibility Score: inf
ROOT
ATOM      1  C   UNL     1     -33.606  22.455   1.384  1.00  0.00     0.402 A 
ATOM      2  O   UNL     1     -33.158  22.950   2.537  1.00  0.00    -0.202 OA
ATOM      3  C   UNL     1     -32.672  24.181   2.661  1.00  0.00     0.368 A 
ATOM      4  C   UNL     1     -32.217  24.624   3.907  1.00  0.00     0.162 A 
ATOM      5  C   UNL     1     -31.701  25.918   4.051  1.00  0.00     0.128 A 
ATOM      6  C   UNL     1     -31.642  26.771   2.944  1.00  0.00     0.093 A 
ATOM      7  C   UNL     1     -32.096  26.342   1.688  1.00  0.00     0.136 A 
ATOM      8  C   UNL     1     -32.614  25.042   1.544  1.00  0.00     0.125 A 
ATOM      9  C   UNL     1     -33.089  24.563   0.317  1.00  0.00     0.078 A 
ATOM     10  C   UNL     1     -33.601  23.265   0.229  1.00  0.00     0.223 A 
ENDROOT
BRANCH   1  11
ATOM     11  C   UNL     1     -34.114  21.065   1.369  1.00  0.00     0.087 A 
ATOM     12  C   UNL     1     -35.040  20.614   2.327  1.00  0.00     0.022 A 
ATOM     13  C   UNL     1     -35.523  19.303   2.280  1.00  0.00     0.051 A 
ATOM     14  C   UNL     1     -35.101  18.431   1.269  1.00  0.00     0.157 A 
ATOM     15  C   UNL     1     -33.710  20.192   0.346  1.00  0.00     0.068 A 
ATOM     16  C   UNL     1     -34.195  18.877   0.298  1.00  0.00     0.158 A 
BRANCH  14  17
ATOM     17  O   UNL     1     -35.580  17.123   1.219  1.00  0.00    -0.504 OA
ATOM     18  H   UNL     1     -35.199  16.443   0.571  1.00  0.00     0.293 HD
ENDBRANCH  14  17
BRANCH  16  19
ATOM     19  O   UNL     1     -33.781  18.008  -0.710  1.00  0.00    -0.504 OA
ATOM     20  H   UNL     1     -33.003  17.373  -0.577  1.00  0.00     0.293 HD
ENDBRANCH  16  19
ENDBRANCH   1  11
BRANCH  10  21
ATOM     21  O   UNL     1     -34.121  22.799  -0.977  1.00  0.00    -0.500 OA
ATOM     22  H   UNL     1     -33.529  22.387  -1.689  1.00  0.00     0.294 HD
ENDBRANCH  10  21
BRANCH   5  23
ATOM     23  O   UNL     1     -31.245  26.367   5.288  1.00  0.00    -0.507 OA
ATOM     24  H   UNL     1     -30.809  27.276   5.394  1.00  0.00     0.293 HD
ENDBRANCH   5  23
BRANCH   7  25
ATOM     25  O   UNL     1     -32.033  27.205   0.592  1.00  0.00    -0.507 OA
ATOM     26  H   UNL     1     -32.869  27.530   0.124  1.00  0.00     0.293 HD
ENDBRANCH   7  25
TORSDOF 6
ENDMDL
MODEL 8
REMARK VINA RESULT:    -6.988      1.486      7.187
REMARK INTER + INTRA:          -8.765
REMARK INTER:                  -8.649
REMARK INTRA:                  -0.115
REMARK UNBOUND:                -0.347
REMARK SMILES Oc1cc(O)c2cc(O)c(-c3ccc(O)c(O)c3)[o+]c2c1
REMARK SMILES IDX 10 1 19 2 20 3 21 4 2 5 3 6 4 7 6 8 7 9 8 10 11 11 12 12
REMARK SMILES IDX 13 13 14 14 18 15 16 16 15 17 17 19 9 21 1 23 5 25
REMARK H PARENT 15 18 17 20 9 22 1 24 5 26
REMARK Flexibility Score: inf
ROOT
ATOM      1  C   UNL     1     -31.227  24.486   1.178  1.00  0.00     0.402 A 
ATOM      2  O   UNL     1     -32.271  25.253   1.490  1.00  0.00    -0.202 OA
ATOM      3  C   UNL     1     -33.481  24.765   1.745  1.00  0.00     0.368 A 
ATOM      4  C   UNL     1     -34.526  25.638   2.061  1.00  0.00     0.162 A 
ATOM      5  C   UNL     1     -35.807  25.138   2.329  1.00  0.00     0.128 A 
ATOM      6  C   UNL     1     -36.040  23.759   2.281  1.00  0.00     0.093 A 
ATOM      7  C   UNL     1     -35.002  22.871   1.967  1.00  0.00     0.136 A 
ATOM      8  C   UNL     1     -33.715  23.374   1.698  1.00  0.00     0.125 A 
ATOM      9  C   UNL     1     -32.639  22.534   1.387  1.00  0.00     0.078 A 
ATOM     10  C   UNL     1     -31.379  23.085   1.135  1.00  0.00     0.223 A 
ENDROOT
BRANCH   1  11
ATOM     11  C   UNL     1     -29.930  25.147   0.905  1.00  0.00     0.087 A 
ATOM     12  C   UNL     1     -29.220  24.904  -0.284  1.00  0.00     0.022 A 
ATOM     13  C   UNL     1     -28.009  25.557  -0.530  1.00  0.00     0.051 A 
ATOM     14  C   UNL     1     -27.498  26.471   0.400  1.00  0.00     0.157 A 
ATOM     15  C   UNL     1     -29.423  26.080   1.825  1.00  0.00     0.068 A 
ATOM     16  C   UNL     1     -28.208  26.735   1.578  1.00  0.00     0.158 A 
BRANCH  14  17
ATOM     17  O   UNL     1     -26.290  27.123   0.159  1.00  0.00    -0.504 OA
ATOM     18  H   UNL     1     -26.036  27.441  -0.768  1.00  0.00     0.293 HD
ENDBRANCH  14  17
BRANCH  16  19
ATOM     19  O   UNL     1     -27.701  27.650   2.499  1.00  0.00    -0.504 OA
ATOM     20  H   UNL     1     -27.389  27.360   3.419  1.00  0.00     0.293 HD
ENDBRANCH  16  19
ENDBRANCH   1  11
BRANCH  10  21
ATOM     21  O   UNL     1     -30.292  22.252   0.874  1.00  0.00    -0.500 OA
ATOM     22  H   UNL     1     -29.343  22.527   1.103  1.00  0.00     0.294 HD
ENDBRANCH  10  21
BRANCH   5  23
ATOM     23  O   UNL     1     -36.855  26.000   2.644  1.00  0.00    -0.507 OA
ATOM     24  H   UNL     1     -36.745  27.007   2.593  1.00  0.00     0.293 HD
ENDBRANCH   5  23
BRANCH   7  25
ATOM     25  O   UNL     1     -35.248  21.498   1.925  1.00  0.00    -0.507 OA
ATOM     26  H   UNL     1     -34.656  20.868   1.397  1.00  0.00     0.293 HD
ENDBRANCH   7  25
TORSDOF 6
ENDMDL
MODEL 9
REMARK VINA RESULT:    -6.985      2.027      3.549
REMARK INTER + INTRA:          -8.760
REMARK INTER:                  -8.504
REMARK INTRA:                  -0.256
REMARK UNBOUND:                -0.347
REMARK SMILES Oc1cc(O)c2cc(O)c(-c3ccc(O)c(O)c3)[o+]c2c1
REMARK SMILES IDX 10 1 19 2 20 3 21 4 2 5 3 6 4 7 6 8 7 9 8 10 11 11 12 12
REMARK SMILES IDX 13 13 14 14 18 15 16 16 15 17 17 19 9 21 1 23 5 25
REMARK H PARENT 15 18 17 20 9 22 1 24 5 26
REMARK Flexibility Score: inf
ROOT
ATOM      1  C   UNL     1     -30.395  25.016   0.769  1.00  0.00     0.402 A 
ATOM      2  O   UNL     1     -29.544  25.952   1.188  1.00  0.00    -0.202 OA
ATOM      3  C   UNL     1     -28.318  26.095   0.693  1.00  0.00     0.368 A 
ATOM      4  C   UNL     1     -27.484  27.100   1.190  1.00  0.00     0.162 A 
ATOM      5  C   UNL     1     -26.189  27.259   0.679  1.00  0.00     0.128 A 
ATOM      6  C   UNL     1     -25.730  26.409  -0.333  1.00  0.00     0.093 A 
ATOM      7  C   UNL     1     -26.556  25.396  -0.842  1.00  0.00     0.136 A 
ATOM      8  C   UNL     1     -27.857  25.238  -0.329  1.00  0.00     0.125 A 
ATOM      9  C   UNL     1     -28.727  24.250  -0.805  1.00  0.00     0.078 A 
ATOM     10  C   UNL     1     -30.012  24.139  -0.266  1.00  0.00     0.223 A 
ENDROOT
BRANCH   1  11
ATOM     11  C   UNL     1     -31.731  24.951   1.404  1.00  0.00     0.087 A 
ATOM     12  C   UNL     1     -32.710  25.929   1.152  1.00  0.00     0.022 A 
ATOM     13  C   UNL     1     -33.971  25.835   1.745  1.00  0.00     0.051 A 
ATOM     14  C   UNL     1     -34.278  24.757   2.585  1.00  0.00     0.157 A 
ATOM     15  C   UNL     1     -32.051  23.862   2.231  1.00  0.00     0.068 A 
ATOM     16  C   UNL     1     -33.317  23.766   2.826  1.00  0.00     0.158 A 
BRANCH  14  17
ATOM     17  O   UNL     1     -35.535  24.660   3.180  1.00  0.00    -0.504 OA
ATOM     18  H   UNL     1     -36.233  25.385   3.063  1.00  0.00     0.293 HD
ENDBRANCH  14  17
BRANCH  16  19
ATOM     19  O   UNL     1     -33.627  22.691   3.657  1.00  0.00    -0.504 OA
ATOM     20  H   UNL     1     -34.170  21.903   3.323  1.00  0.00     0.293 HD
ENDBRANCH  16  19
ENDBRANCH   1  11
BRANCH  10  21
ATOM     21  O   UNL     1     -30.902  23.191  -0.770  1.00  0.00    -0.500 OA
ATOM     22  H   UNL     1     -31.322  22.486  -0.175  1.00  0.00     0.294 HD
ENDBRANCH  10  21
BRANCH   5  23
ATOM     23  O   UNL     1     -25.350  28.258   1.169  1.00  0.00    -0.507 OA
ATOM     24  H   UNL     1     -24.366  28.086   1.340  1.00  0.00     0.293 HD
ENDBRANCH   5  23
BRANCH   7  25
ATOM     25  O   UNL     1     -26.086  24.557  -1.853  1.00  0.00    -0.507 OA
ATOM     26  H   UNL     1     -26.151  24.814  -2.830  1.00  0.00     0.293 HD
ENDBRANCH   7  25
TORSDOF 6
ENDMDL
