MODEL 1
REMARK VINA RESULT:    17.350      0.000      0.000
REMARK INTER + INTRA:          38.683
REMARK INTER:                  39.664
REMARK INTRA:                  -0.981
REMARK UNBOUND:                -0.981
REMARK SMILES CCCCCCCCCCCCCCCCCCCCCCCC(=O)[O-]
REMARK SMILES IDX 13 1 14 2 15 3 16 4 17 5 18 6 19 7 20 8 21 9 22 10 23 11
REMARK SMILES IDX 24 12 25 13 26 14 12 15 11 16 10 17 9 18 8 19 7 20 6 21 5 22
REMARK SMILES IDX 4 23 3 24 2 25 1 26
REMARK H PARENT
REMARK Flexibility Score: inf
ROOT
ATOM      1  C   UNL     1      14.368  16.701  17.348  1.00  0.00     0.000 C 
ENDROOT
BRANCH   1   2
ATOM      2  C   UNL     1      13.454  16.831  16.119  1.00  0.00     0.000 C 
BRANCH   2   3
ATOM      3  C   UNL     1      13.269  18.291  15.668  1.00  0.00     0.000 C 
BRANCH   3   4
ATOM      4  C   UNL     1      14.575  19.098  15.739  1.00  0.00     0.000 C 
BRANCH   4   5
ATOM      5  C   UNL     1      14.456  20.475  15.069  1.00  0.00     0.000 C 
BRANCH   5   6
ATOM      6  C   UNL     1      15.833  21.134  14.914  1.00  0.00     0.000 C 
BRANCH   6   7
ATOM      7  C   UNL     1      16.102  22.119  16.062  1.00  0.00     0.000 C 
BRANCH   7   8
ATOM      8  C   UNL     1      14.970  22.137  17.102  1.00  0.00     0.000 C 
BRANCH   8   9
ATOM      9  C   UNL     1      15.439  21.681  18.494  1.00  0.00     0.000 C 
BRANCH   9  10
ATOM     10  C   UNL     1      16.962  21.805  18.687  1.00  0.00     0.006 C 
BRANCH  10  11
ATOM     11  C   UNL     1      17.576  20.679  19.539  1.00  0.00     0.053 C 
BRANCH  11  12
ATOM     12  C   UNL     1      16.590  19.598  19.865  1.00  0.00     0.041 C 
ATOM     13  O   UNL     1      15.789  19.737  20.827  1.00  0.00    -0.550 OA
ATOM     14  O   UNL     1      16.535  18.448  19.087  1.00  0.00    -0.550 OA
ENDBRANCH  11  12
ENDBRANCH  10  11
ENDBRANCH   9  10
ENDBRANCH   8   9
ENDBRANCH   7   8
ENDBRANCH   6   7
ENDBRANCH   5   6
ENDBRANCH   4   5
ENDBRANCH   3   4
ENDBRANCH   2   3
ENDBRANCH   1   2
BRANCH   1  15
ATOM     15  C   UNL     1      14.657  15.237  17.723  1.00  0.00     0.000 C 
BRANCH  15  16
ATOM     16  C   UNL     1      13.841  14.242  16.881  1.00  0.00     0.000 C 
BRANCH  16  17
ATOM     17  C   UNL     1      14.591  12.922  16.633  1.00  0.00     0.000 C 
BRANCH  17  18
ATOM     18  C   UNL     1      13.829  11.693  17.163  1.00  0.00    -0.000 C 
BRANCH  18  19
ATOM     19  C   UNL     1      12.532  12.014  17.928  1.00  0.00    -0.000 C 
BRANCH  19  20
ATOM     20  C   UNL     1      11.264  11.576  17.175  1.00  0.00    -0.000 C 
BRANCH  20  21
ATOM     21  C   UNL     1      10.536  12.763  16.507  1.00  0.00    -0.000 C 
BRANCH  21  22
ATOM     22  C   UNL     1       9.105  12.993  17.032  1.00  0.00    -0.000 C 
BRANCH  22  23
ATOM     23  C   UNL     1       7.992  12.802  15.988  1.00  0.00    -0.000 C 
BRANCH  23  24
ATOM     24  C   UNL     1       8.314  11.701  14.967  1.00  0.00    -0.000 C 
BRANCH  24  25
ATOM     25  C   UNL     1       9.100  12.270  13.779  1.00  0.00    -0.003 C 
ATOM     26  C   UNL     1       9.430  11.180  12.763  1.00  0.00     0.004 C 
ENDBRANCH  24  25
ENDBRANCH  23  24
ENDBRANCH  22  23
ENDBRANCH  21  22
ENDBRANCH  20  21
ENDBRANCH  19  20
ENDBRANCH  18  19
ENDBRANCH  17  18
ENDBRANCH  16  17
ENDBRANCH  15  16
ENDBRANCH   1  15
TORSDOF 22
ENDMDL
MODEL 2
REMARK VINA RESULT:    17.901      3.526      9.941
REMARK INTER + INTRA:          39.942
REMARK INTER:                  40.844
REMARK INTRA:                  -0.902
REMARK UNBOUND:                -0.981
REMARK SMILES CCCCCCCCCCCCCCCCCCCCCCCC(=O)[O-]
REMARK SMILES IDX 13 1 14 2 15 3 16 4 17 5 18 6 19 7 20 8 21 9 22 10 23 11
REMARK SMILES IDX 24 12 25 13 26 14 12 15 11 16 10 17 9 18 8 19 7 20 6 21 5 22
REMARK SMILES IDX 4 23 3 24 2 25 1 26
REMARK H PARENT
REMARK Flexibility Score: inf
ROOT
ATOM      1  C   UNL     1      14.092  16.525  16.866  1.00  0.00     0.000 C 
ENDROOT
BRANCH   1   2
ATOM      2  C   UNL     1      13.696  15.088  16.493  1.00  0.00     0.000 C 
BRANCH   2   3
ATOM      3  C   UNL     1      14.564  14.029  17.197  1.00  0.00     0.000 C 
BRANCH   3   4
ATOM      4  C   UNL     1      14.563  12.682  16.457  1.00  0.00     0.000 C 
BRANCH   4   5
ATOM      5  C   UNL     1      13.704  11.621  17.162  1.00  0.00     0.000 C 
BRANCH   5   6
ATOM      6  C   UNL     1      12.250  12.090  17.296  1.00  0.00     0.000 C 
BRANCH   6   7
ATOM      7  C   UNL     1      11.312  10.904  17.569  1.00  0.00     0.000 C 
BRANCH   7   8
ATOM      8  C   UNL     1       9.977  11.022  16.818  1.00  0.00     0.000 C 
BRANCH   8   9
ATOM      9  C   UNL     1       9.259  12.354  17.095  1.00  0.00     0.000 C 
BRANCH   9  10
ATOM     10  C   UNL     1       8.399  12.832  15.910  1.00  0.00     0.006 C 
BRANCH  10  11
ATOM     11  C   UNL     1       9.164  12.905  14.576  1.00  0.00     0.053 C 
BRANCH  11  12
ATOM     12  C   UNL     1       8.948  11.695  13.718  1.00  0.00     0.041 C 
ATOM     13  O   UNL     1       9.690  11.480  12.723  1.00  0.00    -0.550 OA
ATOM     14  O   UNL     1       7.947  10.786  14.037  1.00  0.00    -0.550 OA
ENDBRANCH  11  12
ENDBRANCH  10  11
ENDBRANCH   9  10
ENDBRANCH   8   9
ENDBRANCH   7   8
ENDBRANCH   6   7
ENDBRANCH   5   6
ENDBRANCH   4   5
ENDBRANCH   3   4
ENDBRANCH   2   3
ENDBRANCH   1   2
BRANCH   1  15
ATOM     15  C   UNL     1      14.711  16.628  18.271  1.00  0.00     0.000 C 
BRANCH  15  16
ATOM     16  C   UNL     1      16.159  17.145  18.239  1.00  0.00     0.000 C 
BRANCH  16  17
ATOM     17  C   UNL     1      16.255  18.655  18.515  1.00  0.00     0.000 C 
BRANCH  17  18
ATOM     18  C   UNL     1      16.757  18.973  19.936  1.00  0.00    -0.000 C 
BRANCH  18  19
ATOM     19  C   UNL     1      16.876  20.473  20.261  1.00  0.00    -0.000 C 
BRANCH  19  20
ATOM     20  C   UNL     1      16.916  21.361  19.005  1.00  0.00    -0.000 C 
BRANCH  20  21
ATOM     21  C   UNL     1      15.554  22.027  18.711  1.00  0.00    -0.000 C 
BRANCH  21  22
ATOM     22  C   UNL     1      15.073  21.850  17.258  1.00  0.00    -0.000 C 
BRANCH  22  23
ATOM     23  C   UNL     1      16.140  22.121  16.183  1.00  0.00    -0.000 C 
BRANCH  23  24
ATOM     24  C   UNL     1      15.984  21.222  14.948  1.00  0.00    -0.000 C 
BRANCH  24  25
ATOM     25  C   UNL     1      14.532  20.757  14.789  1.00  0.00    -0.003 C 
ATOM     26  C   UNL     1      14.320  19.382  15.415  1.00  0.00     0.004 C 
ENDBRANCH  24  25
ENDBRANCH  23  24
ENDBRANCH  22  23
ENDBRANCH  21  22
ENDBRANCH  20  21
ENDBRANCH  19  20
ENDBRANCH  18  19
ENDBRANCH  17  18
ENDBRANCH  16  17
ENDBRANCH  15  16
ENDBRANCH   1  15
TORSDOF 22
ENDMDL
MODEL 3
REMARK VINA RESULT:    18.027      3.498     10.003
REMARK INTER + INTRA:          40.230
REMARK INTER:                  41.635
REMARK INTRA:                  -1.404
REMARK UNBOUND:                -0.981
REMARK SMILES CCCCCCCCCCCCCCCCCCCCCCCC(=O)[O-]
REMARK SMILES IDX 13 1 14 2 15 3 16 4 17 5 18 6 19 7 20 8 21 9 22 10 23 11
REMARK SMILES IDX 24 12 25 13 26 14 12 15 11 16 10 17 9 18 8 19 7 20 6 21 5 22
REMARK SMILES IDX 4 23 3 24 2 25 1 26
REMARK H PARENT
REMARK Flexibility Score: inf
ROOT
ATOM      1  C   UNL     1      14.147  16.394  17.318  1.00  0.00     0.000 C 
ENDROOT
BRANCH   1   2
ATOM      2  C   UNL     1      14.415  14.900  17.562  1.00  0.00     0.000 C 
BRANCH   2   3
ATOM      3  C   UNL     1      14.142  14.036  16.319  1.00  0.00     0.000 C 
BRANCH   3   4
ATOM      4  C   UNL     1      14.464  12.551  16.553  1.00  0.00     0.000 C 
BRANCH   4   5
ATOM      5  C   UNL     1      13.804  11.997  17.825  1.00  0.00     0.000 C 
BRANCH   5   6
ATOM      6  C   UNL     1      12.468  11.316  17.500  1.00  0.00     0.000 C 
BRANCH   6   7
ATOM      7  C   UNL     1      11.285  12.170  17.982  1.00  0.00     0.000 C 
BRANCH   7   8
ATOM      8  C   UNL     1      10.400  12.659  16.825  1.00  0.00     0.000 C 
BRANCH   8   9
ATOM      9  C   UNL     1       8.914  12.745  17.212  1.00  0.00     0.000 C 
BRANCH   9  10
ATOM     10  C   UNL     1       7.981  12.860  15.992  1.00  0.00     0.006 C 
BRANCH  10  11
ATOM     11  C   UNL     1       8.721  12.901  14.643  1.00  0.00     0.053 C 
BRANCH  11  12
ATOM     12  C   UNL     1       8.953  11.537  14.068  1.00  0.00     0.041 C 
ATOM     13  O   UNL     1       9.146  11.392  12.832  1.00  0.00    -0.550 OA
ATOM     14  O   UNL     1       8.990  10.427  14.903  1.00  0.00    -0.550 OA
ENDBRANCH  11  12
ENDBRANCH  10  11
ENDBRANCH   9  10
ENDBRANCH   8   9
ENDBRANCH   7   8
ENDBRANCH   6   7
ENDBRANCH   5   6
ENDBRANCH   4   5
ENDBRANCH   3   4
ENDBRANCH   2   3
ENDBRANCH   1   2
BRANCH   1  15
ATOM     15  C   UNL     1      13.257  16.647  16.089  1.00  0.00     0.000 C 
BRANCH  15  16
ATOM     16  C   UNL     1      13.105  18.144  15.772  1.00  0.00     0.000 C 
BRANCH  16  17
ATOM     17  C   UNL     1      14.458  18.844  15.553  1.00  0.00     0.000 C 
BRANCH  17  18
ATOM     18  C   UNL     1      14.329  20.374  15.444  1.00  0.00    -0.000 C 
BRANCH  18  19
ATOM     19  C   UNL     1      15.664  21.141  15.471  1.00  0.00    -0.000 C 
BRANCH  19  20
ATOM     20  C   UNL     1      15.636  22.368  16.399  1.00  0.00    -0.000 C 
BRANCH  20  21
ATOM     21  C   UNL     1      15.463  21.980  17.884  1.00  0.00    -0.000 C 
BRANCH  21  22
ATOM     22  C   UNL     1      16.755  21.468  18.550  1.00  0.00    -0.000 C 
BRANCH  22  23
ATOM     23  C   UNL     1      16.565  20.849  19.945  1.00  0.00    -0.000 C 
BRANCH  23  24
ATOM     24  C   UNL     1      16.901  19.351  19.984  1.00  0.00    -0.000 C 
BRANCH  24  25
ATOM     25  C   UNL     1      16.177  18.599  18.862  1.00  0.00    -0.003 C 
ATOM     26  C   UNL     1      17.004  17.415  18.368  1.00  0.00     0.004 C 
ENDBRANCH  24  25
ENDBRANCH  23  24
ENDBRANCH  22  23
ENDBRANCH  21  22
ENDBRANCH  20  21
ENDBRANCH  19  20
ENDBRANCH  18  19
ENDBRANCH  17  18
ENDBRANCH  16  17
ENDBRANCH  15  16
ENDBRANCH   1  15
TORSDOF 22
ENDMDL
MODEL 4
REMARK VINA RESULT:    18.607      4.445     10.255
REMARK INTER + INTRA:          41.557
REMARK INTER:                  42.842
REMARK INTRA:                  -1.285
REMARK UNBOUND:                -0.981
REMARK SMILES CCCCCCCCCCCCCCCCCCCCCCCC(=O)[O-]
REMARK SMILES IDX 13 1 14 2 15 3 16 4 17 5 18 6 19 7 20 8 21 9 22 10 23 11
REMARK SMILES IDX 24 12 25 13 26 14 12 15 11 16 10 17 9 18 8 19 7 20 6 21 5 22
REMARK SMILES IDX 4 23 3 24 2 25 1 26
REMARK H PARENT
REMARK Flexibility Score: inf
ROOT
ATOM      1  C   UNL     1      14.173  14.106  16.619  1.00  0.00     0.000 C 
ENDROOT
BRANCH   1   2
ATOM      2  C   UNL     1      13.478  12.825  17.106  1.00  0.00     0.000 C 
BRANCH   2   3
ATOM      3  C   UNL     1      14.377  11.581  16.994  1.00  0.00     0.000 C 
BRANCH   3   4
ATOM      4  C   UNL     1      15.233  11.588  15.718  1.00  0.00     0.000 C 
BRANCH   4   5
ATOM      5  C   UNL     1      16.187  10.385  15.640  1.00  0.00     0.000 C 
BRANCH   5   6
ATOM      6  C   UNL     1      15.908   9.542  14.389  1.00  0.00     0.000 C 
BRANCH   6   7
ATOM      7  C   UNL     1      16.745  10.032  13.198  1.00  0.00     0.000 C 
BRANCH   7   8
ATOM      8  C   UNL     1      16.172   9.575  11.847  1.00  0.00     0.000 C 
BRANCH   8   9
ATOM      9  C   UNL     1      17.093   9.926  10.665  1.00  0.00     0.000 C 
BRANCH   9  10
ATOM     10  C   UNL     1      16.719  11.257   9.986  1.00  0.00     0.006 C 
BRANCH  10  11
ATOM     11  C   UNL     1      17.411  12.486  10.601  1.00  0.00     0.053 C 
BRANCH  11  12
ATOM     12  C   UNL     1      17.051  13.763   9.903  1.00  0.00     0.041 C 
ATOM     13  O   UNL     1      17.951  14.570   9.549  1.00  0.00    -0.550 OA
ATOM     14  O   UNL     1      15.722  14.047   9.612  1.00  0.00    -0.550 OA
ENDBRANCH  11  12
ENDBRANCH  10  11
ENDBRANCH   9  10
ENDBRANCH   8   9
ENDBRANCH   7   8
ENDBRANCH   6   7
ENDBRANCH   5   6
ENDBRANCH   4   5
ENDBRANCH   3   4
ENDBRANCH   2   3
ENDBRANCH   1   2
BRANCH   1  15
ATOM     15  C   UNL     1      14.602  15.028  17.773  1.00  0.00     0.000 C 
BRANCH  15  16
ATOM     16  C   UNL     1      14.486  16.518  17.410  1.00  0.00     0.000 C 
BRANCH  16  17
ATOM     17  C   UNL     1      13.545  16.766  16.218  1.00  0.00     0.000 C 
BRANCH  17  18
ATOM     18  C   UNL     1      13.304  18.263  15.948  1.00  0.00    -0.000 C 
BRANCH  18  19
ATOM     19  C   UNL     1      14.537  19.039  15.452  1.00  0.00    -0.000 C 
BRANCH  19  20
ATOM     20  C   UNL     1      14.260  20.537  15.237  1.00  0.00    -0.000 C 
BRANCH  20  21
ATOM     21  C   UNL     1      15.512  21.409  15.481  1.00  0.00    -0.000 C 
BRANCH  21  22
ATOM     22  C   UNL     1      15.552  22.067  16.874  1.00  0.00    -0.000 C 
BRANCH  22  23
ATOM     23  C   UNL     1      16.537  21.428  17.867  1.00  0.00    -0.000 C 
BRANCH  23  24
ATOM     24  C   UNL     1      15.993  21.382  19.302  1.00  0.00    -0.000 C 
BRANCH  24  25
ATOM     25  C   UNL     1      16.716  20.311  20.128  1.00  0.00    -0.003 C 
ATOM     26  C   UNL     1      16.573  18.932  19.489  1.00  0.00     0.004 C 
ENDBRANCH  24  25
ENDBRANCH  23  24
ENDBRANCH  22  23
ENDBRANCH  21  22
ENDBRANCH  20  21
ENDBRANCH  19  20
ENDBRANCH  18  19
ENDBRANCH  17  18
ENDBRANCH  16  17
ENDBRANCH  15  16
ENDBRANCH   1  15
TORSDOF 22
ENDMDL
MODEL 5
REMARK VINA RESULT:    18.711      4.555     10.328
REMARK INTER + INTRA:          41.795
REMARK INTER:                  42.767
REMARK INTRA:                  -0.972
REMARK UNBOUND:                -0.981
REMARK SMILES CCCCCCCCCCCCCCCCCCCCCCCC(=O)[O-]
REMARK SMILES IDX 13 1 14 2 15 3 16 4 17 5 18 6 19 7 20 8 21 9 22 10 23 11
REMARK SMILES IDX 24 12 25 13 26 14 12 15 11 16 10 17 9 18 8 19 7 20 6 21 5 22
REMARK SMILES IDX 4 23 3 24 2 25 1 26
REMARK H PARENT
REMARK Flexibility Score: inf
ROOT
ATOM      1  C   UNL     1      13.165  13.076  17.130  1.00  0.00     0.000 C 
ENDROOT
BRANCH   1   2
ATOM      2  C   UNL     1      14.246  12.002  17.328  1.00  0.00     0.000 C 
BRANCH   2   3
ATOM      3  C   UNL     1      15.124  11.805  16.080  1.00  0.00     0.000 C 
BRANCH   3   4
ATOM      4  C   UNL     1      15.848  10.449  16.079  1.00  0.00     0.000 C 
BRANCH   4   5
ATOM      5  C   UNL     1      16.534  10.146  14.737  1.00  0.00     0.000 C 
BRANCH   5   6
ATOM      6  C   UNL     1      16.028   8.824  14.146  1.00  0.00     0.000 C 
BRANCH   6   7
ATOM      7  C   UNL     1      15.739   8.969  12.644  1.00  0.00     0.000 C 
BRANCH   7   8
ATOM      8  C   UNL     1      16.808   9.797  11.914  1.00  0.00     0.000 C 
BRANCH   8   9
ATOM      9  C   UNL     1      16.623   9.788  10.387  1.00  0.00     0.000 C 
BRANCH   9  10
ATOM     10  C   UNL     1      16.908  11.155   9.738  1.00  0.00     0.006 C 
BRANCH  10  11
ATOM     11  C   UNL     1      16.806  12.341  10.714  1.00  0.00     0.053 C 
BRANCH  11  12
ATOM     12  C   UNL     1      16.838  13.668  10.017  1.00  0.00     0.041 C 
ATOM     13  O   UNL     1      15.765  14.266   9.738  1.00  0.00    -0.550 OA
ATOM     14  O   UNL     1      18.055  14.261   9.704  1.00  0.00    -0.550 OA
ENDBRANCH  11  12
ENDBRANCH  10  11
ENDBRANCH   9  10
ENDBRANCH   8   9
ENDBRANCH   7   8
ENDBRANCH   6   7
ENDBRANCH   5   6
ENDBRANCH   4   5
ENDBRANCH   3   4
ENDBRANCH   2   3
ENDBRANCH   1   2
BRANCH   1  15
ATOM     15  C   UNL     1      13.745  14.437  16.709  1.00  0.00     0.000 C 
BRANCH  15  16
ATOM     16  C   UNL     1      14.657  15.046  17.787  1.00  0.00     0.000 C 
BRANCH  16  17
ATOM     17  C   UNL     1      14.864  16.560  17.602  1.00  0.00     0.000 C 
BRANCH  17  18
ATOM     18  C   UNL     1      16.148  17.075  18.280  1.00  0.00    -0.000 C 
BRANCH  18  19
ATOM     19  C   UNL     1      16.200  18.598  18.496  1.00  0.00    -0.000 C 
BRANCH  19  20
ATOM     20  C   UNL     1      16.864  18.997  19.825  1.00  0.00    -0.000 C 
BRANCH  20  21
ATOM     21  C   UNL     1      16.856  20.524  20.053  1.00  0.00    -0.000 C 
BRANCH  21  22
ATOM     22  C   UNL     1      16.828  21.350  18.753  1.00  0.00    -0.000 C 
BRANCH  22  23
ATOM     23  C   UNL     1      15.423  21.723  18.251  1.00  0.00    -0.000 C 
BRANCH  23  24
ATOM     24  C   UNL     1      15.435  22.331  16.841  1.00  0.00    -0.000 C 
BRANCH  24  25
ATOM     25  C   UNL     1      15.329  21.236  15.772  1.00  0.00    -0.003 C 
ATOM     26  C   UNL     1      16.299  21.493  14.622  1.00  0.00     0.004 C 
ENDBRANCH  24  25
ENDBRANCH  23  24
ENDBRANCH  22  23
ENDBRANCH  21  22
ENDBRANCH  20  21
ENDBRANCH  19  20
ENDBRANCH  18  19
ENDBRANCH  17  18
ENDBRANCH  16  17
ENDBRANCH  15  16
ENDBRANCH   1  15
TORSDOF 22
ENDMDL
MODEL 6
REMARK VINA RESULT:    18.833      1.846      3.288
REMARK INTER + INTRA:          42.074
REMARK INTER:                  43.178
REMARK INTRA:                  -1.104
REMARK UNBOUND:                -0.981
REMARK SMILES CCCCCCCCCCCCCCCCCCCCCCCC(=O)[O-]
REMARK SMILES IDX 13 1 14 2 15 3 16 4 17 5 18 6 19 7 20 8 21 9 22 10 23 11
REMARK SMILES IDX 24 12 25 13 26 14 12 15 11 16 10 17 9 18 8 19 7 20 6 21 5 22
REMARK SMILES IDX 4 23 3 24 2 25 1 26
REMARK H PARENT
REMARK Flexibility Score: inf
ROOT
ATOM      1  C   UNL     1      15.012  15.019  17.343  1.00  0.00     0.000 C 
ENDROOT
BRANCH   1   2
ATOM      2  C   UNL     1      14.678  16.514  17.474  1.00  0.00     0.000 C 
BRANCH   2   3
ATOM      3  C   UNL     1      15.227  17.134  18.771  1.00  0.00     0.000 C 
BRANCH   3   4
ATOM      4  C   UNL     1      16.122  18.355  18.506  1.00  0.00     0.000 C 
BRANCH   4   5
ATOM      5  C   UNL     1      17.117  18.617  19.647  1.00  0.00     0.000 C 
BRANCH   5   6
ATOM      6  C   UNL     1      16.520  19.571  20.690  1.00  0.00     0.000 C 
BRANCH   6   7
ATOM      7  C   UNL     1      16.181  20.931  20.061  1.00  0.00     0.000 C 
BRANCH   7   8
ATOM      8  C   UNL     1      17.368  21.539  19.295  1.00  0.00     0.000 C 
BRANCH   8   9
ATOM      9  C   UNL     1      17.084  21.693  17.791  1.00  0.00     0.000 C 
BRANCH   9  10
ATOM     10  C   UNL     1      15.589  21.887  17.478  1.00  0.00     0.006 C 
BRANCH  10  11
ATOM     11  C   UNL     1      15.308  22.315  16.026  1.00  0.00     0.053 C 
BRANCH  11  12
ATOM     12  C   UNL     1      15.509  21.201  15.045  1.00  0.00     0.041 C 
ATOM     13  O   UNL     1      16.387  21.294  14.146  1.00  0.00    -0.550 OA
ATOM     14  O   UNL     1      14.748  20.042  15.142  1.00  0.00    -0.550 OA
ENDBRANCH  11  12
ENDBRANCH  10  11
ENDBRANCH   9  10
ENDBRANCH   8   9
ENDBRANCH   7   8
ENDBRANCH   6   7
ENDBRANCH   5   6
ENDBRANCH   4   5
ENDBRANCH   3   4
ENDBRANCH   2   3
ENDBRANCH   1   2
BRANCH   1  15
ATOM     15  C   UNL     1      13.860  14.203  16.732  1.00  0.00     0.000 C 
BRANCH  15  16
ATOM     16  C   UNL     1      14.131  12.689  16.763  1.00  0.00     0.000 C 
BRANCH  16  17
ATOM     17  C   UNL     1      13.387  11.977  17.906  1.00  0.00     0.000 C 
BRANCH  17  18
ATOM     18  C   UNL     1      11.858  12.134  17.813  1.00  0.00    -0.000 C 
BRANCH  18  19
ATOM     19  C   UNL     1      11.126  10.962  17.132  1.00  0.00    -0.000 C 
BRANCH  19  20
ATOM     20  C   UNL     1       9.601  11.157  17.073  1.00  0.00    -0.000 C 
BRANCH  20  21
ATOM     21  C   UNL     1       9.148  12.470  17.748  1.00  0.00    -0.000 C 
BRANCH  21  22
ATOM     22  C   UNL     1       8.171  13.305  16.897  1.00  0.00    -0.000 C 
BRANCH  22  23
ATOM     23  C   UNL     1       7.960  12.794  15.462  1.00  0.00    -0.000 C 
BRANCH  23  24
ATOM     24  C   UNL     1       9.258  12.768  14.641  1.00  0.00    -0.000 C 
BRANCH  24  25
ATOM     25  C   UNL     1       9.143  11.787  13.468  1.00  0.00    -0.003 C 
ATOM     26  C   UNL     1       8.191  10.641  13.797  1.00  0.00     0.004 C 
ENDBRANCH  24  25
ENDBRANCH  23  24
ENDBRANCH  22  23
ENDBRANCH  21  22
ENDBRANCH  20  21
ENDBRANCH  19  20
ENDBRANCH  18  19
ENDBRANCH  17  18
ENDBRANCH  16  17
ENDBRANCH  15  16
ENDBRANCH   1  15
TORSDOF 22
ENDMDL
MODEL 7
REMARK VINA RESULT:    18.854      4.099      5.841
REMARK INTER + INTRA:          42.121
REMARK INTER:                  43.093
REMARK INTRA:                  -0.972
REMARK UNBOUND:                -0.981
REMARK SMILES CCCCCCCCCCCCCCCCCCCCCCCC(=O)[O-]
REMARK SMILES IDX 13 1 14 2 15 3 16 4 17 5 18 6 19 7 20 8 21 9 22 10 23 11
REMARK SMILES IDX 24 12 25 13 26 14 12 15 11 16 10 17 9 18 8 19 7 20 6 21 5 22
REMARK SMILES IDX 4 23 3 24 2 25 1 26
REMARK H PARENT
REMARK Flexibility Score: inf
ROOT
ATOM      1  C   UNL     1      13.442  13.163  17.557  1.00  0.00     0.000 C 
ENDROOT
BRANCH   1   2
ATOM      2  C   UNL     1      13.988  14.262  16.631  1.00  0.00     0.000 C 
BRANCH   2   3
ATOM      3  C   UNL     1      13.968  15.655  17.283  1.00  0.00     0.000 C 
BRANCH   3   4
ATOM      4  C   UNL     1      15.363  16.109  17.741  1.00  0.00     0.000 C 
BRANCH   4   5
ATOM      5  C   UNL     1      15.306  17.257  18.761  1.00  0.00     0.000 C 
BRANCH   5   6
ATOM      6  C   UNL     1      16.437  18.265  18.520  1.00  0.00     0.000 C 
BRANCH   6   7
ATOM      7  C   UNL     1      16.815  18.988  19.822  1.00  0.00     0.000 C 
BRANCH   7   8
ATOM      8  C   UNL     1      16.029  20.294  20.020  1.00  0.00     0.000 C 
BRANCH   8   9
ATOM      9  C   UNL     1      16.753  21.516  19.431  1.00  0.00     0.000 C 
BRANCH   9  10
ATOM     10  C   UNL     1      16.885  21.456  17.898  1.00  0.00     0.006 C 
BRANCH  10  11
ATOM     11  C   UNL     1      15.618  21.899  17.146  1.00  0.00     0.053 C 
BRANCH  11  12
ATOM     12  C   UNL     1      15.604  21.446  15.717  1.00  0.00     0.041 C 
ATOM     13  O   UNL     1      16.433  21.916  14.893  1.00  0.00    -0.550 OA
ATOM     14  O   UNL     1      14.697  20.479  15.302  1.00  0.00    -0.550 OA
ENDBRANCH  11  12
ENDBRANCH  10  11
ENDBRANCH   9  10
ENDBRANCH   8   9
ENDBRANCH   7   8
ENDBRANCH   6   7
ENDBRANCH   5   6
ENDBRANCH   4   5
ENDBRANCH   3   4
ENDBRANCH   2   3
ENDBRANCH   1   2
BRANCH   1  15
ATOM     15  C   UNL     1      13.829  11.748  17.097  1.00  0.00     0.000 C 
BRANCH  15  16
ATOM     16  C   UNL     1      14.974  11.756  16.071  1.00  0.00     0.000 C 
BRANCH  16  17
ATOM     17  C   UNL     1      15.878  10.516  16.181  1.00  0.00     0.000 C 
BRANCH  17  18
ATOM     18  C   UNL     1      16.533  10.132  14.841  1.00  0.00    -0.000 C 
BRANCH  18  19
ATOM     19  C   UNL     1      15.992   8.839  14.202  1.00  0.00    -0.000 C 
BRANCH  19  20
ATOM     20  C   UNL     1      15.782   8.960  12.683  1.00  0.00    -0.000 C 
BRANCH  20  21
ATOM     21  C   UNL     1      16.921   9.741  11.991  1.00  0.00    -0.000 C 
BRANCH  21  22
ATOM     22  C   UNL     1      16.668  10.023  10.498  1.00  0.00    -0.000 C 
BRANCH  22  23
ATOM     23  C   UNL     1      17.079  11.428  10.024  1.00  0.00    -0.000 C 
BRANCH  23  24
ATOM     24  C   UNL     1      15.918  12.207   9.390  1.00  0.00    -0.000 C 
BRANCH  24  25
ATOM     25  C   UNL     1      16.063  13.712   9.649  1.00  0.00    -0.003 C 
ATOM     26  C   UNL     1      17.396  14.030  10.321  1.00  0.00     0.004 C 
ENDBRANCH  24  25
ENDBRANCH  23  24
ENDBRANCH  22  23
ENDBRANCH  21  22
ENDBRANCH  20  21
ENDBRANCH  19  20
ENDBRANCH  18  19
ENDBRANCH  17  18
ENDBRANCH  16  17
ENDBRANCH  15  16
ENDBRANCH   1  15
TORSDOF 22
ENDMDL
MODEL 8
REMARK VINA RESULT:    18.927      4.845      9.874
REMARK INTER + INTRA:          42.289
REMARK INTER:                  43.328
REMARK INTRA:                  -1.039
REMARK UNBOUND:                -0.981
REMARK SMILES CCCCCCCCCCCCCCCCCCCCCCCC(=O)[O-]
REMARK SMILES IDX 13 1 14 2 15 3 16 4 17 5 18 6 19 7 20 8 21 9 22 10 23 11
REMARK SMILES IDX 24 12 25 13 26 14 12 15 11 16 10 17 9 18 8 19 7 20 6 21 5 22
REMARK SMILES IDX 4 23 3 24 2 25 1 26
REMARK H PARENT
REMARK Flexibility Score: inf
ROOT
ATOM      1  C   UNL     1      15.181  11.521  16.777  1.00  0.00     0.000 C 
ENDROOT
BRANCH   1   2
ATOM      2  C   UNL     1      15.431  11.095  15.322  1.00  0.00     0.000 C 
BRANCH   2   3
ATOM      3  C   UNL     1      16.581  10.081  15.188  1.00  0.00     0.000 C 
BRANCH   3   4
ATOM      4  C   UNL     1      16.147   8.792  14.470  1.00  0.00     0.000 C 
BRANCH   4   5
ATOM      5  C   UNL     1      15.746   9.037  13.007  1.00  0.00     0.000 C 
BRANCH   5   6
ATOM      6  C   UNL     1      16.840   9.807  12.257  1.00  0.00     0.000 C 
BRANCH   6   7
ATOM      7  C   UNL     1      17.110   9.177  10.882  1.00  0.00     0.000 C 
BRANCH   7   8
ATOM      8  C   UNL     1      16.492   9.986   9.731  1.00  0.00     0.000 C 
BRANCH   8   9
ATOM      9  C   UNL     1      16.758  11.496   9.860  1.00  0.00     0.000 C 
BRANCH   9  10
ATOM     10  C   UNL     1      15.619  12.359   9.285  1.00  0.00     0.006 C 
BRANCH  10  11
ATOM     11  C   UNL     1      15.826  13.872   9.479  1.00  0.00     0.053 C 
BRANCH  11  12
ATOM     12  C   UNL     1      17.078  14.193  10.237  1.00  0.00     0.041 C 
ATOM     13  O   UNL     1      18.192  14.208   9.648  1.00  0.00    -0.550 OA
ATOM     14  O   UNL     1      17.014  14.506  11.589  1.00  0.00    -0.550 OA
ENDBRANCH  11  12
ENDBRANCH  10  11
ENDBRANCH   9  10
ENDBRANCH   8   9
ENDBRANCH   7   8
ENDBRANCH   6   7
ENDBRANCH   5   6
ENDBRANCH   4   5
ENDBRANCH   3   4
ENDBRANCH   2   3
ENDBRANCH   1   2
BRANCH   1  15
ATOM     15  C   UNL     1      13.692  11.496  17.159  1.00  0.00     0.000 C 
BRANCH  15  16
ATOM     16  C   UNL     1      13.129  12.901  17.428  1.00  0.00     0.000 C 
BRANCH  16  17
ATOM     17  C   UNL     1      13.917  14.004  16.699  1.00  0.00     0.000 C 
BRANCH  17  18
ATOM     18  C   UNL     1      14.527  15.040  17.662  1.00  0.00    -0.000 C 
BRANCH  18  19
ATOM     19  C   UNL     1      14.290  16.509  17.268  1.00  0.00    -0.000 C 
BRANCH  19  20
ATOM     20  C   UNL     1      13.322  16.667  16.082  1.00  0.00    -0.000 C 
BRANCH  20  21
ATOM     21  C   UNL     1      13.142  18.142  15.661  1.00  0.00    -0.000 C 
BRANCH  21  22
ATOM     22  C   UNL     1      14.363  19.032  15.964  1.00  0.00    -0.000 C 
BRANCH  22  23
ATOM     23  C   UNL     1      14.288  20.455  15.385  1.00  0.00    -0.000 C 
BRANCH  23  24
ATOM     24  C   UNL     1      14.675  21.535  16.406  1.00  0.00    -0.000 C 
BRANCH  24  25
ATOM     25  C   UNL     1      16.065  22.104  16.101  1.00  0.00    -0.003 C 
ATOM     26  C   UNL     1      16.491  21.784  14.671  1.00  0.00     0.004 C 
ENDBRANCH  24  25
ENDBRANCH  23  24
ENDBRANCH  22  23
ENDBRANCH  21  22
ENDBRANCH  20  21
ENDBRANCH  19  20
ENDBRANCH  18  19
ENDBRANCH  17  18
ENDBRANCH  16  17
ENDBRANCH  15  16
ENDBRANCH   1  15
TORSDOF 22
ENDMDL
