MODEL 1
REMARK VINA RESULT:    -6.375      0.000      0.000
REMARK INTER + INTRA:         -10.350
REMARK INTER:                  -9.170
REMARK INTRA:                  -1.181
REMARK UNBOUND:                -1.181
REMARK SMILES O=c1cc(-c2ccc(O)c(O)c2)oc2cc(O[C@H]3O[C@H](CO)[C@H](O)[C@H](O)[C@H]3O)cc(O)c12
REMARK SMILES IDX 17 1 16 2 4 3 3 4 13 5 2 6 14 7 1 8 32 9 15 10 30 11 29 12
REMARK SMILES IDX 5 13 6 14 7 15 8 16 12 17 10 18 9 19 11 21 31 23 18 25 27 26
REMARK SMILES IDX 19 27 25 28 20 29 23 30 28 31 26 33 21 35 22 36 24 38
REMARK H PARENT 9 20 11 22 31 24 28 32 26 34 22 37 24 39
REMARK Flexibility Score: inf
ROOT
ATOM      1  O   UNL     1      -5.953  91.293 -14.130  1.00  0.00    -0.462 OA
ENDROOT
BRANCH   1   2
ATOM      2  C   UNL     1      -6.578  90.454 -13.190  1.00  0.00     0.130 A 
ATOM      3  C   UNL     1      -6.456  86.730 -10.230  1.00  0.00     0.138 A 
ATOM      4  C   UNL     1      -7.646  87.106  -9.595  1.00  0.00     0.100 A 
ATOM      5  O   UNL     1      -5.968  87.454 -11.229  1.00  0.00    -0.456 OA
ATOM      6  C   UNL     1      -8.334  88.230 -10.048  1.00  0.00     0.197 A 
ATOM      7  C   UNL     1      -6.572  88.546 -11.684  1.00  0.00     0.146 A 
ATOM      8  O   UNL     1      -9.405  88.567  -9.471  1.00  0.00    -0.289 OA
ATOM      9  C   UNL     1      -7.809  88.968 -11.133  1.00  0.00     0.107 A 
ATOM     10  C   UNL     1      -5.961  89.292 -12.703  1.00  0.00     0.094 A 
ATOM     11  C   UNL     1      -8.442  90.119 -11.652  1.00  0.00     0.134 A 
ATOM     12  C   UNL     1      -7.833  90.826 -12.701  1.00  0.00     0.093 A 
BRANCH   3  13
ATOM     13  C   UNL     1      -5.749  85.511  -9.811  1.00  0.00     0.021 A 
ATOM     14  C   UNL     1      -6.303  84.249 -10.063  1.00  0.00     0.016 A 
ATOM     15  C   UNL     1      -5.642  83.098  -9.631  1.00  0.00     0.051 A 
ATOM     16  C   UNL     1      -4.398  83.193  -8.991  1.00  0.00     0.157 A 
ATOM     17  C   UNL     1      -4.502  85.613  -9.174  1.00  0.00     0.062 A 
ATOM     18  C   UNL     1      -3.816  84.457  -8.780  1.00  0.00     0.158 A 
BRANCH  16  19
ATOM     19  O   UNL     1      -3.754  82.038  -8.550  1.00  0.00    -0.504 OA
ATOM     20  H   UNL     1      -3.239  82.041  -7.682  1.00  0.00     0.293 HD
ENDBRANCH  16  19
BRANCH  18  21
ATOM     21  O   UNL     1      -2.558  84.591  -8.203  1.00  0.00    -0.504 OA
ATOM     22  H   UNL     1      -2.368  84.310  -7.251  1.00  0.00     0.293 HD
ENDBRANCH  18  21
ENDBRANCH   3  13
BRANCH  11  23
ATOM     23  O   UNL     1      -9.660  90.564 -11.133  1.00  0.00    -0.507 OA
ATOM     24  H   UNL     1      -9.734  90.916 -10.181  1.00  0.00     0.293 HD
ENDBRANCH  11  23
ENDBRANCH   1   2
BRANCH   1  25
ATOM     25  C   UNL     1      -5.690  90.995 -15.515  1.00  0.00     0.339 C 
ATOM     26  C   UNL     1      -4.123  90.802 -15.749  1.00  0.00     0.214 C 
ATOM     27  O   UNL     1      -6.374  92.008 -16.259  1.00  0.00    -0.332 OA
ATOM     28  C   UNL     1      -3.491  91.492 -17.001  1.00  0.00     0.180 C 
ATOM     29  C   UNL     1      -5.794  92.417 -17.482  1.00  0.00     0.179 C 
ATOM     30  C   UNL     1      -4.300  92.752 -17.301  1.00  0.00     0.177 C 
BRANCH  26  31
ATOM     31  O   UNL     1      -3.396  91.183 -14.613  1.00  0.00    -0.384 OA
ATOM     32  H   UNL     1      -2.549  90.672 -14.641  1.00  0.00     0.211 HD
ENDBRANCH  26  31
BRANCH  28  33
ATOM     33  O   UNL     1      -3.414  90.670 -18.152  1.00  0.00    -0.387 OA
ATOM     34  H   UNL     1      -2.992  91.187 -18.889  1.00  0.00     0.211 HD
ENDBRANCH  28  33
BRANCH  29  35
ATOM     35  C   UNL     1      -6.139  91.439 -18.625  1.00  0.00     0.191 C 
BRANCH  35  36
ATOM     36  O   UNL     1      -5.663  91.932 -19.848  1.00  0.00    -0.394 OA
ATOM     37  H   UNL     1      -4.961  91.294 -20.161  1.00  0.00     0.210 HD
ENDBRANCH  35  36
ENDBRANCH  29  35
BRANCH  30  38
ATOM     38  O   UNL     1      -3.784  93.500 -18.374  1.00  0.00    -0.387 OA
ATOM     39  H   UNL     1      -4.063  94.451 -18.260  1.00  0.00     0.211 HD
ENDBRANCH  30  38
ENDBRANCH   1  25
TORSDOF 11
ENDMDL
MODEL 2
REMARK VINA RESULT:    -6.244      4.291      6.963
REMARK INTER + INTRA:         -10.162
REMARK INTER:                  -9.014
REMARK INTRA:                  -1.149
REMARK UNBOUND:                -1.181
REMARK SMILES O=c1cc(-c2ccc(O)c(O)c2)oc2cc(O[C@H]3O[C@H](CO)[C@H](O)[C@H](O)[C@H]3O)cc(O)c12
REMARK SMILES IDX 17 1 16 2 4 3 3 4 13 5 2 6 14 7 1 8 32 9 15 10 30 11 29 12
REMARK SMILES IDX 5 13 6 14 7 15 8 16 12 17 10 18 9 19 11 21 31 23 18 25 27 26
REMARK SMILES IDX 19 27 25 28 20 29 23 30 28 31 26 33 21 35 22 36 24 38
REMARK H PARENT 9 20 11 22 31 24 28 32 26 34 22 37 24 39
REMARK Flexibility Score: inf
ROOT
ATOM      1  O   UNL     1      -3.953  93.499 -17.223  1.00  0.00    -0.462 OA
ENDROOT
BRANCH   1   2
ATOM      2  C   UNL     1      -4.521  92.646 -16.260  1.00  0.00     0.130 A 
ATOM      3  C   UNL     1      -8.329  90.804 -14.081  1.00  0.00     0.138 A 
ATOM      4  C   UNL     1      -7.579  89.790 -13.474  1.00  0.00     0.100 A 
ATOM      5  O   UNL     1      -7.742  91.700 -14.862  1.00  0.00    -0.456 OA
ATOM      6  C   UNL     1      -6.201  89.751 -13.670  1.00  0.00     0.197 A 
ATOM      7  C   UNL     1      -6.435  91.697 -15.100  1.00  0.00     0.146 A 
ATOM      8  O   UNL     1      -5.528  88.833 -13.124  1.00  0.00    -0.289 OA
ATOM      9  C   UNL     1      -5.593  90.735 -14.483  1.00  0.00     0.107 A 
ATOM     10  C   UNL     1      -5.897  92.641 -15.987  1.00  0.00     0.094 A 
ATOM     11  C   UNL     1      -4.203  90.768 -14.735  1.00  0.00     0.134 A 
ATOM     12  C   UNL     1      -3.682  91.749 -15.592  1.00  0.00     0.093 A 
BRANCH   3  13
ATOM     13  C   UNL     1      -9.776  90.901 -13.835  1.00  0.00     0.021 A 
ATOM     14  C   UNL     1     -10.365  92.142 -13.557  1.00  0.00     0.016 A 
ATOM     15  C   UNL     1     -11.732  92.221 -13.290  1.00  0.00     0.051 A 
ATOM     16  C   UNL     1     -12.533  91.071 -13.349  1.00  0.00     0.157 A 
ATOM     17  C   UNL     1     -10.572  89.748 -13.899  1.00  0.00     0.062 A 
ATOM     18  C   UNL     1     -11.953  89.831 -13.676  1.00  0.00     0.158 A 
BRANCH  16  19
ATOM     19  O   UNL     1     -13.896  91.158 -13.066  1.00  0.00    -0.504 OA
ATOM     20  H   UNL     1     -14.579  90.973 -13.785  1.00  0.00     0.293 HD
ENDBRANCH  16  19
BRANCH  18  21
ATOM     21  O   UNL     1     -12.721  88.680 -13.803  1.00  0.00    -0.504 OA
ATOM     22  H   UNL     1     -13.658  88.612 -13.432  1.00  0.00     0.293 HD
ENDBRANCH  18  21
ENDBRANCH   3  13
BRANCH  11  23
ATOM     23  O   UNL     1      -3.345  89.836 -14.146  1.00  0.00    -0.507 OA
ATOM     24  H   UNL     1      -3.339  88.862 -14.437  1.00  0.00     0.293 HD
ENDBRANCH  11  23
ENDBRANCH   1   2
BRANCH   1  25
ATOM     25  C   UNL     1      -3.169  93.109 -18.367  1.00  0.00     0.339 C 
ATOM     26  C   UNL     1      -2.881  94.374 -19.296  1.00  0.00     0.214 C 
ATOM     27  O   UNL     1      -3.853  91.986 -18.933  1.00  0.00    -0.332 OA
ATOM     28  C   UNL     1      -3.059  94.194 -20.837  1.00  0.00     0.180 C 
ATOM     29  C   UNL     1      -3.782  91.824 -20.337  1.00  0.00     0.179 C 
ATOM     30  C   UNL     1      -4.137  93.135 -21.064  1.00  0.00     0.177 C 
BRANCH  26  31
ATOM     31  O   UNL     1      -3.636  95.481 -18.884  1.00  0.00    -0.384 OA
ATOM     32  H   UNL     1      -3.978  95.264 -17.981  1.00  0.00     0.211 HD
ENDBRANCH  26  31
BRANCH  28  33
ATOM     33  O   UNL     1      -1.875  93.848 -21.533  1.00  0.00    -0.387 OA
ATOM     34  H   UNL     1      -1.142  93.716 -20.876  1.00  0.00     0.211 HD
ENDBRANCH  28  33
BRANCH  29  35
ATOM     35  C   UNL     1      -2.461  91.146 -20.759  1.00  0.00     0.191 C 
BRANCH  35  36
ATOM     36  O   UNL     1      -2.391  91.045 -22.156  1.00  0.00    -0.394 OA
ATOM     37  H   UNL     1      -3.330  90.935 -22.482  1.00  0.00     0.210 HD
ENDBRANCH  35  36
ENDBRANCH  29  35
BRANCH  30  38
ATOM     38  O   UNL     1      -4.437  92.931 -22.422  1.00  0.00    -0.387 OA
ATOM     39  H   UNL     1      -3.712  92.377 -22.827  1.00  0.00     0.211 HD
ENDBRANCH  30  38
ENDBRANCH   1  25
TORSDOF 11
ENDMDL
MODEL 3
REMARK VINA RESULT:    -6.139      1.975      8.841
REMARK INTER + INTRA:         -10.012
REMARK INTER:                  -8.822
REMARK INTRA:                  -1.189
REMARK UNBOUND:                -1.181
REMARK SMILES O=c1cc(-c2ccc(O)c(O)c2)oc2cc(O[C@H]3O[C@H](CO)[C@H](O)[C@H](O)[C@H]3O)cc(O)c12
REMARK SMILES IDX 17 1 16 2 4 3 3 4 13 5 2 6 14 7 1 8 32 9 15 10 30 11 29 12
REMARK SMILES IDX 5 13 6 14 7 15 8 16 12 17 10 18 9 19 11 21 31 23 18 25 27 26
REMARK SMILES IDX 19 27 25 28 20 29 23 30 28 31 26 33 21 35 22 36 24 38
REMARK H PARENT 9 20 11 22 31 24 28 32 26 34 22 37 24 39
REMARK Flexibility Score: inf
ROOT
ATOM      1  O   UNL     1      -6.063  88.696  -7.874  1.00  0.00    -0.462 OA
ENDROOT
BRANCH   1   2
ATOM      2  C   UNL     1      -6.595  88.880  -9.162  1.00  0.00     0.130 A 
ATOM      3  C   UNL     1      -6.015  89.779 -13.798  1.00  0.00     0.138 A 
ATOM      4  C   UNL     1      -7.320  89.380 -14.112  1.00  0.00     0.100 A 
ATOM      5  O   UNL     1      -5.585  89.750 -12.544  1.00  0.00    -0.456 OA
ATOM      6  C   UNL     1      -8.176  88.984 -13.086  1.00  0.00     0.197 A 
ATOM      7  C   UNL     1      -6.352  89.361 -11.532  1.00  0.00     0.146 A 
ATOM      8  O   UNL     1      -9.350  88.621 -13.373  1.00  0.00    -0.289 OA
ATOM      9  C   UNL     1      -7.703  88.989 -11.754  1.00  0.00     0.107 A 
ATOM     10  C   UNL     1      -5.805  89.299 -10.242  1.00  0.00     0.094 A 
ATOM     11  C   UNL     1      -8.504  88.602 -10.657  1.00  0.00     0.134 A 
ATOM     12  C   UNL     1      -7.947  88.589  -9.368  1.00  0.00     0.093 A 
BRANCH   3  13
ATOM     13  C   UNL     1      -5.117  90.263 -14.857  1.00  0.00     0.021 A 
ATOM     14  C   UNL     1      -3.762  90.497 -14.585  1.00  0.00     0.016 A 
ATOM     15  C   UNL     1      -2.924  90.989 -15.586  1.00  0.00     0.051 A 
ATOM     16  C   UNL     1      -3.417  91.202 -16.882  1.00  0.00     0.157 A 
ATOM     17  C   UNL     1      -5.615  90.470 -16.152  1.00  0.00     0.062 A 
ATOM     18  C   UNL     1      -4.765  90.922 -17.171  1.00  0.00     0.158 A 
BRANCH  16  19
ATOM     19  O   UNL     1      -2.575  91.708 -17.871  1.00  0.00    -0.504 OA
ATOM     20  H   UNL     1      -2.741  92.623 -18.263  1.00  0.00     0.293 HD
ENDBRANCH  16  19
BRANCH  18  21
ATOM     21  O   UNL     1      -5.278  91.062 -18.455  1.00  0.00    -0.504 OA
ATOM     22  H   UNL     1      -4.808  90.688 -19.269  1.00  0.00     0.293 HD
ENDBRANCH  18  21
ENDBRANCH   3  13
BRANCH  11  23
ATOM     23  O   UNL     1      -9.837  88.228 -10.838  1.00  0.00    -0.507 OA
ATOM     24  H   UNL     1     -10.512  88.858 -11.265  1.00  0.00     0.293 HD
ENDBRANCH  11  23
ENDBRANCH   1   2
BRANCH   1  25
ATOM     25  C   UNL     1      -5.613  87.456  -7.293  1.00  0.00     0.339 C 
ATOM     26  C   UNL     1      -4.032  87.490  -7.078  1.00  0.00     0.214 C 
ATOM     27  O   UNL     1      -6.169  86.426  -8.117  1.00  0.00    -0.332 OA
ATOM     28  C   UNL     1      -3.219  86.223  -7.496  1.00  0.00     0.180 C 
ATOM     29  C   UNL     1      -5.416  85.238  -8.268  1.00  0.00     0.179 C 
ATOM     30  C   UNL     1      -3.958  85.553  -8.654  1.00  0.00     0.177 C 
BRANCH  26  31
ATOM     31  O   UNL     1      -3.465  88.611  -7.699  1.00  0.00    -0.384 OA
ATOM     32  H   UNL     1      -2.502  88.597  -7.474  1.00  0.00     0.211 HD
ENDBRANCH  26  31
BRANCH  28  33
ATOM     33  O   UNL     1      -2.994  85.293  -6.452  1.00  0.00    -0.387 OA
ATOM     34  H   UNL     1      -3.648  85.462  -5.723  1.00  0.00     0.211 HD
ENDBRANCH  28  33
BRANCH  29  35
ATOM     35  C   UNL     1      -5.613  84.290  -7.065  1.00  0.00     0.191 C 
BRANCH  35  36
ATOM     36  O   UNL     1      -4.913  83.093  -7.270  1.00  0.00    -0.394 OA
ATOM     37  H   UNL     1      -5.576  82.352  -7.165  1.00  0.00     0.210 HD
ENDBRANCH  35  36
ENDBRANCH  29  35
BRANCH  30  38
ATOM     38  O   UNL     1      -3.283  84.431  -9.166  1.00  0.00    -0.387 OA
ATOM     39  H   UNL     1      -2.304  84.622  -9.165  1.00  0.00     0.211 HD
ENDBRANCH  30  38
ENDBRANCH   1  25
TORSDOF 11
ENDMDL
MODEL 4
REMARK VINA RESULT:    -6.125      5.081     10.189
REMARK INTER + INTRA:          -9.992
REMARK INTER:                  -8.814
REMARK INTRA:                  -1.178
REMARK UNBOUND:                -1.181
REMARK SMILES O=c1cc(-c2ccc(O)c(O)c2)oc2cc(O[C@H]3O[C@H](CO)[C@H](O)[C@H](O)[C@H]3O)cc(O)c12
REMARK SMILES IDX 17 1 16 2 4 3 3 4 13 5 2 6 14 7 1 8 32 9 15 10 30 11 29 12
REMARK SMILES IDX 5 13 6 14 7 15 8 16 12 17 10 18 9 19 11 21 31 23 18 25 27 26
REMARK SMILES IDX 19 27 25 28 20 29 23 30 28 31 26 33 21 35 22 36 24 38
REMARK H PARENT 9 20 11 22 31 24 28 32 26 34 22 37 24 39
REMARK Flexibility Score: inf
ROOT
ATOM      1  O   UNL     1      -9.019  83.491  -9.825  1.00  0.00    -0.462 OA
ENDROOT
BRANCH   1   2
ATOM      2  C   UNL     1      -7.761  84.019  -9.486  1.00  0.00     0.130 A 
ATOM      3  C   UNL     1      -4.987  87.706  -8.324  1.00  0.00     0.138 A 
ATOM      4  C   UNL     1      -3.936  86.878  -7.912  1.00  0.00     0.100 A 
ATOM      5  O   UNL     1      -6.111  87.185  -8.796  1.00  0.00    -0.456 OA
ATOM      6  C   UNL     1      -4.070  85.496  -8.036  1.00  0.00     0.197 A 
ATOM      7  C   UNL     1      -6.299  85.875  -8.914  1.00  0.00     0.146 A 
ATOM      8  O   UNL     1      -3.122  84.752  -7.660  1.00  0.00    -0.289 OA
ATOM      9  C   UNL     1      -5.266  84.965  -8.569  1.00  0.00     0.107 A 
ATOM     10  C   UNL     1      -7.539  85.398  -9.364  1.00  0.00     0.094 A 
ATOM     11  C   UNL     1      -5.483  83.578  -8.727  1.00  0.00     0.134 A 
ATOM     12  C   UNL     1      -6.718  83.126  -9.220  1.00  0.00     0.093 A 
BRANCH   3  13
ATOM     13  C   UNL     1      -4.841  89.168  -8.263  1.00  0.00     0.021 A 
ATOM     14  C   UNL     1      -4.148  89.768  -7.203  1.00  0.00     0.016 A 
ATOM     15  C   UNL     1      -4.045  91.157  -7.134  1.00  0.00     0.051 A 
ATOM     16  C   UNL     1      -4.587  91.960  -8.148  1.00  0.00     0.157 A 
ATOM     17  C   UNL     1      -5.383  89.965  -9.283  1.00  0.00     0.062 A 
ATOM     18  C   UNL     1      -5.241  91.359  -9.239  1.00  0.00     0.158 A 
BRANCH  16  19
ATOM     19  O   UNL     1      -4.491  93.348  -8.061  1.00  0.00    -0.504 OA
ATOM     20  H   UNL     1      -4.564  93.808  -7.167  1.00  0.00     0.293 HD
ENDBRANCH  16  19
BRANCH  18  21
ATOM     21  O   UNL     1      -5.740  92.114 -10.294  1.00  0.00    -0.504 OA
ATOM     22  H   UNL     1      -5.213  92.867 -10.716  1.00  0.00     0.293 HD
ENDBRANCH  18  21
ENDBRANCH   3  13
BRANCH  11  23
ATOM     23  O   UNL     1      -4.490  82.654  -8.396  1.00  0.00    -0.507 OA
ATOM     24  H   UNL     1      -3.595  82.642  -8.877  1.00  0.00     0.293 HD
ENDBRANCH  11  23
ENDBRANCH   1   2
BRANCH   1  25
ATOM     25  C   UNL     1     -10.134  83.278  -8.938  1.00  0.00     0.339 C 
ATOM     26  C   UNL     1     -10.903  81.935  -9.331  1.00  0.00     0.214 C 
ATOM     27  O   UNL     1     -10.863  84.509  -8.940  1.00  0.00    -0.332 OA
ATOM     28  C   UNL     1     -12.464  81.983  -9.373  1.00  0.00     0.180 C 
ATOM     29  C   UNL     1     -12.266  84.432  -8.779  1.00  0.00     0.179 C 
ATOM     30  C   UNL     1     -12.879  83.404  -9.750  1.00  0.00     0.177 C 
BRANCH  26  31
ATOM     31  O   UNL     1     -10.437  81.431 -10.553  1.00  0.00    -0.384 OA
ATOM     32  H   UNL     1      -9.512  81.120 -10.392  1.00  0.00     0.211 HD
ENDBRANCH  26  31
BRANCH  28  33
ATOM     33  O   UNL     1     -13.100  81.586  -8.172  1.00  0.00    -0.387 OA
ATOM     34  H   UNL     1     -13.256  80.605  -8.198  1.00  0.00     0.211 HD
ENDBRANCH  28  33
BRANCH  29  35
ATOM     35  C   UNL     1     -12.655  84.283  -7.292  1.00  0.00     0.191 C 
BRANCH  35  36
ATOM     36  O   UNL     1     -14.050  84.255  -7.155  1.00  0.00    -0.394 OA
ATOM     37  H   UNL     1     -14.252  84.541  -6.218  1.00  0.00     0.210 HD
ENDBRANCH  35  36
ENDBRANCH  29  35
BRANCH  30  38
ATOM     38  O   UNL     1     -14.270  83.557  -9.886  1.00  0.00    -0.387 OA
ATOM     39  H   UNL     1     -14.718  83.042  -9.158  1.00  0.00     0.211 HD
ENDBRANCH  30  38
ENDBRANCH   1  25
TORSDOF 11
ENDMDL
MODEL 5
REMARK VINA RESULT:    -6.003      3.238      4.076
REMARK INTER + INTRA:          -9.816
REMARK INTER:                  -8.565
REMARK INTRA:                  -1.251
REMARK UNBOUND:                -1.181
REMARK SMILES O=c1cc(-c2ccc(O)c(O)c2)oc2cc(O[C@H]3O[C@H](CO)[C@H](O)[C@H](O)[C@H]3O)cc(O)c12
REMARK SMILES IDX 17 1 16 2 4 3 3 4 13 5 2 6 14 7 1 8 32 9 15 10 30 11 29 12
REMARK SMILES IDX 5 13 6 14 7 15 8 16 12 17 10 18 9 19 11 21 31 23 18 25 27 26
REMARK SMILES IDX 19 27 25 28 20 29 23 30 28 31 26 33 21 35 22 36 24 38
REMARK H PARENT 9 20 11 22 31 24 28 32 26 34 22 37 24 39
REMARK Flexibility Score: inf
ROOT
ATOM      1  O   UNL     1      -7.210  91.773 -12.470  1.00  0.00    -0.462 OA
ENDROOT
BRANCH   1   2
ATOM      2  C   UNL     1      -6.674  91.688 -11.173  1.00  0.00     0.130 A 
ATOM      3  C   UNL     1      -4.237  89.324  -7.839  1.00  0.00     0.138 A 
ATOM      4  C   UNL     1      -4.105  90.459  -7.030  1.00  0.00     0.100 A 
ATOM      5  O   UNL     1      -4.892  89.390  -8.991  1.00  0.00    -0.456 OA
ATOM      6  C   UNL     1      -4.700  91.654  -7.430  1.00  0.00     0.197 A 
ATOM      7  C   UNL     1      -5.458  90.509  -9.430  1.00  0.00     0.146 A 
ATOM      8  O   UNL     1      -4.575  92.676  -6.700  1.00  0.00    -0.289 OA
ATOM      9  C   UNL     1      -5.417  91.692  -8.648  1.00  0.00     0.107 A 
ATOM     10  C   UNL     1      -6.079  90.514 -10.687  1.00  0.00     0.094 A 
ATOM     11  C   UNL     1      -6.047  92.862  -9.127  1.00  0.00     0.134 A 
ATOM     12  C   UNL     1      -6.701  92.832 -10.369  1.00  0.00     0.093 A 
BRANCH   3  13
ATOM     13  C   UNL     1      -3.674  88.037  -7.404  1.00  0.00     0.021 A 
ATOM     14  C   UNL     1      -2.840  87.973  -6.280  1.00  0.00     0.016 A 
ATOM     15  C   UNL     1      -2.281  86.755  -5.894  1.00  0.00     0.051 A 
ATOM     16  C   UNL     1      -2.590  85.579  -6.595  1.00  0.00     0.157 A 
ATOM     17  C   UNL     1      -3.989  86.865  -8.108  1.00  0.00     0.062 A 
ATOM     18  C   UNL     1      -3.465  85.633  -7.696  1.00  0.00     0.158 A 
BRANCH  16  19
ATOM     19  O   UNL     1      -2.014  84.370  -6.211  1.00  0.00    -0.504 OA
ATOM     20  H   UNL     1      -1.727  84.223  -5.255  1.00  0.00     0.293 HD
ENDBRANCH  16  19
BRANCH  18  21
ATOM     21  O   UNL     1      -3.843  84.484  -8.380  1.00  0.00    -0.504 OA
ATOM     22  H   UNL     1      -3.813  83.567  -7.955  1.00  0.00     0.293 HD
ENDBRANCH  18  21
ENDBRANCH   3  13
BRANCH  11  23
ATOM     23  O   UNL     1      -6.025  94.044  -8.385  1.00  0.00    -0.507 OA
ATOM     24  H   UNL     1      -6.834  94.350  -7.849  1.00  0.00     0.293 HD
ENDBRANCH  11  23
ENDBRANCH   1   2
BRANCH   1  25
ATOM     25  C   UNL     1      -6.477  91.749 -13.711  1.00  0.00     0.339 C 
ATOM     26  C   UNL     1      -6.535  90.291 -14.358  1.00  0.00     0.214 C 
ATOM     27  O   UNL     1      -5.198  92.313 -13.409  1.00  0.00    -0.332 OA
ATOM     28  C   UNL     1      -5.205  89.701 -14.927  1.00  0.00     0.180 C 
ATOM     29  C   UNL     1      -4.085  91.823 -14.133  1.00  0.00     0.179 C 
ATOM     30  C   UNL     1      -4.049  90.283 -14.116  1.00  0.00     0.177 C 
BRANCH  26  31
ATOM     31  O   UNL     1      -7.088  89.366 -13.461  1.00  0.00    -0.384 OA
ATOM     32  H   UNL     1      -7.346  89.880 -12.655  1.00  0.00     0.211 HD
ENDBRANCH  26  31
BRANCH  28  33
ATOM     33  O   UNL     1      -5.001  89.929 -16.310  1.00  0.00    -0.387 OA
ATOM     34  H   UNL     1      -5.781  90.427 -16.673  1.00  0.00     0.211 HD
ENDBRANCH  28  33
BRANCH  29  35
ATOM     35  C   UNL     1      -3.978  92.492 -15.521  1.00  0.00     0.191 C 
BRANCH  35  36
ATOM     36  O   UNL     1      -2.842  92.028 -16.198  1.00  0.00    -0.394 OA
ATOM     37  H   UNL     1      -2.800  92.526 -17.063  1.00  0.00     0.210 HD
ENDBRANCH  35  36
ENDBRANCH  29  35
BRANCH  30  38
ATOM     38  O   UNL     1      -2.795  89.771 -14.493  1.00  0.00    -0.387 OA
ATOM     39  H   UNL     1      -2.616  90.036 -15.438  1.00  0.00     0.211 HD
ENDBRANCH  30  38
ENDBRANCH   1  25
TORSDOF 11
ENDMDL
MODEL 6
REMARK VINA RESULT:    -5.996      1.570      9.166
REMARK INTER + INTRA:          -9.806
REMARK INTER:                  -8.658
REMARK INTRA:                  -1.148
REMARK UNBOUND:                -1.181
REMARK SMILES O=c1cc(-c2ccc(O)c(O)c2)oc2cc(O[C@H]3O[C@H](CO)[C@H](O)[C@H](O)[C@H]3O)cc(O)c12
REMARK SMILES IDX 17 1 16 2 4 3 3 4 13 5 2 6 14 7 1 8 32 9 15 10 30 11 29 12
REMARK SMILES IDX 5 13 6 14 7 15 8 16 12 17 10 18 9 19 11 21 31 23 18 25 27 26
REMARK SMILES IDX 19 27 25 28 20 29 23 30 28 31 26 33 21 35 22 36 24 38
REMARK H PARENT 9 20 11 22 31 24 28 32 26 34 22 37 24 39
REMARK Flexibility Score: inf
ROOT
ATOM      1  O   UNL     1      -6.526  86.943  -9.198  1.00  0.00    -0.462 OA
ENDROOT
BRANCH   1   2
ATOM      2  C   UNL     1      -6.931  87.843 -10.199  1.00  0.00     0.130 A 
ATOM      3  C   UNL     1      -6.115  90.141 -14.285  1.00  0.00     0.138 A 
ATOM      4  C   UNL     1      -7.452  90.538 -14.410  1.00  0.00     0.100 A 
ATOM      5  O   UNL     1      -5.721  89.424 -13.241  1.00  0.00    -0.456 OA
ATOM      6  C   UNL     1      -8.360  90.203 -13.408  1.00  0.00     0.197 A 
ATOM      7  C   UNL     1      -6.549  89.059 -12.269  1.00  0.00     0.146 A 
ATOM      8  O   UNL     1      -9.565  90.559 -13.527  1.00  0.00    -0.289 OA
ATOM      9  C   UNL     1      -7.909  89.463 -12.291  1.00  0.00     0.107 A 
ATOM     10  C   UNL     1      -6.070  88.248 -11.229  1.00  0.00     0.094 A 
ATOM     11  C   UNL     1      -8.763  89.080 -11.233  1.00  0.00     0.134 A 
ATOM     12  C   UNL     1      -8.250  88.305 -10.180  1.00  0.00     0.093 A 
BRANCH   3  13
ATOM     13  C   UNL     1      -5.128  90.541 -15.299  1.00  0.00     0.021 A 
ATOM     14  C   UNL     1      -3.773  90.657 -14.961  1.00  0.00     0.016 A 
ATOM     15  C   UNL     1      -2.848  91.070 -15.920  1.00  0.00     0.051 A 
ATOM     16  C   UNL     1      -3.257  91.321 -17.238  1.00  0.00     0.157 A 
ATOM     17  C   UNL     1      -5.544  90.787 -16.616  1.00  0.00     0.062 A 
ATOM     18  C   UNL     1      -4.609  91.159 -17.592  1.00  0.00     0.158 A 
BRANCH  16  19
ATOM     19  O   UNL     1      -2.327  91.748 -18.184  1.00  0.00    -0.504 OA
ATOM     20  H   UNL     1      -2.622  91.975 -19.122  1.00  0.00     0.293 HD
ENDBRANCH  16  19
BRANCH  18  21
ATOM     21  O   UNL     1      -5.045  91.339 -18.900  1.00  0.00    -0.504 OA
ATOM     22  H   UNL     1      -4.547  90.958 -19.693  1.00  0.00     0.293 HD
ENDBRANCH  18  21
ENDBRANCH   3  13
BRANCH  11  23
ATOM     23  O   UNL     1     -10.107  89.459 -11.222  1.00  0.00    -0.507 OA
ATOM     24  H   UNL     1     -10.615  89.590 -10.351  1.00  0.00     0.293 HD
ENDBRANCH  11  23
ENDBRANCH   1   2
BRANCH   1  25
ATOM     25  C   UNL     1      -5.225  86.341  -9.051  1.00  0.00     0.339 C 
ATOM     26  C   UNL     1      -5.207  84.894  -9.723  1.00  0.00     0.214 C 
ATOM     27  O   UNL     1      -4.909  86.453  -7.660  1.00  0.00    -0.332 OA
ATOM     28  C   UNL     1      -4.532  83.735  -8.922  1.00  0.00     0.180 C 
ATOM     29  C   UNL     1      -4.123  85.425  -7.088  1.00  0.00     0.179 C 
ATOM     30  C   UNL     1      -4.694  84.036  -7.433  1.00  0.00     0.177 C 
BRANCH  26  31
ATOM     31  O   UNL     1      -6.501  84.493 -10.085  1.00  0.00    -0.384 OA
ATOM     32  H   UNL     1      -6.392  83.743 -10.720  1.00  0.00     0.211 HD
ENDBRANCH  26  31
BRANCH  28  33
ATOM     33  O   UNL     1      -3.167  83.517  -9.235  1.00  0.00    -0.387 OA
ATOM     34  H   UNL     1      -2.722  84.396  -9.366  1.00  0.00     0.211 HD
ENDBRANCH  28  33
BRANCH  29  35
ATOM     35  C   UNL     1      -2.621  85.637  -7.378  1.00  0.00     0.191 C 
BRANCH  35  36
ATOM     36  O   UNL     1      -1.875  84.556  -6.888  1.00  0.00    -0.394 OA
ATOM     37  H   UNL     1      -2.126  83.761  -7.440  1.00  0.00     0.210 HD
ENDBRANCH  35  36
ENDBRANCH  29  35
BRANCH  30  38
ATOM     38  O   UNL     1      -4.181  83.024  -6.604  1.00  0.00    -0.387 OA
ATOM     39  H   UNL     1      -4.009  83.411  -5.700  1.00  0.00     0.211 HD
ENDBRANCH  30  38
ENDBRANCH   1  25
TORSDOF 11
ENDMDL
MODEL 7
REMARK VINA RESULT:    -5.993      1.312      1.714
REMARK INTER + INTRA:          -9.802
REMARK INTER:                  -8.669
REMARK INTRA:                  -1.133
REMARK UNBOUND:                -1.181
REMARK SMILES O=c1cc(-c2ccc(O)c(O)c2)oc2cc(O[C@H]3O[C@H](CO)[C@H](O)[C@H](O)[C@H]3O)cc(O)c12
REMARK SMILES IDX 17 1 16 2 4 3 3 4 13 5 2 6 14 7 1 8 32 9 15 10 30 11 29 12
REMARK SMILES IDX 5 13 6 14 7 15 8 16 12 17 10 18 9 19 11 21 31 23 18 25 27 26
REMARK SMILES IDX 19 27 25 28 20 29 23 30 28 31 26 33 21 35 22 36 24 38
REMARK H PARENT 9 20 11 22 31 24 28 32 26 34 22 37 24 39
REMARK Flexibility Score: inf
ROOT
ATOM      1  O   UNL     1      -6.859  90.621 -12.978  1.00  0.00    -0.462 OA
ENDROOT
BRANCH   1   2
ATOM      2  C   UNL     1      -7.217  89.619 -12.059  1.00  0.00     0.130 A 
ATOM      3  C   UNL     1      -6.129  85.757  -9.501  1.00  0.00     0.138 A 
ATOM      4  C   UNL     1      -7.274  85.875  -8.704  1.00  0.00     0.100 A 
ATOM      5  O   UNL     1      -5.893  86.626 -10.475  1.00  0.00    -0.456 OA
ATOM      6  C   UNL     1      -8.184  86.897  -8.967  1.00  0.00     0.197 A 
ATOM      7  C   UNL     1      -6.716  87.631 -10.753  1.00  0.00     0.146 A 
ATOM      8  O   UNL     1      -9.214  87.003  -8.244  1.00  0.00    -0.289 OA
ATOM      9  C   UNL     1      -7.926  87.794 -10.028  1.00  0.00     0.107 A 
ATOM     10  C   UNL     1      -6.367  88.545 -11.758  1.00  0.00     0.094 A 
ATOM     11  C   UNL     1      -8.794  88.857 -10.360  1.00  0.00     0.134 A 
ATOM     12  C   UNL     1      -8.444  89.734 -11.399  1.00  0.00     0.093 A 
BRANCH   3  13
ATOM     13  C   UNL     1      -5.189  84.647  -9.283  1.00  0.00     0.021 A 
ATOM     14  C   UNL     1      -5.355  83.434  -9.964  1.00  0.00     0.016 A 
ATOM     15  C   UNL     1      -4.480  82.374  -9.725  1.00  0.00     0.051 A 
ATOM     16  C   UNL     1      -3.399  82.532  -8.844  1.00  0.00     0.157 A 
ATOM     17  C   UNL     1      -4.109  84.813  -8.404  1.00  0.00     0.062 A 
ATOM     18  C   UNL     1      -3.202  83.765  -8.196  1.00  0.00     0.158 A 
BRANCH  16  19
ATOM     19  O   UNL     1      -2.540  81.462  -8.601  1.00  0.00    -0.504 OA
ATOM     20  H   UNL     1      -2.895  80.518  -8.577  1.00  0.00     0.293 HD
ENDBRANCH  16  19
BRANCH  18  21
ATOM     21  O   UNL     1      -2.111  83.982  -7.362  1.00  0.00    -0.504 OA
ATOM     22  H   UNL     1      -1.304  84.515  -7.656  1.00  0.00     0.293 HD
ENDBRANCH  18  21
ENDBRANCH   3  13
BRANCH  11  23
ATOM     23  O   UNL     1      -9.992  89.048  -9.668  1.00  0.00    -0.507 OA
ATOM     24  H   UNL     1     -10.894  88.926 -10.122  1.00  0.00     0.293 HD
ENDBRANCH  11  23
ENDBRANCH   1   2
BRANCH   1  25
ATOM     25  C   UNL     1      -5.926  90.499 -14.070  1.00  0.00     0.339 C 
ATOM     26  C   UNL     1      -4.496  91.060 -13.639  1.00  0.00     0.214 C 
ATOM     27  O   UNL     1      -6.581  91.089 -15.197  1.00  0.00    -0.332 OA
ATOM     28  C   UNL     1      -3.747  91.982 -14.654  1.00  0.00     0.180 C 
ATOM     29  C   UNL     1      -5.767  91.739 -16.154  1.00  0.00     0.179 C 
ATOM     30  C   UNL     1      -4.798  92.726 -15.476  1.00  0.00     0.177 C 
BRANCH  26  31
ATOM     31  O   UNL     1      -4.567  91.718 -12.404  1.00  0.00    -0.384 OA
ATOM     32  H   UNL     1      -3.675  91.623 -11.986  1.00  0.00     0.211 HD
ENDBRANCH  26  31
BRANCH  28  33
ATOM     33  O   UNL     1      -2.841  91.307 -15.508  1.00  0.00    -0.387 OA
ATOM     34  H   UNL     1      -3.036  91.559 -16.450  1.00  0.00     0.211 HD
ENDBRANCH  28  33
BRANCH  29  35
ATOM     35  C   UNL     1      -5.135  90.728 -17.135  1.00  0.00     0.191 C 
BRANCH  35  36
ATOM     36  O   UNL     1      -4.409  91.402 -18.127  1.00  0.00    -0.394 OA
ATOM     37  H   UNL     1      -3.444  91.325 -17.879  1.00  0.00     0.210 HD
ENDBRANCH  35  36
ENDBRANCH  29  35
BRANCH  30  38
ATOM     38  O   UNL     1      -4.242  93.644 -16.385  1.00  0.00    -0.387 OA
ATOM     39  H   UNL     1      -3.639  93.148 -17.006  1.00  0.00     0.211 HD
ENDBRANCH  30  38
ENDBRANCH   1  25
TORSDOF 11
ENDMDL
MODEL 8
REMARK VINA RESULT:    -5.982      2.451      4.003
REMARK INTER + INTRA:          -9.786
REMARK INTER:                  -8.525
REMARK INTRA:                  -1.260
REMARK UNBOUND:                -1.181
REMARK SMILES O=c1cc(-c2ccc(O)c(O)c2)oc2cc(O[C@H]3O[C@H](CO)[C@H](O)[C@H](O)[C@H]3O)cc(O)c12
REMARK SMILES IDX 17 1 16 2 4 3 3 4 13 5 2 6 14 7 1 8 32 9 15 10 30 11 29 12
REMARK SMILES IDX 5 13 6 14 7 15 8 16 12 17 10 18 9 19 11 21 31 23 18 25 27 26
REMARK SMILES IDX 19 27 25 28 20 29 23 30 28 31 26 33 21 35 22 36 24 38
REMARK H PARENT 9 20 11 22 31 24 28 32 26 34 22 37 24 39
REMARK Flexibility Score: inf
ROOT
ATOM      1  O   UNL     1      -7.549  90.114 -11.309  1.00  0.00    -0.462 OA
ENDROOT
BRANCH   1   2
ATOM      2  C   UNL     1      -6.855  89.629 -10.188  1.00  0.00     0.130 A 
ATOM      3  C   UNL     1      -4.266  86.254  -8.053  1.00  0.00     0.138 A 
ATOM      4  C   UNL     1      -3.899  87.102  -7.001  1.00  0.00     0.100 A 
ATOM      5  O   UNL     1      -5.060  86.689  -9.023  1.00  0.00    -0.456 OA
ATOM      6  C   UNL     1      -4.405  88.399  -6.963  1.00  0.00     0.197 A 
ATOM      7  C   UNL     1      -5.552  87.923  -9.047  1.00  0.00     0.146 A 
ATOM      8  O   UNL     1      -4.069  89.162  -6.015  1.00  0.00    -0.289 OA
ATOM      9  C   UNL     1      -5.273  88.831  -7.993  1.00  0.00     0.107 A 
ATOM     10  C   UNL     1      -6.335  88.327 -10.138  1.00  0.00     0.094 A 
ATOM     11  C   UNL     1      -5.828  90.129  -8.031  1.00  0.00     0.134 A 
ATOM     12  C   UNL     1      -6.644  90.497  -9.112  1.00  0.00     0.093 A 
BRANCH   3  13
ATOM     13  C   UNL     1      -3.796  84.861  -8.078  1.00  0.00     0.021 A 
ATOM     14  C   UNL     1      -3.262  84.273  -6.923  1.00  0.00     0.016 A 
ATOM     15  C   UNL     1      -2.786  82.963  -6.964  1.00  0.00     0.051 A 
ATOM     16  C   UNL     1      -2.885  82.209  -8.143  1.00  0.00     0.157 A 
ATOM     17  C   UNL     1      -3.902  84.111  -9.259  1.00  0.00     0.062 A 
ATOM     18  C   UNL     1      -3.465  82.780  -9.290  1.00  0.00     0.158 A 
BRANCH  16  19
ATOM     19  O   UNL     1      -2.392  80.905  -8.176  1.00  0.00    -0.504 OA
ATOM     20  H   UNL     1      -2.742  80.246  -8.855  1.00  0.00     0.293 HD
ENDBRANCH  16  19
BRANCH  18  21
ATOM     21  O   UNL     1      -3.637  82.048 -10.459  1.00  0.00    -0.504 OA
ATOM     22  H   UNL     1      -2.943  82.033 -11.194  1.00  0.00     0.293 HD
ENDBRANCH  18  21
ENDBRANCH   3  13
BRANCH  11  23
ATOM     23  O   UNL     1      -5.573  91.049  -7.012  1.00  0.00    -0.507 OA
ATOM     24  H   UNL     1      -4.770  91.672  -7.048  1.00  0.00     0.293 HD
ENDBRANCH  11  23
ENDBRANCH   1   2
BRANCH   1  25
ATOM     25  C   UNL     1      -6.989  90.814 -12.437  1.00  0.00     0.339 C 
ATOM     26  C   UNL     1      -7.074  89.907 -13.747  1.00  0.00     0.214 C 
ATOM     27  O   UNL     1      -5.703  91.269 -12.002  1.00  0.00    -0.332 OA
ATOM     28  C   UNL     1      -5.809  89.840 -14.662  1.00  0.00     0.180 C 
ATOM     29  C   UNL     1      -4.679  91.345 -12.975  1.00  0.00     0.179 C 
ATOM     30  C   UNL     1      -4.579  90.033 -13.777  1.00  0.00     0.177 C 
BRANCH  26  31
ATOM     31  O   UNL     1      -7.465  88.599 -13.428  1.00  0.00    -0.384 OA
ATOM     32  H   UNL     1      -8.454  88.591 -13.452  1.00  0.00     0.211 HD
ENDBRANCH  26  31
BRANCH  28  33
ATOM     33  O   UNL     1      -5.800  90.772 -15.728  1.00  0.00    -0.387 OA
ATOM     34  H   UNL     1      -6.735  91.043 -15.927  1.00  0.00     0.211 HD
ENDBRANCH  28  33
BRANCH  29  35
ATOM     35  C   UNL     1      -4.784  92.644 -13.802  1.00  0.00     0.191 C 
BRANCH  35  36
ATOM     36  O   UNL     1      -3.785  92.676 -14.785  1.00  0.00    -0.394 OA
ATOM     37  H   UNL     1      -2.929  92.428 -14.332  1.00  0.00     0.210 HD
ENDBRANCH  35  36
ENDBRANCH  29  35
BRANCH  30  38
ATOM     38  O   UNL     1      -3.367  89.925 -14.481  1.00  0.00    -0.387 OA
ATOM     39  H   UNL     1      -3.457  90.416 -15.345  1.00  0.00     0.211 HD
ENDBRANCH  30  38
ENDBRANCH   1  25
TORSDOF 11
ENDMDL
MODEL 9
REMARK VINA RESULT:    -5.970      2.890      4.396
REMARK INTER + INTRA:          -9.769
REMARK INTER:                  -8.579
REMARK INTRA:                  -1.190
REMARK UNBOUND:                -1.181
REMARK SMILES O=c1cc(-c2ccc(O)c(O)c2)oc2cc(O[C@H]3O[C@H](CO)[C@H](O)[C@H](O)[C@H]3O)cc(O)c12
REMARK SMILES IDX 17 1 16 2 4 3 3 4 13 5 2 6 14 7 1 8 32 9 15 10 30 11 29 12
REMARK SMILES IDX 5 13 6 14 7 15 8 16 12 17 10 18 9 19 11 21 31 23 18 25 27 26
REMARK SMILES IDX 19 27 25 28 20 29 23 30 28 31 26 33 21 35 22 36 24 38
REMARK H PARENT 9 20 11 22 31 24 28 32 26 34 22 37 24 39
REMARK Flexibility Score: inf
ROOT
ATOM      1  O   UNL     1      -5.417  92.292 -11.002  1.00  0.00    -0.462 OA
ENDROOT
BRANCH   1   2
ATOM      2  C   UNL     1      -5.299  91.260 -10.055  1.00  0.00     0.130 A 
ATOM      3  C   UNL     1      -6.094  86.771  -8.693  1.00  0.00     0.138 A 
ATOM      4  C   UNL     1      -5.186  86.857  -7.631  1.00  0.00     0.100 A 
ATOM      5  O   UNL     1      -6.311  87.816  -9.480  1.00  0.00    -0.456 OA
ATOM      6  C   UNL     1      -4.537  88.065  -7.387  1.00  0.00     0.197 A 
ATOM      7  C   UNL     1      -5.703  88.984  -9.305  1.00  0.00     0.146 A 
ATOM      8  O   UNL     1      -3.716  88.138  -6.430  1.00  0.00    -0.289 OA
ATOM      9  C   UNL     1      -4.807  89.174  -8.221  1.00  0.00     0.107 A 
ATOM     10  C   UNL     1      -5.940  90.023 -10.217  1.00  0.00     0.094 A 
ATOM     11  C   UNL     1      -4.192  90.433  -8.044  1.00  0.00     0.134 A 
ATOM     12  C   UNL     1      -4.477  91.471  -8.944  1.00  0.00     0.093 A 
BRANCH   3  13
ATOM     13  C   UNL     1      -6.838  85.524  -8.929  1.00  0.00     0.021 A 
ATOM     14  C   UNL     1      -6.159  84.303  -9.033  1.00  0.00     0.016 A 
ATOM     15  C   UNL     1      -6.869  83.130  -9.292  1.00  0.00     0.051 A 
ATOM     16  C   UNL     1      -8.268  83.156  -9.396  1.00  0.00     0.157 A 
ATOM     17  C   UNL     1      -8.237  85.557  -9.028  1.00  0.00     0.062 A 
ATOM     18  C   UNL     1      -8.956  84.374  -9.243  1.00  0.00     0.158 A 
BRANCH  16  19
ATOM     19  O   UNL     1      -8.966  81.981  -9.670  1.00  0.00    -0.504 OA
ATOM     20  H   UNL     1      -8.467  81.131  -9.886  1.00  0.00     0.293 HD
ENDBRANCH  16  19
BRANCH  18  21
ATOM     21  O   UNL     1     -10.345  84.433  -9.280  1.00  0.00    -0.504 OA
ATOM     22  H   UNL     1     -10.843  85.022  -9.934  1.00  0.00     0.293 HD
ENDBRANCH  18  21
ENDBRANCH   3  13
BRANCH  11  23
ATOM     23  O   UNL     1      -3.303  90.655  -6.990  1.00  0.00    -0.507 OA
ATOM     24  H   UNL     1      -3.426  91.433  -6.347  1.00  0.00     0.293 HD
ENDBRANCH  11  23
ENDBRANCH   1   2
BRANCH   1  25
ATOM     25  C   UNL     1      -5.146  92.205 -12.415  1.00  0.00     0.339 C 
ATOM     26  C   UNL     1      -6.510  92.070 -13.231  1.00  0.00     0.214 C 
ATOM     27  O   UNL     1      -4.162  91.174 -12.550  1.00  0.00    -0.332 OA
ATOM     28  C   UNL     1      -6.564  91.008 -14.375  1.00  0.00     0.180 C 
ATOM     29  C   UNL     1      -4.198  90.394 -13.729  1.00  0.00     0.179 C 
ATOM     30  C   UNL     1      -5.620  89.866 -14.000  1.00  0.00     0.177 C 
BRANCH  26  31
ATOM     31  O   UNL     1      -7.592  91.854 -12.368  1.00  0.00    -0.384 OA
ATOM     32  H   UNL     1      -8.347  92.380 -12.730  1.00  0.00     0.211 HD
ENDBRANCH  26  31
BRANCH  28  33
ATOM     33  O   UNL     1      -6.246  91.507 -15.662  1.00  0.00    -0.387 OA
ATOM     34  H   UNL     1      -6.677  90.931 -16.347  1.00  0.00     0.211 HD
ENDBRANCH  28  33
BRANCH  29  35
ATOM     35  C   UNL     1      -3.504  91.118 -14.904  1.00  0.00     0.191 C 
BRANCH  35  36
ATOM     36  O   UNL     1      -3.592  90.345 -16.071  1.00  0.00    -0.394 OA
ATOM     37  H   UNL     1      -4.308  90.758 -16.634  1.00  0.00     0.210 HD
ENDBRANCH  35  36
ENDBRANCH  29  35
BRANCH  30  38
ATOM     38  O   UNL     1      -5.633  88.809 -14.928  1.00  0.00    -0.387 OA
ATOM     39  H   UNL     1      -4.690  88.556 -15.132  1.00  0.00     0.211 HD
ENDBRANCH  30  38
ENDBRANCH   1  25
TORSDOF 11
ENDMDL
