MODEL 1
REMARK VINA RESULT:    -4.501      0.000      0.000
REMARK INTER + INTRA:         -14.785
REMARK INTER:                 -10.290
REMARK INTRA:                  -4.495
REMARK UNBOUND:                -4.495
REMARK SMILES CCCCCCCCCCCCCCCCCCCCCCCC(=O)[O-]
REMARK SMILES IDX 13 1 14 2 15 3 16 4 17 5 18 6 19 7 20 8 21 9 22 10 23 11
REMARK SMILES IDX 24 12 25 13 26 14 12 15 11 16 10 17 9 18 8 19 7 20 6 21 5 22
REMARK SMILES IDX 4 23 3 24 2 25 1 26
REMARK H PARENT
REMARK Flexibility Score: inf
ROOT
ATOM      1  C   UNL     1      63.239  14.838  37.023  1.00  0.00     0.000 C 
ENDROOT
BRANCH   1   2
ATOM      2  C   UNL     1      61.958  14.020  36.751  1.00  0.00     0.000 C 
BRANCH   2   3
ATOM      3  C   UNL     1      60.695  14.691  37.318  1.00  0.00     0.000 C 
BRANCH   3   4
ATOM      4  C   UNL     1      60.997  16.063  37.958  1.00  0.00     0.000 C 
BRANCH   4   5
ATOM      5  C   UNL     1      60.574  16.156  39.435  1.00  0.00     0.000 C 
BRANCH   5   6
ATOM      6  C   UNL     1      61.440  17.096  40.293  1.00  0.00     0.000 C 
BRANCH   6   7
ATOM      7  C   UNL     1      62.945  16.761  40.318  1.00  0.00     0.000 C 
BRANCH   7   8
ATOM      8  C   UNL     1      63.876  17.883  39.824  1.00  0.00     0.000 C 
BRANCH   8   9
ATOM      9  C   UNL     1      63.209  18.816  38.803  1.00  0.00     0.000 C 
BRANCH   9  10
ATOM     10  C   UNL     1      63.737  18.548  37.388  1.00  0.00     0.006 C 
BRANCH  10  11
ATOM     11  C   UNL     1      65.074  17.800  37.432  1.00  0.00     0.053 C 
BRANCH  11  12
ATOM     12  C   UNL     1      65.687  17.727  36.068  1.00  0.00     0.041 C 
ATOM     13  O   UNL     1      66.807  18.259  35.848  1.00  0.00    -0.550 OA
ATOM     14  O   UNL     1      65.015  17.077  35.034  1.00  0.00    -0.550 OA
ENDBRANCH  11  12
ENDBRANCH  10  11
ENDBRANCH   9  10
ENDBRANCH   8   9
ENDBRANCH   7   8
ENDBRANCH   6   7
ENDBRANCH   5   6
ENDBRANCH   4   5
ENDBRANCH   3   4
ENDBRANCH   2   3
ENDBRANCH   1   2
BRANCH   1  15
ATOM     15  C   UNL     1      64.267  14.115  37.915  1.00  0.00     0.000 C 
BRANCH  15  16
ATOM     16  C   UNL     1      63.736  13.643  39.280  1.00  0.00     0.000 C 
BRANCH  16  17
ATOM     17  C   UNL     1      63.440  12.135  39.377  1.00  0.00     0.000 C 
BRANCH  17  18
ATOM     18  C   UNL     1      62.461  11.788  40.508  1.00  0.00    -0.000 C 
BRANCH  18  19
ATOM     19  C   UNL     1      61.152  12.575  40.365  1.00  0.00    -0.000 C 
BRANCH  19  20
ATOM     20  C   UNL     1      59.918  11.667  40.234  1.00  0.00    -0.000 C 
BRANCH  20  21
ATOM     21  C   UNL     1      59.130  11.878  38.923  1.00  0.00    -0.000 C 
BRANCH  21  22
ATOM     22  C   UNL     1      59.198  10.648  38.000  1.00  0.00    -0.000 C 
BRANCH  22  23
ATOM     23  C   UNL     1      60.440  10.651  37.090  1.00  0.00    -0.000 C 
BRANCH  23  24
ATOM     24  C   UNL     1      61.531   9.628  37.469  1.00  0.00    -0.000 C 
BRANCH  24  25
ATOM     25  C   UNL     1      61.032   8.408  38.262  1.00  0.00    -0.003 C 
ATOM     26  C   UNL     1      61.622   8.329  39.670  1.00  0.00     0.004 C 
ENDBRANCH  24  25
ENDBRANCH  23  24
ENDBRANCH  22  23
ENDBRANCH  21  22
ENDBRANCH  20  21
ENDBRANCH  19  20
ENDBRANCH  18  19
ENDBRANCH  17  18
ENDBRANCH  16  17
ENDBRANCH  15  16
ENDBRANCH   1  15
TORSDOF 22
ENDMDL
MODEL 2
REMARK VINA RESULT:    -4.492      3.223      6.740
REMARK INTER + INTRA:         -14.764
REMARK INTER:                 -10.362
REMARK INTRA:                  -4.402
REMARK UNBOUND:                -4.495
REMARK SMILES CCCCCCCCCCCCCCCCCCCCCCCC(=O)[O-]
REMARK SMILES IDX 13 1 14 2 15 3 16 4 17 5 18 6 19 7 20 8 21 9 22 10 23 11
REMARK SMILES IDX 24 12 25 13 26 14 12 15 11 16 10 17 9 18 8 19 7 20 6 21 5 22
REMARK SMILES IDX 4 23 3 24 2 25 1 26
REMARK H PARENT
REMARK Flexibility Score: inf
ROOT
ATOM      1  C   UNL     1      60.874  18.834  38.279  1.00  0.00     0.000 C 
ENDROOT
BRANCH   1   2
ATOM      2  C   UNL     1      60.236  19.259  39.619  1.00  0.00     0.000 C 
BRANCH   2   3
ATOM      3  C   UNL     1      59.006  18.412  39.987  1.00  0.00     0.000 C 
BRANCH   3   4
ATOM      4  C   UNL     1      59.396  17.056  40.614  1.00  0.00     0.000 C 
BRANCH   4   5
ATOM      5  C   UNL     1      59.373  15.888  39.610  1.00  0.00     0.000 C 
BRANCH   5   6
ATOM      6  C   UNL     1      59.470  14.490  40.248  1.00  0.00     0.000 C 
BRANCH   6   7
ATOM      7  C   UNL     1      59.391  13.311  39.258  1.00  0.00     0.000 C 
BRANCH   7   8
ATOM      8  C   UNL     1      60.272  12.098  39.609  1.00  0.00     0.000 C 
BRANCH   8   9
ATOM      9  C   UNL     1      61.194  12.349  40.811  1.00  0.00     0.000 C 
BRANCH   9  10
ATOM     10  C   UNL     1      62.354  11.346  40.830  1.00  0.00     0.006 C 
BRANCH  10  11
ATOM     11  C   UNL     1      62.509  10.657  39.470  1.00  0.00     0.053 C 
BRANCH  11  12
ATOM     12  C   UNL     1      62.440   9.168  39.617  1.00  0.00     0.041 C 
ATOM     13  O   UNL     1      63.458   8.462  39.393  1.00  0.00    -0.550 OA
ATOM     14  O   UNL     1      61.245   8.558  39.994  1.00  0.00    -0.550 OA
ENDBRANCH  11  12
ENDBRANCH  10  11
ENDBRANCH   9  10
ENDBRANCH   8   9
ENDBRANCH   7   8
ENDBRANCH   6   7
ENDBRANCH   5   6
ENDBRANCH   4   5
ENDBRANCH   3   4
ENDBRANCH   2   3
ENDBRANCH   1   2
BRANCH   1  15
ATOM     15  C   UNL     1      62.365  18.463  38.384  1.00  0.00     0.000 C 
BRANCH  15  16
ATOM     16  C   UNL     1      63.002  18.681  39.768  1.00  0.00     0.000 C 
BRANCH  16  17
ATOM     17  C   UNL     1      63.456  17.396  40.485  1.00  0.00     0.000 C 
BRANCH  17  18
ATOM     18  C   UNL     1      62.799  16.130  39.917  1.00  0.00    -0.000 C 
BRANCH  18  19
ATOM     19  C   UNL     1      63.798  14.967  39.867  1.00  0.00    -0.000 C 
BRANCH  19  20
ATOM     20  C   UNL     1      63.590  14.050  38.650  1.00  0.00    -0.000 C 
BRANCH  20  21
ATOM     21  C   UNL     1      62.474  14.531  37.696  1.00  0.00    -0.000 C 
BRANCH  21  22
ATOM     22  C   UNL     1      62.990  14.749  36.262  1.00  0.00    -0.000 C 
BRANCH  22  23
ATOM     23  C   UNL     1      64.432  15.282  36.219  1.00  0.00    -0.000 C 
BRANCH  23  24
ATOM     24  C   UNL     1      64.605  16.649  35.523  1.00  0.00    -0.000 C 
BRANCH  24  25
ATOM     25  C   UNL     1      65.363  17.705  36.344  1.00  0.00    -0.003 C 
ATOM     26  C   UNL     1      65.927  17.154  37.654  1.00  0.00     0.004 C 
ENDBRANCH  24  25
ENDBRANCH  23  24
ENDBRANCH  22  23
ENDBRANCH  21  22
ENDBRANCH  20  21
ENDBRANCH  19  20
ENDBRANCH  18  19
ENDBRANCH  17  18
ENDBRANCH  16  17
ENDBRANCH  15  16
ENDBRANCH   1  15
TORSDOF 22
ENDMDL
MODEL 3
REMARK VINA RESULT:    -4.355      1.540      3.787
REMARK INTER + INTRA:         -14.452
REMARK INTER:                 -10.626
REMARK INTRA:                  -3.826
REMARK UNBOUND:                -4.495
REMARK SMILES CCCCCCCCCCCCCCCCCCCCCCCC(=O)[O-]
REMARK SMILES IDX 13 1 14 2 15 3 16 4 17 5 18 6 19 7 20 8 21 9 22 10 23 11
REMARK SMILES IDX 24 12 25 13 26 14 12 15 11 16 10 17 9 18 8 19 7 20 6 21 5 22
REMARK SMILES IDX 4 23 3 24 2 25 1 26
REMARK H PARENT
REMARK Flexibility Score: inf
ROOT
ATOM      1  C   UNL     1      60.462  19.264  39.374  1.00  0.00     0.000 C 
ENDROOT
BRANCH   1   2
ATOM      2  C   UNL     1      61.403  18.868  38.215  1.00  0.00     0.000 C 
BRANCH   2   3
ATOM      3  C   UNL     1      62.877  18.789  38.647  1.00  0.00     0.000 C 
BRANCH   3   4
ATOM      4  C   UNL     1      63.033  18.671  40.178  1.00  0.00     0.000 C 
BRANCH   4   5
ATOM      5  C   UNL     1      63.455  17.265  40.645  1.00  0.00     0.000 C 
BRANCH   5   6
ATOM      6  C   UNL     1      62.685  16.110  39.980  1.00  0.00     0.000 C 
BRANCH   6   7
ATOM      7  C   UNL     1      63.547  14.903  39.560  1.00  0.00     0.000 C 
BRANCH   7   8
ATOM      8  C   UNL     1      63.247  14.335  38.161  1.00  0.00     0.000 C 
BRANCH   8   9
ATOM      9  C   UNL     1      62.879  15.418  37.136  1.00  0.00     0.000 C 
BRANCH   9  10
ATOM     10  C   UNL     1      63.989  15.584  36.092  1.00  0.00     0.006 C 
BRANCH  10  11
ATOM     11  C   UNL     1      64.291  17.065  35.840  1.00  0.00     0.053 C 
BRANCH  11  12
ATOM     12  C   UNL     1      65.593  17.457  36.467  1.00  0.00     0.041 C 
ATOM     13  O   UNL     1      65.857  17.107  37.648  1.00  0.00    -0.550 OA
ATOM     14  O   UNL     1      66.513  18.218  35.749  1.00  0.00    -0.550 OA
ENDBRANCH  11  12
ENDBRANCH  10  11
ENDBRANCH   9  10
ENDBRANCH   8   9
ENDBRANCH   7   8
ENDBRANCH   6   7
ENDBRANCH   5   6
ENDBRANCH   4   5
ENDBRANCH   3   4
ENDBRANCH   2   3
ENDBRANCH   1   2
BRANCH   1  15
ATOM     15  C   UNL     1      59.249  18.330  39.544  1.00  0.00     0.000 C 
BRANCH  15  16
ATOM     16  C   UNL     1      59.314  17.382  40.756  1.00  0.00     0.000 C 
BRANCH  16  17
ATOM     17  C   UNL     1      58.892  15.929  40.468  1.00  0.00     0.000 C 
BRANCH  17  18
ATOM     18  C   UNL     1      59.292  15.457  39.063  1.00  0.00    -0.000 C 
BRANCH  18  19
ATOM     19  C   UNL     1      59.611  13.956  39.056  1.00  0.00    -0.000 C 
BRANCH  19  20
ATOM     20  C   UNL     1      60.151  13.453  40.405  1.00  0.00    -0.000 C 
BRANCH  20  21
ATOM     21  C   UNL     1      60.580  11.969  40.385  1.00  0.00    -0.000 C 
BRANCH  21  22
ATOM     22  C   UNL     1      62.053  11.785  40.792  1.00  0.00    -0.000 C 
BRANCH  22  23
ATOM     23  C   UNL     1      62.878  11.034  39.733  1.00  0.00    -0.000 C 
BRANCH  23  24
ATOM     24  C   UNL     1      62.539   9.537  39.579  1.00  0.00    -0.000 C 
BRANCH  24  25
ATOM     25  C   UNL     1      63.154   8.854  38.346  1.00  0.00    -0.003 C 
ATOM     26  C   UNL     1      62.105   8.343  37.358  1.00  0.00     0.004 C 
ENDBRANCH  24  25
ENDBRANCH  23  24
ENDBRANCH  22  23
ENDBRANCH  21  22
ENDBRANCH  20  21
ENDBRANCH  19  20
ENDBRANCH  18  19
ENDBRANCH  17  18
ENDBRANCH  16  17
ENDBRANCH  15  16
ENDBRANCH   1  15
TORSDOF 22
ENDMDL
MODEL 4
REMARK VINA RESULT:    -4.352      2.185      3.634
REMARK INTER + INTRA:         -14.445
REMARK INTER:                  -9.881
REMARK INTRA:                  -4.564
REMARK UNBOUND:                -4.495
REMARK SMILES CCCCCCCCCCCCCCCCCCCCCCCC(=O)[O-]
REMARK SMILES IDX 13 1 14 2 15 3 16 4 17 5 18 6 19 7 20 8 21 9 22 10 23 11
REMARK SMILES IDX 24 12 25 13 26 14 12 15 11 16 10 17 9 18 8 19 7 20 6 21 5 22
REMARK SMILES IDX 4 23 3 24 2 25 1 26
REMARK H PARENT
REMARK Flexibility Score: inf
ROOT
ATOM      1  C   UNL     1      63.175  14.771  36.206  1.00  0.00     0.000 C 
ENDROOT
BRANCH   1   2
ATOM      2  C   UNL     1      64.600  15.313  35.963  1.00  0.00     0.000 C 
BRANCH   2   3
ATOM      3  C   UNL     1      64.607  16.781  35.504  1.00  0.00     0.000 C 
BRANCH   3   4
ATOM      4  C   UNL     1      64.729  17.764  36.688  1.00  0.00     0.000 C 
BRANCH   4   5
ATOM      5  C   UNL     1      63.381  18.370  37.122  1.00  0.00     0.000 C 
BRANCH   5   6
ATOM      6  C   UNL     1      63.291  18.730  38.616  1.00  0.00     0.000 C 
BRANCH   6   7
ATOM      7  C   UNL     1      63.810  17.648  39.584  1.00  0.00     0.000 C 
BRANCH   7   8
ATOM      8  C   UNL     1      62.843  17.261  40.718  1.00  0.00     0.000 C 
BRANCH   8   9
ATOM      9  C   UNL     1      61.560  16.585  40.213  1.00  0.00     0.000 C 
BRANCH   9  10
ATOM     10  C   UNL     1      60.335  17.471  40.472  1.00  0.00     0.006 C 
BRANCH  10  11
ATOM     11  C   UNL     1      59.176  17.093  39.544  1.00  0.00     0.053 C 
BRANCH  11  12
ATOM     12  C   UNL     1      59.579  17.226  38.108  1.00  0.00     0.041 C 
ATOM     13  O   UNL     1      59.874  18.355  37.636  1.00  0.00    -0.550 OA
ATOM     14  O   UNL     1      59.621  16.100  37.288  1.00  0.00    -0.550 OA
ENDBRANCH  11  12
ENDBRANCH  10  11
ENDBRANCH   9  10
ENDBRANCH   8   9
ENDBRANCH   7   8
ENDBRANCH   6   7
ENDBRANCH   5   6
ENDBRANCH   4   5
ENDBRANCH   3   4
ENDBRANCH   2   3
ENDBRANCH   1   2
BRANCH   1  15
ATOM     15  C   UNL     1      62.842  14.524  37.690  1.00  0.00     0.000 C 
BRANCH  15  16
ATOM     16  C   UNL     1      63.958  13.851  38.510  1.00  0.00     0.000 C 
BRANCH  16  17
ATOM     17  C   UNL     1      63.505  12.651  39.362  1.00  0.00     0.000 C 
BRANCH  17  18
ATOM     18  C   UNL     1      62.373  13.003  40.338  1.00  0.00    -0.000 C 
BRANCH  18  19
ATOM     19  C   UNL     1      61.555  11.758  40.705  1.00  0.00    -0.000 C 
BRANCH  19  20
ATOM     20  C   UNL     1      60.055  12.053  40.865  1.00  0.00    -0.000 C 
BRANCH  20  21
ATOM     21  C   UNL     1      59.637  13.445  40.340  1.00  0.00    -0.000 C 
BRANCH  21  22
ATOM     22  C   UNL     1      58.567  13.354  39.238  1.00  0.00    -0.000 C 
BRANCH  22  23
ATOM     23  C   UNL     1      58.847  12.232  38.223  1.00  0.00    -0.000 C 
BRANCH  23  24
ATOM     24  C   UNL     1      59.773  12.624  37.053  1.00  0.00    -0.000 C 
BRANCH  24  25
ATOM     25  C   UNL     1      60.822  11.566  36.671  1.00  0.00    -0.003 C 
ATOM     26  C   UNL     1      60.666  10.261  37.450  1.00  0.00     0.004 C 
ENDBRANCH  24  25
ENDBRANCH  23  24
ENDBRANCH  22  23
ENDBRANCH  21  22
ENDBRANCH  20  21
ENDBRANCH  19  20
ENDBRANCH  18  19
ENDBRANCH  17  18
ENDBRANCH  16  17
ENDBRANCH  15  16
ENDBRANCH   1  15
TORSDOF 22
ENDMDL
MODEL 5
REMARK VINA RESULT:    -4.326      1.118      2.127
REMARK INTER + INTRA:         -14.386
REMARK INTER:                 -10.525
REMARK INTRA:                  -3.861
REMARK UNBOUND:                -4.495
REMARK SMILES CCCCCCCCCCCCCCCCCCCCCCCC(=O)[O-]
REMARK SMILES IDX 13 1 14 2 15 3 16 4 17 5 18 6 19 7 20 8 21 9 22 10 23 11
REMARK SMILES IDX 24 12 25 13 26 14 12 15 11 16 10 17 9 18 8 19 7 20 6 21 5 22
REMARK SMILES IDX 4 23 3 24 2 25 1 26
REMARK H PARENT
REMARK Flexibility Score: inf
ROOT
ATOM      1  C   UNL     1      63.950  13.660  39.259  1.00  0.00     0.000 C 
ENDROOT
BRANCH   1   2
ATOM      2  C   UNL     1      63.635  14.528  38.022  1.00  0.00     0.000 C 
BRANCH   2   3
ATOM      3  C   UNL     1      62.153  14.469  37.617  1.00  0.00     0.000 C 
BRANCH   3   4
ATOM      4  C   UNL     1      61.382  15.741  38.029  1.00  0.00     0.000 C 
BRANCH   4   5
ATOM      5  C   UNL     1      60.987  15.764  39.517  1.00  0.00     0.000 C 
BRANCH   5   6
ATOM      6  C   UNL     1      61.463  17.008  40.289  1.00  0.00     0.000 C 
BRANCH   6   7
ATOM      7  C   UNL     1      62.949  16.996  40.700  1.00  0.00     0.000 C 
BRANCH   7   8
ATOM      8  C   UNL     1      63.835  18.037  39.993  1.00  0.00     0.000 C 
BRANCH   8   9
ATOM      9  C   UNL     1      63.071  18.881  38.962  1.00  0.00     0.000 C 
BRANCH   9  10
ATOM     10  C   UNL     1      63.590  18.616  37.544  1.00  0.00     0.006 C 
BRANCH  10  11
ATOM     11  C   UNL     1      64.874  17.781  37.574  1.00  0.00     0.053 C 
BRANCH  11  12
ATOM     12  C   UNL     1      65.445  17.631  36.198  1.00  0.00     0.041 C 
ATOM     13  O   UNL     1      66.539  18.182  35.903  1.00  0.00    -0.550 OA
ATOM     14  O   UNL     1      64.763  16.890  35.236  1.00  0.00    -0.550 OA
ENDBRANCH  11  12
ENDBRANCH  10  11
ENDBRANCH   9  10
ENDBRANCH   8   9
ENDBRANCH   7   8
ENDBRANCH   6   7
ENDBRANCH   5   6
ENDBRANCH   4   5
ENDBRANCH   3   4
ENDBRANCH   2   3
ENDBRANCH   1   2
BRANCH   1  15
ATOM     15  C   UNL     1      63.406  12.221  39.172  1.00  0.00     0.000 C 
BRANCH  15  16
ATOM     16  C   UNL     1      62.554  11.767  40.371  1.00  0.00     0.000 C 
BRANCH  16  17
ATOM     17  C   UNL     1      61.155  12.405  40.454  1.00  0.00     0.000 C 
BRANCH  17  18
ATOM     18  C   UNL     1      60.059  11.527  39.833  1.00  0.00    -0.000 C 
BRANCH  18  19
ATOM     19  C   UNL     1      59.627  12.069  38.465  1.00  0.00    -0.000 C 
BRANCH  19  20
ATOM     20  C   UNL     1      60.353  11.385  37.294  1.00  0.00    -0.000 C 
BRANCH  20  21
ATOM     21  C   UNL     1      60.320   9.842  37.360  1.00  0.00    -0.000 C 
BRANCH  21  22
ATOM     22  C   UNL     1      61.724   9.239  37.542  1.00  0.00    -0.000 C 
BRANCH  22  23
ATOM     23  C   UNL     1      61.812   8.275  38.739  1.00  0.00    -0.000 C 
BRANCH  23  24
ATOM     24  C   UNL     1      63.180   8.240  39.452  1.00  0.00    -0.000 C 
BRANCH  24  25
ATOM     25  C   UNL     1      64.190   7.236  38.871  1.00  0.00    -0.003 C 
ATOM     26  C   UNL     1      65.230   6.776  39.892  1.00  0.00     0.004 C 
ENDBRANCH  24  25
ENDBRANCH  23  24
ENDBRANCH  22  23
ENDBRANCH  21  22
ENDBRANCH  20  21
ENDBRANCH  19  20
ENDBRANCH  18  19
ENDBRANCH  17  18
ENDBRANCH  16  17
ENDBRANCH  15  16
ENDBRANCH   1  15
TORSDOF 22
ENDMDL
MODEL 6
REMARK VINA RESULT:    -4.287      3.103      7.296
REMARK INTER + INTRA:         -14.296
REMARK INTER:                 -10.130
REMARK INTRA:                  -4.166
REMARK UNBOUND:                -4.495
REMARK SMILES CCCCCCCCCCCCCCCCCCCCCCCC(=O)[O-]
REMARK SMILES IDX 13 1 14 2 15 3 16 4 17 5 18 6 19 7 20 8 21 9 22 10 23 11
REMARK SMILES IDX 24 12 25 13 26 14 12 15 11 16 10 17 9 18 8 19 7 20 6 21 5 22
REMARK SMILES IDX 4 23 3 24 2 25 1 26
REMARK H PARENT
REMARK Flexibility Score: inf
ROOT
ATOM      1  C   UNL     1      63.553  14.670  37.073  1.00  0.00     0.000 C 
ENDROOT
BRANCH   1   2
ATOM      2  C   UNL     1      64.351  14.197  38.308  1.00  0.00     0.000 C 
BRANCH   2   3
ATOM      3  C   UNL     1      63.483  14.097  39.573  1.00  0.00     0.000 C 
BRANCH   3   4
ATOM      4  C   UNL     1      62.956  12.665  39.810  1.00  0.00     0.000 C 
BRANCH   4   5
ATOM      5  C   UNL     1      61.508  12.623  40.332  1.00  0.00     0.000 C 
BRANCH   5   6
ATOM      6  C   UNL     1      60.448  12.304  39.262  1.00  0.00     0.000 C 
BRANCH   6   7
ATOM      7  C   UNL     1      61.006  11.992  37.859  1.00  0.00     0.000 C 
BRANCH   7   8
ATOM      8  C   UNL     1      61.111  10.496  37.510  1.00  0.00     0.000 C 
BRANCH   8   9
ATOM      9  C   UNL     1      60.242   9.604  38.408  1.00  0.00     0.000 C 
BRANCH   9  10
ATOM     10  C   UNL     1      61.094   8.542  39.113  1.00  0.00     0.006 C 
BRANCH  10  11
ATOM     11  C   UNL     1      62.539   9.022  39.289  1.00  0.00     0.053 C 
BRANCH  11  12
ATOM     12  C   UNL     1      63.507   7.967  38.848  1.00  0.00     0.041 C 
ATOM     13  O   UNL     1      64.271   7.421  39.686  1.00  0.00    -0.550 OA
ATOM     14  O   UNL     1      63.570   7.594  37.507  1.00  0.00    -0.550 OA
ENDBRANCH  11  12
ENDBRANCH  10  11
ENDBRANCH   9  10
ENDBRANCH   8   9
ENDBRANCH   7   8
ENDBRANCH   6   7
ENDBRANCH   5   6
ENDBRANCH   4   5
ENDBRANCH   3   4
ENDBRANCH   2   3
ENDBRANCH   1   2
BRANCH   1  15
ATOM     15  C   UNL     1      64.433  15.087  35.879  1.00  0.00     0.000 C 
BRANCH  15  16
ATOM     16  C   UNL     1      64.614  16.604  35.695  1.00  0.00     0.000 C 
BRANCH  16  17
ATOM     17  C   UNL     1      63.535  17.474  36.367  1.00  0.00     0.000 C 
BRANCH  17  18
ATOM     18  C   UNL     1      64.118  18.484  37.367  1.00  0.00    -0.000 C 
BRANCH  18  19
ATOM     19  C   UNL     1      64.652  17.774  38.618  1.00  0.00    -0.000 C 
BRANCH  19  20
ATOM     20  C   UNL     1      63.748  17.965  39.847  1.00  0.00    -0.000 C 
BRANCH  20  21
ATOM     21  C   UNL     1      62.666  19.051  39.657  1.00  0.00    -0.000 C 
BRANCH  21  22
ATOM     22  C   UNL     1      61.242  18.475  39.756  1.00  0.00    -0.000 C 
BRANCH  22  23
ATOM     23  C   UNL     1      61.214  17.033  40.293  1.00  0.00    -0.000 C 
BRANCH  23  24
ATOM     24  C   UNL     1      60.274  16.071  39.537  1.00  0.00    -0.000 C 
BRANCH  24  25
ATOM     25  C   UNL     1      60.508  15.992  38.019  1.00  0.00    -0.003 C 
ATOM     26  C   UNL     1      59.347  15.340  37.268  1.00  0.00     0.004 C 
ENDBRANCH  24  25
ENDBRANCH  23  24
ENDBRANCH  22  23
ENDBRANCH  21  22
ENDBRANCH  20  21
ENDBRANCH  19  20
ENDBRANCH  18  19
ENDBRANCH  17  18
ENDBRANCH  16  17
ENDBRANCH  15  16
ENDBRANCH   1  15
TORSDOF 22
ENDMDL
MODEL 7
REMARK VINA RESULT:    -4.269      2.505      6.587
REMARK INTER + INTRA:         -14.254
REMARK INTER:                  -9.782
REMARK INTRA:                  -4.472
REMARK UNBOUND:                -4.495
REMARK SMILES CCCCCCCCCCCCCCCCCCCCCCCC(=O)[O-]
REMARK SMILES IDX 13 1 14 2 15 3 16 4 17 5 18 6 19 7 20 8 21 9 22 10 23 11
REMARK SMILES IDX 24 12 25 13 26 14 12 15 11 16 10 17 9 18 8 19 7 20 6 21 5 22
REMARK SMILES IDX 4 23 3 24 2 25 1 26
REMARK H PARENT
REMARK Flexibility Score: inf
ROOT
ATOM      1  C   UNL     1      60.240  18.213  37.985  1.00  0.00     0.000 C 
ENDROOT
BRANCH   1   2
ATOM      2  C   UNL     1      59.466  18.001  39.304  1.00  0.00     0.000 C 
BRANCH   2   3
ATOM      3  C   UNL     1      59.314  16.516  39.673  1.00  0.00     0.000 C 
BRANCH   3   4
ATOM      4  C   UNL     1      59.286  15.604  38.427  1.00  0.00     0.000 C 
BRANCH   4   5
ATOM      5  C   UNL     1      59.713  14.154  38.720  1.00  0.00     0.000 C 
BRANCH   5   6
ATOM      6  C   UNL     1      59.775  13.792  40.215  1.00  0.00     0.000 C 
BRANCH   6   7
ATOM      7  C   UNL     1      60.087  12.313  40.520  1.00  0.00     0.000 C 
BRANCH   7   8
ATOM      8  C   UNL     1      61.572  11.991  40.769  1.00  0.00     0.000 C 
BRANCH   8   9
ATOM      9  C   UNL     1      62.189  11.105  39.677  1.00  0.00     0.000 C 
BRANCH   9  10
ATOM     10  C   UNL     1      61.143  10.150  39.089  1.00  0.00     0.006 C 
BRANCH  10  11
ATOM     11  C   UNL     1      61.317  10.008  37.574  1.00  0.00     0.053 C 
BRANCH  11  12
ATOM     12  C   UNL     1      60.474  11.007  36.844  1.00  0.00     0.041 C 
ATOM     13  O   UNL     1      61.012  11.990  36.270  1.00  0.00    -0.550 OA
ATOM     14  O   UNL     1      59.089  10.856  36.806  1.00  0.00    -0.550 OA
ENDBRANCH  11  12
ENDBRANCH  10  11
ENDBRANCH   9  10
ENDBRANCH   8   9
ENDBRANCH   7   8
ENDBRANCH   6   7
ENDBRANCH   5   6
ENDBRANCH   4   5
ENDBRANCH   3   4
ENDBRANCH   2   3
ENDBRANCH   1   2
BRANCH   1  15
ATOM     15  C   UNL     1      61.593  18.929  38.160  1.00  0.00     0.000 C 
BRANCH  15  16
ATOM     16  C   UNL     1      62.067  19.093  39.615  1.00  0.00     0.000 C 
BRANCH  16  17
ATOM     17  C   UNL     1      63.410  18.413  39.942  1.00  0.00     0.000 C 
BRANCH  17  18
ATOM     18  C   UNL     1      63.240  17.059  40.647  1.00  0.00    -0.000 C 
BRANCH  18  19
ATOM     19  C   UNL     1      62.755  15.984  39.666  1.00  0.00    -0.000 C 
BRANCH  19  20
ATOM     20  C   UNL     1      63.610  14.707  39.708  1.00  0.00    -0.000 C 
BRANCH  20  21
ATOM     21  C   UNL     1      63.879  14.095  38.315  1.00  0.00    -0.000 C 
BRANCH  21  22
ATOM     22  C   UNL     1      63.072  14.796  37.207  1.00  0.00    -0.000 C 
BRANCH  22  23
ATOM     23  C   UNL     1      63.964  15.519  36.183  1.00  0.00    -0.000 C 
BRANCH  23  24
ATOM     24  C   UNL     1      63.872  17.059  36.207  1.00  0.00    -0.000 C 
BRANCH  24  25
ATOM     25  C   UNL     1      65.188  17.784  36.538  1.00  0.00    -0.003 C 
ATOM     26  C   UNL     1      65.994  17.089  37.635  1.00  0.00     0.004 C 
ENDBRANCH  24  25
ENDBRANCH  23  24
ENDBRANCH  22  23
ENDBRANCH  21  22
ENDBRANCH  20  21
ENDBRANCH  19  20
ENDBRANCH  18  19
ENDBRANCH  17  18
ENDBRANCH  16  17
ENDBRANCH  15  16
ENDBRANCH   1  15
TORSDOF 22
ENDMDL
MODEL 8
REMARK VINA RESULT:    -4.211      3.065      6.865
REMARK INTER + INTRA:         -14.121
REMARK INTER:                  -9.738
REMARK INTRA:                  -4.383
REMARK UNBOUND:                -4.495
REMARK SMILES CCCCCCCCCCCCCCCCCCCCCCCC(=O)[O-]
REMARK SMILES IDX 13 1 14 2 15 3 16 4 17 5 18 6 19 7 20 8 21 9 22 10 23 11
REMARK SMILES IDX 24 12 25 13 26 14 12 15 11 16 10 17 9 18 8 19 7 20 6 21 5 22
REMARK SMILES IDX 4 23 3 24 2 25 1 26
REMARK H PARENT
REMARK Flexibility Score: inf
ROOT
ATOM      1  C   UNL     1      59.101  17.846  38.743  1.00  0.00     0.000 C 
ENDROOT
BRANCH   1   2
ATOM      2  C   UNL     1      58.982  17.956  40.278  1.00  0.00     0.000 C 
BRANCH   2   3
ATOM      3  C   UNL     1      59.065  16.589  40.979  1.00  0.00     0.000 C 
BRANCH   3   4
ATOM      4  C   UNL     1      58.868  15.415  39.997  1.00  0.00     0.000 C 
BRANCH   4   5
ATOM      5  C   UNL     1      59.504  14.098  40.481  1.00  0.00     0.000 C 
BRANCH   5   6
ATOM      6  C   UNL     1      59.448  12.945  39.462  1.00  0.00     0.000 C 
BRANCH   6   7
ATOM      7  C   UNL     1      58.969  13.340  38.051  1.00  0.00     0.000 C 
BRANCH   7   8
ATOM      8  C   UNL     1      59.638  12.579  36.892  1.00  0.00     0.000 C 
BRANCH   8   9
ATOM      9  C   UNL     1      60.881  11.788  37.327  1.00  0.00     0.000 C 
BRANCH   9  10
ATOM     10  C   UNL     1      60.721  10.297  37.004  1.00  0.00     0.006 C 
BRANCH  10  11
ATOM     11  C   UNL     1      60.883   9.441  38.265  1.00  0.00     0.053 C 
BRANCH  11  12
ATOM     12  C   UNL     1      62.328   9.301  38.631  1.00  0.00     0.041 C 
ATOM     13  O   UNL     1      63.137   8.772  37.824  1.00  0.00    -0.550 OA
ATOM     14  O   UNL     1      62.781   9.748  39.871  1.00  0.00    -0.550 OA
ENDBRANCH  11  12
ENDBRANCH  10  11
ENDBRANCH   9  10
ENDBRANCH   8   9
ENDBRANCH   7   8
ENDBRANCH   6   7
ENDBRANCH   5   6
ENDBRANCH   4   5
ENDBRANCH   3   4
ENDBRANCH   2   3
ENDBRANCH   1   2
BRANCH   1  15
ATOM     15  C   UNL     1      60.347  18.538  38.158  1.00  0.00     0.000 C 
BRANCH  15  16
ATOM     16  C   UNL     1      61.243  19.255  39.185  1.00  0.00     0.000 C 
BRANCH  16  17
ATOM     17  C   UNL     1      62.741  18.911  39.093  1.00  0.00     0.000 C 
BRANCH  17  18
ATOM     18  C   UNL     1      63.268  18.189  40.342  1.00  0.00    -0.000 C 
BRANCH  18  19
ATOM     19  C   UNL     1      62.615  16.810  40.498  1.00  0.00    -0.000 C 
BRANCH  19  20
ATOM     20  C   UNL     1      63.466  15.675  39.905  1.00  0.00    -0.000 C 
BRANCH  20  21
ATOM     21  C   UNL     1      62.665  14.703  39.011  1.00  0.00    -0.000 C 
BRANCH  21  22
ATOM     22  C   UNL     1      62.151  15.382  37.729  1.00  0.00    -0.000 C 
BRANCH  22  23
ATOM     23  C   UNL     1      62.814  14.834  36.453  1.00  0.00    -0.000 C 
BRANCH  23  24
ATOM     24  C   UNL     1      64.239  15.359  36.178  1.00  0.00    -0.000 C 
BRANCH  24  25
ATOM     25  C   UNL     1      64.417  16.877  36.349  1.00  0.00    -0.003 C 
ATOM     26  C   UNL     1      65.571  17.242  37.282  1.00  0.00     0.004 C 
ENDBRANCH  24  25
ENDBRANCH  23  24
ENDBRANCH  22  23
ENDBRANCH  21  22
ENDBRANCH  20  21
ENDBRANCH  19  20
ENDBRANCH  18  19
ENDBRANCH  17  18
ENDBRANCH  16  17
ENDBRANCH  15  16
ENDBRANCH   1  15
TORSDOF 22
ENDMDL
MODEL 9
REMARK VINA RESULT:    -4.127      2.970      7.381
REMARK INTER + INTRA:         -13.931
REMARK INTER:                  -9.649
REMARK INTRA:                  -4.282
REMARK UNBOUND:                -4.495
REMARK SMILES CCCCCCCCCCCCCCCCCCCCCCCC(=O)[O-]
REMARK SMILES IDX 13 1 14 2 15 3 16 4 17 5 18 6 19 7 20 8 21 9 22 10 23 11
REMARK SMILES IDX 24 12 25 13 26 14 12 15 11 16 10 17 9 18 8 19 7 20 6 21 5 22
REMARK SMILES IDX 4 23 3 24 2 25 1 26
REMARK H PARENT
REMARK Flexibility Score: inf
ROOT
ATOM      1  C   UNL     1      62.698  14.360  37.848  1.00  0.00     0.000 C 
ENDROOT
BRANCH   1   2
ATOM      2  C   UNL     1      62.809  14.026  39.352  1.00  0.00     0.000 C 
BRANCH   2   3
ATOM      3  C   UNL     1      63.148  12.548  39.608  1.00  0.00     0.000 C 
BRANCH   3   4
ATOM      4  C   UNL     1      62.136  11.872  40.559  1.00  0.00     0.000 C 
BRANCH   4   5
ATOM      5  C   UNL     1      60.878  12.721  40.819  1.00  0.00     0.000 C 
BRANCH   5   6
ATOM      6  C   UNL     1      59.549  11.953  40.703  1.00  0.00     0.000 C 
BRANCH   6   7
ATOM      7  C   UNL     1      58.662  12.353  39.507  1.00  0.00     0.000 C 
BRANCH   7   8
ATOM      8  C   UNL     1      58.793  11.456  38.262  1.00  0.00     0.000 C 
BRANCH   8   9
ATOM      9  C   UNL     1      59.845  11.960  37.263  1.00  0.00     0.000 C 
BRANCH   9  10
ATOM     10  C   UNL     1      60.934  10.905  37.035  1.00  0.00     0.006 C 
BRANCH  10  11
ATOM     11  C   UNL     1      60.697   9.671  37.912  1.00  0.00     0.053 C 
BRANCH  11  12
ATOM     12  C   UNL     1      61.950   8.862  38.042  1.00  0.00     0.041 C 
ATOM     13  O   UNL     1      62.504   8.384  37.017  1.00  0.00    -0.550 OA
ATOM     14  O   UNL     1      62.504   8.628  39.299  1.00  0.00    -0.550 OA
ENDBRANCH  11  12
ENDBRANCH  10  11
ENDBRANCH   9  10
ENDBRANCH   8   9
ENDBRANCH   7   8
ENDBRANCH   6   7
ENDBRANCH   5   6
ENDBRANCH   4   5
ENDBRANCH   3   4
ENDBRANCH   2   3
ENDBRANCH   1   2
BRANCH   1  15
ATOM     15  C   UNL     1      61.545  15.322  37.502  1.00  0.00     0.000 C 
BRANCH  15  16
ATOM     16  C   UNL     1      60.431  15.419  38.560  1.00  0.00     0.000 C 
BRANCH  16  17
ATOM     17  C   UNL     1      59.508  16.644  38.421  1.00  0.00     0.000 C 
BRANCH  17  18
ATOM     18  C   UNL     1      60.257  17.913  37.990  1.00  0.00    -0.000 C 
BRANCH  18  19
ATOM     19  C   UNL     1      60.371  18.907  39.152  1.00  0.00    -0.000 C 
BRANCH  19  20
ATOM     20  C   UNL     1      61.826  19.174  39.572  1.00  0.00    -0.000 C 
BRANCH  20  21
ATOM     21  C   UNL     1      62.506  17.965  40.252  1.00  0.00    -0.000 C 
BRANCH  21  22
ATOM     22  C   UNL     1      63.964  17.783  39.792  1.00  0.00    -0.000 C 
BRANCH  22  23
ATOM     23  C   UNL     1      64.109  17.751  38.261  1.00  0.00    -0.000 C 
BRANCH  23  24
ATOM     24  C   UNL     1      65.517  17.388  37.744  1.00  0.00    -0.000 C 
BRANCH  24  25
ATOM     25  C   UNL     1      65.718  17.561  36.229  1.00  0.00    -0.003 C 
ATOM     26  C   UNL     1      64.567  16.988  35.403  1.00  0.00     0.004 C 
ENDBRANCH  24  25
ENDBRANCH  23  24
ENDBRANCH  22  23
ENDBRANCH  21  22
ENDBRANCH  20  21
ENDBRANCH  19  20
ENDBRANCH  18  19
ENDBRANCH  17  18
ENDBRANCH  16  17
ENDBRANCH  15  16
ENDBRANCH   1  15
TORSDOF 22
ENDMDL
