MODEL 1
REMARK VINA RESULT:    -7.183      0.000      0.000
REMARK INTER + INTRA:          -9.080
REMARK INTER:                  -8.862
REMARK INTRA:                  -0.218
REMARK UNBOUND:                -0.218
REMARK SMILES Oc1cc(O)c2cc(O)c(-c3cc(O)c(O)c(O)c3)[o+]c2c1.[Cl-]
REMARK SMILES IDX 10 1 20 2 21 3 22 4 2 5 3 6 4 7 6 8 7 9 8 10 11 11 12 12
REMARK SMILES IDX 13 13 19 14 15 15 17 16 14 17 16 19 18 21 9 23 1 25 5 27
REMARK H PARENT 14 18 16 20 18 22 9 24 1 26 5 28
REMARK Flexibility Score: inf
ROOT
ATOM      1  C   UNL     1      -0.961  -0.444  -4.016  1.00  0.00     0.402 A 
ATOM      2  O   UNL     1      -1.285  -1.541  -3.337  1.00  0.00    -0.202 OA
ATOM      3  C   UNL     1      -2.394  -1.649  -2.613  1.00  0.00     0.368 A 
ATOM      4  C   UNL     1      -2.651  -2.846  -1.936  1.00  0.00     0.162 A 
ATOM      5  C   UNL     1      -3.808  -2.989  -1.171  1.00  0.00     0.128 A 
ATOM      6  C   UNL     1      -4.719  -1.931  -1.080  1.00  0.00     0.093 A 
ATOM      7  C   UNL     1      -4.486  -0.722  -1.748  1.00  0.00     0.136 A 
ATOM      8  C   UNL     1      -3.308  -0.572  -2.526  1.00  0.00     0.125 A 
ATOM      9  C   UNL     1      -2.985   0.607  -3.218  1.00  0.00     0.078 A 
ATOM     10  C   UNL     1      -1.803   0.682  -3.961  1.00  0.00     0.223 A 
ENDROOT
BRANCH   1  11
ATOM     11  C   UNL     1       0.299  -0.448  -4.795  1.00  0.00     0.091 A 
ATOM     12  C   UNL     1       0.298  -0.262  -6.187  1.00  0.00     0.068 A 
ATOM     13  C   UNL     1       1.499  -0.292  -6.911  1.00  0.00     0.162 A 
ATOM     14  C   UNL     1       1.514  -0.701  -4.140  1.00  0.00     0.068 A 
ATOM     15  C   UNL     1       2.713  -0.523  -6.242  1.00  0.00     0.200 A 
ATOM     16  C   UNL     1       2.718  -0.731  -4.857  1.00  0.00     0.162 A 
BRANCH  13  17
ATOM     17  O   UNL     1       1.489  -0.100  -8.292  1.00  0.00    -0.504 OA
ATOM     18  H   UNL     1       0.941   0.635  -8.721  1.00  0.00     0.293 HD
ENDBRANCH  13  17
BRANCH  15  19
ATOM     19  O   UNL     1       3.921  -0.554  -6.939  1.00  0.00    -0.502 OA
ATOM     20  H   UNL     1       3.960  -0.654  -7.946  1.00  0.00     0.293 HD
ENDBRANCH  15  19
BRANCH  16  21
ATOM     21  O   UNL     1       3.923  -0.968  -4.199  1.00  0.00    -0.504 OA
ATOM     22  H   UNL     1       4.806  -0.645  -4.577  1.00  0.00     0.293 HD
ENDBRANCH  16  21
ENDBRANCH   1  11
BRANCH  10  23
ATOM     23  O   UNL     1      -1.458   1.868  -4.608  1.00  0.00    -0.500 OA
ATOM     24  H   UNL     1      -1.073   1.872  -5.545  1.00  0.00     0.294 HD
ENDBRANCH  10  23
BRANCH   5  25
ATOM     25  O   UNL     1      -4.045  -4.189  -0.503  1.00  0.00    -0.507 OA
ATOM     26  H   UNL     1      -3.285  -4.803  -0.234  1.00  0.00     0.293 HD
ENDBRANCH   5  25
BRANCH   7  27
ATOM     27  O   UNL     1      -5.445   0.285  -1.611  1.00  0.00    -0.507 OA
ATOM     28  H   UNL     1      -5.973   0.678  -2.376  1.00  0.00     0.293 HD
ENDBRANCH   7  27
TORSDOF 7
ENDMDL
MODEL 2
REMARK VINA RESULT:    -7.147      4.761      7.153
REMARK INTER + INTRA:          -9.036
REMARK INTER:                  -8.658
REMARK INTRA:                  -0.377
REMARK UNBOUND:                -0.218
REMARK SMILES Oc1cc(O)c2cc(O)c(-c3cc(O)c(O)c(O)c3)[o+]c2c1.[Cl-]
REMARK SMILES IDX 10 1 20 2 21 3 22 4 2 5 3 6 4 7 6 8 7 9 8 10 11 11 12 12
REMARK SMILES IDX 13 13 19 14 15 15 17 16 14 17 16 19 18 21 9 23 1 25 5 27
REMARK H PARENT 14 18 16 20 18 22 9 24 1 26 5 28
REMARK Flexibility Score: inf
ROOT
ATOM      1  C   UNL     1       2.795   2.155  -3.152  1.00  0.00     0.402 A 
ATOM      2  O   UNL     1       3.825   2.249  -2.316  1.00  0.00    -0.202 OA
ATOM      3  C   UNL     1       4.051   3.314  -1.554  1.00  0.00     0.368 A 
ATOM      4  C   UNL     1       5.160   3.319  -0.703  1.00  0.00     0.162 A 
ATOM      5  C   UNL     1       5.420   4.422   0.110  1.00  0.00     0.128 A 
ATOM      6  C   UNL     1       4.566   5.530   0.076  1.00  0.00     0.093 A 
ATOM      7  C   UNL     1       3.449   5.550  -0.767  1.00  0.00     0.136 A 
ATOM      8  C   UNL     1       3.182   4.430  -1.598  1.00  0.00     0.125 A 
ATOM      9  C   UNL     1       2.093   4.368  -2.483  1.00  0.00     0.078 A 
ATOM     10  C   UNL     1       1.898   3.232  -3.274  1.00  0.00     0.223 A 
ENDROOT
BRANCH   1  11
ATOM     11  C   UNL     1       2.644   0.911  -3.942  1.00  0.00     0.091 A 
ATOM     12  C   UNL     1       1.774  -0.114  -3.535  1.00  0.00     0.068 A 
ATOM     13  C   UNL     1       1.662  -1.293  -4.284  1.00  0.00     0.162 A 
ATOM     14  C   UNL     1       3.429   0.725  -5.090  1.00  0.00     0.068 A 
ATOM     15  C   UNL     1       2.436  -1.460  -5.446  1.00  0.00     0.200 A 
ATOM     16  C   UNL     1       3.321  -0.451  -5.845  1.00  0.00     0.162 A 
BRANCH  13  17
ATOM     17  O   UNL     1       0.791  -2.302  -3.875  1.00  0.00    -0.504 OA
ATOM     18  H   UNL     1      -0.059  -2.095  -3.364  1.00  0.00     0.293 HD
ENDBRANCH  13  17
BRANCH  15  19
ATOM     19  O   UNL     1       2.339  -2.624  -6.210  1.00  0.00    -0.502 OA
ATOM     20  H   UNL     1       2.970  -3.406  -6.083  1.00  0.00     0.293 HD
ENDBRANCH  15  19
BRANCH  16  21
ATOM     21  O   UNL     1       4.092  -0.625  -6.993  1.00  0.00    -0.504 OA
ATOM     22  H   UNL     1       5.000  -0.187  -7.093  1.00  0.00     0.293 HD
ENDBRANCH  16  21
ENDBRANCH   1  11
BRANCH  10  23
ATOM     23  O   UNL     1       0.846   3.190  -4.189  1.00  0.00    -0.500 OA
ATOM     24  H   UNL     1      -0.107   3.398  -3.916  1.00  0.00     0.294 HD
ENDBRANCH  10  23
BRANCH   5  25
ATOM     25  O   UNL     1       6.532   4.408   0.951  1.00  0.00    -0.507 OA
ATOM     26  H   UNL     1       7.321   3.797   0.774  1.00  0.00     0.293 HD
ENDBRANCH   5  25
BRANCH   7  27
ATOM     27  O   UNL     1       2.642   6.692  -0.740  1.00  0.00    -0.507 OA
ATOM     28  H   UNL     1       2.518   7.284   0.067  1.00  0.00     0.293 HD
ENDBRANCH   7  27
TORSDOF 7
ENDMDL
MODEL 3
REMARK VINA RESULT:    -7.106      1.164      3.182
REMARK INTER + INTRA:          -8.986
REMARK INTER:                  -8.636
REMARK INTRA:                  -0.350
REMARK UNBOUND:                -0.218
REMARK SMILES Oc1cc(O)c2cc(O)c(-c3cc(O)c(O)c(O)c3)[o+]c2c1.[Cl-]
REMARK SMILES IDX 10 1 20 2 21 3 22 4 2 5 3 6 4 7 6 8 7 9 8 10 11 11 12 12
REMARK SMILES IDX 13 13 19 14 15 15 17 16 14 17 16 19 18 21 9 23 1 25 5 27
REMARK H PARENT 14 18 16 20 18 22 9 24 1 26 5 28
REMARK Flexibility Score: inf
ROOT
ATOM      1  C   UNL     1      -0.607  -1.892  -4.212  1.00  0.00     0.402 A 
ATOM      2  O   UNL     1      -1.504  -1.004  -3.794  1.00  0.00    -0.202 OA
ATOM      3  C   UNL     1      -2.594  -1.335  -3.112  1.00  0.00     0.368 A 
ATOM      4  C   UNL     1      -3.479  -0.328  -2.711  1.00  0.00     0.162 A 
ATOM      5  C   UNL     1      -4.630  -0.646  -1.991  1.00  0.00     0.128 A 
ATOM      6  C   UNL     1      -4.902  -1.979  -1.665  1.00  0.00     0.093 A 
ATOM      7  C   UNL     1      -4.033  -3.006  -2.054  1.00  0.00     0.136 A 
ATOM      8  C   UNL     1      -2.861  -2.687  -2.789  1.00  0.00     0.125 A 
ATOM      9  C   UNL     1      -1.941  -3.651  -3.231  1.00  0.00     0.078 A 
ATOM     10  C   UNL     1      -0.811  -3.260  -3.956  1.00  0.00     0.223 A 
ENDROOT
BRANCH   1  11
ATOM     11  C   UNL     1       0.575  -1.399  -4.957  1.00  0.00     0.091 A 
ATOM     12  C   UNL     1       1.836  -1.300  -4.346  1.00  0.00     0.068 A 
ATOM     13  C   UNL     1       2.938  -0.809  -5.061  1.00  0.00     0.162 A 
ATOM     14  C   UNL     1       0.423  -0.965  -6.283  1.00  0.00     0.068 A 
ATOM     15  C   UNL     1       2.779  -0.398  -6.396  1.00  0.00     0.200 A 
ATOM     16  C   UNL     1       1.520  -0.474  -7.003  1.00  0.00     0.162 A 
BRANCH  13  17
ATOM     17  O   UNL     1       4.187  -0.721  -4.447  1.00  0.00    -0.504 OA
ATOM     18  H   UNL     1       4.724  -1.548  -4.216  1.00  0.00     0.293 HD
ENDBRANCH  13  17
BRANCH  15  19
ATOM     19  O   UNL     1       3.861   0.090  -7.128  1.00  0.00    -0.502 OA
ATOM     20  H   UNL     1       3.880   0.072  -8.141  1.00  0.00     0.293 HD
ENDBRANCH  15  19
BRANCH  16  21
ATOM     21  O   UNL     1       1.366  -0.058  -8.325  1.00  0.00    -0.504 OA
ATOM     22  H   UNL     1       1.044   0.875  -8.553  1.00  0.00     0.293 HD
ENDBRANCH  16  21
ENDBRANCH   1  11
BRANCH  10  23
ATOM     23  O   UNL     1       0.077  -4.222  -4.437  1.00  0.00    -0.500 OA
ATOM     24  H   UNL     1       0.480  -4.158  -5.365  1.00  0.00     0.294 HD
ENDBRANCH  10  23
BRANCH   5  25
ATOM     25  O   UNL     1      -5.499   0.372  -1.602  1.00  0.00    -0.507 OA
ATOM     26  H   UNL     1      -5.423   1.307  -1.985  1.00  0.00     0.293 HD
ENDBRANCH   5  25
BRANCH   7  27
ATOM     27  O   UNL     1      -4.373  -4.311  -1.687  1.00  0.00    -0.507 OA
ATOM     28  H   UNL     1      -4.209  -4.708  -0.773  1.00  0.00     0.293 HD
ENDBRANCH   7  27
TORSDOF 7
ENDMDL
MODEL 4
REMARK VINA RESULT:    -7.060      3.204      5.282
REMARK INTER + INTRA:          -8.928
REMARK INTER:                  -8.558
REMARK INTRA:                  -0.371
REMARK UNBOUND:                -0.218
REMARK SMILES Oc1cc(O)c2cc(O)c(-c3cc(O)c(O)c(O)c3)[o+]c2c1.[Cl-]
REMARK SMILES IDX 10 1 20 2 21 3 22 4 2 5 3 6 4 7 6 8 7 9 8 10 11 11 12 12
REMARK SMILES IDX 13 13 19 14 15 15 17 16 14 17 16 19 18 21 9 23 1 25 5 27
REMARK H PARENT 14 18 16 20 18 22 9 24 1 26 5 28
REMARK Flexibility Score: inf
ROOT
ATOM      1  C   UNL     1      -0.861   0.940  -3.347  1.00  0.00     0.402 A 
ATOM      2  O   UNL     1      -0.001   0.233  -4.073  1.00  0.00    -0.202 OA
ATOM      3  C   UNL     1      -0.132  -1.070  -4.296  1.00  0.00     0.368 A 
ATOM      4  C   UNL     1       0.824  -1.727  -5.076  1.00  0.00     0.162 A 
ATOM      5  C   UNL     1       0.709  -3.095  -5.329  1.00  0.00     0.128 A 
ATOM      6  C   UNL     1      -0.368  -3.813  -4.800  1.00  0.00     0.093 A 
ATOM      7  C   UNL     1      -1.339  -3.179  -4.015  1.00  0.00     0.136 A 
ATOM      8  C   UNL     1      -1.225  -1.788  -3.754  1.00  0.00     0.125 A 
ATOM      9  C   UNL     1      -2.143  -1.073  -2.968  1.00  0.00     0.078 A 
ATOM     10  C   UNL     1      -1.961   0.296  -2.751  1.00  0.00     0.223 A 
ENDROOT
BRANCH   1  11
ATOM     11  C   UNL     1      -0.612   2.390  -3.178  1.00  0.00     0.091 A 
ATOM     12  C   UNL     1      -1.291   3.345  -3.953  1.00  0.00     0.068 A 
ATOM     13  C   UNL     1      -1.024   4.712  -3.795  1.00  0.00     0.162 A 
ATOM     14  C   UNL     1       0.366   2.820  -2.268  1.00  0.00     0.068 A 
ATOM     15  C   UNL     1      -0.060   5.134  -2.863  1.00  0.00     0.200 A 
ATOM     16  C   UNL     1       0.636   4.186  -2.104  1.00  0.00     0.162 A 
BRANCH  13  17
ATOM     17  O   UNL     1      -1.709   5.652  -4.564  1.00  0.00    -0.504 OA
ATOM     18  H   UNL     1      -2.078   5.423  -5.478  1.00  0.00     0.293 HD
ENDBRANCH  13  17
BRANCH  15  19
ATOM     19  O   UNL     1       0.220   6.489  -2.686  1.00  0.00    -0.502 OA
ATOM     20  H   UNL     1      -0.405   7.216  -3.011  1.00  0.00     0.293 HD
ENDBRANCH  15  19
BRANCH  16  21
ATOM     21  O   UNL     1       1.598   4.608  -1.187  1.00  0.00    -0.504 OA
ATOM     22  H   UNL     1       1.536   4.366  -0.205  1.00  0.00     0.293 HD
ENDBRANCH  16  21
ENDBRANCH   1  11
BRANCH  10  23
ATOM     23  O   UNL     1      -2.845   0.997  -1.930  1.00  0.00    -0.500 OA
ATOM     24  H   UNL     1      -3.088   1.964  -2.111  1.00  0.00     0.294 HD
ENDBRANCH  10  23
BRANCH   5  25
ATOM     25  O   UNL     1       1.673  -3.731  -6.109  1.00  0.00    -0.507 OA
ATOM     26  H   UNL     1       2.616  -3.368  -6.185  1.00  0.00     0.293 HD
ENDBRANCH   5  25
BRANCH   7  27
ATOM     27  O   UNL     1      -2.387  -3.965  -3.527  1.00  0.00    -0.507 OA
ATOM     28  H   UNL     1      -2.284  -4.914  -3.201  1.00  0.00     0.293 HD
ENDBRANCH   7  27
TORSDOF 7
ENDMDL
MODEL 5
REMARK VINA RESULT:    -7.044      3.571      4.791
REMARK INTER + INTRA:          -8.909
REMARK INTER:                  -8.527
REMARK INTRA:                  -0.382
REMARK UNBOUND:                -0.218
REMARK SMILES Oc1cc(O)c2cc(O)c(-c3cc(O)c(O)c(O)c3)[o+]c2c1.[Cl-]
REMARK SMILES IDX 10 1 20 2 21 3 22 4 2 5 3 6 4 7 6 8 7 9 8 10 11 11 12 12
REMARK SMILES IDX 13 13 19 14 15 15 17 16 14 17 16 19 18 21 9 23 1 25 5 27
REMARK H PARENT 14 18 16 20 18 22 9 24 1 26 5 28
REMARK Flexibility Score: inf
ROOT
ATOM      1  C   UNL     1      -3.158  -0.185  -3.338  1.00  0.00     0.402 A 
ATOM      2  O   UNL     1      -2.351  -1.143  -3.784  1.00  0.00    -0.202 OA
ATOM      3  C   UNL     1      -2.428  -2.407  -3.382  1.00  0.00     0.368 A 
ATOM      4  C   UNL     1      -1.537  -3.345  -3.912  1.00  0.00     0.162 A 
ATOM      5  C   UNL     1      -1.597  -4.680  -3.510  1.00  0.00     0.128 A 
ATOM      6  C   UNL     1      -2.553  -5.083  -2.573  1.00  0.00     0.093 A 
ATOM      7  C   UNL     1      -3.457  -4.164  -2.026  1.00  0.00     0.136 A 
ATOM      8  C   UNL     1      -3.398  -2.804  -2.431  1.00  0.00     0.125 A 
ATOM      9  C   UNL     1      -4.254  -1.812  -1.928  1.00  0.00     0.078 A 
ATOM     10  C   UNL     1      -4.133  -0.491  -2.371  1.00  0.00     0.223 A 
ENDROOT
BRANCH   1  11
ATOM     11  C   UNL     1      -2.980   1.186  -3.870  1.00  0.00     0.091 A 
ATOM     12  C   UNL     1      -3.760   1.664  -4.936  1.00  0.00     0.068 A 
ATOM     13  C   UNL     1      -3.561   2.957  -5.441  1.00  0.00     0.162 A 
ATOM     14  C   UNL     1      -1.973   2.006  -3.340  1.00  0.00     0.068 A 
ATOM     15  C   UNL     1      -2.565   3.779  -4.887  1.00  0.00     0.200 A 
ATOM     16  C   UNL     1      -1.769   3.300  -3.839  1.00  0.00     0.162 A 
BRANCH  13  17
ATOM     17  O   UNL     1      -4.345   3.425  -6.495  1.00  0.00    -0.504 OA
ATOM     18  H   UNL     1      -4.406   4.411  -6.714  1.00  0.00     0.293 HD
ENDBRANCH  13  17
BRANCH  15  19
ATOM     19  O   UNL     1      -2.351   5.070  -5.370  1.00  0.00    -0.502 OA
ATOM     20  H   UNL     1      -1.891   5.246  -6.255  1.00  0.00     0.293 HD
ENDBRANCH  15  19
BRANCH  16  21
ATOM     21  O   UNL     1      -0.777   4.116  -3.298  1.00  0.00    -0.504 OA
ATOM     22  H   UNL     1      -0.772   5.117  -3.451  1.00  0.00     0.293 HD
ENDBRANCH  16  21
ENDBRANCH   1  11
BRANCH  10  23
ATOM     23  O   UNL     1      -4.950   0.504  -1.835  1.00  0.00    -0.500 OA
ATOM     24  H   UNL     1      -4.753   0.930  -0.937  1.00  0.00     0.294 HD
ENDBRANCH  10  23
BRANCH   5  25
ATOM     25  O   UNL     1      -0.699  -5.599  -4.050  1.00  0.00    -0.507 OA
ATOM     26  H   UNL     1      -0.730  -6.580  -3.797  1.00  0.00     0.293 HD
ENDBRANCH   5  25
BRANCH   7  27
ATOM     27  O   UNL     1      -4.385  -4.645  -1.099  1.00  0.00    -0.507 OA
ATOM     28  H   UNL     1      -5.026  -5.404  -1.275  1.00  0.00     0.293 HD
ENDBRANCH   7  27
TORSDOF 7
ENDMDL
MODEL 6
REMARK VINA RESULT:    -7.032      1.502      2.033
REMARK INTER + INTRA:          -8.894
REMARK INTER:                  -8.737
REMARK INTRA:                  -0.157
REMARK UNBOUND:                -0.218
REMARK SMILES Oc1cc(O)c2cc(O)c(-c3cc(O)c(O)c(O)c3)[o+]c2c1.[Cl-]
REMARK SMILES IDX 10 1 20 2 21 3 22 4 2 5 3 6 4 7 6 8 7 9 8 10 11 11 12 12
REMARK SMILES IDX 13 13 19 14 15 15 17 16 14 17 16 19 18 21 9 23 1 25 5 27
REMARK H PARENT 14 18 16 20 18 22 9 24 1 26 5 28
REMARK Flexibility Score: inf
ROOT
ATOM      1  C   UNL     1      -1.554  -1.486  -3.341  1.00  0.00     0.402 A 
ATOM      2  O   UNL     1      -1.790  -2.561  -2.594  1.00  0.00    -0.202 OA
ATOM      3  C   UNL     1      -2.872  -2.699  -1.836  1.00  0.00     0.368 A 
ATOM      4  C   UNL     1      -3.034  -3.868  -1.087  1.00  0.00     0.162 A 
ATOM      5  C   UNL     1      -4.162  -4.042  -0.285  1.00  0.00     0.128 A 
ATOM      6  C   UNL     1      -5.138  -3.041  -0.229  1.00  0.00     0.093 A 
ATOM      7  C   UNL     1      -5.000  -1.860  -0.969  1.00  0.00     0.136 A 
ATOM      8  C   UNL     1      -3.852  -1.679  -1.785  1.00  0.00     0.125 A 
ATOM      9  C   UNL     1      -3.624  -0.524  -2.550  1.00  0.00     0.078 A 
ATOM     10  C   UNL     1      -2.466  -0.415  -3.326  1.00  0.00     0.223 A 
ENDROOT
BRANCH   1  11
ATOM     11  C   UNL     1      -0.315  -1.454  -4.152  1.00  0.00     0.091 A 
ATOM     12  C   UNL     1       0.648  -0.446  -3.978  1.00  0.00     0.068 A 
ATOM     13  C   UNL     1       1.803  -0.420  -4.772  1.00  0.00     0.162 A 
ATOM     14  C   UNL     1      -0.123  -2.415  -5.156  1.00  0.00     0.068 A 
ATOM     15  C   UNL     1       1.997  -1.401  -5.759  1.00  0.00     0.200 A 
ATOM     16  C   UNL     1       1.030  -2.396  -5.952  1.00  0.00     0.162 A 
BRANCH  13  17
ATOM     17  O   UNL     1       2.756   0.581  -4.587  1.00  0.00    -0.504 OA
ATOM     18  H   UNL     1       2.499   1.560  -4.554  1.00  0.00     0.293 HD
ENDBRANCH  13  17
BRANCH  15  19
ATOM     19  O   UNL     1       3.141  -1.398  -6.558  1.00  0.00    -0.502 OA
ATOM     20  H   UNL     1       3.126  -1.707  -7.523  1.00  0.00     0.293 HD
ENDBRANCH  15  19
BRANCH  16  21
ATOM     21  O   UNL     1       1.223  -3.362  -6.938  1.00  0.00    -0.504 OA
ATOM     22  H   UNL     1       1.261  -4.349  -6.712  1.00  0.00     0.293 HD
ENDBRANCH  16  21
ENDBRANCH   1  11
BRANCH  10  23
ATOM     23  O   UNL     1      -2.215   0.752  -4.048  1.00  0.00    -0.500 OA
ATOM     24  H   UNL     1      -2.869   1.525  -4.056  1.00  0.00     0.294 HD
ENDBRANCH  10  23
BRANCH   5  25
ATOM     25  O   UNL     1      -4.304  -5.215   0.454  1.00  0.00    -0.507 OA
ATOM     26  H   UNL     1      -4.550  -6.093   0.012  1.00  0.00     0.293 HD
ENDBRANCH   5  25
BRANCH   7  27
ATOM     27  O   UNL     1      -6.020  -0.910  -0.862  1.00  0.00    -0.507 OA
ATOM     28  H   UNL     1      -6.724  -0.748  -1.567  1.00  0.00     0.293 HD
ENDBRANCH   7  27
TORSDOF 7
ENDMDL
MODEL 7
REMARK VINA RESULT:    -7.009      2.778      7.987
REMARK INTER + INTRA:          -8.866
REMARK INTER:                  -8.665
REMARK INTRA:                  -0.202
REMARK UNBOUND:                -0.218
REMARK SMILES Oc1cc(O)c2cc(O)c(-c3cc(O)c(O)c(O)c3)[o+]c2c1.[Cl-]
REMARK SMILES IDX 10 1 20 2 21 3 22 4 2 5 3 6 4 7 6 8 7 9 8 10 11 11 12 12
REMARK SMILES IDX 13 13 19 14 15 15 17 16 14 17 16 19 18 21 9 23 1 25 5 27
REMARK H PARENT 14 18 16 20 18 22 9 24 1 26 5 28
REMARK Flexibility Score: inf
ROOT
ATOM      1  C   UNL     1      -4.424  -1.891  -1.676  1.00  0.00     0.402 A 
ATOM      2  O   UNL     1      -3.848  -3.059  -1.944  1.00  0.00    -0.202 OA
ATOM      3  C   UNL     1      -2.761  -3.180  -2.699  1.00  0.00     0.368 A 
ATOM      4  C   UNL     1      -2.225  -4.452  -2.922  1.00  0.00     0.162 A 
ATOM      5  C   UNL     1      -1.083  -4.608  -3.708  1.00  0.00     0.128 A 
ATOM      6  C   UNL     1      -0.469  -3.487  -4.276  1.00  0.00     0.093 A 
ATOM      7  C   UNL     1      -0.985  -2.202  -4.068  1.00  0.00     0.136 A 
ATOM      8  C   UNL     1      -2.149  -2.039  -3.270  1.00  0.00     0.125 A 
ATOM      9  C   UNL     1      -2.743  -0.792  -3.019  1.00  0.00     0.078 A 
ATOM     10  C   UNL     1      -3.892  -0.711  -2.227  1.00  0.00     0.223 A 
ENDROOT
BRANCH   1  11
ATOM     11  C   UNL     1      -5.627  -1.885  -0.812  1.00  0.00     0.091 A 
ATOM     12  C   UNL     1      -6.872  -1.449  -1.294  1.00  0.00     0.068 A 
ATOM     13  C   UNL     1      -7.995  -1.429  -0.455  1.00  0.00     0.162 A 
ATOM     14  C   UNL     1      -5.512  -2.267   0.533  1.00  0.00     0.068 A 
ATOM     15  C   UNL     1      -7.874  -1.835   0.885  1.00  0.00     0.200 A 
ATOM     16  C   UNL     1      -6.630  -2.250   1.378  1.00  0.00     0.162 A 
BRANCH  13  17
ATOM     17  O   UNL     1      -9.227  -1.000  -0.945  1.00  0.00    -0.504 OA
ATOM     18  H   UNL     1      -9.801  -1.594  -1.531  1.00  0.00     0.293 HD
ENDBRANCH  13  17
BRANCH  15  19
ATOM     19  O   UNL     1      -8.977  -1.827   1.739  1.00  0.00    -0.502 OA
ATOM     20  H   UNL     1      -9.170  -2.589   2.378  1.00  0.00     0.293 HD
ENDBRANCH  15  19
BRANCH  16  21
ATOM     21  O   UNL     1      -6.513  -2.645   2.709  1.00  0.00    -0.504 OA
ATOM     22  H   UNL     1      -5.608  -2.763   3.150  1.00  0.00     0.293 HD
ENDBRANCH  16  21
ENDBRANCH   1  11
BRANCH  10  23
ATOM     23  O   UNL     1      -4.512   0.521  -2.018  1.00  0.00    -0.500 OA
ATOM     24  H   UNL     1      -5.165   0.667  -1.257  1.00  0.00     0.294 HD
ENDBRANCH  10  23
BRANCH   5  25
ATOM     25  O   UNL     1      -0.565  -5.885  -3.919  1.00  0.00    -0.507 OA
ATOM     26  H   UNL     1      -1.165  -6.701  -3.950  1.00  0.00     0.293 HD
ENDBRANCH   5  25
BRANCH   7  27
ATOM     27  O   UNL     1      -0.312  -1.132  -4.666  1.00  0.00    -0.507 OA
ATOM     28  H   UNL     1       0.311  -0.507  -4.178  1.00  0.00     0.293 HD
ENDBRANCH   7  27
TORSDOF 7
ENDMDL
MODEL 8
REMARK VINA RESULT:    -7.005      3.662      5.757
REMARK INTER + INTRA:          -8.860
REMARK INTER:                  -8.600
REMARK INTRA:                  -0.260
REMARK UNBOUND:                -0.218
REMARK SMILES Oc1cc(O)c2cc(O)c(-c3cc(O)c(O)c(O)c3)[o+]c2c1.[Cl-]
REMARK SMILES IDX 10 1 20 2 21 3 22 4 2 5 3 6 4 7 6 8 7 9 8 10 11 11 12 12
REMARK SMILES IDX 13 13 19 14 15 15 17 16 14 17 16 19 18 21 9 23 1 25 5 27
REMARK H PARENT 14 18 16 20 18 22 9 24 1 26 5 28
REMARK Flexibility Score: inf
ROOT
ATOM      1  C   UNL     1       0.132   2.349  -3.336  1.00  0.00     0.402 A 
ATOM      2  O   UNL     1      -0.255   3.238  -4.246  1.00  0.00    -0.202 OA
ATOM      3  C   UNL     1      -1.472   3.254  -4.779  1.00  0.00     0.368 A 
ATOM      4  C   UNL     1      -1.787   4.232  -5.727  1.00  0.00     0.162 A 
ATOM      5  C   UNL     1      -3.058   4.275  -6.301  1.00  0.00     0.128 A 
ATOM      6  C   UNL     1      -4.024   3.336  -5.925  1.00  0.00     0.093 A 
ATOM      7  C   UNL     1      -3.735   2.346  -4.977  1.00  0.00     0.136 A 
ATOM      8  C   UNL     1      -2.442   2.298  -4.392  1.00  0.00     0.125 A 
ATOM      9  C   UNL     1      -2.059   1.335  -3.445  1.00  0.00     0.078 A 
ATOM     10  C   UNL     1      -0.764   1.348  -2.917  1.00  0.00     0.223 A 
ENDROOT
BRANCH   1  11
ATOM     11  C   UNL     1       1.513   2.440  -2.809  1.00  0.00     0.091 A 
ATOM     12  C   UNL     1       1.920   3.516  -2.003  1.00  0.00     0.068 A 
ATOM     13  C   UNL     1       3.238   3.596  -1.533  1.00  0.00     0.162 A 
ATOM     14  C   UNL     1       2.454   1.462  -3.169  1.00  0.00     0.068 A 
ATOM     15  C   UNL     1       4.167   2.599  -1.880  1.00  0.00     0.200 A 
ATOM     16  C   UNL     1       3.773   1.535  -2.701  1.00  0.00     0.162 A 
BRANCH  13  17
ATOM     17  O   UNL     1       3.630   4.665  -0.728  1.00  0.00    -0.504 OA
ATOM     18  H   UNL     1       4.331   5.329  -1.032  1.00  0.00     0.293 HD
ENDBRANCH  13  17
BRANCH  15  19
ATOM     19  O   UNL     1       5.483   2.655  -1.422  1.00  0.00    -0.502 OA
ATOM     20  H   UNL     1       6.175   1.963  -1.682  1.00  0.00     0.293 HD
ENDBRANCH  15  19
BRANCH  16  21
ATOM     21  O   UNL     1       4.699   0.554  -3.050  1.00  0.00    -0.504 OA
ATOM     22  H   UNL     1       5.688   0.761  -3.125  1.00  0.00     0.293 HD
ENDBRANCH  16  21
ENDBRANCH   1  11
BRANCH  10  23
ATOM     23  O   UNL     1      -0.368   0.362  -2.014  1.00  0.00    -0.500 OA
ATOM     24  H   UNL     1      -1.026  -0.078  -1.382  1.00  0.00     0.294 HD
ENDBRANCH  10  23
BRANCH   5  25
ATOM     25  O   UNL     1      -3.351   5.257  -7.246  1.00  0.00    -0.507 OA
ATOM     26  H   UNL     1      -2.644   5.905  -7.572  1.00  0.00     0.293 HD
ENDBRANCH   5  25
BRANCH   7  27
ATOM     27  O   UNL     1      -4.755   1.448  -4.651  1.00  0.00    -0.507 OA
ATOM     28  H   UNL     1      -5.739   1.636  -4.766  1.00  0.00     0.293 HD
ENDBRANCH   7  27
TORSDOF 7
ENDMDL
MODEL 9
REMARK VINA RESULT:    -6.949      1.838      7.548
REMARK INTER + INTRA:          -8.791
REMARK INTER:                  -8.836
REMARK INTRA:                   0.045
REMARK UNBOUND:                -0.218
REMARK SMILES Oc1cc(O)c2cc(O)c(-c3cc(O)c(O)c(O)c3)[o+]c2c1.[Cl-]
REMARK SMILES IDX 10 1 20 2 21 3 22 4 2 5 3 6 4 7 6 8 7 9 8 10 11 11 12 12
REMARK SMILES IDX 13 13 19 14 15 15 17 16 14 17 16 19 18 21 9 23 1 25 5 27
REMARK H PARENT 14 18 16 20 18 22 9 24 1 26 5 28
REMARK Flexibility Score: inf
ROOT
ATOM      1  C   UNL     1      -1.721  -2.375  -3.212  1.00  0.00     0.402 A 
ATOM      2  O   UNL     1      -0.904  -1.344  -3.405  1.00  0.00    -0.202 OA
ATOM      3  C   UNL     1       0.148  -1.388  -4.216  1.00  0.00     0.368 A 
ATOM      4  C   UNL     1       0.947  -0.250  -4.357  1.00  0.00     0.162 A 
ATOM      5  C   UNL     1       2.056  -0.266  -5.203  1.00  0.00     0.128 A 
ATOM      6  C   UNL     1       2.370  -1.427  -5.917  1.00  0.00     0.093 A 
ATOM      7  C   UNL     1       1.585  -2.581  -5.794  1.00  0.00     0.136 A 
ATOM      8  C   UNL     1       0.457  -2.569  -4.932  1.00  0.00     0.125 A 
ATOM      9  C   UNL     1      -0.377  -3.681  -4.737  1.00  0.00     0.078 A 
ATOM     10  C   UNL     1      -1.467  -3.595  -3.866  1.00  0.00     0.223 A 
ENDROOT
BRANCH   1  11
ATOM     11  C   UNL     1      -2.867  -2.199  -2.290  1.00  0.00     0.091 A 
ATOM     12  C   UNL     1      -3.208  -3.186  -1.350  1.00  0.00     0.068 A 
ATOM     13  C   UNL     1      -4.310  -3.011  -0.501  1.00  0.00     0.162 A 
ATOM     14  C   UNL     1      -3.666  -1.051  -2.394  1.00  0.00     0.068 A 
ATOM     15  C   UNL     1      -5.090  -1.846  -0.598  1.00  0.00     0.200 A 
ATOM     16  C   UNL     1      -4.768  -0.869  -1.548  1.00  0.00     0.162 A 
BRANCH  13  17
ATOM     17  O   UNL     1      -4.636  -3.994   0.433  1.00  0.00    -0.504 OA
ATOM     18  H   UNL     1      -4.041  -4.798   0.587  1.00  0.00     0.293 HD
ENDBRANCH  13  17
BRANCH  15  19
ATOM     19  O   UNL     1      -6.189  -1.648   0.238  1.00  0.00    -0.502 OA
ATOM     20  H   UNL     1      -6.503  -0.724   0.507  1.00  0.00     0.293 HD
ENDBRANCH  15  19
BRANCH  16  21
ATOM     21  O   UNL     1      -5.549   0.281  -1.645  1.00  0.00    -0.504 OA
ATOM     22  H   UNL     1      -5.985   0.553  -2.519  1.00  0.00     0.293 HD
ENDBRANCH  16  21
ENDBRANCH   1  11
BRANCH  10  23
ATOM     23  O   UNL     1      -2.267  -4.713  -3.634  1.00  0.00    -0.500 OA
ATOM     24  H   UNL     1      -2.342  -5.465  -4.310  1.00  0.00     0.294 HD
ENDBRANCH  10  23
BRANCH   5  25
ATOM     25  O   UNL     1       2.840   0.879  -5.329  1.00  0.00    -0.507 OA
ATOM     26  H   UNL     1       3.118   1.233  -6.236  1.00  0.00     0.293 HD
ENDBRANCH   5  25
BRANCH   7  27
ATOM     27  O   UNL     1       1.962  -3.700  -6.543  1.00  0.00    -0.507 OA
ATOM     28  H   UNL     1       1.791  -4.655  -6.267  1.00  0.00     0.293 HD
ENDBRANCH   7  27
TORSDOF 7
ENDMDL
