MODEL 1
REMARK VINA RESULT:    -3.179      0.000      0.000
REMARK INTER + INTRA:          -4.801
REMARK INTER:                  -3.923
REMARK INTRA:                  -0.878
REMARK UNBOUND:                -0.878
REMARK SMILES C=CC(=C)CCC=C(C)C
REMARK SMILES IDX 5 1 6 2 7 3 9 4 8 5 10 6 3 7 4 8 2 9 1 10
REMARK H PARENT
REMARK Flexibility Score: inf
ROOT
ATOM      1  C   UNL     1      11.143   6.028  16.255  1.00  0.00     0.039 C 
ENDROOT
BRANCH   1   2
ATOM      2  C   UNL     1      10.875   5.260  17.554  1.00  0.00     0.032 C 
BRANCH   2   3
ATOM      3  C   UNL     1      12.102   4.500  17.989  1.00  0.00    -0.028 C 
ATOM      4  C   UNL     1      13.994   3.894  19.436  1.00  0.00     0.039 C 
ATOM      5  C   UNL     1      12.811   4.768  19.108  1.00  0.00    -0.080 C 
ATOM      6  C   UNL     1      12.461   5.921  20.021  1.00  0.00     0.039 C 
ENDBRANCH   2   3
ENDBRANCH   1   2
BRANCH   1   7
ATOM      7  C   UNL     1      11.666   7.417  16.548  1.00  0.00    -0.055 C 
ATOM      8  C   UNL     1      10.882   8.282  17.199  1.00  0.00     0.012 C 
BRANCH   7   9
ATOM      9  C   UNL     1      13.043   7.839  16.181  1.00  0.00    -0.005 C 
ATOM     10  C   UNL     1      14.139   7.130  16.455  1.00  0.00     0.009 C 
ENDBRANCH   7   9
ENDBRANCH   1   7
TORSDOF 4
ENDMDL
MODEL 2
REMARK VINA RESULT:    -3.047      1.826      3.631
REMARK INTER + INTRA:          -4.637
REMARK INTER:                  -3.988
REMARK INTRA:                  -0.650
REMARK UNBOUND:                -0.878
REMARK SMILES C=CC(=C)CCC=C(C)C
REMARK SMILES IDX 5 1 6 2 7 3 9 4 8 5 10 6 3 7 4 8 2 9 1 10
REMARK H PARENT
REMARK Flexibility Score: inf
ROOT
ATOM      1  C   UNL     1      12.908   7.065  17.508  1.00  0.00     0.039 C 
ENDROOT
BRANCH   1   2
ATOM      2  C   UNL     1      13.780   7.137  16.250  1.00  0.00     0.032 C 
BRANCH   2   3
ATOM      3  C   UNL     1      15.179   6.656  16.541  1.00  0.00    -0.028 C 
ATOM      4  C   UNL     1      17.048   5.064  16.651  1.00  0.00     0.039 C 
ATOM      5  C   UNL     1      15.607   5.388  16.354  1.00  0.00    -0.080 C 
ATOM      6  C   UNL     1      14.680   4.293  15.877  1.00  0.00     0.039 C 
ENDBRANCH   2   3
ENDBRANCH   1   2
BRANCH   1   7
ATOM      7  C   UNL     1      11.707   6.174  17.280  1.00  0.00    -0.055 C 
ATOM      8  C   UNL     1      10.878   6.448  16.267  1.00  0.00     0.012 C 
BRANCH   7   9
ATOM      9  C   UNL     1      11.441   4.973  18.113  1.00  0.00    -0.005 C 
ATOM     10  C   UNL     1      12.385   4.124  18.521  1.00  0.00     0.009 C 
ENDBRANCH   7   9
ENDBRANCH   1   7
TORSDOF 4
ENDMDL
MODEL 3
REMARK VINA RESULT:    -3.026      1.144      2.145
REMARK INTER + INTRA:          -4.612
REMARK INTER:                  -3.751
REMARK INTRA:                  -0.861
REMARK UNBOUND:                -0.878
REMARK SMILES C=CC(=C)CCC=C(C)C
REMARK SMILES IDX 5 1 6 2 7 3 9 4 8 5 10 6 3 7 4 8 2 9 1 10
REMARK H PARENT
REMARK Flexibility Score: inf
ROOT
ATOM      1  C   UNL     1      11.365   6.653  16.016  1.00  0.00     0.039 C 
ENDROOT
BRANCH   1   2
ATOM      2  C   UNL     1      10.875   5.699  17.111  1.00  0.00     0.032 C 
BRANCH   2   3
ATOM      3  C   UNL     1      10.989   6.340  18.470  1.00  0.00    -0.028 C 
ATOM      4  C   UNL     1      11.871   6.701  20.735  1.00  0.00     0.039 C 
ATOM      5  C   UNL     1      11.840   5.935  19.438  1.00  0.00    -0.080 C 
ATOM      6  C   UNL     1      12.740   4.733  19.261  1.00  0.00     0.039 C 
ENDBRANCH   2   3
ENDBRANCH   1   2
BRANCH   1   7
ATOM      7  C   UNL     1      12.865   6.834  16.091  1.00  0.00    -0.055 C 
ATOM      8  C   UNL     1      13.657   5.773  15.906  1.00  0.00     0.012 C 
BRANCH   7   9
ATOM      9  C   UNL     1      13.493   8.162  16.317  1.00  0.00    -0.005 C 
ATOM     10  C   UNL     1      13.725   8.682  17.523  1.00  0.00     0.009 C 
ENDBRANCH   7   9
ENDBRANCH   1   7
TORSDOF 4
ENDMDL
MODEL 4
REMARK VINA RESULT:    -2.986      1.668      2.842
REMARK INTER + INTRA:          -4.562
REMARK INTER:                  -4.007
REMARK INTRA:                  -0.555
REMARK UNBOUND:                -0.878
REMARK SMILES C=CC(=C)CCC=C(C)C
REMARK SMILES IDX 5 1 6 2 7 3 9 4 8 5 10 6 3 7 4 8 2 9 1 10
REMARK H PARENT
REMARK Flexibility Score: inf
ROOT
ATOM      1  C   UNL     1      12.286   5.530  19.227  1.00  0.00     0.039 C 
ENDROOT
BRANCH   1   2
ATOM      2  C   UNL     1      12.458   4.149  18.584  1.00  0.00     0.032 C 
BRANCH   2   3
ATOM      3  C   UNL     1      13.889   3.686  18.684  1.00  0.00    -0.028 C 
ATOM      4  C   UNL     1      16.187   3.258  17.925  1.00  0.00     0.039 C 
ATOM      5  C   UNL     1      14.776   3.716  17.664  1.00  0.00    -0.080 C 
ATOM      6  C   UNL     1      14.387   4.176  16.278  1.00  0.00     0.039 C 
ENDBRANCH   2   3
ENDBRANCH   1   2
BRANCH   1   7
ATOM      7  C   UNL     1      11.466   6.439  18.339  1.00  0.00    -0.055 C 
ATOM      8  C   UNL     1      11.302   7.718  18.693  1.00  0.00     0.012 C 
BRANCH   7   9
ATOM      9  C   UNL     1      10.875   5.973  17.057  1.00  0.00    -0.005 C 
ATOM     10  C   UNL     1      11.071   6.574  15.883  1.00  0.00     0.009 C 
ENDBRANCH   7   9
ENDBRANCH   1   7
TORSDOF 4
ENDMDL
MODEL 5
REMARK VINA RESULT:    -2.972      1.354      3.930
REMARK INTER + INTRA:          -4.545
REMARK INTER:                  -3.686
REMARK INTRA:                  -0.860
REMARK UNBOUND:                -0.878
REMARK SMILES C=CC(=C)CCC=C(C)C
REMARK SMILES IDX 5 1 6 2 7 3 9 4 8 5 10 6 3 7 4 8 2 9 1 10
REMARK H PARENT
REMARK Flexibility Score: inf
ROOT
ATOM      1  C   UNL     1      13.473   6.009  19.518  1.00  0.00     0.039 C 
ENDROOT
BRANCH   1   2
ATOM      2  C   UNL     1      11.965   6.229  19.357  1.00  0.00     0.032 C 
BRANCH   2   3
ATOM      3  C   UNL     1      11.688   7.431  18.490  1.00  0.00    -0.028 C 
ATOM      4  C   UNL     1      10.914   8.661  16.509  1.00  0.00     0.039 C 
ATOM      5  C   UNL     1      11.175   7.371  17.241  1.00  0.00    -0.080 C 
ATOM      6  C   UNL     1      10.875   6.054  16.561  1.00  0.00     0.039 C 
ENDBRANCH   2   3
ENDBRANCH   1   2
BRANCH   1   7
ATOM      7  C   UNL     1      14.010   5.131  18.409  1.00  0.00    -0.055 C 
ATOM      8  C   UNL     1      13.758   3.818  18.441  1.00  0.00     0.012 C 
BRANCH   7   9
ATOM      9  C   UNL     1      14.770   5.683  17.257  1.00  0.00    -0.005 C 
ATOM     10  C   UNL     1      14.445   5.474  15.981  1.00  0.00     0.009 C 
ENDBRANCH   7   9
ENDBRANCH   1   7
TORSDOF 4
ENDMDL
MODEL 6
REMARK VINA RESULT:    -2.956      1.793      3.242
REMARK INTER + INTRA:          -4.525
REMARK INTER:                  -3.730
REMARK INTRA:                  -0.795
REMARK UNBOUND:                -0.878
REMARK SMILES C=CC(=C)CCC=C(C)C
REMARK SMILES IDX 5 1 6 2 7 3 9 4 8 5 10 6 3 7 4 8 2 9 1 10
REMARK H PARENT
REMARK Flexibility Score: inf
ROOT
ATOM      1  C   UNL     1      15.483   4.561  15.875  1.00  0.00     0.039 C 
ENDROOT
BRANCH   1   2
ATOM      2  C   UNL     1      14.256   3.779  16.355  1.00  0.00     0.032 C 
BRANCH   2   3
ATOM      3  C   UNL     1      14.308   3.565  17.847  1.00  0.00    -0.028 C 
ATOM      4  C   UNL     1      13.479   3.550  20.160  1.00  0.00     0.039 C 
ATOM      5  C   UNL     1      13.298   3.857  18.696  1.00  0.00    -0.080 C 
ATOM      6  C   UNL     1      12.012   4.494  18.223  1.00  0.00     0.039 C 
ENDBRANCH   2   3
ENDBRANCH   1   2
BRANCH   1   7
ATOM      7  C   UNL     1      15.466   5.974  16.417  1.00  0.00    -0.055 C 
ATOM      8  C   UNL     1      16.551   6.443  17.042  1.00  0.00     0.012 C 
BRANCH   7   9
ATOM      9  C   UNL     1      14.300   6.878  16.237  1.00  0.00    -0.005 C 
ATOM     10  C   UNL     1      13.719   7.552  17.231  1.00  0.00     0.009 C 
ENDBRANCH   7   9
ENDBRANCH   1   7
TORSDOF 4
ENDMDL
MODEL 7
REMARK VINA RESULT:    -2.910      0.842      3.977
REMARK INTER + INTRA:          -4.469
REMARK INTER:                  -3.560
REMARK INTRA:                  -0.909
REMARK UNBOUND:                -0.878
REMARK SMILES C=CC(=C)CCC=C(C)C
REMARK SMILES IDX 5 1 6 2 7 3 9 4 8 5 10 6 3 7 4 8 2 9 1 10
REMARK H PARENT
REMARK Flexibility Score: inf
ROOT
ATOM      1  C   UNL     1      10.875   5.395  17.573  1.00  0.00     0.039 C 
ENDROOT
BRANCH   1   2
ATOM      2  C   UNL     1      11.338   5.996  16.241  1.00  0.00     0.032 C 
BRANCH   2   3
ATOM      3  C   UNL     1      11.501   7.490  16.356  1.00  0.00    -0.028 C 
ATOM      4  C   UNL     1      12.694   9.638  16.411  1.00  0.00     0.039 C 
ATOM      5  C   UNL     1      12.689   8.134  16.326  1.00  0.00    -0.080 C 
ATOM      6  C   UNL     1      14.001   7.389  16.229  1.00  0.00     0.039 C 
ENDBRANCH   2   3
ENDBRANCH   1   2
BRANCH   1   7
ATOM      7  C   UNL     1      12.052   5.156  18.493  1.00  0.00    -0.055 C 
ATOM      8  C   UNL     1      12.922   4.184  18.196  1.00  0.00     0.012 C 
BRANCH   7   9
ATOM      9  C   UNL     1      12.305   5.997  19.692  1.00  0.00    -0.005 C 
ATOM     10  C   UNL     1      13.419   6.704  19.886  1.00  0.00     0.009 C 
ENDBRANCH   7   9
ENDBRANCH   1   7
TORSDOF 4
ENDMDL
MODEL 8
REMARK VINA RESULT:    -2.722      1.485      2.046
REMARK INTER + INTRA:          -4.237
REMARK INTER:                  -3.514
REMARK INTRA:                  -0.723
REMARK UNBOUND:                -0.878
REMARK SMILES C=CC(=C)CCC=C(C)C
REMARK SMILES IDX 5 1 6 2 7 3 9 4 8 5 10 6 3 7 4 8 2 9 1 10
REMARK H PARENT
REMARK Flexibility Score: inf
ROOT
ATOM      1  C   UNL     1      12.030   6.390  18.028  1.00  0.00     0.039 C 
ENDROOT
BRANCH   1   2
ATOM      2  C   UNL     1      11.873   4.892  17.749  1.00  0.00     0.032 C 
BRANCH   2   3
ATOM      3  C   UNL     1      13.062   4.123  18.267  1.00  0.00    -0.028 C 
ATOM      4  C   UNL     1      15.269   3.045  18.188  1.00  0.00     0.039 C 
ATOM      5  C   UNL     1      14.135   3.779  17.521  1.00  0.00    -0.080 C 
ATOM      6  C   UNL     1      14.217   4.093  16.045  1.00  0.00     0.039 C 
ENDBRANCH   2   3
ENDBRANCH   1   2
BRANCH   1   7
ATOM      7  C   UNL     1      12.095   7.175  16.736  1.00  0.00    -0.055 C 
ATOM      8  C   UNL     1      11.076   7.093  15.875  1.00  0.00     0.012 C 
BRANCH   7   9
ATOM      9  C   UNL     1      13.233   8.073  16.411  1.00  0.00    -0.005 C 
ATOM     10  C   UNL     1      14.512   7.693  16.426  1.00  0.00     0.009 C 
ENDBRANCH   7   9
ENDBRANCH   1   7
TORSDOF 4
ENDMDL
MODEL 9
REMARK VINA RESULT:    -1.876      1.084      3.632
REMARK INTER + INTRA:          -3.193
REMARK INTER:                  -2.452
REMARK INTRA:                  -0.741
REMARK UNBOUND:                -0.878
REMARK SMILES C=CC(=C)CCC=C(C)C
REMARK SMILES IDX 5 1 6 2 7 3 9 4 8 5 10 6 3 7 4 8 2 9 1 10
REMARK H PARENT
REMARK Flexibility Score: inf
ROOT
ATOM      1  C   UNL     1      10.902   5.914  17.378  1.00  0.00     0.039 C 
ENDROOT
BRANCH   1   2
ATOM      2  C   UNL     1      11.795   6.033  16.137  1.00  0.00     0.032 C 
BRANCH   2   3
ATOM      3  C   UNL     1      12.922   7.004  16.380  1.00  0.00    -0.028 C 
ATOM      4  C   UNL     1      15.248   7.791  16.480  1.00  0.00     0.039 C 
ATOM      5  C   UNL     1      14.233   6.704  16.242  1.00  0.00    -0.080 C 
ATOM      6  C   UNL     1      14.702   5.314  15.875  1.00  0.00     0.039 C 
ENDBRANCH   2   3
ENDBRANCH   1   2
BRANCH   1   7
ATOM      7  C   UNL     1      11.704   5.452  18.575  1.00  0.00    -0.055 C 
ATOM      8  C   UNL     1      11.755   6.229  19.662  1.00  0.00     0.012 C 
BRANCH   7   9
ATOM      9  C   UNL     1      12.401   4.140  18.604  1.00  0.00    -0.005 C 
ATOM     10  C   UNL     1      13.670   3.977  18.981  1.00  0.00     0.009 C 
ENDBRANCH   7   9
ENDBRANCH   1   7
TORSDOF 4
ENDMDL
