MODEL 1
REMARK VINA RESULT:    -7.258      0.000      0.000
REMARK INTER + INTRA:         -15.542
REMARK INTER:                 -12.773
REMARK INTRA:                  -2.769
REMARK UNBOUND:                -2.769
REMARK SMILES COc1cc(-c2[o+]c3cc(O)cc(O[C@H]4O[C@H](CO)[C@H](O)[C@H](O)[C@@H]4O)c3cc2O[C@@H]2O[C@H](CO)[C@@H](O)[C@@H](O)[C@@H]2O)ccc1O
REMARK SMILES IDX 6 1 28 2 27 3 26 4 13 5 12 6 10 7 9 8 8 9 7 10 5 11 3 12
REMARK SMILES IDX 43 13 4 14 42 15 41 16 2 17 1 18 44 19 29 21 30 22 39 23
REMARK SMILES IDX 31 24 37 25 32 26 35 27 40 28 38 30 33 32 34 33 36 35 14 37
REMARK SMILES IDX 15 38 24 39 16 40 22 41 17 42 20 43 25 44 23 46 18 48 19 49
REMARK SMILES IDX 21 51 11 53
REMARK H PARENT 44 20 40 29 38 31 34 34 36 36 25 45 23 47 19 50 21 52 11 54
REMARK Flexibility Score: inf
ROOT
ATOM      1  C   UNL     1      -0.072 -15.265  25.789  1.00  0.00     0.402 A 
ATOM      2  C   UNL     1      -0.595 -15.656  27.041  1.00  0.00     0.229 A 
ATOM      3  C   UNL     1      -0.994 -16.993  27.191  1.00  0.00     0.079 A 
ATOM      4  C   UNL     1      -0.787 -17.908  26.159  1.00  0.00     0.126 A 
ATOM      5  C   UNL     1      -1.212 -19.254  26.228  1.00  0.00     0.143 A 
ATOM      6  C   UNL     1      -1.085 -20.059  25.106  1.00  0.00     0.094 A 
ATOM      7  C   UNL     1      -0.420 -19.613  23.960  1.00  0.00     0.128 A 
ATOM      8  C   UNL     1       0.019 -18.292  23.887  1.00  0.00     0.162 A 
ATOM      9  C   UNL     1      -0.193 -17.433  24.959  1.00  0.00     0.368 A 
ATOM     10  O   UNL     1       0.122 -16.158  24.827  1.00  0.00    -0.202 OA
ENDROOT
BRANCH   1  11
ATOM     11  C   UNL     1       0.268 -13.853  25.490  1.00  0.00     0.087 A 
ATOM     12  C   UNL     1      -0.336 -11.489  25.610  1.00  0.00     0.161 A 
ATOM     13  C   UNL     1       0.899 -11.147  25.030  1.00  0.00     0.157 A 
ATOM     14  C   UNL     1      -0.648 -12.848  25.839  1.00  0.00     0.068 A 
ATOM     15  C   UNL     1       1.789 -12.165  24.659  1.00  0.00     0.051 A 
ATOM     16  C   UNL     1       1.472 -13.498  24.866  1.00  0.00     0.022 A 
BRANCH  12  17
ATOM     17  O   UNL     1      -1.226 -10.453  25.934  1.00  0.00    -0.493 OA
ATOM     18  C   UNL     1      -1.266  -9.742  27.173  1.00  0.00     0.278 C 
ENDBRANCH  12  17
BRANCH  13  19
ATOM     19  O   UNL     1       1.257  -9.801  24.824  1.00  0.00    -0.504 OA
ATOM     20  H   UNL     1       0.714  -9.172  24.249  1.00  0.00     0.293 HD
ENDBRANCH  13  19
ENDBRANCH   1  11
BRANCH   2  21
ATOM     21  O   UNL     1      -0.745 -14.708  28.068  1.00  0.00    -0.452 OA
BRANCH  21  22
ATOM     22  C   UNL     1      -1.371 -14.912  29.343  1.00  0.00     0.339 C 
ATOM     23  C   UNL     1      -1.229 -13.696  30.272  1.00  0.00     0.214 C 
ATOM     24  O   UNL     1      -2.730 -15.268  29.139  1.00  0.00    -0.332 OA
ATOM     25  C   UNL     1      -1.826 -12.452  29.614  1.00  0.00     0.180 C 
ATOM     26  C   UNL     1      -3.664 -14.191  28.958  1.00  0.00     0.179 C 
ATOM     27  C   UNL     1      -3.045 -12.783  28.723  1.00  0.00     0.177 C 
BRANCH  23  28
ATOM     28  O   UNL     1       0.103 -13.456  30.605  1.00  0.00    -0.384 OA
ATOM     29  H   UNL     1       0.527 -12.997  29.827  1.00  0.00     0.211 HD
ENDBRANCH  23  28
BRANCH  25  30
ATOM     30  O   UNL     1      -2.141 -11.502  30.594  1.00  0.00    -0.387 OA
ATOM     31  H   UNL     1      -1.589 -10.671  30.404  1.00  0.00     0.211 HD
ENDBRANCH  25  30
BRANCH  26  32
ATOM     32  C   UNL     1      -4.659 -14.613  27.851  1.00  0.00     0.191 C 
BRANCH  32  33
ATOM     33  O   UNL     1      -4.076 -14.708  26.575  1.00  0.00    -0.394 OA
ATOM     34  H   UNL     1      -3.104 -14.633  26.668  1.00  0.00     0.210 HD
ENDBRANCH  32  33
ENDBRANCH  26  32
BRANCH  27  35
ATOM     35  O   UNL     1      -4.037 -11.772  28.806  1.00  0.00    -0.387 OA
ATOM     36  H   UNL     1      -4.365 -11.589  27.884  1.00  0.00     0.211 HD
ENDBRANCH  27  35
ENDBRANCH  21  22
ENDBRANCH   2  21
BRANCH   5  37
ATOM     37  O   UNL     1      -1.811 -19.819  27.372  1.00  0.00    -0.461 OA
BRANCH  37  38
ATOM     38  C   UNL     1      -1.122 -20.546  28.408  1.00  0.00     0.339 C 
ATOM     39  C   UNL     1      -1.896 -20.529  29.737  1.00  0.00     0.214 C 
ATOM     40  O   UNL     1       0.229 -20.088  28.462  1.00  0.00    -0.332 OA
ATOM     41  C   UNL     1      -1.869 -19.135  30.313  1.00  0.00     0.180 C 
ATOM     42  C   UNL     1       0.657 -19.315  29.580  1.00  0.00     0.179 C 
ATOM     43  C   UNL     1      -0.422 -18.633  30.498  1.00  0.00     0.177 C 
BRANCH  39  44
ATOM     44  O   UNL     1      -1.348 -21.446  30.638  1.00  0.00    -0.384 OA
ATOM     45  H   UNL     1      -0.538 -21.036  31.017  1.00  0.00     0.211 HD
ENDBRANCH  39  44
BRANCH  41  46
ATOM     46  O   UNL     1      -2.579 -19.127  31.529  1.00  0.00    -0.387 OA
ATOM     47  H   UNL     1      -3.127 -18.287  31.538  1.00  0.00     0.211 HD
ENDBRANCH  41  46
BRANCH  42  48
ATOM     48  C   UNL     1       1.791 -20.063  30.309  1.00  0.00     0.191 C 
BRANCH  48  49
ATOM     49  O   UNL     1       1.266 -20.938  31.264  1.00  0.00    -0.394 OA
ATOM     50  H   UNL     1       0.359 -20.612  31.472  1.00  0.00     0.210 HD
ENDBRANCH  48  49
ENDBRANCH  42  48
BRANCH  43  51
ATOM     51  O   UNL     1      -0.022 -18.639  31.855  1.00  0.00    -0.387 OA
ATOM     52  H   UNL     1       0.075 -17.699  32.136  1.00  0.00     0.211 HD
ENDBRANCH  43  51
ENDBRANCH  37  38
ENDBRANCH   5  37
BRANCH   7  53
ATOM     53  O   UNL     1      -0.253 -20.483  22.881  1.00  0.00    -0.507 OA
ATOM     54  H   UNL     1       0.227 -20.189  22.030  1.00  0.00     0.293 HD
ENDBRANCH   7  53
TORSDOF 18
ENDMDL
MODEL 2
REMARK VINA RESULT:    -7.044      4.098     10.951
REMARK INTER + INTRA:         -15.166
REMARK INTER:                 -12.913
REMARK INTRA:                  -2.253
REMARK UNBOUND:                -2.769
REMARK SMILES COc1cc(-c2[o+]c3cc(O)cc(O[C@H]4O[C@H](CO)[C@H](O)[C@H](O)[C@@H]4O)c3cc2O[C@@H]2O[C@H](CO)[C@@H](O)[C@@H](O)[C@@H]2O)ccc1O
REMARK SMILES IDX 6 1 28 2 27 3 26 4 13 5 12 6 10 7 9 8 8 9 7 10 5 11 3 12
REMARK SMILES IDX 43 13 4 14 42 15 41 16 2 17 1 18 44 19 29 21 30 22 39 23
REMARK SMILES IDX 31 24 37 25 32 26 35 27 40 28 38 30 33 32 34 33 36 35 14 37
REMARK SMILES IDX 15 38 24 39 16 40 22 41 17 42 20 43 25 44 23 46 18 48 19 49
REMARK SMILES IDX 21 51 11 53
REMARK H PARENT 44 20 40 29 38 31 34 34 36 36 25 45 23 47 19 50 21 52 11 54
REMARK Flexibility Score: inf
ROOT
ATOM      1  C   UNL     1      -0.584 -22.437  30.806  1.00  0.00     0.402 A 
ATOM      2  C   UNL     1       0.732 -22.412  30.292  1.00  0.00     0.229 A 
ATOM      3  C   UNL     1       1.145 -21.253  29.617  1.00  0.00     0.079 A 
ATOM      4  C   UNL     1       0.304 -20.143  29.547  1.00  0.00     0.126 A 
ATOM      5  C   UNL     1       0.640 -18.967  28.839  1.00  0.00     0.143 A 
ATOM      6  C   UNL     1      -0.308 -17.964  28.711  1.00  0.00     0.094 A 
ATOM      7  C   UNL     1      -1.534 -18.029  29.380  1.00  0.00     0.128 A 
ATOM      8  C   UNL     1      -1.869 -19.176  30.095  1.00  0.00     0.162 A 
ATOM      9  C   UNL     1      -0.979 -20.242  30.152  1.00  0.00     0.368 A 
ATOM     10  O   UNL     1      -1.361 -21.363  30.732  1.00  0.00    -0.202 OA
ENDROOT
BRANCH   1  11
ATOM     11  C   UNL     1      -1.157 -23.654  31.431  1.00  0.00     0.087 A 
ATOM     12  C   UNL     1      -1.542 -26.065  31.339  1.00  0.00     0.161 A 
ATOM     13  C   UNL     1      -2.144 -26.014  32.609  1.00  0.00     0.157 A 
ATOM     14  C   UNL     1      -1.048 -24.878  30.752  1.00  0.00     0.068 A 
ATOM     15  C   UNL     1      -2.274 -24.778  33.259  1.00  0.00     0.051 A 
ATOM     16  C   UNL     1      -1.806 -23.612  32.671  1.00  0.00     0.022 A 
BRANCH  12  17
ATOM     17  O   UNL     1      -1.462 -27.308  30.692  1.00  0.00    -0.493 OA
ATOM     18  C   UNL     1      -0.389 -28.244  30.808  1.00  0.00     0.278 C 
ENDBRANCH  12  17
BRANCH  13  19
ATOM     19  O   UNL     1      -2.613 -27.183  33.238  1.00  0.00    -0.504 OA
ATOM     20  H   UNL     1      -2.149 -27.599  34.033  1.00  0.00     0.293 HD
ENDBRANCH  13  19
ENDBRANCH   1  11
BRANCH   2  21
ATOM     21  O   UNL     1       1.560 -23.540  30.425  1.00  0.00    -0.452 OA
BRANCH  21  22
ATOM     22  C   UNL     1       2.949 -23.632  30.079  1.00  0.00     0.339 C 
ATOM     23  C   UNL     1       3.693 -24.697  30.902  1.00  0.00     0.214 C 
ATOM     24  O   UNL     1       3.063 -23.867  28.683  1.00  0.00    -0.332 OA
ATOM     25  C   UNL     1       3.038 -26.066  30.718  1.00  0.00     0.180 C 
ATOM     26  C   UNL     1       2.957 -25.231  28.242  1.00  0.00     0.179 C 
ATOM     27  C   UNL     1       2.451 -26.253  29.300  1.00  0.00     0.177 C 
BRANCH  23  28
ATOM     28  O   UNL     1       3.724 -24.370  32.256  1.00  0.00    -0.384 OA
ATOM     29  H   UNL     1       3.250 -25.098  32.749  1.00  0.00     0.211 HD
ENDBRANCH  23  28
BRANCH  25  30
ATOM     30  O   UNL     1       3.951 -27.076  31.040  1.00  0.00    -0.387 OA
ATOM     31  H   UNL     1       3.884 -27.243  32.039  1.00  0.00     0.211 HD
ENDBRANCH  25  30
BRANCH  26  32
ATOM     32  C   UNL     1       2.125 -25.240  26.938  1.00  0.00     0.191 C 
BRANCH  32  33
ATOM     33  O   UNL     1       0.803 -25.682  27.115  1.00  0.00    -0.394 OA
ATOM     34  H   UNL     1       0.822 -26.607  27.437  1.00  0.00     0.210 HD
ENDBRANCH  32  33
ENDBRANCH  26  32
BRANCH  27  35
ATOM     35  O   UNL     1       2.622 -27.585  28.841  1.00  0.00    -0.387 OA
ATOM     36  H   UNL     1       3.600 -27.767  28.790  1.00  0.00     0.211 HD
ENDBRANCH  27  35
ENDBRANCH  21  22
ENDBRANCH   2  21
BRANCH   5  37
ATOM     37  O   UNL     1       1.885 -18.773  28.207  1.00  0.00    -0.461 OA
BRANCH  37  38
ATOM     38  C   UNL     1       2.205 -19.140  26.852  1.00  0.00     0.339 C 
ATOM     39  C   UNL     1       2.729 -17.944  26.039  1.00  0.00     0.214 C 
ATOM     40  O   UNL     1       1.091 -19.837  26.295  1.00  0.00    -0.332 OA
ATOM     41  C   UNL     1       1.603 -16.969  25.803  1.00  0.00     0.180 C 
ATOM     42  C   UNL     1       0.310 -19.207  25.283  1.00  0.00     0.179 C 
ATOM     43  C   UNL     1       0.410 -17.649  25.098  1.00  0.00     0.177 C 
BRANCH  39  44
ATOM     44  O   UNL     1       3.273 -18.373  24.825  1.00  0.00    -0.384 OA
ATOM     45  H   UNL     1       2.596 -18.213  24.128  1.00  0.00     0.211 HD
ENDBRANCH  39  44
BRANCH  41  46
ATOM     46  O   UNL     1       2.089 -15.876  25.058  1.00  0.00    -0.387 OA
ATOM     47  H   UNL     1       3.083 -15.988  24.996  1.00  0.00     0.211 HD
ENDBRANCH  41  46
BRANCH  42  48
ATOM     48  C   UNL     1       0.377 -20.047  23.993  1.00  0.00     0.191 C 
BRANCH  48  49
ATOM     49  O   UNL     1      -0.795 -19.895  23.247  1.00  0.00    -0.394 OA
ATOM     50  H   UNL     1      -1.342 -19.224  23.721  1.00  0.00     0.210 HD
ENDBRANCH  48  49
ENDBRANCH  42  48
BRANCH  43  51
ATOM     51  O   UNL     1       0.316 -17.284  23.734  1.00  0.00    -0.387 OA
ATOM     52  H   UNL     1       1.203 -16.957  23.457  1.00  0.00     0.211 HD
ENDBRANCH  43  51
ENDBRANCH  37  38
ENDBRANCH   5  37
BRANCH   7  53
ATOM     53  O   UNL     1      -2.429 -16.962  29.278  1.00  0.00    -0.507 OA
ATOM     54  H   UNL     1      -2.902 -16.584  30.100  1.00  0.00     0.293 HD
ENDBRANCH   7  53
TORSDOF 18
ENDMDL
MODEL 3
REMARK VINA RESULT:    -7.030      3.467      9.961
REMARK INTER + INTRA:         -15.141
REMARK INTER:                 -11.965
REMARK INTRA:                  -3.176
REMARK UNBOUND:                -2.769
REMARK SMILES COc1cc(-c2[o+]c3cc(O)cc(O[C@H]4O[C@H](CO)[C@H](O)[C@H](O)[C@@H]4O)c3cc2O[C@@H]2O[C@H](CO)[C@@H](O)[C@@H](O)[C@@H]2O)ccc1O
REMARK SMILES IDX 6 1 28 2 27 3 26 4 13 5 12 6 10 7 9 8 8 9 7 10 5 11 3 12
REMARK SMILES IDX 43 13 4 14 42 15 41 16 2 17 1 18 44 19 29 21 30 22 39 23
REMARK SMILES IDX 31 24 37 25 32 26 35 27 40 28 38 30 33 32 34 33 36 35 14 37
REMARK SMILES IDX 15 38 24 39 16 40 22 41 17 42 20 43 25 44 23 46 18 48 19 49
REMARK SMILES IDX 21 51 11 53
REMARK H PARENT 44 20 40 29 38 31 34 34 36 36 25 45 23 47 19 50 21 52 11 54
REMARK Flexibility Score: inf
ROOT
ATOM      1  C   UNL     1       2.163 -22.365  29.418  1.00  0.00     0.402 A 
ATOM      2  C   UNL     1       1.604 -21.669  28.323  1.00  0.00     0.229 A 
ATOM      3  C   UNL     1       1.265 -20.320  28.514  1.00  0.00     0.079 A 
ATOM      4  C   UNL     1       1.562 -19.685  29.719  1.00  0.00     0.126 A 
ATOM      5  C   UNL     1       1.201 -18.346  29.992  1.00  0.00     0.143 A 
ATOM      6  C   UNL     1       1.418 -17.835  31.262  1.00  0.00     0.094 A 
ATOM      7  C   UNL     1       2.110 -18.566  32.234  1.00  0.00     0.128 A 
ATOM      8  C   UNL     1       2.486 -19.881  31.970  1.00  0.00     0.162 A 
ATOM      9  C   UNL     1       2.185 -20.453  30.739  1.00  0.00     0.368 A 
ATOM     10  O   UNL     1       2.443 -21.733  30.551  1.00  0.00    -0.202 OA
ENDROOT
BRANCH   1  11
ATOM     11  C   UNL     1       2.446 -23.820  29.357  1.00  0.00     0.087 A 
ATOM     12  C   UNL     1       1.645 -26.115  29.598  1.00  0.00     0.161 A 
ATOM     13  C   UNL     1       2.897 -26.593  29.172  1.00  0.00     0.157 A 
ATOM     14  C   UNL     1       1.423 -24.722  29.689  1.00  0.00     0.068 A 
ATOM     15  C   UNL     1       3.918 -25.678  28.875  1.00  0.00     0.051 A 
ATOM     16  C   UNL     1       3.704 -24.313  28.985  1.00  0.00     0.022 A 
BRANCH  12  17
ATOM     17  O   UNL     1       0.654 -27.053  29.929  1.00  0.00    -0.493 OA
ATOM     18  C   UNL     1      -0.676 -26.749  30.352  1.00  0.00     0.278 C 
ENDBRANCH  12  17
BRANCH  13  19
ATOM     19  O   UNL     1       3.139 -27.973  29.034  1.00  0.00    -0.504 OA
ATOM     20  H   UNL     1       2.626 -28.673  29.551  1.00  0.00     0.293 HD
ENDBRANCH  13  19
ENDBRANCH   1  11
BRANCH   2  21
ATOM     21  O   UNL     1       1.362 -22.340  27.112  1.00  0.00    -0.452 OA
BRANCH  21  22
ATOM     22  C   UNL     1       2.313 -22.606  26.071  1.00  0.00     0.339 C 
ATOM     23  C   UNL     1       1.739 -23.504  24.963  1.00  0.00     0.214 C 
ATOM     24  O   UNL     1       2.795 -21.373  25.559  1.00  0.00    -0.332 OA
ATOM     25  C   UNL     1       0.493 -22.863  24.351  1.00  0.00     0.180 C 
ATOM     26  C   UNL     1       2.001 -20.737  24.543  1.00  0.00     0.179 C 
ATOM     27  C   UNL     1       0.575 -21.320  24.326  1.00  0.00     0.177 C 
BRANCH  23  28
ATOM     28  O   UNL     1       1.427 -24.775  25.441  1.00  0.00    -0.384 OA
ATOM     29  H   UNL     1       0.774 -24.660  26.187  1.00  0.00     0.211 HD
ENDBRANCH  23  28
BRANCH  25  30
ATOM     30  O   UNL     1       0.264 -23.394  23.076  1.00  0.00    -0.387 OA
ATOM     31  H   UNL     1       0.627 -24.342  23.068  1.00  0.00     0.211 HD
ENDBRANCH  25  30
BRANCH  26  32
ATOM     32  C   UNL     1       2.001 -19.217  24.830  1.00  0.00     0.191 C 
BRANCH  32  33
ATOM     33  O   UNL     1       1.351 -18.456  23.844  1.00  0.00    -0.394 OA
ATOM     34  H   UNL     1       0.390 -18.637  23.891  1.00  0.00     0.210 HD
ENDBRANCH  32  33
ENDBRANCH  26  32
BRANCH  27  35
ATOM     35  O   UNL     1      -0.016 -20.790  23.150  1.00  0.00    -0.387 OA
ATOM     36  H   UNL     1       0.660 -20.212  22.702  1.00  0.00     0.211 HD
ENDBRANCH  27  35
ENDBRANCH  21  22
ENDBRANCH   2  21
BRANCH   5  37
ATOM     37  O   UNL     1       0.582 -17.504  29.047  1.00  0.00    -0.461 OA
BRANCH  37  38
ATOM     38  C   UNL     1      -0.838 -17.365  28.849  1.00  0.00     0.339 C 
ATOM     39  C   UNL     1      -1.297 -17.966  27.510  1.00  0.00     0.214 C 
ATOM     40  O   UNL     1      -1.198 -16.002  29.081  1.00  0.00    -0.332 OA
ATOM     41  C   UNL     1      -0.775 -17.118  26.377  1.00  0.00     0.180 C 
ATOM     42  C   UNL     1      -1.591 -15.189  27.979  1.00  0.00     0.179 C 
ATOM     43  C   UNL     1      -1.231 -15.650  26.519  1.00  0.00     0.177 C 
BRANCH  39  44
ATOM     44  O   UNL     1      -2.691 -18.054  27.460  1.00  0.00    -0.384 OA
ATOM     45  H   UNL     1      -3.046 -17.487  28.182  1.00  0.00     0.211 HD
ENDBRANCH  39  44
BRANCH  41  46
ATOM     46  O   UNL     1      -1.198 -17.674  25.154  1.00  0.00    -0.387 OA
ATOM     47  H   UNL     1      -1.016 -16.988  24.446  1.00  0.00     0.211 HD
ENDBRANCH  41  46
BRANCH  42  48
ATOM     48  C   UNL     1      -3.039 -14.705  28.197  1.00  0.00     0.191 C 
BRANCH  48  49
ATOM     49  O   UNL     1      -3.949 -15.686  27.794  1.00  0.00    -0.394 OA
ATOM     50  H   UNL     1      -4.846 -15.345  28.023  1.00  0.00     0.210 HD
ENDBRANCH  48  49
ENDBRANCH  42  48
BRANCH  43  51
ATOM     51  O   UNL     1      -2.258 -15.317  25.605  1.00  0.00    -0.387 OA
ATOM     52  H   UNL     1      -1.925 -15.531  24.701  1.00  0.00     0.211 HD
ENDBRANCH  43  51
ENDBRANCH  37  38
ENDBRANCH   5  37
BRANCH   7  53
ATOM     53  O   UNL     1       2.367 -17.983  33.476  1.00  0.00    -0.507 OA
ATOM     54  H   UNL     1       3.282 -18.063  33.922  1.00  0.00     0.293 HD
ENDBRANCH   7  53
TORSDOF 18
ENDMDL
MODEL 4
REMARK VINA RESULT:    -7.013      2.999      6.540
REMARK INTER + INTRA:         -15.112
REMARK INTER:                 -12.284
REMARK INTRA:                  -2.829
REMARK UNBOUND:                -2.769
REMARK SMILES COc1cc(-c2[o+]c3cc(O)cc(O[C@H]4O[C@H](CO)[C@H](O)[C@H](O)[C@@H]4O)c3cc2O[C@@H]2O[C@H](CO)[C@@H](O)[C@@H](O)[C@@H]2O)ccc1O
REMARK SMILES IDX 6 1 28 2 27 3 26 4 13 5 12 6 10 7 9 8 8 9 7 10 5 11 3 12
REMARK SMILES IDX 43 13 4 14 42 15 41 16 2 17 1 18 44 19 29 21 30 22 39 23
REMARK SMILES IDX 31 24 37 25 32 26 35 27 40 28 38 30 33 32 34 33 36 35 14 37
REMARK SMILES IDX 15 38 24 39 16 40 22 41 17 42 20 43 25 44 23 46 18 48 19 49
REMARK SMILES IDX 21 51 11 53
REMARK H PARENT 44 20 40 29 38 31 34 34 36 36 25 45 23 47 19 50 21 52 11 54
REMARK Flexibility Score: inf
ROOT
ATOM      1  C   UNL     1      -1.213 -17.837  29.092  1.00  0.00     0.402 A 
ATOM      2  C   UNL     1      -0.147 -18.490  28.434  1.00  0.00     0.229 A 
ATOM      3  C   UNL     1       0.183 -19.786  28.859  1.00  0.00     0.079 A 
ATOM      4  C   UNL     1      -0.585 -20.423  29.835  1.00  0.00     0.126 A 
ATOM      5  C   UNL     1      -0.274 -21.705  30.342  1.00  0.00     0.143 A 
ATOM      6  C   UNL     1      -1.013 -22.206  31.402  1.00  0.00     0.094 A 
ATOM      7  C   UNL     1      -2.141 -21.537  31.887  1.00  0.00     0.128 A 
ATOM      8  C   UNL     1      -2.466 -20.280  31.382  1.00  0.00     0.162 A 
ATOM      9  C   UNL     1      -1.678 -19.707  30.391  1.00  0.00     0.368 A 
ATOM     10  O   UNL     1      -1.932 -18.469  30.011  1.00  0.00    -0.202 OA
ENDROOT
BRANCH   1  11
ATOM     11  C   UNL     1      -1.564 -16.426  28.799  1.00  0.00     0.087 A 
ATOM     12  C   UNL     1      -3.138 -14.820  27.844  1.00  0.00     0.161 A 
ATOM     13  C   UNL     1      -2.327 -13.762  28.295  1.00  0.00     0.157 A 
ATOM     14  C   UNL     1      -2.750 -16.155  28.099  1.00  0.00     0.068 A 
ATOM     15  C   UNL     1      -1.129 -14.052  28.964  1.00  0.00     0.051 A 
ATOM     16  C   UNL     1      -0.742 -15.362  29.196  1.00  0.00     0.022 A 
BRANCH  12  17
ATOM     17  O   UNL     1      -4.310 -14.504  27.139  1.00  0.00    -0.493 OA
ATOM     18  C   UNL     1      -5.640 -14.849  27.532  1.00  0.00     0.278 C 
ENDBRANCH  12  17
BRANCH  13  19
ATOM     19  O   UNL     1      -2.703 -12.421  28.090  1.00  0.00    -0.504 OA
ATOM     20  H   UNL     1      -3.630 -12.152  27.792  1.00  0.00     0.293 HD
ENDBRANCH  13  19
ENDBRANCH   1  11
BRANCH   2  21
ATOM     21  O   UNL     1       0.571 -17.825  27.426  1.00  0.00    -0.452 OA
BRANCH  21  22
ATOM     22  C   UNL     1       0.095 -17.475  26.118  1.00  0.00     0.339 C 
ATOM     23  C   UNL     1       1.219 -17.448  25.069  1.00  0.00     0.214 C 
ATOM     24  O   UNL     1      -0.949 -18.365  25.754  1.00  0.00    -0.332 OA
ATOM     25  C   UNL     1       1.917 -18.806  25.001  1.00  0.00     0.180 C 
ATOM     26  C   UNL     1      -0.560 -19.621  25.174  1.00  0.00     0.179 C 
ATOM     27  C   UNL     1       0.950 -19.981  25.274  1.00  0.00     0.177 C 
BRANCH  23  28
ATOM     28  O   UNL     1       2.154 -16.452  25.344  1.00  0.00    -0.384 OA
ATOM     29  H   UNL     1       2.380 -16.516  26.314  1.00  0.00     0.211 HD
ENDBRANCH  23  28
BRANCH  25  30
ATOM     30  O   UNL     1       2.570 -18.943  23.770  1.00  0.00    -0.387 OA
ATOM     31  H   UNL     1       3.547 -18.711  23.913  1.00  0.00     0.211 HD
ENDBRANCH  25  30
BRANCH  26  32
ATOM     32  C   UNL     1      -1.487 -20.715  25.757  1.00  0.00     0.191 C 
BRANCH  32  33
ATOM     33  O   UNL     1      -2.609 -20.202  26.431  1.00  0.00    -0.394 OA
ATOM     34  H   UNL     1      -2.409 -20.163  27.389  1.00  0.00     0.210 HD
ENDBRANCH  32  33
ENDBRANCH  26  32
BRANCH  27  35
ATOM     35  O   UNL     1       1.259 -21.104  24.463  1.00  0.00    -0.387 OA
ATOM     36  H   UNL     1       1.479 -21.865  25.066  1.00  0.00     0.211 HD
ENDBRANCH  27  35
ENDBRANCH  21  22
ENDBRANCH   2  21
BRANCH   5  37
ATOM     37  O   UNL     1       0.788 -22.493  29.856  1.00  0.00    -0.461 OA
BRANCH  37  38
ATOM     38  C   UNL     1       0.715 -23.411  28.748  1.00  0.00     0.339 C 
ATOM     39  C   UNL     1       1.076 -24.847  29.163  1.00  0.00     0.214 C 
ATOM     40  O   UNL     1       1.459 -22.867  27.657  1.00  0.00    -0.332 OA
ATOM     41  C   UNL     1       2.549 -24.919  29.484  1.00  0.00     0.180 C 
ATOM     42  C   UNL     1       2.689 -23.479  27.280  1.00  0.00     0.179 C 
ATOM     43  C   UNL     1       3.407 -24.444  28.292  1.00  0.00     0.177 C 
BRANCH  39  44
ATOM     44  O   UNL     1       0.748 -25.751  28.149  1.00  0.00    -0.384 OA
ATOM     45  H   UNL     1       0.820 -25.270  27.293  1.00  0.00     0.211 HD
ENDBRANCH  39  44
BRANCH  41  46
ATOM     46  O   UNL     1       2.873 -26.235  29.864  1.00  0.00    -0.387 OA
ATOM     47  H   UNL     1       2.866 -26.258  30.866  1.00  0.00     0.211 HD
ENDBRANCH  41  46
BRANCH  42  48
ATOM     48  C   UNL     1       2.580 -23.982  25.826  1.00  0.00     0.191 C 
BRANCH  48  49
ATOM     49  O   UNL     1       2.044 -25.272  25.794  1.00  0.00    -0.394 OA
ATOM     50  H   UNL     1       1.410 -25.292  25.038  1.00  0.00     0.210 HD
ENDBRANCH  48  49
ENDBRANCH  42  48
BRANCH  43  51
ATOM     51  O   UNL     1       4.033 -25.522  27.622  1.00  0.00    -0.387 OA
ATOM     52  H   UNL     1       4.534 -25.142  26.862  1.00  0.00     0.211 HD
ENDBRANCH  43  51
ENDBRANCH  37  38
ENDBRANCH   5  37
BRANCH   7  53
ATOM     53  O   UNL     1      -2.896 -22.115  32.909  1.00  0.00    -0.507 OA
ATOM     54  H   UNL     1      -2.869 -21.751  33.862  1.00  0.00     0.293 HD
ENDBRANCH   7  53
TORSDOF 18
ENDMDL
MODEL 5
REMARK VINA RESULT:    -7.011      3.733      7.677
REMARK INTER + INTRA:         -15.107
REMARK INTER:                 -12.039
REMARK INTRA:                  -3.068
REMARK UNBOUND:                -2.769
REMARK SMILES COc1cc(-c2[o+]c3cc(O)cc(O[C@H]4O[C@H](CO)[C@H](O)[C@H](O)[C@@H]4O)c3cc2O[C@@H]2O[C@H](CO)[C@@H](O)[C@@H](O)[C@@H]2O)ccc1O
REMARK SMILES IDX 6 1 28 2 27 3 26 4 13 5 12 6 10 7 9 8 8 9 7 10 5 11 3 12
REMARK SMILES IDX 43 13 4 14 42 15 41 16 2 17 1 18 44 19 29 21 30 22 39 23
REMARK SMILES IDX 31 24 37 25 32 26 35 27 40 28 38 30 33 32 34 33 36 35 14 37
REMARK SMILES IDX 15 38 24 39 16 40 22 41 17 42 20 43 25 44 23 46 18 48 19 49
REMARK SMILES IDX 21 51 11 53
REMARK H PARENT 44 20 40 29 38 31 34 34 36 36 25 45 23 47 19 50 21 52 11 54
REMARK Flexibility Score: inf
ROOT
ATOM      1  C   UNL     1      -0.764 -19.328  28.498  1.00  0.00     0.402 A 
ATOM      2  C   UNL     1      -0.164 -20.386  27.778  1.00  0.00     0.229 A 
ATOM      3  C   UNL     1      -0.179 -21.661  28.363  1.00  0.00     0.079 A 
ATOM      4  C   UNL     1      -0.847 -21.874  29.569  1.00  0.00     0.126 A 
ATOM      5  C   UNL     1      -0.855 -23.121  30.234  1.00  0.00     0.143 A 
ATOM      6  C   UNL     1      -1.432 -23.210  31.491  1.00  0.00     0.094 A 
ATOM      7  C   UNL     1      -2.126 -22.134  32.053  1.00  0.00     0.128 A 
ATOM      8  C   UNL     1      -2.140 -20.905  31.398  1.00  0.00     0.162 A 
ATOM      9  C   UNL     1      -1.477 -20.759  30.185  1.00  0.00     0.368 A 
ATOM     10  O   UNL     1      -1.400 -19.561  29.639  1.00  0.00    -0.202 OA
ENDROOT
BRANCH   1  11
ATOM     11  C   UNL     1      -0.699 -17.924  28.024  1.00  0.00     0.087 A 
ATOM     12  C   UNL     1      -1.873 -15.899  27.325  1.00  0.00     0.161 A 
ATOM     13  C   UNL     1      -0.642 -15.230  27.207  1.00  0.00     0.157 A 
ATOM     14  C   UNL     1      -1.897 -17.252  27.734  1.00  0.00     0.068 A 
ATOM     15  C   UNL     1       0.547 -15.926  27.470  1.00  0.00     0.051 A 
ATOM     16  C   UNL     1       0.522 -17.258  27.852  1.00  0.00     0.022 A 
BRANCH  12  17
ATOM     17  O   UNL     1      -3.046 -15.191  27.016  1.00  0.00    -0.493 OA
ATOM     18  C   UNL     1      -3.976 -14.661  27.962  1.00  0.00     0.278 C 
ENDBRANCH  12  17
BRANCH  13  19
ATOM     19  O   UNL     1      -0.586 -13.872  26.838  1.00  0.00    -0.504 OA
ATOM     20  H   UNL     1      -1.122 -13.156  27.306  1.00  0.00     0.293 HD
ENDBRANCH  13  19
ENDBRANCH   1  11
BRANCH   2  21
ATOM     21  O   UNL     1       0.460 -20.132  26.545  1.00  0.00    -0.452 OA
BRANCH  21  22
ATOM     22  C   UNL     1      -0.114 -20.297  25.240  1.00  0.00     0.339 C 
ATOM     23  C   UNL     1       0.575 -19.424  24.179  1.00  0.00     0.214 C 
ATOM     24  O   UNL     1      -0.086 -21.673  24.894  1.00  0.00    -0.332 OA
ATOM     25  C   UNL     1       2.068 -19.743  24.114  1.00  0.00     0.180 C 
ATOM     26  C   UNL     1       1.133 -22.175  24.320  1.00  0.00     0.179 C 
ATOM     27  C   UNL     1       2.367 -21.232  24.406  1.00  0.00     0.177 C 
BRANCH  23  28
ATOM     28  O   UNL     1       0.397 -18.066  24.435  1.00  0.00    -0.384 OA
ATOM     29  H   UNL     1       1.095 -17.572  23.921  1.00  0.00     0.211 HD
ENDBRANCH  23  28
BRANCH  25  30
ATOM     30  O   UNL     1       2.586 -19.342  22.876  1.00  0.00    -0.387 OA
ATOM     31  H   UNL     1       2.130 -18.473  22.620  1.00  0.00     0.211 HD
ENDBRANCH  25  30
BRANCH  26  32
ATOM     32  C   UNL     1       1.393 -23.576  24.923  1.00  0.00     0.191 C 
BRANCH  32  33
ATOM     33  O   UNL     1       2.727 -23.784  25.313  1.00  0.00    -0.394 OA
ATOM     34  H   UNL     1       2.733 -24.217  26.191  1.00  0.00     0.210 HD
ENDBRANCH  32  33
ENDBRANCH  26  32
BRANCH  27  35
ATOM     35  O   UNL     1       3.431 -21.714  23.600  1.00  0.00    -0.387 OA
ATOM     36  H   UNL     1       3.033 -22.193  22.823  1.00  0.00     0.211 HD
ENDBRANCH  27  35
ENDBRANCH  21  22
ENDBRANCH   2  21
BRANCH   5  37
ATOM     37  O   UNL     1      -0.259 -24.284  29.705  1.00  0.00    -0.461 OA
BRANCH  37  38
ATOM     38  C   UNL     1       0.768 -25.066  30.343  1.00  0.00     0.339 C 
ATOM     39  C   UNL     1       2.178 -24.624  29.918  1.00  0.00     0.214 C 
ATOM     40  O   UNL     1       0.464 -26.449  30.163  1.00  0.00    -0.332 OA
ATOM     41  C   UNL     1       2.405 -24.995  28.473  1.00  0.00     0.180 C 
ATOM     42  C   UNL     1       1.274 -27.233  29.291  1.00  0.00     0.179 C 
ATOM     43  C   UNL     1       2.196 -26.507  28.244  1.00  0.00     0.177 C 
BRANCH  39  44
ATOM     44  O   UNL     1       3.148 -25.211  30.736  1.00  0.00    -0.384 OA
ATOM     45  H   UNL     1       3.750 -25.726  30.153  1.00  0.00     0.211 HD
ENDBRANCH  39  44
BRANCH  41  46
ATOM     46  O   UNL     1       3.697 -24.587  28.090  1.00  0.00    -0.387 OA
ATOM     47  H   UNL     1       4.192 -25.414  27.815  1.00  0.00     0.211 HD
ENDBRANCH  41  46
BRANCH  42  48
ATOM     48  C   UNL     1       1.931 -28.372  30.097  1.00  0.00     0.191 C 
BRANCH  48  49
ATOM     49  O   UNL     1       3.050 -27.901  30.788  1.00  0.00    -0.394 OA
ATOM     50  H   UNL     1       3.578 -28.695  31.040  1.00  0.00     0.210 HD
ENDBRANCH  48  49
ENDBRANCH  42  48
BRANCH  43  51
ATOM     51  O   UNL     1       3.420 -27.196  28.071  1.00  0.00    -0.387 OA
ATOM     52  H   UNL     1       3.201 -28.121  27.810  1.00  0.00     0.211 HD
ENDBRANCH  43  51
ENDBRANCH  37  38
ENDBRANCH   5  37
BRANCH   7  53
ATOM     53  O   UNL     1      -2.752 -22.293  33.291  1.00  0.00    -0.507 OA
ATOM     54  H   UNL     1      -2.249 -22.137  34.166  1.00  0.00     0.293 HD
ENDBRANCH   7  53
TORSDOF 18
ENDMDL
MODEL 6
REMARK VINA RESULT:    -6.944      1.461      2.305
REMARK INTER + INTRA:         -14.991
REMARK INTER:                 -12.167
REMARK INTRA:                  -2.824
REMARK UNBOUND:                -2.769
REMARK SMILES COc1cc(-c2[o+]c3cc(O)cc(O[C@H]4O[C@H](CO)[C@H](O)[C@H](O)[C@@H]4O)c3cc2O[C@@H]2O[C@H](CO)[C@@H](O)[C@@H](O)[C@@H]2O)ccc1O
REMARK SMILES IDX 6 1 28 2 27 3 26 4 13 5 12 6 10 7 9 8 8 9 7 10 5 11 3 12
REMARK SMILES IDX 43 13 4 14 42 15 41 16 2 17 1 18 44 19 29 21 30 22 39 23
REMARK SMILES IDX 31 24 37 25 32 26 35 27 40 28 38 30 33 32 34 33 36 35 14 37
REMARK SMILES IDX 15 38 24 39 16 40 22 41 17 42 20 43 25 44 23 46 18 48 19 49
REMARK SMILES IDX 21 51 11 53
REMARK H PARENT 44 20 40 29 38 31 34 34 36 36 25 45 23 47 19 50 21 52 11 54
REMARK Flexibility Score: inf
ROOT
ATOM      1  C   UNL     1      -0.051 -14.472  26.095  1.00  0.00     0.402 A 
ATOM      2  C   UNL     1       0.146 -15.011  27.386  1.00  0.00     0.229 A 
ATOM      3  C   UNL     1       0.062 -16.404  27.529  1.00  0.00     0.079 A 
ATOM      4  C   UNL     1      -0.117 -17.216  26.410  1.00  0.00     0.126 A 
ATOM      5  C   UNL     1      -0.260 -18.620  26.493  1.00  0.00     0.143 A 
ATOM      6  C   UNL     1      -0.567 -19.335  25.345  1.00  0.00     0.094 A 
ATOM      7  C   UNL     1      -0.599 -18.720  24.090  1.00  0.00     0.128 A 
ATOM      8  C   UNL     1      -0.442 -17.339  23.994  1.00  0.00     0.162 A 
ATOM      9  C   UNL     1      -0.240 -16.584  25.143  1.00  0.00     0.368 A 
ATOM     10  O   UNL     1      -0.212 -15.268  25.046  1.00  0.00    -0.202 OA
ENDROOT
BRANCH   1  11
ATOM     11  C   UNL     1      -0.101 -13.009  25.858  1.00  0.00     0.087 A 
ATOM     12  C   UNL     1       1.044 -10.966  25.162  1.00  0.00     0.161 A 
ATOM     13  C   UNL     1      -0.157 -10.248  25.305  1.00  0.00     0.157 A 
ATOM     14  C   UNL     1       1.067 -12.351  25.441  1.00  0.00     0.068 A 
ATOM     15  C   UNL     1      -1.307 -10.915  25.754  1.00  0.00     0.051 A 
ATOM     16  C   UNL     1      -1.276 -12.269  26.046  1.00  0.00     0.022 A 
BRANCH  12  17
ATOM     17  O   UNL     1       2.190 -10.266  24.751  1.00  0.00    -0.493 OA
ATOM     18  C   UNL     1       3.151  -9.656  25.614  1.00  0.00     0.278 C 
ENDBRANCH  12  17
BRANCH  13  19
ATOM     19  O   UNL     1      -0.224  -8.876  24.999  1.00  0.00    -0.504 OA
ATOM     20  H   UNL     1      -0.218  -8.526  24.052  1.00  0.00     0.293 HD
ENDBRANCH  13  19
ENDBRANCH   1  11
BRANCH   2  21
ATOM     21  O   UNL     1       0.367 -14.156  28.479  1.00  0.00    -0.452 OA
BRANCH  21  22
ATOM     22  C   UNL     1      -0.090 -14.344  29.826  1.00  0.00     0.339 C 
ATOM     23  C   UNL     1       0.582 -13.382  30.818  1.00  0.00     0.214 C 
ATOM     24  O   UNL     1      -1.505 -14.231  29.853  1.00  0.00    -0.332 OA
ATOM     25  C   UNL     1       0.335 -11.931  30.403  1.00  0.00     0.180 C 
ATOM     26  C   UNL     1      -2.049 -12.904  29.953  1.00  0.00     0.179 C 
ATOM     27  C   UNL     1      -1.045 -11.736  29.734  1.00  0.00     0.177 C 
BRANCH  23  28
ATOM     28  O   UNL     1       1.953 -13.615  30.912  1.00  0.00    -0.384 OA
ATOM     29  H   UNL     1       2.091 -14.602  30.856  1.00  0.00     0.211 HD
ENDBRANCH  23  28
BRANCH  25  30
ATOM     30  O   UNL     1       0.502 -11.087  31.507  1.00  0.00    -0.387 OA
ATOM     31  H   UNL     1      -0.293 -11.225  32.122  1.00  0.00     0.211 HD
ENDBRANCH  25  30
BRANCH  26  32
ATOM     32  C   UNL     1      -3.283 -12.830  29.022  1.00  0.00     0.191 C 
BRANCH  32  33
ATOM     33  O   UNL     1      -3.572 -11.532  28.569  1.00  0.00    -0.394 OA
ATOM     34  H   UNL     1      -2.843 -10.936  28.840  1.00  0.00     0.210 HD
ENDBRANCH  32  33
ENDBRANCH  26  32
BRANCH  27  35
ATOM     35  O   UNL     1      -1.625 -10.493  30.097  1.00  0.00    -0.387 OA
ATOM     36  H   UNL     1      -0.957  -9.778  29.911  1.00  0.00     0.211 HD
ENDBRANCH  27  35
ENDBRANCH  21  22
ENDBRANCH   2  21
BRANCH   5  37
ATOM     37  O   UNL     1      -0.155 -19.338  27.700  1.00  0.00    -0.461 OA
BRANCH  37  38
ATOM     38  C   UNL     1      -1.165 -20.202  28.256  1.00  0.00     0.339 C 
ATOM     39  C   UNL     1      -1.697 -19.679  29.600  1.00  0.00     0.214 C 
ATOM     40  O   UNL     1      -0.669 -21.541  28.255  1.00  0.00    -0.332 OA
ATOM     41  C   UNL     1      -0.619 -19.806  30.648  1.00  0.00     0.180 C 
ATOM     42  C   UNL     1      -0.339 -22.161  29.495  1.00  0.00     0.179 C 
ATOM     43  C   UNL     1      -0.122 -21.263  30.767  1.00  0.00     0.177 C 
BRANCH  39  44
ATOM     44  O   UNL     1      -2.843 -20.380  29.985  1.00  0.00    -0.384 OA
ATOM     45  H   UNL     1      -3.456 -20.385  29.214  1.00  0.00     0.211 HD
ENDBRANCH  39  44
BRANCH  41  46
ATOM     46  O   UNL     1      -1.111 -19.325  31.876  1.00  0.00    -0.387 OA
ATOM     47  H   UNL     1      -0.681 -18.433  32.031  1.00  0.00     0.211 HD
ENDBRANCH  41  46
BRANCH  42  48
ATOM     48  C   UNL     1      -1.224 -23.408  29.689  1.00  0.00     0.191 C 
BRANCH  48  49
ATOM     49  O   UNL     1      -2.540 -23.035  29.978  1.00  0.00    -0.394 OA
ATOM     50  H   UNL     1      -2.547 -22.049  30.018  1.00  0.00     0.210 HD
ENDBRANCH  48  49
ENDBRANCH  42  48
BRANCH  43  51
ATOM     51  O   UNL     1      -0.605 -21.899  31.935  1.00  0.00    -0.387 OA
ATOM     52  H   UNL     1       0.129 -22.451  32.293  1.00  0.00     0.211 HD
ENDBRANCH  43  51
ENDBRANCH  37  38
ENDBRANCH   5  37
BRANCH   7  53
ATOM     53  O   UNL     1      -0.841 -19.493  22.953  1.00  0.00    -0.507 OA
ATOM     54  H   UNL     1      -0.393 -19.283  22.060  1.00  0.00     0.293 HD
ENDBRANCH   7  53
TORSDOF 18
ENDMDL
MODEL 7
REMARK VINA RESULT:    -6.890      3.834      6.471
REMARK INTER + INTRA:         -14.894
REMARK INTER:                 -11.777
REMARK INTRA:                  -3.117
REMARK UNBOUND:                -2.769
REMARK SMILES COc1cc(-c2[o+]c3cc(O)cc(O[C@H]4O[C@H](CO)[C@H](O)[C@H](O)[C@@H]4O)c3cc2O[C@@H]2O[C@H](CO)[C@@H](O)[C@@H](O)[C@@H]2O)ccc1O
REMARK SMILES IDX 6 1 28 2 27 3 26 4 13 5 12 6 10 7 9 8 8 9 7 10 5 11 3 12
REMARK SMILES IDX 43 13 4 14 42 15 41 16 2 17 1 18 44 19 29 21 30 22 39 23
REMARK SMILES IDX 31 24 37 25 32 26 35 27 40 28 38 30 33 32 34 33 36 35 14 37
REMARK SMILES IDX 15 38 24 39 16 40 22 41 17 42 20 43 25 44 23 46 18 48 19 49
REMARK SMILES IDX 21 51 11 53
REMARK H PARENT 44 20 40 29 38 31 34 34 36 36 25 45 23 47 19 50 21 52 11 54
REMARK Flexibility Score: inf
ROOT
ATOM      1  C   UNL     1       0.394 -20.076  26.795  1.00  0.00     0.402 A 
ATOM      2  C   UNL     1       1.265 -20.609  27.772  1.00  0.00     0.229 A 
ATOM      3  C   UNL     1       1.753 -21.909  27.567  1.00  0.00     0.079 A 
ATOM      4  C   UNL     1       1.452 -22.596  26.392  1.00  0.00     0.126 A 
ATOM      5  C   UNL     1       1.871 -23.924  26.149  1.00  0.00     0.143 A 
ATOM      6  C   UNL     1       1.416 -24.576  25.013  1.00  0.00     0.094 A 
ATOM      7  C   UNL     1       0.671 -23.907  24.037  1.00  0.00     0.128 A 
ATOM      8  C   UNL     1       0.268 -22.592  24.258  1.00  0.00     0.162 A 
ATOM      9  C   UNL     1       0.620 -21.949  25.438  1.00  0.00     0.368 A 
ATOM     10  O   UNL     1       0.131 -20.748  25.682  1.00  0.00    -0.202 OA
ENDROOT
BRANCH   1  11
ATOM     11  C   UNL     1      -0.269 -18.761  26.974  1.00  0.00     0.087 A 
ATOM     12  C   UNL     1      -0.248 -16.345  26.615  1.00  0.00     0.161 A 
ATOM     13  C   UNL     1      -1.522 -16.249  27.204  1.00  0.00     0.157 A 
ATOM     14  C   UNL     1       0.377 -17.608  26.503  1.00  0.00     0.068 A 
ATOM     15  C   UNL     1      -2.139 -17.408  27.699  1.00  0.00     0.051 A 
ATOM     16  C   UNL     1      -1.515 -18.642  27.604  1.00  0.00     0.022 A 
BRANCH  12  17
ATOM     17  O   UNL     1       0.366 -15.165  26.166  1.00  0.00    -0.493 OA
ATOM     18  C   UNL     1       1.431 -15.085  25.217  1.00  0.00     0.278 C 
ENDBRANCH  12  17
BRANCH  13  19
ATOM     19  O   UNL     1      -2.188 -15.013  27.297  1.00  0.00    -0.504 OA
ATOM     20  H   UNL     1      -2.072 -14.276  26.616  1.00  0.00     0.293 HD
ENDBRANCH  13  19
ENDBRANCH   1  11
BRANCH   2  21
ATOM     21  O   UNL     1       1.575 -19.862  28.921  1.00  0.00    -0.452 OA
BRANCH  21  22
ATOM     22  C   UNL     1       1.914 -20.377  30.216  1.00  0.00     0.339 C 
ATOM     23  C   UNL     1       1.919 -19.288  31.301  1.00  0.00     0.214 C 
ATOM     24  O   UNL     1       1.030 -21.441  30.536  1.00  0.00    -0.332 OA
ATOM     25  C   UNL     1       0.554 -18.604  31.376  1.00  0.00     0.180 C 
ATOM     26  C   UNL     1      -0.237 -21.082  31.114  1.00  0.00     0.179 C 
ATOM     27  C   UNL     1      -0.609 -19.572  31.059  1.00  0.00     0.177 C 
BRANCH  23  28
ATOM     28  O   UNL     1       2.909 -18.336  31.069  1.00  0.00    -0.384 OA
ATOM     29  H   UNL     1       3.601 -18.761  30.488  1.00  0.00     0.211 HD
ENDBRANCH  23  28
BRANCH  25  30
ATOM     30  O   UNL     1       0.397 -17.994  32.626  1.00  0.00    -0.387 OA
ATOM     31  H   UNL     1       0.747 -18.638  33.328  1.00  0.00     0.211 HD
ENDBRANCH  25  30
BRANCH  26  32
ATOM     32  C   UNL     1      -1.315 -21.999  30.488  1.00  0.00     0.191 C 
BRANCH  32  33
ATOM     33  O   UNL     1      -2.324 -21.299  29.805  1.00  0.00    -0.394 OA
ATOM     34  H   UNL     1      -2.864 -20.810  30.459  1.00  0.00     0.210 HD
ENDBRANCH  32  33
ENDBRANCH  26  32
BRANCH  27  35
ATOM     35  O   UNL     1      -1.744 -19.300  31.866  1.00  0.00    -0.387 OA
ATOM     36  H   UNL     1      -1.471 -19.396  32.819  1.00  0.00     0.211 HD
ENDBRANCH  27  35
ENDBRANCH  21  22
ENDBRANCH   2  21
BRANCH   5  37
ATOM     37  O   UNL     1       2.696 -24.649  27.031  1.00  0.00    -0.461 OA
BRANCH  37  38
ATOM     38  C   UNL     1       2.271 -25.732  27.880  1.00  0.00     0.339 C 
ATOM     39  C   UNL     1       1.623 -25.227  29.180  1.00  0.00     0.214 C 
ATOM     40  O   UNL     1       3.361 -26.641  28.036  1.00  0.00    -0.332 OA
ATOM     41  C   UNL     1       2.677 -24.590  30.051  1.00  0.00     0.180 C 
ATOM     42  C   UNL     1       4.018 -26.732  29.297  1.00  0.00     0.179 C 
ATOM     43  C   UNL     1       3.831 -25.572  30.343  1.00  0.00     0.177 C 
BRANCH  39  44
ATOM     44  O   UNL     1       0.991 -26.274  29.856  1.00  0.00    -0.384 OA
ATOM     45  H   UNL     1       0.668 -26.908  29.177  1.00  0.00     0.211 HD
ENDBRANCH  39  44
BRANCH  41  46
ATOM     46  O   UNL     1       2.077 -24.129  31.238  1.00  0.00    -0.387 OA
ATOM     47  H   UNL     1       2.027 -24.913  31.860  1.00  0.00     0.211 HD
ENDBRANCH  41  46
BRANCH  42  48
ATOM     48  C   UNL     1       3.872 -28.166  29.844  1.00  0.00     0.191 C 
BRANCH  48  49
ATOM     49  O   UNL     1       2.579 -28.646  29.620  1.00  0.00    -0.394 OA
ATOM     50  H   UNL     1       2.099 -27.937  29.129  1.00  0.00     0.210 HD
ENDBRANCH  48  49
ENDBRANCH  42  48
BRANCH  43  51
ATOM     51  O   UNL     1       3.785 -26.074  31.665  1.00  0.00    -0.387 OA
ATOM     52  H   UNL     1       3.050 -26.730  31.704  1.00  0.00     0.211 HD
ENDBRANCH  43  51
ENDBRANCH  37  38
ENDBRANCH   5  37
BRANCH   7  53
ATOM     53  O   UNL     1       0.296 -24.585  22.875  1.00  0.00    -0.507 OA
ATOM     54  H   UNL     1       0.953 -24.728  22.107  1.00  0.00     0.293 HD
ENDBRANCH   7  53
TORSDOF 18
ENDMDL
MODEL 8
REMARK VINA RESULT:    -6.871      2.472      8.999
REMARK INTER + INTRA:         -14.861
REMARK INTER:                 -11.867
REMARK INTRA:                  -2.995
REMARK UNBOUND:                -2.769
REMARK SMILES COc1cc(-c2[o+]c3cc(O)cc(O[C@H]4O[C@H](CO)[C@H](O)[C@H](O)[C@@H]4O)c3cc2O[C@@H]2O[C@H](CO)[C@@H](O)[C@@H](O)[C@@H]2O)ccc1O
REMARK SMILES IDX 6 1 28 2 27 3 26 4 13 5 12 6 10 7 9 8 8 9 7 10 5 11 3 12
REMARK SMILES IDX 43 13 4 14 42 15 41 16 2 17 1 18 44 19 29 21 30 22 39 23
REMARK SMILES IDX 31 24 37 25 32 26 35 27 40 28 38 30 33 32 34 33 36 35 14 37
REMARK SMILES IDX 15 38 24 39 16 40 22 41 17 42 20 43 25 44 23 46 18 48 19 49
REMARK SMILES IDX 21 51 11 53
REMARK H PARENT 44 20 40 29 38 31 34 34 36 36 25 45 23 47 19 50 21 52 11 54
REMARK Flexibility Score: inf
ROOT
ATOM      1  C   UNL     1       0.188 -20.297  29.602  1.00  0.00     0.402 A 
ATOM      2  C   UNL     1       0.064 -19.407  28.512  1.00  0.00     0.229 A 
ATOM      3  C   UNL     1       0.335 -18.050  28.745  1.00  0.00     0.079 A 
ATOM      4  C   UNL     1       0.799 -17.630  29.991  1.00  0.00     0.126 A 
ATOM      5  C   UNL     1       1.041 -16.273  30.304  1.00  0.00     0.143 A 
ATOM      6  C   UNL     1       1.373 -15.932  31.606  1.00  0.00     0.094 A 
ATOM      7  C   UNL     1       1.610 -16.907  32.579  1.00  0.00     0.128 A 
ATOM      8  C   UNL     1       1.392 -18.250  32.276  1.00  0.00     0.162 A 
ATOM      9  C   UNL     1       0.954 -18.611  31.008  1.00  0.00     0.368 A 
ATOM     10  O   UNL     1       0.639 -19.871  30.776  1.00  0.00    -0.202 OA
ENDROOT
BRANCH   1  11
ATOM     11  C   UNL     1      -0.188 -21.727  29.491  1.00  0.00     0.087 A 
ATOM     12  C   UNL     1       0.498 -24.048  29.158  1.00  0.00     0.161 A 
ATOM     13  C   UNL     1      -0.830 -24.466  29.360  1.00  0.00     0.157 A 
ATOM     14  C   UNL     1       0.815 -22.672  29.225  1.00  0.00     0.068 A 
ATOM     15  C   UNL     1      -1.825 -23.505  29.592  1.00  0.00     0.051 A 
ATOM     16  C   UNL     1      -1.515 -22.155  29.637  1.00  0.00     0.022 A 
BRANCH  12  17
ATOM     17  O   UNL     1       1.467 -25.026  28.886  1.00  0.00    -0.493 OA
ATOM     18  C   UNL     1       1.859 -25.475  27.587  1.00  0.00     0.278 C 
ENDBRANCH  12  17
BRANCH  13  19
ATOM     19  O   UNL     1      -1.173 -25.831  29.338  1.00  0.00    -0.504 OA
ATOM     20  H   UNL     1      -1.036 -26.442  30.130  1.00  0.00     0.293 HD
ENDBRANCH  13  19
ENDBRANCH   1  11
BRANCH   2  21
ATOM     21  O   UNL     1      -0.365 -19.883  27.261  1.00  0.00    -0.452 OA
BRANCH  21  22
ATOM     22  C   UNL     1       0.423 -20.593  26.294  1.00  0.00     0.339 C 
ATOM     23  C   UNL     1      -0.327 -20.816  24.971  1.00  0.00     0.214 C 
ATOM     24  O   UNL     1       1.648 -19.902  26.100  1.00  0.00    -0.332 OA
ATOM     25  C   UNL     1      -0.765 -19.478  24.376  1.00  0.00     0.180 C 
ATOM     26  C   UNL     1       1.639 -18.816  25.158  1.00  0.00     0.179 C 
ATOM     27  C   UNL     1       0.238 -18.341  24.677  1.00  0.00     0.177 C 
BRANCH  23  28
ATOM     28  O   UNL     1      -1.437 -21.639  25.142  1.00  0.00    -0.384 OA
ATOM     29  H   UNL     1      -1.288 -22.173  25.972  1.00  0.00     0.211 HD
ENDBRANCH  23  28
BRANCH  25  30
ATOM     30  O   UNL     1      -0.992 -19.621  23.001  1.00  0.00    -0.387 OA
ATOM     31  H   UNL     1      -0.770 -18.735  22.560  1.00  0.00     0.211 HD
ENDBRANCH  25  30
BRANCH  26  32
ATOM     32  C   UNL     1       2.500 -17.674  25.750  1.00  0.00     0.191 C 
BRANCH  32  33
ATOM     33  O   UNL     1       2.008 -16.389  25.464  1.00  0.00    -0.394 OA
ATOM     34  H   UNL     1       1.107 -16.308  25.837  1.00  0.00     0.210 HD
ENDBRANCH  32  33
ENDBRANCH  26  32
BRANCH  27  35
ATOM     35  O   UNL     1       0.355 -17.449  23.579  1.00  0.00    -0.387 OA
ATOM     36  H   UNL     1      -0.392 -16.793  23.638  1.00  0.00     0.211 HD
ENDBRANCH  27  35
ENDBRANCH  21  22
ENDBRANCH   2  21
BRANCH   5  37
ATOM     37  O   UNL     1       0.916 -15.228  29.367  1.00  0.00    -0.461 OA
BRANCH  37  38
ATOM     38  C   UNL     1      -0.116 -14.223  29.362  1.00  0.00     0.339 C 
ATOM     39  C   UNL     1      -1.524 -14.840  29.317  1.00  0.00     0.214 C 
ATOM     40  O   UNL     1       0.184 -13.270  28.342  1.00  0.00    -0.332 OA
ATOM     41  C   UNL     1      -1.749 -15.474  27.967  1.00  0.00     0.180 C 
ATOM     42  C   UNL     1      -0.628 -13.223  27.172  1.00  0.00     0.179 C 
ATOM     43  C   UNL     1      -1.546 -14.453  26.827  1.00  0.00     0.177 C 
BRANCH  39  44
ATOM     44  O   UNL     1      -2.496 -13.870  29.576  1.00  0.00    -0.384 OA
ATOM     45  H   UNL     1      -2.121 -13.249  30.240  1.00  0.00     0.211 HD
ENDBRANCH  39  44
BRANCH  41  46
ATOM     46  O   UNL     1      -3.039 -16.037  27.933  1.00  0.00    -0.387 OA
ATOM     47  H   UNL     1      -3.371 -15.943  26.992  1.00  0.00     0.211 HD
ENDBRANCH  41  46
BRANCH  42  48
ATOM     48  C   UNL     1      -1.290 -11.835  27.069  1.00  0.00     0.191 C 
BRANCH  48  49
ATOM     49  O   UNL     1      -2.460 -11.792  27.833  1.00  0.00    -0.394 OA
ATOM     50  H   UNL     1      -3.156 -11.396  27.257  1.00  0.00     0.210 HD
ENDBRANCH  48  49
ENDBRANCH  42  48
BRANCH  43  51
ATOM     51  O   UNL     1      -2.772 -14.037  26.257  1.00  0.00    -0.387 OA
ATOM     52  H   UNL     1      -2.555 -13.468  25.481  1.00  0.00     0.211 HD
ENDBRANCH  43  51
ENDBRANCH  37  38
ENDBRANCH   5  37
BRANCH   7  53
ATOM     53  O   UNL     1       2.012 -16.518  33.858  1.00  0.00    -0.507 OA
ATOM     54  H   UNL     1       1.641 -16.971  34.693  1.00  0.00     0.293 HD
ENDBRANCH   7  53
TORSDOF 18
ENDMDL
MODEL 9
REMARK VINA RESULT:    -6.863      2.640      8.787
REMARK INTER + INTRA:         -14.848
REMARK INTER:                 -12.965
REMARK INTRA:                  -1.883
REMARK UNBOUND:                -2.769
REMARK SMILES COc1cc(-c2[o+]c3cc(O)cc(O[C@H]4O[C@H](CO)[C@H](O)[C@H](O)[C@@H]4O)c3cc2O[C@@H]2O[C@H](CO)[C@@H](O)[C@@H](O)[C@@H]2O)ccc1O
REMARK SMILES IDX 6 1 28 2 27 3 26 4 13 5 12 6 10 7 9 8 8 9 7 10 5 11 3 12
REMARK SMILES IDX 43 13 4 14 42 15 41 16 2 17 1 18 44 19 29 21 30 22 39 23
REMARK SMILES IDX 31 24 37 25 32 26 35 27 40 28 38 30 33 32 34 33 36 35 14 37
REMARK SMILES IDX 15 38 24 39 16 40 22 41 17 42 20 43 25 44 23 46 18 48 19 49
REMARK SMILES IDX 21 51 11 53
REMARK H PARENT 44 20 40 29 38 31 34 34 36 36 25 45 23 47 19 50 21 52 11 54
REMARK Flexibility Score: inf
ROOT
ATOM      1  C   UNL     1       0.078 -20.693  26.580  1.00  0.00     0.402 A 
ATOM      2  C   UNL     1      -0.495 -20.132  27.743  1.00  0.00     0.229 A 
ATOM      3  C   UNL     1      -0.880 -18.783  27.693  1.00  0.00     0.079 A 
ATOM      4  C   UNL     1      -0.777 -18.067  26.501  1.00  0.00     0.126 A 
ATOM      5  C   UNL     1      -1.099 -16.694  26.398  1.00  0.00     0.143 A 
ATOM      6  C   UNL     1      -0.842 -16.030  25.209  1.00  0.00     0.094 A 
ATOM      7  C   UNL     1      -0.405 -16.713  24.071  1.00  0.00     0.128 A 
ATOM      8  C   UNL     1      -0.101 -18.070  24.156  1.00  0.00     0.162 A 
ATOM      9  C   UNL     1      -0.248 -18.738  25.365  1.00  0.00     0.368 A 
ATOM     10  O   UNL     1       0.157 -19.991  25.457  1.00  0.00    -0.202 OA
ENDROOT
BRANCH   1  11
ATOM     11  C   UNL     1       0.625 -22.072  26.565  1.00  0.00     0.087 A 
ATOM     12  C   UNL     1       1.197 -24.078  25.294  1.00  0.00     0.161 A 
ATOM     13  C   UNL     1       1.734 -24.658  26.457  1.00  0.00     0.157 A 
ATOM     14  C   UNL     1       0.641 -22.780  25.353  1.00  0.00     0.068 A 
ATOM     15  C   UNL     1       1.681 -23.949  27.666  1.00  0.00     0.051 A 
ATOM     16  C   UNL     1       1.117 -22.684  27.725  1.00  0.00     0.022 A 
BRANCH  12  17
ATOM     17  O   UNL     1       1.225 -24.826  24.106  1.00  0.00    -0.493 OA
ATOM     18  C   UNL     1       0.406 -24.601  22.957  1.00  0.00     0.278 C 
ENDBRANCH  12  17
BRANCH  13  19
ATOM     19  O   UNL     1       2.329 -25.933  26.425  1.00  0.00    -0.504 OA
ATOM     20  H   UNL     1       3.123 -26.181  26.997  1.00  0.00     0.293 HD
ENDBRANCH  13  19
ENDBRANCH   1  11
BRANCH   2  21
ATOM     21  O   UNL     1      -0.619 -20.906  28.909  1.00  0.00    -0.452 OA
BRANCH  21  22
ATOM     22  C   UNL     1      -0.613 -20.429  30.263  1.00  0.00     0.339 C 
ATOM     23  C   UNL     1      -1.855 -20.875  31.051  1.00  0.00     0.214 C 
ATOM     24  O   UNL     1       0.591 -20.841  30.892  1.00  0.00    -0.332 OA
ATOM     25  C   UNL     1      -1.962 -22.400  31.057  1.00  0.00     0.180 C 
ATOM     26  C   UNL     1       0.611 -22.163  31.456  1.00  0.00     0.179 C 
ATOM     27  C   UNL     1      -0.578 -23.089  31.067  1.00  0.00     0.177 C 
BRANCH  23  28
ATOM     28  O   UNL     1      -3.022 -20.326  30.526  1.00  0.00    -0.384 OA
ATOM     29  H   UNL     1      -2.758 -19.742  29.760  1.00  0.00     0.211 HD
ENDBRANCH  23  28
BRANCH  25  30
ATOM     30  O   UNL     1      -2.757 -22.816  32.132  1.00  0.00    -0.387 OA
ATOM     31  H   UNL     1      -2.274 -22.562  32.988  1.00  0.00     0.211 HD
ENDBRANCH  25  30
BRANCH  26  32
ATOM     32  C   UNL     1       1.994 -22.784  31.148  1.00  0.00     0.191 C 
BRANCH  32  33
ATOM     33  O   UNL     1       2.538 -23.511  32.221  1.00  0.00    -0.394 OA
ATOM     34  H   UNL     1       3.007 -22.889  32.815  1.00  0.00     0.210 HD
ENDBRANCH  32  33
ENDBRANCH  26  32
BRANCH  27  35
ATOM     35  O   UNL     1      -0.589 -24.262  31.865  1.00  0.00    -0.387 OA
ATOM     36  H   UNL     1      -0.740 -25.040  31.261  1.00  0.00     0.211 HD
ENDBRANCH  27  35
ENDBRANCH  21  22
ENDBRANCH   2  21
BRANCH   5  37
ATOM     37  O   UNL     1      -1.629 -15.942  27.466  1.00  0.00    -0.461 OA
BRANCH  37  38
ATOM     38  C   UNL     1      -2.288 -14.667  27.349  1.00  0.00     0.339 C 
ATOM     39  C   UNL     1      -1.319 -13.494  27.575  1.00  0.00     0.214 C 
ATOM     40  O   UNL     1      -3.457 -14.682  28.169  1.00  0.00    -0.332 OA
ATOM     41  C   UNL     1      -0.906 -13.460  29.026  1.00  0.00     0.180 C 
ATOM     42  C   UNL     1      -3.486 -13.891  29.354  1.00  0.00     0.179 C 
ATOM     43  C   UNL     1      -2.133 -13.364  29.957  1.00  0.00     0.177 C 
BRANCH  39  44
ATOM     44  O   UNL     1      -1.913 -12.284  27.203  1.00  0.00    -0.384 OA
ATOM     45  H   UNL     1      -2.486 -12.467  26.424  1.00  0.00     0.211 HD
ENDBRANCH  39  44
BRANCH  41  46
ATOM     46  O   UNL     1      -0.019 -12.384  29.227  1.00  0.00    -0.387 OA
ATOM     47  H   UNL     1      -0.036 -12.174  30.206  1.00  0.00     0.211 HD
ENDBRANCH  41  46
BRANCH  42  48
ATOM     48  C   UNL     1      -4.627 -12.860  29.247  1.00  0.00     0.191 C 
BRANCH  48  49
ATOM     49  O   UNL     1      -4.209 -11.740  28.525  1.00  0.00    -0.394 OA
ATOM     50  H   UNL     1      -3.741 -11.153  29.165  1.00  0.00     0.210 HD
ENDBRANCH  48  49
ENDBRANCH  42  48
BRANCH  43  51
ATOM     51  O   UNL     1      -2.285 -12.070  30.510  1.00  0.00    -0.387 OA
ATOM     52  H   UNL     1      -1.388 -11.663  30.552  1.00  0.00     0.211 HD
ENDBRANCH  43  51
ENDBRANCH  37  38
ENDBRANCH   5  37
BRANCH   7  53
ATOM     53  O   UNL     1      -0.228 -16.014  22.876  1.00  0.00    -0.507 OA
ATOM     54  H   UNL     1      -0.726 -15.142  22.690  1.00  0.00     0.293 HD
ENDBRANCH   7  53
TORSDOF 18
ENDMDL
