MODEL 1
REMARK VINA RESULT:    -6.239      0.000      0.000
REMARK INTER + INTRA:          -7.836
REMARK INTER:                  -7.515
REMARK INTRA:                  -0.321
REMARK UNBOUND:                -0.321
REMARK SMILES O=c1c(O)c(-c2ccc(O)c(O)c2)oc2cc(O)cc(O)c12
REMARK SMILES IDX 5 1 3 2 2 3 1 4 22 5 20 6 19 7 17 8 16 9 15 10 14 11 6 12
REMARK SMILES IDX 7 13 8 14 9 15 13 16 11 17 10 18 12 20 4 22 21 24 18 26
REMARK H PARENT 10 19 12 21 4 23 21 25 18 27
REMARK Flexibility Score: inf
ROOT
ATOM      1  C   UNL     1      -2.063   5.021   6.395  1.00  0.00     0.180 A 
ATOM      2  C   UNL     1      -3.259   4.578   6.982  1.00  0.00     0.208 A 
ATOM      3  C   UNL     1      -4.446   4.630   6.235  1.00  0.00     0.238 A 
ATOM      4  O   UNL     1      -5.524   4.282   6.785  1.00  0.00    -0.285 OA
ATOM      5  C   UNL     1      -4.419   5.111   4.903  1.00  0.00     0.111 A 
ATOM      6  C   UNL     1      -5.554   5.170   4.040  1.00  0.00     0.134 A 
ATOM      7  C   UNL     1      -5.437   5.786   2.788  1.00  0.00     0.093 A 
ATOM      8  C   UNL     1      -4.210   6.283   2.341  1.00  0.00     0.123 A 
ATOM      9  C   UNL     1      -3.083   6.176   3.152  1.00  0.00     0.094 A 
ATOM     10  C   UNL     1      -3.177   5.601   4.422  1.00  0.00     0.146 A 
ATOM     11  O   UNL     1      -2.080   5.528   5.167  1.00  0.00    -0.452 OA
ENDROOT
BRANCH   1  12
ATOM     12  C   UNL     1      -0.768   4.974   7.111  1.00  0.00     0.025 A 
ATOM     13  C   UNL     1      -0.006   3.793   7.171  1.00  0.00     0.016 A 
ATOM     14  C   UNL     1       1.224   3.778   7.831  1.00  0.00     0.051 A 
ATOM     15  C   UNL     1       1.719   4.944   8.430  1.00  0.00     0.157 A 
ATOM     16  C   UNL     1      -0.256   6.145   7.695  1.00  0.00     0.062 A 
ATOM     17  C   UNL     1       0.978   6.130   8.359  1.00  0.00     0.158 A 
BRANCH  15  18
ATOM     18  O   UNL     1       2.945   4.932   9.092  1.00  0.00    -0.504 OA
ATOM     19  H   UNL     1       3.119   4.314   9.876  1.00  0.00     0.293 HD
ENDBRANCH  15  18
BRANCH  17  20
ATOM     20  O   UNL     1       1.477   7.291   8.949  1.00  0.00    -0.504 OA
ATOM     21  H   UNL     1       1.134   7.619   9.845  1.00  0.00     0.293 HD
ENDBRANCH  17  20
ENDBRANCH   1  12
BRANCH   2  22
ATOM     22  O   UNL     1      -3.268   4.128   8.306  1.00  0.00    -0.502 OA
ATOM     23  H   UNL     1      -4.126   3.963   8.819  1.00  0.00     0.293 HD
ENDBRANCH   2  22
BRANCH   6  24
ATOM     24  O   UNL     1      -6.802   4.621   4.351  1.00  0.00    -0.507 OA
ATOM     25  H   UNL     1      -7.676   5.123   4.312  1.00  0.00     0.293 HD
ENDBRANCH   6  24
BRANCH   8  26
ATOM     26  O   UNL     1      -4.100   6.880   1.086  1.00  0.00    -0.508 OA
ATOM     27  H   UNL     1      -4.850   7.439   0.698  1.00  0.00     0.293 HD
ENDBRANCH   8  26
TORSDOF 6
ENDMDL
MODEL 2
REMARK VINA RESULT:    -6.158      1.145      1.757
REMARK INTER + INTRA:          -7.739
REMARK INTER:                  -7.540
REMARK INTRA:                  -0.199
REMARK UNBOUND:                -0.321
REMARK SMILES O=c1c(O)c(-c2ccc(O)c(O)c2)oc2cc(O)cc(O)c12
REMARK SMILES IDX 5 1 3 2 2 3 1 4 22 5 20 6 19 7 17 8 16 9 15 10 14 11 6 12
REMARK SMILES IDX 7 13 8 14 9 15 13 16 11 17 10 18 12 20 4 22 21 24 18 26
REMARK H PARENT 10 19 12 21 4 23 21 25 18 27
REMARK Flexibility Score: inf
ROOT
ATOM      1  C   UNL     1      -1.353   4.944   7.035  1.00  0.00     0.180 A 
ATOM      2  C   UNL     1      -2.569   4.625   7.663  1.00  0.00     0.208 A 
ATOM      3  C   UNL     1      -3.754   4.660   6.912  1.00  0.00     0.238 A 
ATOM      4  O   UNL     1      -4.846   4.425   7.492  1.00  0.00    -0.285 OA
ATOM      5  C   UNL     1      -3.707   4.998   5.537  1.00  0.00     0.111 A 
ATOM      6  C   UNL     1      -4.841   5.026   4.670  1.00  0.00     0.134 A 
ATOM      7  C   UNL     1      -4.697   5.502   3.362  1.00  0.00     0.093 A 
ATOM      8  C   UNL     1      -3.448   5.889   2.868  1.00  0.00     0.123 A 
ATOM      9  C   UNL     1      -2.325   5.809   3.689  1.00  0.00     0.094 A 
ATOM     10  C   UNL     1      -2.443   5.373   5.011  1.00  0.00     0.146 A 
ATOM     11  O   UNL     1      -1.349   5.322   5.762  1.00  0.00    -0.452 OA
ENDROOT
BRANCH   1  12
ATOM     12  C   UNL     1      -0.060   4.906   7.755  1.00  0.00     0.025 A 
ATOM     13  C   UNL     1       0.642   6.085   8.063  1.00  0.00     0.016 A 
ATOM     14  C   UNL     1       1.848   6.027   8.765  1.00  0.00     0.051 A 
ATOM     15  C   UNL     1       2.364   4.792   9.181  1.00  0.00     0.157 A 
ATOM     16  C   UNL     1       0.452   3.673   8.194  1.00  0.00     0.062 A 
ATOM     17  C   UNL     1       1.663   3.614   8.898  1.00  0.00     0.158 A 
BRANCH  15  18
ATOM     18  O   UNL     1       3.568   4.730   9.880  1.00  0.00    -0.504 OA
ATOM     19  H   UNL     1       4.400   4.323   9.468  1.00  0.00     0.293 HD
ENDBRANCH  15  18
BRANCH  17  20
ATOM     20  O   UNL     1       2.176   2.388   9.319  1.00  0.00    -0.504 OA
ATOM     21  H   UNL     1       2.961   1.952   8.850  1.00  0.00     0.293 HD
ENDBRANCH  17  20
ENDBRANCH   1  12
BRANCH   2  22
ATOM     22  O   UNL     1      -2.596   4.315   9.026  1.00  0.00    -0.502 OA
ATOM     23  H   UNL     1      -2.262   3.430   9.389  1.00  0.00     0.293 HD
ENDBRANCH   2  22
BRANCH   6  24
ATOM     24  O   UNL     1      -6.113   4.576   5.035  1.00  0.00    -0.507 OA
ATOM     25  H   UNL     1      -6.307   3.679   5.454  1.00  0.00     0.293 HD
ENDBRANCH   6  24
BRANCH   8  26
ATOM     26  O   UNL     1      -3.311   6.346   1.559  1.00  0.00    -0.508 OA
ATOM     27  H   UNL     1      -3.305   5.707   0.773  1.00  0.00     0.293 HD
ENDBRANCH   8  26
TORSDOF 6
ENDMDL
MODEL 3
REMARK VINA RESULT:    -5.920      1.564      7.123
REMARK INTER + INTRA:          -7.452
REMARK INTER:                  -7.131
REMARK INTRA:                  -0.322
REMARK UNBOUND:                -0.321
REMARK SMILES O=c1c(O)c(-c2ccc(O)c(O)c2)oc2cc(O)cc(O)c12
REMARK SMILES IDX 5 1 3 2 2 3 1 4 22 5 20 6 19 7 17 8 16 9 15 10 14 11 6 12
REMARK SMILES IDX 7 13 8 14 9 15 13 16 11 17 10 18 12 20 4 22 21 24 18 26
REMARK H PARENT 10 19 12 21 4 23 21 25 18 27
REMARK Flexibility Score: inf
ROOT
ATOM      1  C   UNL     1      -2.265   5.528   6.206  1.00  0.00     0.180 A 
ATOM      2  C   UNL     1      -1.791   6.836   6.404  1.00  0.00     0.208 A 
ATOM      3  C   UNL     1      -0.604   7.028   7.129  1.00  0.00     0.238 A 
ATOM      4  O   UNL     1      -0.213   8.204   7.348  1.00  0.00    -0.285 OA
ATOM      5  C   UNL     1       0.102   5.909   7.634  1.00  0.00     0.111 A 
ATOM      6  C   UNL     1       1.336   5.985   8.348  1.00  0.00     0.134 A 
ATOM      7  C   UNL     1       1.877   4.824   8.914  1.00  0.00     0.093 A 
ATOM      8  C   UNL     1       1.264   3.581   8.735  1.00  0.00     0.123 A 
ATOM      9  C   UNL     1       0.091   3.489   7.990  1.00  0.00     0.094 A 
ATOM     10  C   UNL     1      -0.493   4.635   7.444  1.00  0.00     0.146 A 
ATOM     11  O   UNL     1      -1.617   4.503   6.748  1.00  0.00    -0.452 OA
ENDROOT
BRANCH   1  12
ATOM     12  C   UNL     1      -3.495   5.244   5.432  1.00  0.00     0.025 A 
ATOM     13  C   UNL     1      -3.476   5.175   4.027  1.00  0.00     0.016 A 
ATOM     14  C   UNL     1      -4.643   4.882   3.318  1.00  0.00     0.051 A 
ATOM     15  C   UNL     1      -5.843   4.640   4.002  1.00  0.00     0.157 A 
ATOM     16  C   UNL     1      -4.695   4.979   6.111  1.00  0.00     0.062 A 
ATOM     17  C   UNL     1      -5.868   4.686   5.401  1.00  0.00     0.158 A 
BRANCH  15  18
ATOM     18  O   UNL     1      -7.009   4.349   3.298  1.00  0.00    -0.504 OA
ATOM     19  H   UNL     1      -7.764   3.818   3.718  1.00  0.00     0.293 HD
ENDBRANCH  15  18
BRANCH  17  20
ATOM     20  O   UNL     1      -7.060   4.437   6.078  1.00  0.00    -0.504 OA
ATOM     21  H   UNL     1      -7.667   3.668   5.818  1.00  0.00     0.293 HD
ENDBRANCH  17  20
ENDBRANCH   1  12
BRANCH   2  22
ATOM     22  O   UNL     1      -2.515   7.927   5.915  1.00  0.00    -0.502 OA
ATOM     23  H   UNL     1      -3.497   7.865   5.675  1.00  0.00     0.293 HD
ENDBRANCH   2  22
BRANCH   6  24
ATOM     24  O   UNL     1       2.076   7.160   8.505  1.00  0.00    -0.507 OA
ATOM     25  H   UNL     1       1.988   7.794   9.285  1.00  0.00     0.293 HD
ENDBRANCH   6  24
BRANCH   8  26
ATOM     26  O   UNL     1       1.818   2.429   9.289  1.00  0.00    -0.508 OA
ATOM     27  H   UNL     1       2.798   2.383   9.545  1.00  0.00     0.293 HD
ENDBRANCH   8  26
TORSDOF 6
ENDMDL
MODEL 4
REMARK VINA RESULT:    -5.658      1.665      7.112
REMARK INTER + INTRA:          -7.136
REMARK INTER:                  -7.004
REMARK INTRA:                  -0.133
REMARK UNBOUND:                -0.321
REMARK SMILES O=c1c(O)c(-c2ccc(O)c(O)c2)oc2cc(O)cc(O)c12
REMARK SMILES IDX 5 1 3 2 2 3 1 4 22 5 20 6 19 7 17 8 16 9 15 10 14 11 6 12
REMARK SMILES IDX 7 13 8 14 9 15 13 16 11 17 10 18 12 20 4 22 21 24 18 26
REMARK H PARENT 10 19 12 21 4 23 21 25 18 27
REMARK Flexibility Score: inf
ROOT
ATOM      1  C   UNL     1      -1.714   5.285   7.283  1.00  0.00     0.180 A 
ATOM      2  C   UNL     1      -1.893   6.092   8.419  1.00  0.00     0.208 A 
ATOM      3  C   UNL     1      -0.849   6.200   9.350  1.00  0.00     0.238 A 
ATOM      4  O   UNL     1      -1.035   6.881  10.392  1.00  0.00    -0.285 OA
ATOM      5  C   UNL     1       0.368   5.511   9.126  1.00  0.00     0.111 A 
ATOM      6  C   UNL     1       1.507   5.580   9.984  1.00  0.00     0.134 A 
ATOM      7  C   UNL     1       2.610   4.754   9.734  1.00  0.00     0.093 A 
ATOM      8  C   UNL     1       2.641   3.911   8.619  1.00  0.00     0.123 A 
ATOM      9  C   UNL     1       1.557   3.881   7.744  1.00  0.00     0.094 A 
ATOM     10  C   UNL     1       0.428   4.666   7.988  1.00  0.00     0.146 A 
ATOM     11  O   UNL     1      -0.587   4.599   7.134  1.00  0.00    -0.452 OA
ENDROOT
BRANCH   1  12
ATOM     12  C   UNL     1      -2.760   5.142   6.244  1.00  0.00     0.025 A 
ATOM     13  C   UNL     1      -2.531   5.540   4.915  1.00  0.00     0.016 A 
ATOM     14  C   UNL     1      -3.523   5.373   3.946  1.00  0.00     0.051 A 
ATOM     15  C   UNL     1      -4.753   4.794   4.287  1.00  0.00     0.157 A 
ATOM     16  C   UNL     1      -3.987   4.543   6.575  1.00  0.00     0.062 A 
ATOM     17  C   UNL     1      -4.984   4.376   5.603  1.00  0.00     0.158 A 
BRANCH  15  18
ATOM     18  O   UNL     1      -5.746   4.628   3.324  1.00  0.00    -0.504 OA
ATOM     19  H   UNL     1      -5.565   4.797   2.341  1.00  0.00     0.293 HD
ENDBRANCH  15  18
BRANCH  17  20
ATOM     20  O   UNL     1      -6.206   3.795   5.938  1.00  0.00    -0.504 OA
ATOM     21  H   UNL     1      -7.058   4.341   5.981  1.00  0.00     0.293 HD
ENDBRANCH  17  20
ENDBRANCH   1  12
BRANCH   2  22
ATOM     22  O   UNL     1      -3.111   6.746   8.631  1.00  0.00    -0.502 OA
ATOM     23  H   UNL     1      -3.975   6.440   8.200  1.00  0.00     0.293 HD
ENDBRANCH   2  22
BRANCH   6  24
ATOM     24  O   UNL     1       1.616   6.454  11.070  1.00  0.00    -0.507 OA
ATOM     25  H   UNL     1       1.827   6.172  12.015  1.00  0.00     0.293 HD
ENDBRANCH   6  24
BRANCH   8  26
ATOM     26  O   UNL     1       3.749   3.104   8.369  1.00  0.00    -0.508 OA
ATOM     27  H   UNL     1       4.056   2.904   7.425  1.00  0.00     0.293 HD
ENDBRANCH   8  26
TORSDOF 6
ENDMDL
MODEL 5
REMARK VINA RESULT:    -5.526      1.719      6.599
REMARK INTER + INTRA:          -6.977
REMARK INTER:                  -6.693
REMARK INTRA:                  -0.284
REMARK UNBOUND:                -0.321
REMARK SMILES O=c1c(O)c(-c2ccc(O)c(O)c2)oc2cc(O)cc(O)c12
REMARK SMILES IDX 5 1 3 2 2 3 1 4 22 5 20 6 19 7 17 8 16 9 15 10 14 11 6 12
REMARK SMILES IDX 7 13 8 14 9 15 13 16 11 17 10 18 12 20 4 22 21 24 18 26
REMARK H PARENT 10 19 12 21 4 23 21 25 18 27
REMARK Flexibility Score: inf
ROOT
ATOM      1  C   UNL     1      -3.350   5.006   6.284  1.00  0.00     0.180 A 
ATOM      2  C   UNL     1      -3.957   4.713   7.517  1.00  0.00     0.208 A 
ATOM      3  C   UNL     1      -3.151   4.323   8.599  1.00  0.00     0.238 A 
ATOM      4  O   UNL     1      -3.705   4.011   9.684  1.00  0.00    -0.285 OA
ATOM      5  C   UNL     1      -1.746   4.246   8.438  1.00  0.00     0.111 A 
ATOM      6  C   UNL     1      -0.829   3.902   9.477  1.00  0.00     0.134 A 
ATOM      7  C   UNL     1       0.526   3.729   9.172  1.00  0.00     0.093 A 
ATOM      8  C   UNL     1       1.008   3.953   7.879  1.00  0.00     0.123 A 
ATOM      9  C   UNL     1       0.130   4.348   6.872  1.00  0.00     0.094 A 
ATOM     10  C   UNL     1      -1.234   4.492   7.138  1.00  0.00     0.146 A 
ATOM     11  O   UNL     1      -2.037   4.861   6.146  1.00  0.00    -0.452 OA
ENDROOT
BRANCH   1  12
ATOM     12  C   UNL     1      -4.130   5.446   5.106  1.00  0.00     0.025 A 
ATOM     13  C   UNL     1      -4.859   4.530   4.326  1.00  0.00     0.016 A 
ATOM     14  C   UNL     1      -5.609   4.971   3.233  1.00  0.00     0.051 A 
ATOM     15  C   UNL     1      -5.653   6.335   2.911  1.00  0.00     0.157 A 
ATOM     16  C   UNL     1      -4.196   6.813   4.791  1.00  0.00     0.062 A 
ATOM     17  C   UNL     1      -4.948   7.257   3.693  1.00  0.00     0.158 A 
BRANCH  15  18
ATOM     18  O   UNL     1      -6.398   6.778   1.821  1.00  0.00    -0.504 OA
ATOM     19  H   UNL     1      -6.021   7.445   1.157  1.00  0.00     0.293 HD
ENDBRANCH  15  18
BRANCH  17  20
ATOM     20  O   UNL     1      -5.000   8.613   3.375  1.00  0.00    -0.504 OA
ATOM     21  H   UNL     1      -5.815   9.023   2.933  1.00  0.00     0.293 HD
ENDBRANCH  17  20
ENDBRANCH   1  12
BRANCH   2  22
ATOM     22  O   UNL     1      -5.348   4.774   7.648  1.00  0.00    -0.502 OA
ATOM     23  H   UNL     1      -5.844   5.648   7.771  1.00  0.00     0.293 HD
ENDBRANCH   2  22
BRANCH   6  24
ATOM     24  O   UNL     1      -1.192   3.745  10.818  1.00  0.00    -0.507 OA
ATOM     25  H   UNL     1      -1.236   2.860  11.301  1.00  0.00     0.293 HD
ENDBRANCH   6  24
BRANCH   8  26
ATOM     26  O   UNL     1       2.361   3.795   7.588  1.00  0.00    -0.508 OA
ATOM     27  H   UNL     1       2.936   4.577   7.299  1.00  0.00     0.293 HD
ENDBRANCH   8  26
TORSDOF 6
ENDMDL
MODEL 6
REMARK VINA RESULT:    -5.408      7.594     11.762
REMARK INTER + INTRA:          -6.835
REMARK INTER:                  -6.725
REMARK INTRA:                  -0.110
REMARK UNBOUND:                -0.321
REMARK SMILES O=c1c(O)c(-c2ccc(O)c(O)c2)oc2cc(O)cc(O)c12
REMARK SMILES IDX 5 1 3 2 2 3 1 4 22 5 20 6 19 7 17 8 16 9 15 10 14 11 6 12
REMARK SMILES IDX 7 13 8 14 9 15 13 16 11 17 10 18 12 20 4 22 21 24 18 26
REMARK H PARENT 10 19 12 21 4 23 21 25 18 27
REMARK Flexibility Score: inf
ROOT
ATOM      1  C   UNL     1       4.648  -0.547  10.136  1.00  0.00     0.180 A 
ATOM      2  C   UNL     1       6.033  -0.779  10.110  1.00  0.00     0.208 A 
ATOM      3  C   UNL     1       6.504  -2.100  10.152  1.00  0.00     0.238 A 
ATOM      4  O   UNL     1       7.747  -2.299  10.183  1.00  0.00    -0.285 OA
ATOM      5  C   UNL     1       5.583  -3.175  10.204  1.00  0.00     0.111 A 
ATOM      6  C   UNL     1       5.949  -4.555  10.209  1.00  0.00     0.134 A 
ATOM      7  C   UNL     1       4.960  -5.529  10.395  1.00  0.00     0.093 A 
ATOM      8  C   UNL     1       3.613  -5.176  10.507  1.00  0.00     0.123 A 
ATOM      9  C   UNL     1       3.241  -3.836  10.444  1.00  0.00     0.094 A 
ATOM     10  C   UNL     1       4.208  -2.838  10.297  1.00  0.00     0.146 A 
ATOM     11  O   UNL     1       3.811  -1.572  10.251  1.00  0.00    -0.452 OA
ENDROOT
BRANCH   1  12
ATOM     12  C   UNL     1       4.075   0.817  10.069  1.00  0.00     0.025 A 
ATOM     13  C   UNL     1       3.306   1.340  11.124  1.00  0.00     0.016 A 
ATOM     14  C   UNL     1       2.796   2.638  11.052  1.00  0.00     0.051 A 
ATOM     15  C   UNL     1       3.057   3.438   9.931  1.00  0.00     0.157 A 
ATOM     16  C   UNL     1       4.351   1.631   8.959  1.00  0.00     0.062 A 
ATOM     17  C   UNL     1       3.839   2.934   8.884  1.00  0.00     0.158 A 
BRANCH  15  18
ATOM     18  O   UNL     1       2.549   4.732   9.854  1.00  0.00    -0.504 OA
ATOM     19  H   UNL     1       2.665   5.299   9.022  1.00  0.00     0.293 HD
ENDBRANCH  15  18
BRANCH  17  20
ATOM     20  O   UNL     1       4.104   3.734   7.774  1.00  0.00    -0.504 OA
ATOM     21  H   UNL     1       3.590   4.592   7.605  1.00  0.00     0.293 HD
ENDBRANCH  17  20
ENDBRANCH   1  12
BRANCH   2  22
ATOM     22  O   UNL     1       6.925   0.298  10.081  1.00  0.00    -0.502 OA
ATOM     23  H   UNL     1       6.949   0.964   9.318  1.00  0.00     0.293 HD
ENDBRANCH   2  22
BRANCH   6  24
ATOM     24  O   UNL     1       7.253  -5.018  10.012  1.00  0.00    -0.507 OA
ATOM     25  H   UNL     1       8.037  -4.436   9.758  1.00  0.00     0.293 HD
ENDBRANCH   6  24
BRANCH   8  26
ATOM     26  O   UNL     1       2.634  -6.154  10.676  1.00  0.00    -0.508 OA
ATOM     27  H   UNL     1       2.340  -6.456  11.597  1.00  0.00     0.293 HD
ENDBRANCH   8  26
TORSDOF 6
ENDMDL
MODEL 7
REMARK VINA RESULT:    -5.354     14.906     15.759
REMARK INTER + INTRA:          -6.770
REMARK INTER:                  -7.001
REMARK INTRA:                   0.230
REMARK UNBOUND:                -0.321
REMARK SMILES O=c1c(O)c(-c2ccc(O)c(O)c2)oc2cc(O)cc(O)c12
REMARK SMILES IDX 5 1 3 2 2 3 1 4 22 5 20 6 19 7 17 8 16 9 15 10 14 11 6 12
REMARK SMILES IDX 7 13 8 14 9 15 13 16 11 17 10 18 12 20 4 22 21 24 18 26
REMARK H PARENT 10 19 12 21 4 23 21 25 18 27
REMARK Flexibility Score: inf
ROOT
ATOM      1  C   UNL     1      -5.526  -7.994  -0.396  1.00  0.00     0.180 A 
ATOM      2  C   UNL     1      -6.400  -7.158  -1.111  1.00  0.00     0.208 A 
ATOM      3  C   UNL     1      -6.023  -6.709  -2.387  1.00  0.00     0.238 A 
ATOM      4  O   UNL     1      -6.786  -5.917  -2.999  1.00  0.00    -0.285 OA
ATOM      5  C   UNL     1      -4.783  -7.114  -2.938  1.00  0.00     0.111 A 
ATOM      6  C   UNL     1      -4.318  -6.752  -4.238  1.00  0.00     0.134 A 
ATOM      7  C   UNL     1      -3.019  -7.101  -4.628  1.00  0.00     0.093 A 
ATOM      8  C   UNL     1      -2.194  -7.857  -3.791  1.00  0.00     0.123 A 
ATOM      9  C   UNL     1      -2.662  -8.266  -2.544  1.00  0.00     0.094 A 
ATOM     10  C   UNL     1      -3.939  -7.901  -2.112  1.00  0.00     0.146 A 
ATOM     11  O   UNL     1      -4.341  -8.303  -0.912  1.00  0.00    -0.452 OA
ENDROOT
BRANCH   1  12
ATOM     12  C   UNL     1      -5.864  -8.528   0.943  1.00  0.00     0.025 A 
ATOM     13  C   UNL     1      -7.195  -8.797   1.309  1.00  0.00     0.016 A 
ATOM     14  C   UNL     1      -7.489  -9.324   2.569  1.00  0.00     0.051 A 
ATOM     15  C   UNL     1      -6.457  -9.601   3.476  1.00  0.00     0.157 A 
ATOM     16  C   UNL     1      -4.833  -8.828   1.849  1.00  0.00     0.062 A 
ATOM     17  C   UNL     1      -5.127  -9.356   3.114  1.00  0.00     0.158 A 
BRANCH  15  18
ATOM     18  O   UNL     1      -6.747 -10.124   4.735  1.00  0.00    -0.504 OA
ATOM     19  H   UNL     1      -6.498  -9.631   5.584  1.00  0.00     0.293 HD
ENDBRANCH  15  18
BRANCH  17  20
ATOM     20  O   UNL     1      -4.103  -9.640   4.016  1.00  0.00    -0.504 OA
ATOM     21  H   UNL     1      -4.289 -10.098   4.901  1.00  0.00     0.293 HD
ENDBRANCH  17  20
ENDBRANCH   1  12
BRANCH   2  22
ATOM     22  O   UNL     1      -7.609  -6.753  -0.539  1.00  0.00    -0.502 OA
ATOM     23  H   UNL     1      -8.245  -7.403  -0.093  1.00  0.00     0.293 HD
ENDBRANCH   2  22
BRANCH   6  24
ATOM     24  O   UNL     1      -5.094  -6.077  -5.185  1.00  0.00    -0.507 OA
ATOM     25  H   UNL     1      -5.955  -6.428  -5.577  1.00  0.00     0.293 HD
ENDBRANCH   6  24
BRANCH   8  26
ATOM     26  O   UNL     1      -0.909  -8.214  -4.194  1.00  0.00    -0.508 OA
ATOM     27  H   UNL     1      -0.472  -7.792  -5.005  1.00  0.00     0.293 HD
ENDBRANCH   8  26
TORSDOF 6
ENDMDL
MODEL 8
REMARK VINA RESULT:    -5.351     16.459     18.269
REMARK INTER + INTRA:          -6.767
REMARK INTER:                  -6.444
REMARK INTRA:                  -0.323
REMARK UNBOUND:                -0.321
REMARK SMILES O=c1c(O)c(-c2ccc(O)c(O)c2)oc2cc(O)cc(O)c12
REMARK SMILES IDX 5 1 3 2 2 3 1 4 22 5 20 6 19 7 17 8 16 9 15 10 14 11 6 12
REMARK SMILES IDX 7 13 8 14 9 15 13 16 11 17 10 18 12 20 4 22 21 24 18 26
REMARK H PARENT 10 19 12 21 4 23 21 25 18 27
REMARK Flexibility Score: inf
ROOT
ATOM      1  C   UNL     1      -2.037  -8.021  -4.383  1.00  0.00     0.180 A 
ATOM      2  C   UNL     1      -1.612  -8.845  -3.326  1.00  0.00     0.208 A 
ATOM      3  C   UNL     1      -0.301  -9.345  -3.337  1.00  0.00     0.238 A 
ATOM      4  O   UNL     1       0.056 -10.125  -2.415  1.00  0.00    -0.285 OA
ATOM      5  C   UNL     1       0.575  -9.003  -4.396  1.00  0.00     0.111 A 
ATOM      6  C   UNL     1       1.937  -9.421  -4.487  1.00  0.00     0.134 A 
ATOM      7  C   UNL     1       2.671  -9.132  -5.644  1.00  0.00     0.093 A 
ATOM      8  C   UNL     1       2.112  -8.383  -6.684  1.00  0.00     0.123 A 
ATOM      9  C   UNL     1       0.803  -7.921  -6.577  1.00  0.00     0.094 A 
ATOM     10  C   UNL     1       0.033  -8.225  -5.451  1.00  0.00     0.146 A 
ATOM     11  O   UNL     1      -1.214  -7.772  -5.395  1.00  0.00    -0.452 OA
ENDROOT
BRANCH   1  12
ATOM     12  C   UNL     1      -3.396  -7.436  -4.429  1.00  0.00     0.025 A 
ATOM     13  C   UNL     1      -3.655  -6.145  -3.934  1.00  0.00     0.016 A 
ATOM     14  C   UNL     1      -4.940  -5.603  -4.011  1.00  0.00     0.051 A 
ATOM     15  C   UNL     1      -5.982  -6.336  -4.593  1.00  0.00     0.157 A 
ATOM     16  C   UNL     1      -4.440  -8.157  -5.031  1.00  0.00     0.062 A 
ATOM     17  C   UNL     1      -5.731  -7.614  -5.107  1.00  0.00     0.158 A 
BRANCH  15  18
ATOM     18  O   UNL     1      -7.266  -5.800  -4.669  1.00  0.00    -0.504 OA
ATOM     19  H   UNL     1      -8.057  -6.358  -4.969  1.00  0.00     0.293 HD
ENDBRANCH  15  18
BRANCH  17  20
ATOM     20  O   UNL     1      -6.768  -8.338  -5.693  1.00  0.00    -0.504 OA
ATOM     21  H   UNL     1      -6.920  -9.317  -5.477  1.00  0.00     0.293 HD
ENDBRANCH  17  20
ENDBRANCH   1  12
BRANCH   2  22
ATOM     22  O   UNL     1      -2.500  -9.187  -2.302  1.00  0.00    -0.502 OA
ATOM     23  H   UNL     1      -3.413  -8.758  -2.207  1.00  0.00     0.293 HD
ENDBRANCH   2  22
BRANCH   6  24
ATOM     24  O   UNL     1       2.618 -10.093  -3.468  1.00  0.00    -0.507 OA
ATOM     25  H   UNL     1       3.568  -9.901  -3.189  1.00  0.00     0.293 HD
ENDBRANCH   6  24
BRANCH   8  26
ATOM     26  O   UNL     1       2.855  -8.087  -7.825  1.00  0.00    -0.508 OA
ATOM     27  H   UNL     1       2.498  -7.467  -8.542  1.00  0.00     0.293 HD
ENDBRANCH   8  26
TORSDOF 6
ENDMDL
MODEL 9
REMARK VINA RESULT:    -5.351      1.579      2.358
REMARK INTER + INTRA:          -6.767
REMARK INTER:                  -7.281
REMARK INTRA:                   0.515
REMARK UNBOUND:                -0.321
REMARK SMILES O=c1c(O)c(-c2ccc(O)c(O)c2)oc2cc(O)cc(O)c12
REMARK SMILES IDX 5 1 3 2 2 3 1 4 22 5 20 6 19 7 17 8 16 9 15 10 14 11 6 12
REMARK SMILES IDX 7 13 8 14 9 15 13 16 11 17 10 18 12 20 4 22 21 24 18 26
REMARK H PARENT 10 19 12 21 4 23 21 25 18 27
REMARK Flexibility Score: inf
ROOT
ATOM      1  C   UNL     1      -3.599   5.120   5.776  1.00  0.00     0.180 A 
ATOM      2  C   UNL     1      -4.951   4.934   6.109  1.00  0.00     0.208 A 
ATOM      3  C   UNL     1      -5.939   5.302   5.183  1.00  0.00     0.238 A 
ATOM      4  O   UNL     1      -7.149   5.183   5.508  1.00  0.00    -0.285 OA
ATOM      5  C   UNL     1      -5.562   5.839   3.928  1.00  0.00     0.111 A 
ATOM      6  C   UNL     1      -6.478   6.209   2.897  1.00  0.00     0.134 A 
ATOM      7  C   UNL     1      -6.000   6.851   1.748  1.00  0.00     0.093 A 
ATOM      8  C   UNL     1      -4.633   7.076   1.563  1.00  0.00     0.123 A 
ATOM      9  C   UNL     1      -3.726   6.664   2.537  1.00  0.00     0.094 A 
ATOM     10  C   UNL     1      -4.176   6.054   3.711  1.00  0.00     0.146 A 
ATOM     11  O   UNL     1      -3.278   5.686   4.618  1.00  0.00    -0.452 OA
ENDROOT
BRANCH   1  12
ATOM     12  C   UNL     1      -2.501   4.733   6.691  1.00  0.00     0.025 A 
ATOM     13  C   UNL     1      -1.179   5.162   6.471  1.00  0.00     0.016 A 
ATOM     14  C   UNL     1      -0.163   4.805   7.360  1.00  0.00     0.051 A 
ATOM     15  C   UNL     1      -0.453   4.027   8.489  1.00  0.00     0.157 A 
ATOM     16  C   UNL     1      -2.789   3.972   7.835  1.00  0.00     0.062 A 
ATOM     17  C   UNL     1      -1.769   3.612   8.728  1.00  0.00     0.158 A 
BRANCH  15  18
ATOM     18  O   UNL     1       0.558   3.667   9.377  1.00  0.00    -0.504 OA
ATOM     19  H   UNL     1       0.433   3.738  10.380  1.00  0.00     0.293 HD
ENDBRANCH  15  18
BRANCH  17  20
ATOM     20  O   UNL     1      -2.056   2.845   9.856  1.00  0.00    -0.504 OA
ATOM     21  H   UNL     1      -3.009   2.689  10.162  1.00  0.00     0.293 HD
ENDBRANCH  17  20
ENDBRANCH   1  12
BRANCH   2  22
ATOM     22  O   UNL     1      -5.302   4.423   7.363  1.00  0.00    -0.502 OA
ATOM     23  H   UNL     1      -4.704   4.518   8.175  1.00  0.00     0.293 HD
ENDBRANCH   2  22
BRANCH   6  24
ATOM     24  O   UNL     1      -7.850   5.948   2.941  1.00  0.00    -0.507 OA
ATOM     25  H   UNL     1      -8.505   6.420   3.545  1.00  0.00     0.293 HD
ENDBRANCH   6  24
BRANCH   8  26
ATOM     26  O   UNL     1      -4.165   7.701   0.409  1.00  0.00    -0.508 OA
ATOM     27  H   UNL     1      -3.381   7.329  -0.114  1.00  0.00     0.293 HD
ENDBRANCH   8  26
TORSDOF 6
ENDMDL
