MODEL 1
REMARK VINA RESULT:     5.138      0.000      0.000
REMARK INTER + INTRA:           7.822
REMARK INTER:                   8.142
REMARK INTRA:                  -0.320
REMARK UNBOUND:                -0.320
REMARK SMILES CCCCCCCCCCCC(=O)[O-]
REMARK SMILES IDX 7 1 8 2 9 3 10 4 11 5 12 6 13 7 14 8 6 9 5 10 4 11 3 12 2 13
REMARK SMILES IDX 1 14
REMARK H PARENT
REMARK Flexibility Score: inf
ROOT
ATOM      1  C   UNL     1     -34.470  14.506  17.695  1.00  0.00     0.000 C 
ENDROOT
BRANCH   1   2
ATOM      2  C   UNL     1     -34.056  13.416  16.699  1.00  0.00     0.000 C 
BRANCH   2   3
ATOM      3  C   UNL     1     -33.103  12.405  17.355  1.00  0.00     0.000 C 
BRANCH   3   4
ATOM      4  C   UNL     1     -33.207  12.400  18.888  1.00  0.00     0.006 C 
BRANCH   4   5
ATOM      5  C   UNL     1     -33.051  10.996  19.485  1.00  0.00     0.053 C 
BRANCH   5   6
ATOM      6  C   UNL     1     -33.884  10.860  20.721  1.00  0.00     0.041 C 
ATOM      7  O   UNL     1     -34.287   9.727  21.093  1.00  0.00    -0.550 OA
ATOM      8  O   UNL     1     -34.173  11.980  21.490  1.00  0.00    -0.550 OA
ENDBRANCH   5   6
ENDBRANCH   4   5
ENDBRANCH   3   4
ENDBRANCH   2   3
ENDBRANCH   1   2
BRANCH   1   9
ATOM      9  C   UNL     1     -34.983  15.753  16.966  1.00  0.00     0.000 C 
BRANCH   9  10
ATOM     10  C   UNL     1     -35.252  16.896  17.953  1.00  0.00    -0.000 C 
BRANCH  10  11
ATOM     11  C   UNL     1     -36.759  17.081  18.184  1.00  0.00    -0.000 C 
BRANCH  11  12
ATOM     12  C   UNL     1     -37.536  15.752  18.072  1.00  0.00    -0.000 C 
BRANCH  12  13
ATOM     13  C   UNL     1     -38.908  15.780  18.767  1.00  0.00    -0.003 C 
ATOM     14  C   UNL     1     -40.030  16.274  17.857  1.00  0.00     0.004 C 
ENDBRANCH  12  13
ENDBRANCH  11  12
ENDBRANCH  10  11
ENDBRANCH   9  10
ENDBRANCH   1   9
TORSDOF 10
ENDMDL
MODEL 2
REMARK VINA RESULT:     5.440      2.741      6.144
REMARK INTER + INTRA:           8.300
REMARK INTER:                   8.684
REMARK INTRA:                  -0.384
REMARK UNBOUND:                -0.320
REMARK SMILES CCCCCCCCCCCC(=O)[O-]
REMARK SMILES IDX 7 1 8 2 9 3 10 4 11 5 12 6 13 7 14 8 6 9 5 10 4 11 3 12 2 13
REMARK SMILES IDX 1 14
REMARK H PARENT
REMARK Flexibility Score: inf
ROOT
ATOM      1  C   UNL     1     -34.424  14.645  17.741  1.00  0.00     0.000 C 
ENDROOT
BRANCH   1   2
ATOM      2  C   UNL     1     -34.967  15.884  17.021  1.00  0.00     0.000 C 
BRANCH   2   3
ATOM      3  C   UNL     1     -35.352  16.980  18.027  1.00  0.00     0.000 C 
BRANCH   3   4
ATOM      4  C   UNL     1     -36.870  17.078  18.245  1.00  0.00     0.006 C 
BRANCH   4   5
ATOM      5  C   UNL     1     -37.612  15.810  17.804  1.00  0.00     0.053 C 
BRANCH   5   6
ATOM      6  C   UNL     1     -38.916  15.691  18.528  1.00  0.00     0.041 C 
ATOM      7  O   UNL     1     -38.987  15.043  19.605  1.00  0.00    -0.550 OA
ATOM      8  O   UNL     1     -40.044  16.336  18.037  1.00  0.00    -0.550 OA
ENDBRANCH   5   6
ENDBRANCH   4   5
ENDBRANCH   3   4
ENDBRANCH   2   3
ENDBRANCH   1   2
BRANCH   1   9
ATOM      9  C   UNL     1     -34.198  13.491  16.757  1.00  0.00     0.000 C 
BRANCH   9  10
ATOM     10  C   UNL     1     -32.948  12.685  17.132  1.00  0.00    -0.000 C 
BRANCH  10  11
ATOM     11  C   UNL     1     -33.297  11.548  18.105  1.00  0.00    -0.000 C 
BRANCH  11  12
ATOM     12  C   UNL     1     -32.872  11.867  19.554  1.00  0.00    -0.000 C 
BRANCH  12  13
ATOM     13  C   UNL     1     -33.954  11.544  20.598  1.00  0.00    -0.003 C 
ATOM     14  C   UNL     1     -34.034  10.057  20.938  1.00  0.00     0.004 C 
ENDBRANCH  12  13
ENDBRANCH  11  12
ENDBRANCH  10  11
ENDBRANCH   9  10
ENDBRANCH   1   9
TORSDOF 10
ENDMDL
MODEL 3
REMARK VINA RESULT:     5.629      2.694      6.116
REMARK INTER + INTRA:           8.600
REMARK INTER:                   8.930
REMARK INTRA:                  -0.330
REMARK UNBOUND:                -0.320
REMARK SMILES CCCCCCCCCCCC(=O)[O-]
REMARK SMILES IDX 7 1 8 2 9 3 10 4 11 5 12 6 13 7 14 8 6 9 5 10 4 11 3 12 2 13
REMARK SMILES IDX 1 14
REMARK H PARENT
REMARK Flexibility Score: inf
ROOT
ATOM      1  C   UNL     1     -34.458  14.465  17.879  1.00  0.00     0.000 C 
ENDROOT
BRANCH   1   2
ATOM      2  C   UNL     1     -34.928  15.632  17.003  1.00  0.00     0.000 C 
BRANCH   2   3
ATOM      3  C   UNL     1     -35.222  16.876  17.856  1.00  0.00     0.000 C 
BRANCH   3   4
ATOM      4  C   UNL     1     -36.697  16.970  18.276  1.00  0.00     0.006 C 
BRANCH   4   5
ATOM      5  C   UNL     1     -37.517  15.753  17.828  1.00  0.00     0.053 C 
BRANCH   5   6
ATOM      6  C   UNL     1     -38.843  15.734  18.522  1.00  0.00     0.041 C 
ATOM      7  O   UNL     1     -39.824  16.352  18.033  1.00  0.00    -0.550 OA
ATOM      8  O   UNL     1     -39.007  14.992  19.685  1.00  0.00    -0.550 OA
ENDBRANCH   5   6
ENDBRANCH   4   5
ENDBRANCH   3   4
ENDBRANCH   2   3
ENDBRANCH   1   2
BRANCH   1   9
ATOM      9  C   UNL     1     -33.998  13.281  17.020  1.00  0.00     0.000 C 
BRANCH   9  10
ATOM     10  C   UNL     1     -32.904  12.476  17.732  1.00  0.00    -0.000 C 
BRANCH  10  11
ATOM     11  C   UNL     1     -33.248  12.272  19.215  1.00  0.00    -0.000 C 
BRANCH  11  12
ATOM     12  C   UNL     1     -33.219  10.784  19.623  1.00  0.00    -0.000 C 
BRANCH  12  13
ATOM     13  C   UNL     1     -34.050  10.473  20.879  1.00  0.00    -0.003 C 
ATOM     14  C   UNL     1     -34.189  11.671  21.816  1.00  0.00     0.004 C 
ENDBRANCH  12  13
ENDBRANCH  11  12
ENDBRANCH  10  11
ENDBRANCH   9  10
ENDBRANCH   1   9
TORSDOF 10
ENDMDL
MODEL 4
REMARK VINA RESULT:     5.810      0.608      1.169
REMARK INTER + INTRA:           8.887
REMARK INTER:                   9.313
REMARK INTRA:                  -0.426
REMARK UNBOUND:                -0.320
REMARK SMILES CCCCCCCCCCCC(=O)[O-]
REMARK SMILES IDX 7 1 8 2 9 3 10 4 11 5 12 6 13 7 14 8 6 9 5 10 4 11 3 12 2 13
REMARK SMILES IDX 1 14
REMARK H PARENT
REMARK Flexibility Score: inf
ROOT
ATOM      1  C   UNL     1     -35.029  15.498  17.117  1.00  0.00     0.000 C 
ENDROOT
BRANCH   1   2
ATOM      2  C   UNL     1     -34.510  14.386  18.036  1.00  0.00     0.000 C 
BRANCH   2   3
ATOM      3  C   UNL     1     -33.643  13.387  17.254  1.00  0.00     0.000 C 
BRANCH   3   4
ATOM      4  C   UNL     1     -33.620  11.992  17.898  1.00  0.00     0.006 C 
BRANCH   4   5
ATOM      5  C   UNL     1     -32.855  11.969  19.228  1.00  0.00     0.053 C 
BRANCH   5   6
ATOM      6  C   UNL     1     -33.707  11.383  20.309  1.00  0.00     0.041 C 
ATOM      7  O   UNL     1     -34.020  10.164  20.281  1.00  0.00    -0.550 OA
ATOM      8  O   UNL     1     -34.117  12.174  21.375  1.00  0.00    -0.550 OA
ENDBRANCH   5   6
ENDBRANCH   4   5
ENDBRANCH   3   4
ENDBRANCH   2   3
ENDBRANCH   1   2
BRANCH   1   9
ATOM      9  C   UNL     1     -35.146  16.827  17.872  1.00  0.00     0.000 C 
BRANCH   9  10
ATOM     10  C   UNL     1     -36.610  17.149  18.197  1.00  0.00    -0.000 C 
BRANCH  10  11
ATOM     11  C   UNL     1     -37.528  15.975  17.821  1.00  0.00    -0.000 C 
BRANCH  11  12
ATOM     12  C   UNL     1     -38.548  15.651  18.934  1.00  0.00    -0.000 C 
BRANCH  12  13
ATOM     13  C   UNL     1     -40.007  15.639  18.447  1.00  0.00    -0.003 C 
ATOM     14  C   UNL     1     -40.310  16.743  17.437  1.00  0.00     0.004 C 
ENDBRANCH  12  13
ENDBRANCH  11  12
ENDBRANCH  10  11
ENDBRANCH   9  10
ENDBRANCH   1   9
TORSDOF 10
ENDMDL
MODEL 5
REMARK VINA RESULT:     7.161      3.207      6.954
REMARK INTER + INTRA:          11.027
REMARK INTER:                  11.374
REMARK INTRA:                  -0.348
REMARK UNBOUND:                -0.320
REMARK SMILES CCCCCCCCCCCC(=O)[O-]
REMARK SMILES IDX 7 1 8 2 9 3 10 4 11 5 12 6 13 7 14 8 6 9 5 10 4 11 3 12 2 13
REMARK SMILES IDX 1 14
REMARK H PARENT
REMARK Flexibility Score: inf
ROOT
ATOM      1  C   UNL     1     -33.561  11.667  18.303  1.00  0.00     0.000 C 
ENDROOT
BRANCH   1   2
ATOM      2  C   UNL     1     -33.032  12.763  17.371  1.00  0.00     0.000 C 
BRANCH   2   3
ATOM      3  C   UNL     1     -34.188  13.565  16.753  1.00  0.00     0.000 C 
BRANCH   3   4
ATOM      4  C   UNL     1     -34.715  14.662  17.691  1.00  0.00     0.006 C 
BRANCH   4   5
ATOM      5  C   UNL     1     -35.189  15.909  16.933  1.00  0.00     0.053 C 
BRANCH   5   6
ATOM      6  C   UNL     1     -35.774  16.906  17.883  1.00  0.00     0.041 C 
ATOM      7  O   UNL     1     -36.957  16.773  18.293  1.00  0.00    -0.550 OA
ATOM      8  O   UNL     1     -34.996  17.955  18.354  1.00  0.00    -0.550 OA
ENDBRANCH   5   6
ENDBRANCH   4   5
ENDBRANCH   3   4
ENDBRANCH   2   3
ENDBRANCH   1   2
BRANCH   1   9
ATOM      9  C   UNL     1     -32.947  11.789  19.702  1.00  0.00     0.000 C 
BRANCH   9  10
ATOM     10  C   UNL     1     -33.913  11.269  20.774  1.00  0.00    -0.000 C 
BRANCH  10  11
ATOM     11  C   UNL     1     -34.040   9.739  20.706  1.00  0.00    -0.000 C 
BRANCH  11  12
ATOM     12  C   UNL     1     -33.971   9.084  22.102  1.00  0.00    -0.000 C 
BRANCH  12  13
ATOM     13  C   UNL     1     -33.777   7.559  22.058  1.00  0.00    -0.003 C 
ATOM     14  C   UNL     1     -34.661   6.814  23.056  1.00  0.00     0.004 C 
ENDBRANCH  12  13
ENDBRANCH  11  12
ENDBRANCH  10  11
ENDBRANCH   9  10
ENDBRANCH   1   9
TORSDOF 10
ENDMDL
