MODEL 1
REMARK VINA RESULT:    -3.511      0.000      0.000
REMARK INTER + INTRA:          -9.021
REMARK INTER:                  -6.590
REMARK INTRA:                  -2.431
REMARK UNBOUND:                -2.431
REMARK SMILES CCCCCCCCC=CCCCCCCCC(=O)[O-]
REMARK SMILES IDX 10 1 9 2 11 3 12 4 13 5 14 6 15 7 16 8 17 9 18 10 19 11
REMARK SMILES IDX 20 12 8 13 7 14 6 15 5 16 4 17 3 18 2 19 1 20
REMARK H PARENT
REMARK Flexibility Score: inf
ROOT
ATOM      1  C   UNL     1      57.167  28.097  50.141  1.00  0.00    -0.031 C 
ATOM      2  C   UNL     1      56.628  27.323  51.097  1.00  0.00    -0.031 C 
ENDROOT
BRANCH   1   3
ATOM      3  C   UNL     1      57.940  29.342  50.479  1.00  0.00     0.027 C 
BRANCH   3   4
ATOM      4  C   UNL     1      59.010  29.635  49.416  1.00  0.00     0.004 C 
BRANCH   4   5
ATOM      5  C   UNL     1      59.777  28.375  48.979  1.00  0.00     0.000 C 
BRANCH   5   6
ATOM      6  C   UNL     1      60.964  27.984  49.882  1.00  0.00     0.000 C 
BRANCH   6   7
ATOM      7  C   UNL     1      60.807  26.646  50.628  1.00  0.00     0.000 C 
BRANCH   7   8
ATOM      8  C   UNL     1      59.988  25.614  49.834  1.00  0.00     0.006 C 
BRANCH   8   9
ATOM      9  C   UNL     1      59.450  24.491  50.731  1.00  0.00     0.053 C 
BRANCH   9  10
ATOM     10  C   UNL     1      60.187  23.205  50.515  1.00  0.00     0.041 C 
ATOM     11  O   UNL     1      59.722  22.124  50.964  1.00  0.00    -0.550 OA
ATOM     12  O   UNL     1      61.374  23.196  49.793  1.00  0.00    -0.550 OA
ENDBRANCH   9  10
ENDBRANCH   8   9
ENDBRANCH   7   8
ENDBRANCH   6   7
ENDBRANCH   5   6
ENDBRANCH   4   5
ENDBRANCH   3   4
ENDBRANCH   1   3
BRANCH   2  13
ATOM     13  C   UNL     1      55.856  26.079  50.758  1.00  0.00     0.027 C 
BRANCH  13  14
ATOM     14  C   UNL     1      55.102  26.237  49.433  1.00  0.00     0.004 C 
BRANCH  14  15
ATOM     15  C   UNL     1      53.593  26.050  49.633  1.00  0.00     0.000 C 
BRANCH  15  16
ATOM     16  C   UNL     1      53.017  27.152  50.533  1.00  0.00     0.000 C 
BRANCH  16  17
ATOM     17  C   UNL     1      52.875  28.503  49.809  1.00  0.00    -0.000 C 
BRANCH  17  18
ATOM     18  C   UNL     1      53.899  29.578  50.225  1.00  0.00    -0.000 C 
BRANCH  18  19
ATOM     19  C   UNL     1      53.608  30.267  51.570  1.00  0.00    -0.003 C 
ATOM     20  C   UNL     1      54.850  30.399  52.452  1.00  0.00     0.004 C 
ENDBRANCH  18  19
ENDBRANCH  17  18
ENDBRANCH  16  17
ENDBRANCH  15  16
ENDBRANCH  14  15
ENDBRANCH  13  14
ENDBRANCH   2  13
TORSDOF 15
ENDMDL
MODEL 2
REMARK VINA RESULT:    -3.410      3.051      4.370
REMARK INTER + INTRA:          -8.831
REMARK INTER:                  -6.165
REMARK INTRA:                  -2.666
REMARK UNBOUND:                -2.431
REMARK SMILES CCCCCCCCC=CCCCCCCCC(=O)[O-]
REMARK SMILES IDX 10 1 9 2 11 3 12 4 13 5 14 6 15 7 16 8 17 9 18 10 19 11
REMARK SMILES IDX 20 12 8 13 7 14 6 15 5 16 4 17 3 18 2 19 1 20
REMARK H PARENT
REMARK Flexibility Score: inf
ROOT
ATOM      1  C   UNL     1      57.455  29.709  52.110  1.00  0.00    -0.031 C 
ATOM      2  C   UNL     1      56.190  29.645  51.664  1.00  0.00    -0.031 C 
ENDROOT
BRANCH   1   3
ATOM      3  C   UNL     1      58.626  29.667  51.167  1.00  0.00     0.027 C 
BRANCH   3   4
ATOM      4  C   UNL     1      58.180  29.284  49.748  1.00  0.00     0.004 C 
BRANCH   4   5
ATOM      5  C   UNL     1      59.237  28.457  48.994  1.00  0.00     0.000 C 
BRANCH   5   6
ATOM      6  C   UNL     1      59.685  27.163  49.703  1.00  0.00     0.000 C 
BRANCH   6   7
ATOM      7  C   UNL     1      61.207  26.934  49.747  1.00  0.00     0.000 C 
BRANCH   7   8
ATOM      8  C   UNL     1      62.011  28.205  49.422  1.00  0.00     0.006 C 
BRANCH   8   9
ATOM      9  C   UNL     1      62.380  28.994  50.685  1.00  0.00     0.053 C 
BRANCH   9  10
ATOM     10  C   UNL     1      62.519  30.459  50.405  1.00  0.00     0.041 C 
ATOM     11  O   UNL     1      61.615  31.074  49.782  1.00  0.00    -0.550 OA
ATOM     12  O   UNL     1      63.635  31.151  50.859  1.00  0.00    -0.550 OA
ENDBRANCH   9  10
ENDBRANCH   8   9
ENDBRANCH   7   8
ENDBRANCH   6   7
ENDBRANCH   5   6
ENDBRANCH   4   5
ENDBRANCH   3   4
ENDBRANCH   1   3
BRANCH   2  13
ATOM     13  C   UNL     1      55.021  29.687  52.608  1.00  0.00     0.027 C 
BRANCH  13  14
ATOM     14  C   UNL     1      53.701  29.447  51.866  1.00  0.00     0.004 C 
BRANCH  14  15
ATOM     15  C   UNL     1      53.910  29.478  50.347  1.00  0.00     0.000 C 
BRANCH  15  16
ATOM     16  C   UNL     1      53.352  28.207  49.689  1.00  0.00     0.000 C 
BRANCH  16  17
ATOM     17  C   UNL     1      53.927  26.916  50.299  1.00  0.00    -0.000 C 
BRANCH  17  18
ATOM     18  C   UNL     1      55.266  26.448  49.696  1.00  0.00    -0.000 C 
BRANCH  18  19
ATOM     19  C   UNL     1      56.359  26.109  50.724  1.00  0.00    -0.003 C 
ATOM     20  C   UNL     1      55.823  26.008  52.152  1.00  0.00     0.004 C 
ENDBRANCH  18  19
ENDBRANCH  17  18
ENDBRANCH  16  17
ENDBRANCH  15  16
ENDBRANCH  14  15
ENDBRANCH  13  14
ENDBRANCH   2  13
TORSDOF 15
ENDMDL
MODEL 3
REMARK VINA RESULT:    -3.371     13.292     14.937
REMARK INTER + INTRA:          -8.759
REMARK INTER:                  -7.942
REMARK INTRA:                  -0.816
REMARK UNBOUND:                -2.431
REMARK SMILES CCCCCCCCC=CCCCCCCCC(=O)[O-]
REMARK SMILES IDX 10 1 9 2 11 3 12 4 13 5 14 6 15 7 16 8 17 9 18 10 19 11
REMARK SMILES IDX 20 12 8 13 7 14 6 15 5 16 4 17 3 18 2 19 1 20
REMARK H PARENT
REMARK Flexibility Score: inf
ROOT
ATOM      1  C   UNL     1      64.214  29.115  60.968  1.00  0.00    -0.031 C 
ATOM      2  C   UNL     1      62.938  29.219  61.372  1.00  0.00    -0.031 C 
ENDROOT
BRANCH   1   3
ATOM      3  C   UNL     1      64.822  27.785  60.616  1.00  0.00     0.027 C 
BRANCH   3   4
ATOM      4  C   UNL     1      66.356  27.869  60.584  1.00  0.00     0.004 C 
BRANCH   4   5
ATOM      5  C   UNL     1      66.887  29.240  61.037  1.00  0.00     0.000 C 
BRANCH   5   6
ATOM      6  C   UNL     1      68.356  29.251  61.508  1.00  0.00     0.000 C 
BRANCH   6   7
ATOM      7  C   UNL     1      69.361  28.611  60.533  1.00  0.00     0.000 C 
BRANCH   7   8
ATOM      8  C   UNL     1      70.627  29.461  60.339  1.00  0.00     0.006 C 
BRANCH   8   9
ATOM      9  C   UNL     1      70.735  30.584  61.379  1.00  0.00     0.053 C 
BRANCH   9  10
ATOM     10  C   UNL     1      71.774  31.595  61.001  1.00  0.00     0.041 C 
ATOM     11  O   UNL     1      71.432  32.760  60.665  1.00  0.00    -0.550 OA
ATOM     12  O   UNL     1      73.121  31.259  61.047  1.00  0.00    -0.550 OA
ENDBRANCH   9  10
ENDBRANCH   8   9
ENDBRANCH   7   8
ENDBRANCH   6   7
ENDBRANCH   5   6
ENDBRANCH   4   5
ENDBRANCH   3   4
ENDBRANCH   1   3
BRANCH   2  13
ATOM     13  C   UNL     1      62.331  30.548  61.724  1.00  0.00     0.027 C 
BRANCH  13  14
ATOM     14  C   UNL     1      61.705  31.216  60.494  1.00  0.00     0.004 C 
BRANCH  14  15
ATOM     15  C   UNL     1      61.143  32.599  60.845  1.00  0.00     0.000 C 
BRANCH  15  16
ATOM     16  C   UNL     1      61.965  33.712  60.178  1.00  0.00     0.000 C 
BRANCH  16  17
ATOM     17  C   UNL     1      61.535  35.121  60.623  1.00  0.00    -0.000 C 
BRANCH  17  18
ATOM     18  C   UNL     1      62.683  36.035  61.097  1.00  0.00    -0.000 C 
BRANCH  18  19
ATOM     19  C   UNL     1      63.994  35.306  61.444  1.00  0.00    -0.003 C 
ATOM     20  C   UNL     1      65.175  36.258  61.623  1.00  0.00     0.004 C 
ENDBRANCH  18  19
ENDBRANCH  17  18
ENDBRANCH  16  17
ENDBRANCH  15  16
ENDBRANCH  14  15
ENDBRANCH  13  14
ENDBRANCH   2  13
TORSDOF 15
ENDMDL
MODEL 4
REMARK VINA RESULT:    -3.328     11.873     13.705
REMARK INTER + INTRA:          -8.677
REMARK INTER:                  -6.550
REMARK INTRA:                  -2.127
REMARK UNBOUND:                -2.431
REMARK SMILES CCCCCCCCC=CCCCCCCCC(=O)[O-]
REMARK SMILES IDX 10 1 9 2 11 3 12 4 13 5 14 6 15 7 16 8 17 9 18 10 19 11
REMARK SMILES IDX 20 12 8 13 7 14 6 15 5 16 4 17 3 18 2 19 1 20
REMARK H PARENT
REMARK Flexibility Score: inf
ROOT
ATOM      1  C   UNL     1      60.784  33.232  60.305  1.00  0.00    -0.031 C 
ATOM      2  C   UNL     1      60.874  33.882  59.134  1.00  0.00    -0.031 C 
ENDROOT
BRANCH   1   3
ATOM      3  C   UNL     1      60.589  31.742  60.366  1.00  0.00     0.027 C 
BRANCH   3   4
ATOM      4  C   UNL     1      60.748  31.220  61.801  1.00  0.00     0.004 C 
BRANCH   4   5
ATOM      5  C   UNL     1      61.738  30.045  61.902  1.00  0.00     0.000 C 
BRANCH   5   6
ATOM      6  C   UNL     1      62.981  30.156  60.997  1.00  0.00     0.000 C 
BRANCH   6   7
ATOM      7  C   UNL     1      63.309  28.893  60.178  1.00  0.00     0.000 C 
BRANCH   7   8
ATOM      8  C   UNL     1      64.159  27.879  60.961  1.00  0.00     0.006 C 
BRANCH   8   9
ATOM      9  C   UNL     1      65.569  27.730  60.374  1.00  0.00     0.053 C 
BRANCH   9  10
ATOM     10  C   UNL     1      66.471  28.847  60.801  1.00  0.00     0.041 C 
ATOM     11  O   UNL     1      67.281  28.680  61.750  1.00  0.00    -0.550 OA
ATOM     12  O   UNL     1      66.435  30.064  60.133  1.00  0.00    -0.550 OA
ENDBRANCH   9  10
ENDBRANCH   8   9
ENDBRANCH   7   8
ENDBRANCH   6   7
ENDBRANCH   5   6
ENDBRANCH   4   5
ENDBRANCH   3   4
ENDBRANCH   1   3
BRANCH   2  13
ATOM     13  C   UNL     1      61.069  35.371  59.074  1.00  0.00     0.027 C 
BRANCH  13  14
ATOM     14  C   UNL     1      60.739  36.028  60.420  1.00  0.00     0.004 C 
BRANCH  14  15
ATOM     15  C   UNL     1      61.968  36.740  61.000  1.00  0.00     0.000 C 
BRANCH  15  16
ATOM     16  C   UNL     1      63.111  36.786  59.976  1.00  0.00     0.000 C 
BRANCH  16  17
ATOM     17  C   UNL     1      64.357  36.008  60.435  1.00  0.00    -0.000 C 
BRANCH  17  18
ATOM     18  C   UNL     1      64.098  34.933  61.510  1.00  0.00    -0.000 C 
BRANCH  18  19
ATOM     19  C   UNL     1      64.126  33.482  60.998  1.00  0.00    -0.003 C 
ATOM     20  C   UNL     1      64.425  33.384  59.502  1.00  0.00     0.004 C 
ENDBRANCH  18  19
ENDBRANCH  17  18
ENDBRANCH  16  17
ENDBRANCH  15  16
ENDBRANCH  14  15
ENDBRANCH  13  14
ENDBRANCH   2  13
TORSDOF 15
ENDMDL
MODEL 5
REMARK VINA RESULT:    -3.321      3.657      6.931
REMARK INTER + INTRA:          -8.665
REMARK INTER:                  -5.663
REMARK INTRA:                  -3.002
REMARK UNBOUND:                -2.431
REMARK SMILES CCCCCCCCC=CCCCCCCCC(=O)[O-]
REMARK SMILES IDX 10 1 9 2 11 3 12 4 13 5 14 6 15 7 16 8 17 9 18 10 19 11
REMARK SMILES IDX 20 12 8 13 7 14 6 15 5 16 4 17 3 18 2 19 1 20
REMARK H PARENT
REMARK Flexibility Score: inf
ROOT
ATOM      1  C   UNL     1      56.890  26.697  52.638  1.00  0.00    -0.031 C 
ATOM      2  C   UNL     1      57.043  27.996  52.944  1.00  0.00    -0.031 C 
ENDROOT
BRANCH   1   3
ATOM      3  C   UNL     1      55.652  25.938  53.027  1.00  0.00     0.027 C 
BRANCH   3   4
ATOM      4  C   UNL     1      54.676  25.827  51.847  1.00  0.00     0.004 C 
BRANCH   4   5
ATOM      5  C   UNL     1      55.355  26.069  50.487  1.00  0.00     0.000 C 
BRANCH   5   6
ATOM      6  C   UNL     1      54.629  27.064  49.559  1.00  0.00     0.000 C 
BRANCH   6   7
ATOM      7  C   UNL     1      53.542  27.918  50.237  1.00  0.00     0.000 C 
BRANCH   7   8
ATOM      8  C   UNL     1      54.054  29.301  50.672  1.00  0.00     0.006 C 
BRANCH   8   9
ATOM      9  C   UNL     1      53.953  29.505  52.189  1.00  0.00     0.053 C 
BRANCH   9  10
ATOM     10  C   UNL     1      54.354  30.890  52.593  1.00  0.00     0.041 C 
ATOM     11  O   UNL     1      53.780  31.890  52.087  1.00  0.00    -0.550 OA
ATOM     12  O   UNL     1      55.344  31.076  53.550  1.00  0.00    -0.550 OA
ENDBRANCH   9  10
ENDBRANCH   8   9
ENDBRANCH   7   8
ENDBRANCH   6   7
ENDBRANCH   5   6
ENDBRANCH   4   5
ENDBRANCH   3   4
ENDBRANCH   1   3
BRANCH   2  13
ATOM     13  C   UNL     1      58.281  28.754  52.555  1.00  0.00     0.027 C 
BRANCH  13  14
ATOM     14  C   UNL     1      57.969  29.824  51.502  1.00  0.00     0.004 C 
BRANCH  14  15
ATOM     15  C   UNL     1      57.652  29.183  50.145  1.00  0.00     0.000 C 
BRANCH  15  16
ATOM     16  C   UNL     1      58.843  29.314  49.183  1.00  0.00     0.000 C 
BRANCH  16  17
ATOM     17  C   UNL     1      59.670  28.020  49.077  1.00  0.00    -0.000 C 
BRANCH  17  18
ATOM     18  C   UNL     1      58.917  26.730  49.454  1.00  0.00    -0.000 C 
BRANCH  18  19
ATOM     19  C   UNL     1      59.666  25.799  50.424  1.00  0.00    -0.003 C 
ATOM     20  C   UNL     1      61.170  25.749  50.159  1.00  0.00     0.004 C 
ENDBRANCH  18  19
ENDBRANCH  17  18
ENDBRANCH  16  17
ENDBRANCH  15  16
ENDBRANCH  14  15
ENDBRANCH  13  14
ENDBRANCH   2  13
TORSDOF 15
ENDMDL
MODEL 6
REMARK VINA RESULT:    -3.303     12.119     14.573
REMARK INTER + INTRA:          -8.631
REMARK INTER:                  -6.039
REMARK INTRA:                  -2.592
REMARK UNBOUND:                -2.431
REMARK SMILES CCCCCCCCC=CCCCCCCCC(=O)[O-]
REMARK SMILES IDX 10 1 9 2 11 3 12 4 13 5 14 6 15 7 16 8 17 9 18 10 19 11
REMARK SMILES IDX 20 12 8 13 7 14 6 15 5 16 4 17 3 18 2 19 1 20
REMARK H PARENT
REMARK Flexibility Score: inf
ROOT
ATOM      1  C   UNL     1      63.450  30.648  61.361  1.00  0.00    -0.031 C 
ATOM      2  C   UNL     1      63.970  30.684  60.124  1.00  0.00    -0.031 C 
ENDROOT
BRANCH   1   3
ATOM      3  C   UNL     1      62.026  30.226  61.605  1.00  0.00     0.027 C 
BRANCH   3   4
ATOM      4  C   UNL     1      61.110  31.446  61.777  1.00  0.00     0.004 C 
BRANCH   4   5
ATOM      5  C   UNL     1      60.885  32.214  60.462  1.00  0.00     0.000 C 
BRANCH   5   6
ATOM      6  C   UNL     1      61.098  33.738  60.548  1.00  0.00     0.000 C 
BRANCH   6   7
ATOM      7  C   UNL     1      62.013  34.334  59.462  1.00  0.00     0.000 C 
BRANCH   7   8
ATOM      8  C   UNL     1      63.507  34.182  59.793  1.00  0.00     0.006 C 
BRANCH   8   9
ATOM      9  C   UNL     1      63.793  34.390  61.286  1.00  0.00     0.053 C 
BRANCH   9  10
ATOM     10  C   UNL     1      64.097  35.823  61.601  1.00  0.00     0.041 C 
ATOM     11  O   UNL     1      63.161  36.639  61.806  1.00  0.00    -0.550 OA
ATOM     12  O   UNL     1      65.415  36.249  61.696  1.00  0.00    -0.550 OA
ENDBRANCH   9  10
ENDBRANCH   8   9
ENDBRANCH   7   8
ENDBRANCH   6   7
ENDBRANCH   5   6
ENDBRANCH   4   5
ENDBRANCH   3   4
ENDBRANCH   1   3
BRANCH   2  13
ATOM     13  C   UNL     1      65.392  31.105  59.881  1.00  0.00     0.027 C 
BRANCH  13  14
ATOM     14  C   UNL     1      66.271  29.904  59.513  1.00  0.00     0.004 C 
BRANCH  14  15
ATOM     15  C   UNL     1      66.918  29.293  60.762  1.00  0.00     0.000 C 
BRANCH  15  16
ATOM     16  C   UNL     1      66.704  27.772  60.804  1.00  0.00     0.000 C 
BRANCH  16  17
ATOM     17  C   UNL     1      65.534  27.308  59.918  1.00  0.00    -0.000 C 
BRANCH  17  18
ATOM     18  C   UNL     1      64.289  26.819  60.684  1.00  0.00    -0.000 C 
BRANCH  18  19
ATOM     19  C   UNL     1      62.950  27.041  59.958  1.00  0.00    -0.003 C 
ATOM     20  C   UNL     1      63.126  27.454  58.497  1.00  0.00     0.004 C 
ENDBRANCH  18  19
ENDBRANCH  17  18
ENDBRANCH  16  17
ENDBRANCH  15  16
ENDBRANCH  14  15
ENDBRANCH  13  14
ENDBRANCH   2  13
TORSDOF 15
ENDMDL
MODEL 7
REMARK VINA RESULT:    -3.295     11.406     12.932
REMARK INTER + INTRA:          -8.615
REMARK INTER:                  -6.252
REMARK INTRA:                  -2.363
REMARK UNBOUND:                -2.431
REMARK SMILES CCCCCCCCC=CCCCCCCCC(=O)[O-]
REMARK SMILES IDX 10 1 9 2 11 3 12 4 13 5 14 6 15 7 16 8 17 9 18 10 19 11
REMARK SMILES IDX 20 12 8 13 7 14 6 15 5 16 4 17 3 18 2 19 1 20
REMARK H PARENT
REMARK Flexibility Score: inf
ROOT
ATOM      1  C   UNL     1      64.068  30.181  61.383  1.00  0.00    -0.031 C 
ATOM      2  C   UNL     1      62.825  30.424  60.936  1.00  0.00    -0.031 C 
ENDROOT
BRANCH   1   3
ATOM      3  C   UNL     1      65.269  30.334  60.491  1.00  0.00     0.027 C 
BRANCH   3   4
ATOM      4  C   UNL     1      65.453  29.103  59.592  1.00  0.00     0.004 C 
BRANCH   4   5
ATOM      5  C   UNL     1      65.779  27.827  60.389  1.00  0.00     0.000 C 
BRANCH   5   6
ATOM      6  C   UNL     1      64.635  26.796  60.473  1.00  0.00     0.000 C 
BRANCH   6   7
ATOM      7  C   UNL     1      63.513  26.976  59.434  1.00  0.00     0.000 C 
BRANCH   7   8
ATOM      8  C   UNL     1      62.109  26.805  60.037  1.00  0.00     0.006 C 
BRANCH   8   9
ATOM      9  C   UNL     1      62.155  26.201  61.447  1.00  0.00     0.053 C 
BRANCH   9  10
ATOM     10  C   UNL     1      60.883  26.445  62.199  1.00  0.00     0.041 C 
ATOM     11  O   UNL     1      59.902  26.988  61.626  1.00  0.00    -0.550 OA
ATOM     12  O   UNL     1      60.771  26.047  63.525  1.00  0.00    -0.550 OA
ENDBRANCH   9  10
ENDBRANCH   8   9
ENDBRANCH   7   8
ENDBRANCH   6   7
ENDBRANCH   5   6
ENDBRANCH   4   5
ENDBRANCH   3   4
ENDBRANCH   1   3
BRANCH   2  13
ATOM     13  C   UNL     1      61.625  30.270  61.828  1.00  0.00     0.027 C 
BRANCH  13  14
ATOM     14  C   UNL     1      60.709  31.496  61.741  1.00  0.00     0.004 C 
BRANCH  14  15
ATOM     15  C   UNL     1      60.758  32.122  60.342  1.00  0.00     0.000 C 
BRANCH  15  16
ATOM     16  C   UNL     1      61.251  33.575  60.406  1.00  0.00     0.000 C 
BRANCH  16  17
ATOM     17  C   UNL     1      62.261  33.914  59.295  1.00  0.00    -0.000 C 
BRANCH  17  18
ATOM     18  C   UNL     1      63.728  34.022  59.756  1.00  0.00    -0.000 C 
BRANCH  18  19
ATOM     19  C   UNL     1      63.929  34.076  61.281  1.00  0.00    -0.003 C 
ATOM     20  C   UNL     1      64.323  35.465  61.780  1.00  0.00     0.004 C 
ENDBRANCH  18  19
ENDBRANCH  17  18
ENDBRANCH  16  17
ENDBRANCH  15  16
ENDBRANCH  14  15
ENDBRANCH  13  14
ENDBRANCH   2  13
TORSDOF 15
ENDMDL
MODEL 8
REMARK VINA RESULT:    -3.235     11.619     13.731
REMARK INTER + INTRA:          -8.503
REMARK INTER:                  -5.959
REMARK INTRA:                  -2.544
REMARK UNBOUND:                -2.431
REMARK SMILES CCCCCCCCC=CCCCCCCCC(=O)[O-]
REMARK SMILES IDX 10 1 9 2 11 3 12 4 13 5 14 6 15 7 16 8 17 9 18 10 19 11
REMARK SMILES IDX 20 12 8 13 7 14 6 15 5 16 4 17 3 18 2 19 1 20
REMARK H PARENT
REMARK Flexibility Score: inf
ROOT
ATOM      1  C   UNL     1      64.217  32.708  59.264  1.00  0.00    -0.031 C 
ATOM      2  C   UNL     1      64.760  31.898  60.187  1.00  0.00    -0.031 C 
ENDROOT
BRANCH   1   3
ATOM      3  C   UNL     1      63.963  34.163  59.545  1.00  0.00     0.027 C 
BRANCH   3   4
ATOM      4  C   UNL     1      64.039  34.458  61.050  1.00  0.00     0.004 C 
BRANCH   4   5
ATOM      5  C   UNL     1      63.252  35.719  61.451  1.00  0.00     0.000 C 
BRANCH   5   6
ATOM      6  C   UNL     1      62.402  36.346  60.328  1.00  0.00     0.000 C 
BRANCH   6   7
ATOM      7  C   UNL     1      60.944  36.663  60.709  1.00  0.00     0.000 C 
BRANCH   7   8
ATOM      8  C   UNL     1      59.942  36.273  59.610  1.00  0.00     0.006 C 
BRANCH   8   9
ATOM      9  C   UNL     1      60.633  35.632  58.399  1.00  0.00     0.053 C 
BRANCH   9  10
ATOM     10  C   UNL     1      59.901  35.919  57.124  1.00  0.00     0.041 C 
ATOM     11  O   UNL     1      58.712  36.331  57.154  1.00  0.00    -0.550 OA
ATOM     12  O   UNL     1      60.543  35.759  55.902  1.00  0.00    -0.550 OA
ENDBRANCH   9  10
ENDBRANCH   8   9
ENDBRANCH   7   8
ENDBRANCH   6   7
ENDBRANCH   5   6
ENDBRANCH   4   5
ENDBRANCH   3   4
ENDBRANCH   1   3
BRANCH   2  13
ATOM     13  C   UNL     1      65.013  30.444  59.905  1.00  0.00     0.027 C 
BRANCH  13  14
ATOM     14  C   UNL     1      64.400  29.553  60.992  1.00  0.00     0.004 C 
BRANCH  14  15
ATOM     15  C   UNL     1      63.159  28.820  60.467  1.00  0.00     0.000 C 
BRANCH  15  16
ATOM     16  C   UNL     1      61.948  29.065  61.380  1.00  0.00     0.000 C 
BRANCH  16  17
ATOM     17  C   UNL     1      61.970  30.453  62.043  1.00  0.00    -0.000 C 
BRANCH  17  18
ATOM     18  C   UNL     1      60.711  31.311  61.806  1.00  0.00    -0.000 C 
BRANCH  18  19
ATOM     19  C   UNL     1      60.889  32.463  60.801  1.00  0.00    -0.003 C 
ATOM     20  C   UNL     1      60.481  32.080  59.379  1.00  0.00     0.004 C 
ENDBRANCH  18  19
ENDBRANCH  17  18
ENDBRANCH  16  17
ENDBRANCH  15  16
ENDBRANCH  14  15
ENDBRANCH  13  14
ENDBRANCH   2  13
TORSDOF 15
ENDMDL
MODEL 9
REMARK VINA RESULT:    -3.234      3.604      5.197
REMARK INTER + INTRA:          -8.502
REMARK INTER:                  -6.291
REMARK INTRA:                  -2.211
REMARK UNBOUND:                -2.431
REMARK SMILES CCCCCCCCC=CCCCCCCCC(=O)[O-]
REMARK SMILES IDX 10 1 9 2 11 3 12 4 13 5 14 6 15 7 16 8 17 9 18 10 19 11
REMARK SMILES IDX 20 12 8 13 7 14 6 15 5 16 4 17 3 18 2 19 1 20
REMARK H PARENT
REMARK Flexibility Score: inf
ROOT
ATOM      1  C   UNL     1      58.049  29.299  49.847  1.00  0.00    -0.031 C 
ATOM      2  C   UNL     1      58.061  29.132  51.180  1.00  0.00    -0.031 C 
ENDROOT
BRANCH   1   3
ATOM      3  C   UNL     1      59.144  28.749  48.975  1.00  0.00     0.027 C 
BRANCH   3   4
ATOM      4  C   UNL     1      59.593  27.362  49.459  1.00  0.00     0.004 C 
BRANCH   4   5
ATOM      5  C   UNL     1      61.093  27.306  49.799  1.00  0.00     0.000 C 
BRANCH   5   6
ATOM      6  C   UNL     1      61.501  28.046  51.089  1.00  0.00     0.000 C 
BRANCH   6   7
ATOM      7  C   UNL     1      62.563  29.145  50.905  1.00  0.00     0.000 C 
BRANCH   7   8
ATOM      8  C   UNL     1      62.398  29.920  49.586  1.00  0.00     0.006 C 
BRANCH   8   9
ATOM      9  C   UNL     1      61.829  31.327  49.810  1.00  0.00     0.053 C 
BRANCH   9  10
ATOM     10  C   UNL     1      62.674  32.379  49.158  1.00  0.00     0.041 C 
ATOM     11  O   UNL     1      62.159  33.466  48.787  1.00  0.00    -0.550 OA
ATOM     12  O   UNL     1      64.037  32.169  48.987  1.00  0.00    -0.550 OA
ENDBRANCH   9  10
ENDBRANCH   8   9
ENDBRANCH   7   8
ENDBRANCH   6   7
ENDBRANCH   5   6
ENDBRANCH   4   5
ENDBRANCH   3   4
ENDBRANCH   1   3
BRANCH   2  13
ATOM     13  C   UNL     1      56.966  29.683  52.050  1.00  0.00     0.027 C 
BRANCH  13  14
ATOM     14  C   UNL     1      56.205  28.559  52.763  1.00  0.00     0.004 C 
BRANCH  14  15
ATOM     15  C   UNL     1      54.695  28.678  52.521  1.00  0.00     0.000 C 
BRANCH  15  16
ATOM     16  C   UNL     1      54.401  29.577  51.311  1.00  0.00     0.000 C 
BRANCH  16  17
ATOM     17  C   UNL     1      54.057  28.779  50.042  1.00  0.00    -0.000 C 
BRANCH  17  18
ATOM     18  C   UNL     1      53.682  27.303  50.280  1.00  0.00    -0.000 C 
BRANCH  18  19
ATOM     19  C   UNL     1      54.547  26.280  49.522  1.00  0.00    -0.003 C 
ATOM     20  C   UNL     1      55.984  26.217  50.040  1.00  0.00     0.004 C 
ENDBRANCH  18  19
ENDBRANCH  17  18
ENDBRANCH  16  17
ENDBRANCH  15  16
ENDBRANCH  14  15
ENDBRANCH  13  14
ENDBRANCH   2  13
TORSDOF 15
ENDMDL
