MODEL 1
REMARK VINA RESULT:    -2.072      0.000      0.000
REMARK INTER + INTRA:          -5.951
REMARK INTER:                  -5.221
REMARK INTRA:                  -0.730
REMARK UNBOUND:                -0.730
REMARK SMILES CCCCCCCCCCCCCCCCCCCCCCCCCCCC(=O)[O-]
REMARK SMILES IDX 15 1 16 2 17 3 18 4 19 5 20 6 21 7 22 8 23 9 24 10 25 11
REMARK SMILES IDX 26 12 27 13 28 14 29 15 30 16 14 17 13 18 12 19 11 20 10 21
REMARK SMILES IDX 9 22 8 23 7 24 6 25 5 26 4 27 3 28 2 29 1 30
REMARK H PARENT
REMARK Flexibility Score: inf
ROOT
ATOM      1  C   UNL     1     -11.617 -10.204  -6.536  1.00  0.00     0.000 C 
ENDROOT
BRANCH   1   2
ATOM      2  C   UNL     1     -10.426 -10.908  -5.854  1.00  0.00     0.000 C 
BRANCH   2   3
ATOM      3  C   UNL     1      -9.286  -9.953  -5.439  1.00  0.00     0.000 C 
BRANCH   3   4
ATOM      4  C   UNL     1      -8.781  -9.093  -6.611  1.00  0.00     0.000 C 
BRANCH   4   5
ATOM      5  C   UNL     1      -7.455  -8.382  -6.289  1.00  0.00     0.000 C 
BRANCH   5   6
ATOM      6  C   UNL     1      -6.324  -8.794  -7.247  1.00  0.00     0.000 C 
BRANCH   6   7
ATOM      7  C   UNL     1      -6.191 -10.318  -7.390  1.00  0.00     0.000 C 
BRANCH   7   8
ATOM      8  C   UNL     1      -4.750 -10.767  -7.695  1.00  0.00     0.000 C 
BRANCH   8   9
ATOM      9  C   UNL     1      -3.835 -10.668  -6.462  1.00  0.00     0.000 C 
BRANCH   9  10
ATOM     10  C   UNL     1      -3.232  -9.262  -6.292  1.00  0.00     0.000 C 
BRANCH  10  11
ATOM     11  C   UNL     1      -1.985  -9.261  -5.392  1.00  0.00     0.000 C 
BRANCH  11  12
ATOM     12  C   UNL     1      -1.325  -7.875  -5.308  1.00  0.00     0.006 C 
BRANCH  12  13
ATOM     13  C   UNL     1      -2.315  -6.786  -4.875  1.00  0.00     0.053 C 
BRANCH  13  14
ATOM     14  C   UNL     1      -2.461  -5.719  -5.917  1.00  0.00     0.041 C 
ATOM     15  O   UNL     1      -3.157  -5.929  -6.946  1.00  0.00    -0.550 OA
ATOM     16  O   UNL     1      -1.794  -4.509  -5.772  1.00  0.00    -0.550 OA
ENDBRANCH  13  14
ENDBRANCH  12  13
ENDBRANCH  11  12
ENDBRANCH  10  11
ENDBRANCH   9  10
ENDBRANCH   8   9
ENDBRANCH   7   8
ENDBRANCH   6   7
ENDBRANCH   5   6
ENDBRANCH   4   5
ENDBRANCH   3   4
ENDBRANCH   2   3
ENDBRANCH   1   2
BRANCH   1  17
ATOM     17  C   UNL     1     -12.615  -9.523  -5.581  1.00  0.00     0.000 C 
BRANCH  17  18
ATOM     18  C   UNL     1     -12.460  -7.995  -5.461  1.00  0.00     0.000 C 
BRANCH  18  19
ATOM     19  C   UNL     1     -12.911  -7.251  -6.731  1.00  0.00     0.000 C 
BRANCH  19  20
ATOM     20  C   UNL     1     -14.368  -6.764  -6.648  1.00  0.00     0.000 C 
BRANCH  20  21
ATOM     21  C   UNL     1     -15.210  -7.404  -5.528  1.00  0.00     0.000 C 
BRANCH  21  22
ATOM     22  C   UNL     1     -16.448  -6.576  -5.123  1.00  0.00    -0.000 C 
BRANCH  22  23
ATOM     23  C   UNL     1     -17.769  -7.283  -5.478  1.00  0.00    -0.000 C 
BRANCH  23  24
ATOM     24  C   UNL     1     -17.843  -8.710  -4.911  1.00  0.00    -0.000 C 
BRANCH  24  25
ATOM     25  C   UNL     1     -16.475  -9.408  -4.895  1.00  0.00    -0.000 C 
BRANCH  25  26
ATOM     26  C   UNL     1     -16.489 -10.669  -5.767  1.00  0.00    -0.000 C 
BRANCH  26  27
ATOM     27  C   UNL     1     -17.500 -10.531  -6.914  1.00  0.00    -0.000 C 
BRANCH  27  28
ATOM     28  C   UNL     1     -16.979 -11.125  -8.233  1.00  0.00    -0.000 C 
BRANCH  28  29
ATOM     29  C   UNL     1     -17.006 -10.110  -9.386  1.00  0.00    -0.003 C 
ATOM     30  C   UNL     1     -16.792  -8.688  -8.871  1.00  0.00     0.004 C 
ENDBRANCH  28  29
ENDBRANCH  27  28
ENDBRANCH  26  27
ENDBRANCH  25  26
ENDBRANCH  24  25
ENDBRANCH  23  24
ENDBRANCH  22  23
ENDBRANCH  21  22
ENDBRANCH  20  21
ENDBRANCH  19  20
ENDBRANCH  18  19
ENDBRANCH  17  18
ENDBRANCH   1  17
TORSDOF 26
ENDMDL
MODEL 2
REMARK VINA RESULT:    -1.303      1.364      2.955
REMARK INTER + INTRA:          -4.015
REMARK INTER:                  -3.125
REMARK INTRA:                  -0.890
REMARK UNBOUND:                -0.730
REMARK SMILES CCCCCCCCCCCCCCCCCCCCCCCCCCCC(=O)[O-]
REMARK SMILES IDX 15 1 16 2 17 3 18 4 19 5 20 6 21 7 22 8 23 9 24 10 25 11
REMARK SMILES IDX 26 12 27 13 28 14 29 15 30 16 14 17 13 18 12 19 11 20 10 21
REMARK SMILES IDX 9 22 8 23 7 24 6 25 5 26 4 27 3 28 2 29 1 30
REMARK H PARENT
REMARK Flexibility Score: inf
ROOT
ATOM      1  C   UNL     1      -8.990  -7.344  -6.776  1.00  0.00     0.000 C 
ENDROOT
BRANCH   1   2
ATOM      2  C   UNL     1      -7.992  -7.791  -5.689  1.00  0.00     0.000 C 
BRANCH   2   3
ATOM      3  C   UNL     1      -6.841  -8.673  -6.218  1.00  0.00     0.000 C 
BRANCH   3   4
ATOM      4  C   UNL     1      -7.043  -9.090  -7.685  1.00  0.00     0.000 C 
BRANCH   4   5
ATOM      5  C   UNL     1      -6.841 -10.601  -7.900  1.00  0.00     0.000 C 
BRANCH   5   6
ATOM      6  C   UNL     1      -5.540 -11.112  -7.256  1.00  0.00     0.000 C 
BRANCH   6   7
ATOM      7  C   UNL     1      -4.310 -10.288  -7.666  1.00  0.00     0.000 C 
BRANCH   7   8
ATOM      8  C   UNL     1      -3.000 -11.093  -7.592  1.00  0.00     0.000 C 
BRANCH   8   9
ATOM      9  C   UNL     1      -1.998 -10.488  -6.594  1.00  0.00     0.000 C 
BRANCH   9  10
ATOM     10  C   UNL     1      -2.687  -9.623  -5.525  1.00  0.00     0.000 C 
BRANCH  10  11
ATOM     11  C   UNL     1      -3.343  -8.364  -6.118  1.00  0.00     0.000 C 
BRANCH  11  12
ATOM     12  C   UNL     1      -4.098  -7.543  -5.060  1.00  0.00     0.006 C 
BRANCH  12  13
ATOM     13  C   UNL     1      -3.499  -6.141  -4.878  1.00  0.00     0.053 C 
BRANCH  13  14
ATOM     14  C   UNL     1      -2.808  -5.665  -6.119  1.00  0.00     0.041 C 
ATOM     15  O   UNL     1      -1.848  -4.853  -6.038  1.00  0.00    -0.550 OA
ATOM     16  O   UNL     1      -3.253  -6.082  -7.367  1.00  0.00    -0.550 OA
ENDBRANCH  13  14
ENDBRANCH  12  13
ENDBRANCH  11  12
ENDBRANCH  10  11
ENDBRANCH   9  10
ENDBRANCH   8   9
ENDBRANCH   7   8
ENDBRANCH   6   7
ENDBRANCH   5   6
ENDBRANCH   4   5
ENDBRANCH   3   4
ENDBRANCH   2   3
ENDBRANCH   1   2
BRANCH   1  17
ATOM     17  C   UNL     1     -10.352  -8.061  -6.756  1.00  0.00     0.000 C 
BRANCH  17  18
ATOM     18  C   UNL     1     -10.414  -9.314  -5.861  1.00  0.00     0.000 C 
BRANCH  18  19
ATOM     19  C   UNL     1     -10.921 -10.557  -6.613  1.00  0.00     0.000 C 
BRANCH  19  20
ATOM     20  C   UNL     1     -12.457 -10.637  -6.660  1.00  0.00     0.000 C 
BRANCH  20  21
ATOM     21  C   UNL     1     -13.135 -10.995  -5.324  1.00  0.00     0.000 C 
BRANCH  21  22
ATOM     22  C   UNL     1     -14.211  -9.983  -4.876  1.00  0.00    -0.000 C 
BRANCH  22  23
ATOM     23  C   UNL     1     -13.904  -8.552  -5.352  1.00  0.00    -0.000 C 
BRANCH  23  24
ATOM     24  C   UNL     1     -15.023  -7.560  -4.995  1.00  0.00    -0.000 C 
BRANCH  24  25
ATOM     25  C   UNL     1     -15.580  -6.833  -6.228  1.00  0.00    -0.000 C 
BRANCH  25  26
ATOM     26  C   UNL     1     -15.029  -7.444  -7.523  1.00  0.00    -0.000 C 
BRANCH  26  27
ATOM     27  C   UNL     1     -16.066  -8.369  -8.177  1.00  0.00    -0.000 C 
BRANCH  27  28
ATOM     28  C   UNL     1     -17.252  -8.674  -7.247  1.00  0.00    -0.000 C 
BRANCH  28  29
ATOM     29  C   UNL     1     -17.395 -10.174  -6.950  1.00  0.00    -0.003 C 
ATOM     30  C   UNL     1     -17.758 -10.413  -5.487  1.00  0.00     0.004 C 
ENDBRANCH  28  29
ENDBRANCH  27  28
ENDBRANCH  26  27
ENDBRANCH  25  26
ENDBRANCH  24  25
ENDBRANCH  23  24
ENDBRANCH  22  23
ENDBRANCH  21  22
ENDBRANCH  20  21
ENDBRANCH  19  20
ENDBRANCH  18  19
ENDBRANCH  17  18
ENDBRANCH   1  17
TORSDOF 26
ENDMDL
MODEL 3
REMARK VINA RESULT:    -0.799      3.499     11.491
REMARK INTER + INTRA:          -2.744
REMARK INTER:                  -3.166
REMARK INTRA:                   0.422
REMARK UNBOUND:                -0.730
REMARK SMILES CCCCCCCCCCCCCCCCCCCCCCCCCCCC(=O)[O-]
REMARK SMILES IDX 15 1 16 2 17 3 18 4 19 5 20 6 21 7 22 8 23 9 24 10 25 11
REMARK SMILES IDX 26 12 27 13 28 14 29 15 30 16 14 17 13 18 12 19 11 20 10 21
REMARK SMILES IDX 9 22 8 23 7 24 6 25 5 26 4 27 3 28 2 29 1 30
REMARK H PARENT
REMARK Flexibility Score: inf
ROOT
ATOM      1  C   UNL     1     -11.784  -7.705  -6.522  1.00  0.00     0.000 C 
ENDROOT
BRANCH   1   2
ATOM      2  C   UNL     1     -12.625  -8.371  -5.414  1.00  0.00     0.000 C 
BRANCH   2   3
ATOM      3  C   UNL     1     -14.143  -8.118  -5.541  1.00  0.00     0.000 C 
BRANCH   3   4
ATOM      4  C   UNL     1     -14.579  -6.800  -4.877  1.00  0.00     0.000 C 
BRANCH   4   5
ATOM      5  C   UNL     1     -15.877  -6.238  -5.485  1.00  0.00     0.000 C 
BRANCH   5   6
ATOM      6  C   UNL     1     -17.134  -6.893  -4.885  1.00  0.00     0.000 C 
BRANCH   6   7
ATOM      7  C   UNL     1     -17.677  -8.041  -5.751  1.00  0.00     0.000 C 
BRANCH   7   8
ATOM      8  C   UNL     1     -17.538  -9.416  -5.074  1.00  0.00     0.000 C 
BRANCH   8   9
ATOM      9  C   UNL     1     -16.714 -10.403  -5.918  1.00  0.00     0.000 C 
BRANCH   9  10
ATOM     10  C   UNL     1     -17.567 -11.122  -6.977  1.00  0.00     0.000 C 
BRANCH  10  11
ATOM     11  C   UNL     1     -17.153 -10.759  -8.414  1.00  0.00     0.000 C 
BRANCH  11  12
ATOM     12  C   UNL     1     -17.122  -9.240  -8.648  1.00  0.00     0.006 C 
BRANCH  12  13
ATOM     13  C   UNL     1     -15.859  -8.589  -8.068  1.00  0.00     0.053 C 
BRANCH  13  14
ATOM     14  C   UNL     1     -15.687  -7.180  -8.547  1.00  0.00     0.041 C 
ATOM     15  O   UNL     1     -14.589  -6.807  -9.039  1.00  0.00    -0.550 OA
ATOM     16  O   UNL     1     -16.726  -6.267  -8.411  1.00  0.00    -0.550 OA
ENDBRANCH  13  14
ENDBRANCH  12  13
ENDBRANCH  11  12
ENDBRANCH  10  11
ENDBRANCH   9  10
ENDBRANCH   8   9
ENDBRANCH   7   8
ENDBRANCH   6   7
ENDBRANCH   5   6
ENDBRANCH   4   5
ENDBRANCH   3   4
ENDBRANCH   2   3
ENDBRANCH   1   2
BRANCH   1  17
ATOM     17  C   UNL     1     -10.335  -8.211  -6.643  1.00  0.00     0.000 C 
BRANCH  17  18
ATOM     18  C   UNL     1     -10.191  -9.649  -7.176  1.00  0.00     0.000 C 
BRANCH  18  19
ATOM     19  C   UNL     1     -10.242 -10.705  -6.058  1.00  0.00     0.000 C 
BRANCH  19  20
ATOM     20  C   UNL     1      -8.970 -10.716  -5.193  1.00  0.00     0.000 C 
BRANCH  20  21
ATOM     21  C   UNL     1      -8.134  -9.423  -5.240  1.00  0.00     0.000 C 
BRANCH  21  22
ATOM     22  C   UNL     1      -6.610  -9.663  -5.282  1.00  0.00    -0.000 C 
BRANCH  22  23
ATOM     23  C   UNL     1      -6.238 -10.935  -6.064  1.00  0.00    -0.000 C 
BRANCH  23  24
ATOM     24  C   UNL     1      -4.730 -11.032  -6.348  1.00  0.00    -0.000 C 
BRANCH  24  25
ATOM     25  C   UNL     1      -3.882 -10.876  -5.076  1.00  0.00    -0.000 C 
BRANCH  25  26
ATOM     26  C   UNL     1      -2.439 -10.484  -5.420  1.00  0.00    -0.000 C 
BRANCH  26  27
ATOM     27  C   UNL     1      -2.359  -9.013  -5.851  1.00  0.00    -0.000 C 
BRANCH  27  28
ATOM     28  C   UNL     1      -3.109  -8.075  -4.890  1.00  0.00    -0.000 C 
BRANCH  28  29
ATOM     29  C   UNL     1      -3.740  -6.876  -5.612  1.00  0.00    -0.003 C 
ATOM     30  C   UNL     1      -5.131  -6.571  -5.061  1.00  0.00     0.004 C 
ENDBRANCH  28  29
ENDBRANCH  27  28
ENDBRANCH  26  27
ENDBRANCH  25  26
ENDBRANCH  24  25
ENDBRANCH  23  24
ENDBRANCH  22  23
ENDBRANCH  21  22
ENDBRANCH  20  21
ENDBRANCH  19  20
ENDBRANCH  18  19
ENDBRANCH  17  18
ENDBRANCH   1  17
TORSDOF 26
ENDMDL
MODEL 4
REMARK VINA RESULT:    -0.486      3.457     11.882
REMARK INTER + INTRA:          -1.954
REMARK INTER:                  -0.680
REMARK INTRA:                  -1.274
REMARK UNBOUND:                -0.730
REMARK SMILES CCCCCCCCCCCCCCCCCCCCCCCCCCCC(=O)[O-]
REMARK SMILES IDX 15 1 16 2 17 3 18 4 19 5 20 6 21 7 22 8 23 9 24 10 25 11
REMARK SMILES IDX 26 12 27 13 28 14 29 15 30 16 14 17 13 18 12 19 11 20 10 21
REMARK SMILES IDX 9 22 8 23 7 24 6 25 5 26 4 27 3 28 2 29 1 30
REMARK H PARENT
REMARK Flexibility Score: inf
ROOT
ATOM      1  C   UNL     1      -8.731  -7.854  -6.828  1.00  0.00     0.000 C 
ENDROOT
BRANCH   1   2
ATOM      2  C   UNL     1     -10.058  -8.156  -6.104  1.00  0.00     0.000 C 
BRANCH   2   3
ATOM      3  C   UNL     1     -11.153  -8.744  -7.020  1.00  0.00     0.000 C 
BRANCH   3   4
ATOM      4  C   UNL     1     -12.318  -9.360  -6.226  1.00  0.00     0.000 C 
BRANCH   4   5
ATOM      5  C   UNL     1     -12.666 -10.782  -6.702  1.00  0.00     0.000 C 
BRANCH   5   6
ATOM      6  C   UNL     1     -14.170 -11.085  -6.585  1.00  0.00     0.000 C 
BRANCH   6   7
ATOM      7  C   UNL     1     -14.660 -11.109  -5.129  1.00  0.00     0.000 C 
BRANCH   7   8
ATOM      8  C   UNL     1     -15.844 -10.156  -4.882  1.00  0.00     0.000 C 
BRANCH   8   9
ATOM      9  C   UNL     1     -16.927 -10.277  -5.967  1.00  0.00     0.000 C 
BRANCH   9  10
ATOM     10  C   UNL     1     -17.945  -9.125  -5.908  1.00  0.00     0.000 C 
BRANCH  10  11
ATOM     11  C   UNL     1     -17.378  -7.871  -5.221  1.00  0.00     0.000 C 
BRANCH  11  12
ATOM     12  C   UNL     1     -16.497  -7.034  -6.163  1.00  0.00     0.006 C 
BRANCH  12  13
ATOM     13  C   UNL     1     -16.476  -7.598  -7.590  1.00  0.00     0.053 C 
BRANCH  13  14
ATOM     14  C   UNL     1     -15.496  -6.874  -8.462  1.00  0.00     0.041 C 
ATOM     15  O   UNL     1     -14.273  -6.852  -8.158  1.00  0.00    -0.550 OA
ATOM     16  O   UNL     1     -15.939  -6.187  -9.585  1.00  0.00    -0.550 OA
ENDBRANCH  13  14
ENDBRANCH  12  13
ENDBRANCH  11  12
ENDBRANCH  10  11
ENDBRANCH   9  10
ENDBRANCH   8   9
ENDBRANCH   7   8
ENDBRANCH   6   7
ENDBRANCH   5   6
ENDBRANCH   4   5
ENDBRANCH   3   4
ENDBRANCH   2   3
ENDBRANCH   1   2
BRANCH   1  17
ATOM     17  C   UNL     1      -7.586  -8.845  -6.549  1.00  0.00     0.000 C 
BRANCH  17  18
ATOM     18  C   UNL     1      -7.928 -10.324  -6.813  1.00  0.00     0.000 C 
BRANCH  18  19
ATOM     19  C   UNL     1      -7.039 -10.954  -7.899  1.00  0.00     0.000 C 
BRANCH  19  20
ATOM     20  C   UNL     1      -5.553 -10.992  -7.502  1.00  0.00     0.000 C 
BRANCH  20  21
ATOM     21  C   UNL     1      -4.625 -10.104  -8.351  1.00  0.00     0.000 C 
BRANCH  21  22
ATOM     22  C   UNL     1      -3.126 -10.260  -8.016  1.00  0.00    -0.000 C 
BRANCH  22  23
ATOM     23  C   UNL     1      -2.896 -11.066  -6.725  1.00  0.00    -0.000 C 
BRANCH  23  24
ATOM     24  C   UNL     1      -1.482 -10.870  -6.152  1.00  0.00    -0.000 C 
BRANCH  24  25
ATOM     25  C   UNL     1      -1.479 -10.017  -4.875  1.00  0.00    -0.000 C 
BRANCH  25  26
ATOM     26  C   UNL     1      -0.928  -8.612  -5.152  1.00  0.00    -0.000 C 
BRANCH  26  27
ATOM     27  C   UNL     1      -2.018  -7.547  -4.955  1.00  0.00    -0.000 C 
BRANCH  27  28
ATOM     28  C   UNL     1      -3.255  -7.801  -5.833  1.00  0.00    -0.000 C 
BRANCH  28  29
ATOM     29  C   UNL     1      -4.329  -6.716  -5.662  1.00  0.00    -0.003 C 
ATOM     30  C   UNL     1      -5.598  -7.293  -5.040  1.00  0.00     0.004 C 
ENDBRANCH  28  29
ENDBRANCH  27  28
ENDBRANCH  26  27
ENDBRANCH  25  26
ENDBRANCH  24  25
ENDBRANCH  23  24
ENDBRANCH  22  23
ENDBRANCH  21  22
ENDBRANCH  20  21
ENDBRANCH  19  20
ENDBRANCH  18  19
ENDBRANCH  17  18
ENDBRANCH   1  17
TORSDOF 26
ENDMDL
MODEL 5
REMARK VINA RESULT:    -0.323      1.400      3.238
REMARK INTER + INTRA:          -1.545
REMARK INTER:                  -2.448
REMARK INTRA:                   0.902
REMARK UNBOUND:                -0.730
REMARK SMILES CCCCCCCCCCCCCCCCCCCCCCCCCCCC(=O)[O-]
REMARK SMILES IDX 15 1 16 2 17 3 18 4 19 5 20 6 21 7 22 8 23 9 24 10 25 11
REMARK SMILES IDX 26 12 27 13 28 14 29 15 30 16 14 17 13 18 12 19 11 20 10 21
REMARK SMILES IDX 9 22 8 23 7 24 6 25 5 26 4 27 3 28 2 29 1 30
REMARK H PARENT
REMARK Flexibility Score: inf
ROOT
ATOM      1  C   UNL     1     -12.735  -7.235  -6.382  1.00  0.00     0.000 C 
ENDROOT
BRANCH   1   2
ATOM      2  C   UNL     1     -11.717  -7.650  -5.302  1.00  0.00     0.000 C 
BRANCH   2   3
ATOM      3  C   UNL     1     -10.369  -8.147  -5.868  1.00  0.00     0.000 C 
BRANCH   3   4
ATOM      4  C   UNL     1     -10.513  -9.449  -6.676  1.00  0.00     0.000 C 
BRANCH   4   5
ATOM      5  C   UNL     1      -9.961 -10.672  -5.921  1.00  0.00     0.000 C 
BRANCH   5   6
ATOM      6  C   UNL     1      -8.548 -10.424  -5.363  1.00  0.00     0.000 C 
BRANCH   6   7
ATOM      7  C   UNL     1      -7.460 -10.502  -6.445  1.00  0.00     0.000 C 
BRANCH   7   8
ATOM      8  C   UNL     1      -6.041 -10.307  -5.880  1.00  0.00     0.000 C 
BRANCH   8   9
ATOM      9  C   UNL     1      -5.016  -9.974  -6.978  1.00  0.00     0.000 C 
BRANCH   9  10
ATOM     10  C   UNL     1      -3.602  -9.759  -6.412  1.00  0.00     0.000 C 
BRANCH  10  11
ATOM     11  C   UNL     1      -3.605  -8.928  -5.117  1.00  0.00     0.000 C 
BRANCH  11  12
ATOM     12  C   UNL     1      -2.265  -8.215  -4.875  1.00  0.00     0.006 C 
BRANCH  12  13
ATOM     13  C   UNL     1      -2.113  -6.957  -5.741  1.00  0.00     0.053 C 
BRANCH  13  14
ATOM     14  C   UNL     1      -3.430  -6.489  -6.280  1.00  0.00     0.041 C 
ATOM     15  O   UNL     1      -3.621  -6.430  -7.525  1.00  0.00    -0.550 OA
ATOM     16  O   UNL     1      -4.431  -6.075  -5.410  1.00  0.00    -0.550 OA
ENDBRANCH  13  14
ENDBRANCH  12  13
ENDBRANCH  11  12
ENDBRANCH  10  11
ENDBRANCH   9  10
ENDBRANCH   8   9
ENDBRANCH   7   8
ENDBRANCH   6   7
ENDBRANCH   5   6
ENDBRANCH   4   5
ENDBRANCH   3   4
ENDBRANCH   2   3
ENDBRANCH   1   2
BRANCH   1  17
ATOM     17  C   UNL     1     -14.085  -7.974  -6.334  1.00  0.00     0.000 C 
BRANCH  17  18
ATOM     18  C   UNL     1     -14.334  -8.792  -5.052  1.00  0.00     0.000 C 
BRANCH  18  19
ATOM     19  C   UNL     1     -13.978 -10.280  -5.219  1.00  0.00     0.000 C 
BRANCH  19  20
ATOM     20  C   UNL     1     -15.141 -11.108  -5.791  1.00  0.00     0.000 C 
BRANCH  20  21
ATOM     21  C   UNL     1     -16.419 -11.124  -4.931  1.00  0.00     0.000 C 
BRANCH  21  22
ATOM     22  C   UNL     1     -17.647 -10.493  -5.622  1.00  0.00    -0.000 C 
BRANCH  22  23
ATOM     23  C   UNL     1     -17.266  -9.308  -6.527  1.00  0.00    -0.000 C 
BRANCH  23  24
ATOM     24  C   UNL     1     -17.399  -9.643  -8.022  1.00  0.00    -0.000 C 
BRANCH  24  25
ATOM     25  C   UNL     1     -17.449  -8.385  -8.904  1.00  0.00    -0.000 C 
BRANCH  25  26
ATOM     26  C   UNL     1     -16.826  -7.182  -8.184  1.00  0.00    -0.000 C 
BRANCH  26  27
ATOM     27  C   UNL     1     -17.111  -7.238  -6.676  1.00  0.00    -0.000 C 
BRANCH  27  28
ATOM     28  C   UNL     1     -17.380  -5.849  -6.075  1.00  0.00    -0.000 C 
BRANCH  28  29
ATOM     29  C   UNL     1     -18.402  -5.892  -4.929  1.00  0.00    -0.003 C 
ATOM     30  C   UNL     1     -19.439  -6.988  -5.159  1.00  0.00     0.004 C 
ENDBRANCH  28  29
ENDBRANCH  27  28
ENDBRANCH  26  27
ENDBRANCH  25  26
ENDBRANCH  24  25
ENDBRANCH  23  24
ENDBRANCH  22  23
ENDBRANCH  21  22
ENDBRANCH  20  21
ENDBRANCH  19  20
ENDBRANCH  18  19
ENDBRANCH  17  18
ENDBRANCH   1  17
TORSDOF 26
ENDMDL
MODEL 6
REMARK VINA RESULT:    -0.272      2.428      3.937
REMARK INTER + INTRA:          -1.415
REMARK INTER:                  -3.447
REMARK INTRA:                   2.032
REMARK UNBOUND:                -0.730
REMARK SMILES CCCCCCCCCCCCCCCCCCCCCCCCCCCC(=O)[O-]
REMARK SMILES IDX 15 1 16 2 17 3 18 4 19 5 20 6 21 7 22 8 23 9 24 10 25 11
REMARK SMILES IDX 26 12 27 13 28 14 29 15 30 16 14 17 13 18 12 19 11 20 10 21
REMARK SMILES IDX 9 22 8 23 7 24 6 25 5 26 4 27 3 28 2 29 1 30
REMARK H PARENT
REMARK Flexibility Score: inf
ROOT
ATOM      1  C   UNL     1     -12.663  -7.245  -6.272  1.00  0.00     0.000 C 
ENDROOT
BRANCH   1   2
ATOM      2  C   UNL     1     -11.781  -7.575  -5.051  1.00  0.00     0.000 C 
BRANCH   2   3
ATOM      3  C   UNL     1     -10.418  -8.203  -5.413  1.00  0.00     0.000 C 
BRANCH   3   4
ATOM      4  C   UNL     1     -10.553  -9.381  -6.394  1.00  0.00     0.000 C 
BRANCH   4   5
ATOM      5  C   UNL     1     -10.341 -10.743  -5.709  1.00  0.00     0.000 C 
BRANCH   5   6
ATOM      6  C   UNL     1      -9.048 -10.782  -4.875  1.00  0.00     0.000 C 
BRANCH   6   7
ATOM      7  C   UNL     1      -7.784 -10.890  -5.742  1.00  0.00     0.000 C 
BRANCH   7   8
ATOM      8  C   UNL     1      -6.493 -10.968  -4.907  1.00  0.00     0.000 C 
BRANCH   8   9
ATOM      9  C   UNL     1      -5.250 -10.556  -5.714  1.00  0.00     0.000 C 
BRANCH   9  10
ATOM     10  C   UNL     1      -4.856  -9.088  -5.473  1.00  0.00     0.000 C 
BRANCH  10  11
ATOM     11  C   UNL     1      -5.470  -8.134  -6.512  1.00  0.00     0.000 C 
BRANCH  11  12
ATOM     12  C   UNL     1      -4.772  -8.230  -7.879  1.00  0.00     0.006 C 
BRANCH  12  13
ATOM     13  C   UNL     1      -3.638  -9.264  -7.880  1.00  0.00     0.053 C 
BRANCH  13  14
ATOM     14  C   UNL     1      -3.873 -10.348  -8.888  1.00  0.00     0.041 C 
ATOM     15  O   UNL     1      -2.907 -10.829  -9.537  1.00  0.00    -0.550 OA
ATOM     16  O   UNL     1      -5.164 -10.795  -9.141  1.00  0.00    -0.550 OA
ENDBRANCH  13  14
ENDBRANCH  12  13
ENDBRANCH  11  12
ENDBRANCH  10  11
ENDBRANCH   9  10
ENDBRANCH   8   9
ENDBRANCH   7   8
ENDBRANCH   6   7
ENDBRANCH   5   6
ENDBRANCH   4   5
ENDBRANCH   3   4
ENDBRANCH   2   3
ENDBRANCH   1   2
BRANCH   1  17
ATOM     17  C   UNL     1     -14.020  -7.971  -6.321  1.00  0.00     0.000 C 
BRANCH  17  18
ATOM     18  C   UNL     1     -14.436  -8.662  -5.008  1.00  0.00     0.000 C 
BRANCH  18  19
ATOM     19  C   UNL     1     -14.078 -10.158  -4.986  1.00  0.00     0.000 C 
BRANCH  19  20
ATOM     20  C   UNL     1     -15.157 -11.038  -5.640  1.00  0.00     0.000 C 
BRANCH  20  21
ATOM     21  C   UNL     1     -16.494 -11.110  -4.876  1.00  0.00     0.000 C 
BRANCH  21  22
ATOM     22  C   UNL     1     -17.701 -10.569  -5.672  1.00  0.00    -0.000 C 
BRANCH  22  23
ATOM     23  C   UNL     1     -17.287  -9.963  -7.026  1.00  0.00    -0.000 C 
BRANCH  23  24
ATOM     24  C   UNL     1     -17.316 -10.993  -8.166  1.00  0.00    -0.000 C 
BRANCH  24  25
ATOM     25  C   UNL     1     -17.220 -10.338  -9.552  1.00  0.00    -0.000 C 
BRANCH  25  26
ATOM     26  C   UNL     1     -16.963  -8.831  -9.433  1.00  0.00    -0.000 C 
BRANCH  26  27
ATOM     27  C   UNL     1     -16.931  -8.395  -7.961  1.00  0.00    -0.000 C 
BRANCH  27  28
ATOM     28  C   UNL     1     -16.837  -6.869  -7.800  1.00  0.00    -0.000 C 
BRANCH  28  29
ATOM     29  C   UNL     1     -16.574  -6.446  -6.347  1.00  0.00    -0.003 C 
ATOM     30  C   UNL     1     -17.665  -6.970  -5.416  1.00  0.00     0.004 C 
ENDBRANCH  28  29
ENDBRANCH  27  28
ENDBRANCH  26  27
ENDBRANCH  25  26
ENDBRANCH  24  25
ENDBRANCH  23  24
ENDBRANCH  22  23
ENDBRANCH  21  22
ENDBRANCH  20  21
ENDBRANCH  19  20
ENDBRANCH  18  19
ENDBRANCH  17  18
ENDBRANCH   1  17
TORSDOF 26
ENDMDL
MODEL 7
REMARK VINA RESULT:     0.292      1.618      6.327
REMARK INTER + INTRA:           0.005
REMARK INTER:                  -2.382
REMARK INTRA:                   2.387
REMARK UNBOUND:                -0.730
REMARK SMILES CCCCCCCCCCCCCCCCCCCCCCCCCCCC(=O)[O-]
REMARK SMILES IDX 15 1 16 2 17 3 18 4 19 5 20 6 21 7 22 8 23 9 24 10 25 11
REMARK SMILES IDX 26 12 27 13 28 14 29 15 30 16 14 17 13 18 12 19 11 20 10 21
REMARK SMILES IDX 9 22 8 23 7 24 6 25 5 26 4 27 3 28 2 29 1 30
REMARK H PARENT
REMARK Flexibility Score: inf
ROOT
ATOM      1  C   UNL     1     -16.391  -8.701  -8.603  1.00  0.00     0.000 C 
ENDROOT
BRANCH   1   2
ATOM      2  C   UNL     1     -16.577  -7.172  -8.670  1.00  0.00     0.000 C 
BRANCH   2   3
ATOM      3  C   UNL     1     -15.554  -6.378  -7.829  1.00  0.00     0.000 C 
BRANCH   3   4
ATOM      4  C   UNL     1     -14.429  -7.269  -7.273  1.00  0.00     0.000 C 
BRANCH   4   5
ATOM      5  C   UNL     1     -14.013  -6.867  -5.847  1.00  0.00     0.000 C 
BRANCH   5   6
ATOM      6  C   UNL     1     -12.562  -6.358  -5.783  1.00  0.00     0.000 C 
BRANCH   6   7
ATOM      7  C   UNL     1     -11.562  -7.461  -5.404  1.00  0.00     0.000 C 
BRANCH   7   8
ATOM      8  C   UNL     1     -10.190  -6.903  -4.983  1.00  0.00     0.000 C 
BRANCH   8   9
ATOM      9  C   UNL     1      -9.085  -7.243  -5.997  1.00  0.00     0.000 C 
BRANCH   9  10
ATOM     10  C   UNL     1      -7.690  -7.290  -5.350  1.00  0.00     0.000 C 
BRANCH  10  11
ATOM     11  C   UNL     1      -7.132  -5.889  -5.049  1.00  0.00     0.000 C 
BRANCH  11  12
ATOM     12  C   UNL     1      -5.600  -5.883  -4.918  1.00  0.00     0.006 C 
BRANCH  12  13
ATOM     13  C   UNL     1      -4.970  -7.185  -5.431  1.00  0.00     0.053 C 
BRANCH  13  14
ATOM     14  C   UNL     1      -3.507  -7.023  -5.713  1.00  0.00     0.041 C 
ATOM     15  O   UNL     1      -2.956  -5.898  -5.578  1.00  0.00    -0.550 OA
ATOM     16  O   UNL     1      -2.762  -8.104  -6.167  1.00  0.00    -0.550 OA
ENDBRANCH  13  14
ENDBRANCH  12  13
ENDBRANCH  11  12
ENDBRANCH  10  11
ENDBRANCH   9  10
ENDBRANCH   8   9
ENDBRANCH   7   8
ENDBRANCH   6   7
ENDBRANCH   5   6
ENDBRANCH   4   5
ENDBRANCH   3   4
ENDBRANCH   2   3
ENDBRANCH   1   2
BRANCH   1  17
ATOM     17  C   UNL     1     -17.071  -9.395  -7.408  1.00  0.00     0.000 C 
BRANCH  17  18
ATOM     18  C   UNL     1     -17.943  -8.477  -6.532  1.00  0.00     0.000 C 
BRANCH  18  19
ATOM     19  C   UNL     1     -17.390  -8.317  -5.105  1.00  0.00     0.000 C 
BRANCH  19  20
ATOM     20  C   UNL     1     -15.937  -8.806  -4.973  1.00  0.00     0.000 C 
BRANCH  20  21
ATOM     21  C   UNL     1     -15.595 -10.069  -5.785  1.00  0.00     0.000 C 
BRANCH  21  22
ATOM     22  C   UNL     1     -14.568 -10.996  -5.101  1.00  0.00    -0.000 C 
BRANCH  22  23
ATOM     23  C   UNL     1     -13.194 -10.323  -4.929  1.00  0.00    -0.000 C 
BRANCH  23  24
ATOM     24  C   UNL     1     -12.059 -11.125  -5.587  1.00  0.00    -0.000 C 
BRANCH  24  25
ATOM     25  C   UNL     1     -10.668 -10.597  -5.203  1.00  0.00    -0.000 C 
BRANCH  25  26
ATOM     26  C   UNL     1      -9.612 -11.030  -6.229  1.00  0.00    -0.000 C 
BRANCH  26  27
ATOM     27  C   UNL     1      -8.886  -9.812  -6.816  1.00  0.00    -0.000 C 
BRANCH  27  28
ATOM     28  C   UNL     1      -7.369  -9.856  -6.573  1.00  0.00    -0.000 C 
BRANCH  28  29
ATOM     29  C   UNL     1      -6.677 -10.967  -7.378  1.00  0.00    -0.003 C 
ATOM     30  C   UNL     1      -5.615 -10.390  -8.311  1.00  0.00     0.004 C 
ENDBRANCH  28  29
ENDBRANCH  27  28
ENDBRANCH  26  27
ENDBRANCH  25  26
ENDBRANCH  24  25
ENDBRANCH  23  24
ENDBRANCH  22  23
ENDBRANCH  21  22
ENDBRANCH  20  21
ENDBRANCH  19  20
ENDBRANCH  18  19
ENDBRANCH  17  18
ENDBRANCH   1  17
TORSDOF 26
ENDMDL
MODEL 8
REMARK VINA RESULT:     0.654      2.086      4.772
REMARK INTER + INTRA:           0.917
REMARK INTER:                   0.389
REMARK INTRA:                   0.528
REMARK UNBOUND:                -0.730
REMARK SMILES CCCCCCCCCCCCCCCCCCCCCCCCCCCC(=O)[O-]
REMARK SMILES IDX 15 1 16 2 17 3 18 4 19 5 20 6 21 7 22 8 23 9 24 10 25 11
REMARK SMILES IDX 26 12 27 13 28 14 29 15 30 16 14 17 13 18 12 19 11 20 10 21
REMARK SMILES IDX 9 22 8 23 7 24 6 25 5 26 4 27 3 28 2 29 1 30
REMARK H PARENT
REMARK Flexibility Score: inf
ROOT
ATOM      1  C   UNL     1      -7.559  -7.822  -6.507  1.00  0.00     0.000 C 
ENDROOT
BRANCH   1   2
ATOM      2  C   UNL     1      -7.202  -6.432  -5.944  1.00  0.00     0.000 C 
BRANCH   2   3
ATOM      3  C   UNL     1      -6.088  -6.454  -4.876  1.00  0.00     0.000 C 
BRANCH   3   4
ATOM      4  C   UNL     1      -5.297  -7.775  -4.875  1.00  0.00     0.000 C 
BRANCH   4   5
ATOM      5  C   UNL     1      -3.782  -7.551  -5.023  1.00  0.00     0.000 C 
BRANCH   5   6
ATOM      6  C   UNL     1      -3.455  -6.316  -5.881  1.00  0.00     0.000 C 
BRANCH   6   7
ATOM      7  C   UNL     1      -3.781  -6.523  -7.368  1.00  0.00     0.000 C 
BRANCH   7   8
ATOM      8  C   UNL     1      -2.956  -7.653  -8.009  1.00  0.00     0.000 C 
BRANCH   8   9
ATOM      9  C   UNL     1      -3.774  -8.471  -9.023  1.00  0.00     0.000 C 
BRANCH   9  10
ATOM     10  C   UNL     1      -5.187  -8.797  -8.508  1.00  0.00     0.000 C 
BRANCH  10  11
ATOM     11  C   UNL     1      -5.165  -9.579  -7.183  1.00  0.00     0.000 C 
BRANCH  11  12
ATOM     12  C   UNL     1      -4.642 -11.015  -7.359  1.00  0.00     0.006 C 
BRANCH  12  13
ATOM     13  C   UNL     1      -3.111 -11.088  -7.286  1.00  0.00     0.053 C 
BRANCH  13  14
ATOM     14  C   UNL     1      -2.617 -11.054  -5.872  1.00  0.00     0.041 C 
ATOM     15  O   UNL     1      -3.432 -10.930  -4.919  1.00  0.00    -0.550 OA
ATOM     16  O   UNL     1      -1.255 -11.116  -5.609  1.00  0.00    -0.550 OA
ENDBRANCH  13  14
ENDBRANCH  12  13
ENDBRANCH  11  12
ENDBRANCH  10  11
ENDBRANCH   9  10
ENDBRANCH   8   9
ENDBRANCH   7   8
ENDBRANCH   6   7
ENDBRANCH   5   6
ENDBRANCH   4   5
ENDBRANCH   3   4
ENDBRANCH   2   3
ENDBRANCH   1   2
BRANCH   1  17
ATOM     17  C   UNL     1      -9.065  -8.105  -6.658  1.00  0.00     0.000 C 
BRANCH  17  18
ATOM     18  C   UNL     1      -9.412  -9.486  -7.248  1.00  0.00     0.000 C 
BRANCH  18  19
ATOM     19  C   UNL     1      -8.318 -10.536  -6.984  1.00  0.00     0.000 C 
BRANCH  19  20
ATOM     20  C   UNL     1      -8.336 -11.061  -5.538  1.00  0.00     0.000 C 
BRANCH  20  21
ATOM     21  C   UNL     1      -9.728 -11.125  -4.881  1.00  0.00     0.000 C 
BRANCH  21  22
ATOM     22  C   UNL     1     -10.865 -10.572  -5.766  1.00  0.00    -0.000 C 
BRANCH  22  23
ATOM     23  C   UNL     1     -12.252 -10.765  -5.127  1.00  0.00    -0.000 C 
BRANCH  23  24
ATOM     24  C   UNL     1     -13.345  -9.945  -5.833  1.00  0.00    -0.000 C 
BRANCH  24  25
ATOM     25  C   UNL     1     -13.269  -8.449  -5.492  1.00  0.00    -0.000 C 
BRANCH  25  26
ATOM     26  C   UNL     1     -14.575  -7.733  -5.858  1.00  0.00    -0.000 C 
BRANCH  26  27
ATOM     27  C   UNL     1     -15.722  -8.183  -4.943  1.00  0.00    -0.000 C 
BRANCH  27  28
ATOM     28  C   UNL     1     -17.004  -8.516  -5.724  1.00  0.00    -0.000 C 
BRANCH  28  29
ATOM     29  C   UNL     1     -16.723  -9.331  -6.995  1.00  0.00    -0.003 C 
ATOM     30  C   UNL     1     -17.146 -10.787  -6.819  1.00  0.00     0.004 C 
ENDBRANCH  28  29
ENDBRANCH  27  28
ENDBRANCH  26  27
ENDBRANCH  25  26
ENDBRANCH  24  25
ENDBRANCH  23  24
ENDBRANCH  22  23
ENDBRANCH  21  22
ENDBRANCH  20  21
ENDBRANCH  19  20
ENDBRANCH  18  19
ENDBRANCH  17  18
ENDBRANCH   1  17
TORSDOF 26
ENDMDL
