MODEL 1
REMARK VINA RESULT:    -4.480      0.000      0.000
REMARK INTER + INTRA:         -14.840
REMARK INTER:                 -11.289
REMARK INTRA:                  -3.551
REMARK UNBOUND:                -3.551
REMARK SMILES CCCCCCCCCCCCCCCCCCCCCCCCCCCC(=O)[O-]
REMARK SMILES IDX 15 1 16 2 17 3 18 4 19 5 20 6 21 7 22 8 23 9 24 10 25 11
REMARK SMILES IDX 26 12 27 13 28 14 29 15 30 16 14 17 13 18 12 19 11 20 10 21
REMARK SMILES IDX 9 22 8 23 7 24 6 25 5 26 4 27 3 28 2 29 1 30
REMARK H PARENT
REMARK Flexibility Score: inf
ROOT
ATOM      1  C   UNL     1     157.313 174.353 164.625  1.00  0.00     0.000 C 
ENDROOT
BRANCH   1   2
ATOM      2  C   UNL     1     158.280 174.222 165.815  1.00  0.00     0.000 C 
BRANCH   2   3
ATOM      3  C   UNL     1     159.689 174.751 165.500  1.00  0.00     0.000 C 
BRANCH   3   4
ATOM      4  C   UNL     1     160.628 173.606 165.092  1.00  0.00     0.000 C 
BRANCH   4   5
ATOM      5  C   UNL     1     161.986 174.101 164.560  1.00  0.00     0.000 C 
BRANCH   5   6
ATOM      6  C   UNL     1     163.223 173.499 165.254  1.00  0.00     0.000 C 
BRANCH   6   7
ATOM      7  C   UNL     1     164.461 174.408 165.173  1.00  0.00     0.000 C 
BRANCH   7   8
ATOM      8  C   UNL     1     164.805 174.822 163.733  1.00  0.00     0.000 C 
BRANCH   8   9
ATOM      9  C   UNL     1     165.531 173.714 162.950  1.00  0.00     0.000 C 
BRANCH   9  10
ATOM     10  C   UNL     1     165.604 174.006 161.441  1.00  0.00     0.000 C 
BRANCH  10  11
ATOM     11  C   UNL     1     166.977 174.495 160.937  1.00  0.00     0.000 C 
BRANCH  11  12
ATOM     12  C   UNL     1     168.058 174.552 162.037  1.00  0.00     0.006 C 
BRANCH  12  13
ATOM     13  C   UNL     1     169.087 173.421 161.901  1.00  0.00     0.053 C 
BRANCH  13  14
ATOM     14  C   UNL     1     169.498 172.921 163.249  1.00  0.00     0.041 C 
ATOM     15  O   UNL     1     168.826 173.226 164.270  1.00  0.00    -0.550 OA
ATOM     16  O   UNL     1     170.594 172.075 163.373  1.00  0.00    -0.550 OA
ENDBRANCH  13  14
ENDBRANCH  12  13
ENDBRANCH  11  12
ENDBRANCH  10  11
ENDBRANCH   9  10
ENDBRANCH   8   9
ENDBRANCH   7   8
ENDBRANCH   6   7
ENDBRANCH   5   6
ENDBRANCH   4   5
ENDBRANCH   3   4
ENDBRANCH   2   3
ENDBRANCH   1   2
BRANCH   1  17
ATOM     17  C   UNL     1     157.274 173.135 163.684  1.00  0.00     0.000 C 
BRANCH  17  18
ATOM     18  C   UNL     1     157.898 173.420 162.310  1.00  0.00     0.000 C 
BRANCH  18  19
ATOM     19  C   UNL     1     158.127 174.927 162.114  1.00  0.00     0.000 C 
BRANCH  19  20
ATOM     20  C   UNL     1     157.174 175.550 161.079  1.00  0.00     0.000 C 
BRANCH  20  21
ATOM     21  C   UNL     1     156.291 174.545 160.312  1.00  0.00     0.000 C 
BRANCH  21  22
ATOM     22  C   UNL     1     154.781 174.652 160.594  1.00  0.00    -0.000 C 
BRANCH  22  23
ATOM     23  C   UNL     1     154.464 175.459 161.861  1.00  0.00    -0.000 C 
BRANCH  23  24
ATOM     24  C   UNL     1     153.902 174.550 162.961  1.00  0.00    -0.000 C 
BRANCH  24  25
ATOM     25  C   UNL     1     153.789 173.098 162.474  1.00  0.00    -0.000 C 
BRANCH  25  26
ATOM     26  C   UNL     1     153.423 172.121 163.603  1.00  0.00    -0.000 C 
BRANCH  26  27
ATOM     27  C   UNL     1     153.875 172.617 164.985  1.00  0.00    -0.000 C 
BRANCH  27  28
ATOM     28  C   UNL     1     154.494 171.473 165.803  1.00  0.00    -0.000 C 
BRANCH  28  29
ATOM     29  C   UNL     1     155.537 171.970 166.816  1.00  0.00    -0.003 C 
ATOM     30  C   UNL     1     154.919 172.779 167.956  1.00  0.00     0.004 C 
ENDBRANCH  28  29
ENDBRANCH  27  28
ENDBRANCH  26  27
ENDBRANCH  25  26
ENDBRANCH  24  25
ENDBRANCH  23  24
ENDBRANCH  22  23
ENDBRANCH  21  22
ENDBRANCH  20  21
ENDBRANCH  19  20
ENDBRANCH  18  19
ENDBRANCH  17  18
ENDBRANCH   1  17
TORSDOF 26
ENDMDL
MODEL 2
REMARK VINA RESULT:    -4.301      1.529      2.166
REMARK INTER + INTRA:         -14.390
REMARK INTER:                 -11.069
REMARK INTRA:                  -3.321
REMARK UNBOUND:                -3.551
REMARK SMILES CCCCCCCCCCCCCCCCCCCCCCCCCCCC(=O)[O-]
REMARK SMILES IDX 15 1 16 2 17 3 18 4 19 5 20 6 21 7 22 8 23 9 24 10 25 11
REMARK SMILES IDX 26 12 27 13 28 14 29 15 30 16 14 17 13 18 12 19 11 20 10 21
REMARK SMILES IDX 9 22 8 23 7 24 6 25 5 26 4 27 3 28 2 29 1 30
REMARK H PARENT
REMARK Flexibility Score: inf
ROOT
ATOM      1  C   UNL     1     156.709 174.159 164.235  1.00  0.00     0.000 C 
ENDROOT
BRANCH   1   2
ATOM      2  C   UNL     1     157.487 174.213 165.563  1.00  0.00     0.000 C 
BRANCH   2   3
ATOM      3  C   UNL     1     158.815 174.977 165.445  1.00  0.00     0.000 C 
BRANCH   3   4
ATOM      4  C   UNL     1     160.008 174.057 165.741  1.00  0.00     0.000 C 
BRANCH   4   5
ATOM      5  C   UNL     1     160.723 174.401 167.062  1.00  0.00     0.000 C 
BRANCH   5   6
ATOM      6  C   UNL     1     161.861 175.432 166.943  1.00  0.00     0.000 C 
BRANCH   6   7
ATOM      7  C   UNL     1     161.975 176.044 165.536  1.00  0.00     0.000 C 
BRANCH   7   8
ATOM      8  C   UNL     1     163.312 175.719 164.851  1.00  0.00     0.000 C 
BRANCH   8   9
ATOM      9  C   UNL     1     163.393 174.262 164.361  1.00  0.00     0.000 C 
BRANCH   9  10
ATOM     10  C   UNL     1     164.579 173.497 164.973  1.00  0.00     0.000 C 
BRANCH  10  11
ATOM     11  C   UNL     1     165.965 174.114 164.698  1.00  0.00     0.000 C 
BRANCH  11  12
ATOM     12  C   UNL     1     166.469 173.892 163.256  1.00  0.00     0.006 C 
BRANCH  12  13
ATOM     13  C   UNL     1     166.790 175.212 162.542  1.00  0.00     0.053 C 
BRANCH  13  14
ATOM     14  C   UNL     1     167.504 174.951 161.254  1.00  0.00     0.041 C 
ATOM     15  O   UNL     1     166.901 175.083 160.156  1.00  0.00    -0.550 OA
ATOM     16  O   UNL     1     168.853 174.611 161.263  1.00  0.00    -0.550 OA
ENDBRANCH  13  14
ENDBRANCH  12  13
ENDBRANCH  11  12
ENDBRANCH  10  11
ENDBRANCH   9  10
ENDBRANCH   8   9
ENDBRANCH   7   8
ENDBRANCH   6   7
ENDBRANCH   5   6
ENDBRANCH   4   5
ENDBRANCH   3   4
ENDBRANCH   2   3
ENDBRANCH   1   2
BRANCH   1  17
ATOM     17  C   UNL     1     157.129 173.024 163.284  1.00  0.00     0.000 C 
BRANCH  17  18
ATOM     18  C   UNL     1     157.821 173.535 162.011  1.00  0.00     0.000 C 
BRANCH  18  19
ATOM     19  C   UNL     1     157.857 175.071 161.986  1.00  0.00     0.000 C 
BRANCH  19  20
ATOM     20  C   UNL     1     156.923 175.677 160.923  1.00  0.00     0.000 C 
BRANCH  20  21
ATOM     21  C   UNL     1     156.079 174.656 160.133  1.00  0.00     0.000 C 
BRANCH  21  22
ATOM     22  C   UNL     1     154.570 174.685 160.432  1.00  0.00    -0.000 C 
BRANCH  22  23
ATOM     23  C   UNL     1     154.235 175.367 161.766  1.00  0.00    -0.000 C 
BRANCH  23  24
ATOM     24  C   UNL     1     153.292 174.496 162.605  1.00  0.00    -0.000 C 
BRANCH  24  25
ATOM     25  C   UNL     1     153.088 173.120 161.955  1.00  0.00    -0.000 C 
BRANCH  25  26
ATOM     26  C   UNL     1     152.960 171.989 162.989  1.00  0.00    -0.000 C 
BRANCH  26  27
ATOM     27  C   UNL     1     153.595 172.348 164.341  1.00  0.00    -0.000 C 
BRANCH  27  28
ATOM     28  C   UNL     1     154.368 171.153 164.918  1.00  0.00    -0.000 C 
BRANCH  28  29
ATOM     29  C   UNL     1     154.291 171.087 166.452  1.00  0.00    -0.003 C 
ATOM     30  C   UNL     1     155.492 171.737 167.136  1.00  0.00     0.004 C 
ENDBRANCH  28  29
ENDBRANCH  27  28
ENDBRANCH  26  27
ENDBRANCH  25  26
ENDBRANCH  24  25
ENDBRANCH  23  24
ENDBRANCH  22  23
ENDBRANCH  21  22
ENDBRANCH  20  21
ENDBRANCH  19  20
ENDBRANCH  18  19
ENDBRANCH  17  18
ENDBRANCH   1  17
TORSDOF 26
ENDMDL
MODEL 3
REMARK VINA RESULT:    -4.293      1.748      5.305
REMARK INTER + INTRA:         -14.371
REMARK INTER:                 -10.726
REMARK INTRA:                  -3.644
REMARK UNBOUND:                -3.551
REMARK SMILES CCCCCCCCCCCCCCCCCCCCCCCCCCCC(=O)[O-]
REMARK SMILES IDX 15 1 16 2 17 3 18 4 19 5 20 6 21 7 22 8 23 9 24 10 25 11
REMARK SMILES IDX 26 12 27 13 28 14 29 15 30 16 14 17 13 18 12 19 11 20 10 21
REMARK SMILES IDX 9 22 8 23 7 24 6 25 5 26 4 27 3 28 2 29 1 30
REMARK H PARENT
REMARK Flexibility Score: inf
ROOT
ATOM      1  C   UNL     1     155.596 172.151 166.995  1.00  0.00     0.000 C 
ENDROOT
BRANCH   1   2
ATOM      2  C   UNL     1     154.998 173.533 166.673  1.00  0.00     0.000 C 
BRANCH   2   3
ATOM      3  C   UNL     1     155.778 174.281 165.581  1.00  0.00     0.000 C 
BRANCH   3   4
ATOM      4  C   UNL     1     157.160 173.648 165.360  1.00  0.00     0.000 C 
BRANCH   4   5
ATOM      5  C   UNL     1     157.429 173.286 163.886  1.00  0.00     0.000 C 
BRANCH   5   6
ATOM      6  C   UNL     1     158.879 173.498 163.412  1.00  0.00     0.000 C 
BRANCH   6   7
ATOM      7  C   UNL     1     159.724 174.316 164.404  1.00  0.00     0.000 C 
BRANCH   7   8
ATOM      8  C   UNL     1     160.848 173.491 165.052  1.00  0.00     0.000 C 
BRANCH   8   9
ATOM      9  C   UNL     1     161.732 174.325 165.996  1.00  0.00     0.000 C 
BRANCH   9  10
ATOM     10  C   UNL     1     162.391 175.521 165.289  1.00  0.00     0.000 C 
BRANCH  10  11
ATOM     11  C   UNL     1     163.832 175.276 164.798  1.00  0.00     0.000 C 
BRANCH  11  12
ATOM     12  C   UNL     1     163.941 174.186 163.709  1.00  0.00     0.006 C 
BRANCH  12  13
ATOM     13  C   UNL     1     165.333 174.144 163.067  1.00  0.00     0.053 C 
BRANCH  13  14
ATOM     14  C   UNL     1     166.116 172.981 163.591  1.00  0.00     0.041 C 
ATOM     15  O   UNL     1     166.858 172.317 162.819  1.00  0.00    -0.550 OA
ATOM     16  O   UNL     1     166.067 172.663 164.943  1.00  0.00    -0.550 OA
ENDBRANCH  13  14
ENDBRANCH  12  13
ENDBRANCH  11  12
ENDBRANCH  10  11
ENDBRANCH   9  10
ENDBRANCH   8   9
ENDBRANCH   7   8
ENDBRANCH   6   7
ENDBRANCH   5   6
ENDBRANCH   4   5
ENDBRANCH   3   4
ENDBRANCH   2   3
ENDBRANCH   1   2
BRANCH   1  17
ATOM     17  C   UNL     1     154.723 170.954 166.576  1.00  0.00     0.000 C 
BRANCH  17  18
ATOM     18  C   UNL     1     153.778 171.281 165.411  1.00  0.00     0.000 C 
BRANCH  18  19
ATOM     19  C   UNL     1     154.430 170.933 164.063  1.00  0.00     0.000 C 
BRANCH  19  20
ATOM     20  C   UNL     1     154.121 171.964 162.963  1.00  0.00     0.000 C 
BRANCH  20  21
ATOM     21  C   UNL     1     153.183 173.112 163.385  1.00  0.00     0.000 C 
BRANCH  21  22
ATOM     22  C   UNL     1     153.471 174.471 162.721  1.00  0.00    -0.000 C 
BRANCH  22  23
ATOM     23  C   UNL     1     154.667 174.426 161.759  1.00  0.00    -0.000 C 
BRANCH  23  24
ATOM     24  C   UNL     1     155.578 175.643 161.961  1.00  0.00    -0.000 C 
BRANCH  24  25
ATOM     25  C   UNL     1     156.752 175.624 160.971  1.00  0.00    -0.000 C 
BRANCH  25  26
ATOM     26  C   UNL     1     156.974 174.240 160.341  1.00  0.00    -0.000 C 
BRANCH  26  27
ATOM     27  C   UNL     1     157.035 174.291 158.806  1.00  0.00    -0.000 C 
BRANCH  27  28
ATOM     28  C   UNL     1     155.841 175.071 158.235  1.00  0.00    -0.000 C 
BRANCH  28  29
ATOM     29  C   UNL     1     155.296 174.448 156.940  1.00  0.00    -0.003 C 
ATOM     30  C   UNL     1     156.172 173.313 156.412  1.00  0.00     0.004 C 
ENDBRANCH  28  29
ENDBRANCH  27  28
ENDBRANCH  26  27
ENDBRANCH  25  26
ENDBRANCH  24  25
ENDBRANCH  23  24
ENDBRANCH  22  23
ENDBRANCH  21  22
ENDBRANCH  20  21
ENDBRANCH  19  20
ENDBRANCH  18  19
ENDBRANCH  17  18
ENDBRANCH   1  17
TORSDOF 26
ENDMDL
MODEL 4
REMARK VINA RESULT:    -4.283      1.657      4.218
REMARK INTER + INTRA:         -14.344
REMARK INTER:                 -11.063
REMARK INTRA:                  -3.280
REMARK UNBOUND:                -3.551
REMARK SMILES CCCCCCCCCCCCCCCCCCCCCCCCCCCC(=O)[O-]
REMARK SMILES IDX 15 1 16 2 17 3 18 4 19 5 20 6 21 7 22 8 23 9 24 10 25 11
REMARK SMILES IDX 26 12 27 13 28 14 29 15 30 16 14 17 13 18 12 19 11 20 10 21
REMARK SMILES IDX 9 22 8 23 7 24 6 25 5 26 4 27 3 28 2 29 1 30
REMARK H PARENT
REMARK Flexibility Score: inf
ROOT
ATOM      1  C   UNL     1     157.502 173.647 164.497  1.00  0.00     0.000 C 
ENDROOT
BRANCH   1   2
ATOM      2  C   UNL     1     158.973 174.095 164.428  1.00  0.00     0.000 C 
BRANCH   2   3
ATOM      3  C   UNL     1     159.397 174.937 165.642  1.00  0.00     0.000 C 
BRANCH   3   4
ATOM      4  C   UNL     1     159.841 174.040 166.807  1.00  0.00     0.000 C 
BRANCH   4   5
ATOM      5  C   UNL     1     161.020 174.627 167.605  1.00  0.00     0.000 C 
BRANCH   5   6
ATOM      6  C   UNL     1     161.554 175.977 167.091  1.00  0.00     0.000 C 
BRANCH   6   7
ATOM      7  C   UNL     1     162.996 175.894 166.562  1.00  0.00     0.000 C 
BRANCH   7   8
ATOM      8  C   UNL     1     163.364 174.491 166.054  1.00  0.00     0.000 C 
BRANCH   8   9
ATOM      9  C   UNL     1     162.946 174.256 164.591  1.00  0.00     0.000 C 
BRANCH   9  10
ATOM     10  C   UNL     1     164.110 174.451 163.604  1.00  0.00     0.000 C 
BRANCH  10  11
ATOM     11  C   UNL     1     165.371 173.619 163.910  1.00  0.00     0.000 C 
BRANCH  11  12
ATOM     12  C   UNL     1     166.687 174.302 163.477  1.00  0.00     0.006 C 
BRANCH  12  13
ATOM     13  C   UNL     1     167.391 173.541 162.346  1.00  0.00     0.053 C 
BRANCH  13  14
ATOM     14  C   UNL     1     167.904 174.494 161.313  1.00  0.00     0.041 C 
ATOM     15  O   UNL     1     167.109 175.034 160.498  1.00  0.00    -0.550 OA
ATOM     16  O   UNL     1     169.253 174.828 161.284  1.00  0.00    -0.550 OA
ENDBRANCH  13  14
ENDBRANCH  12  13
ENDBRANCH  11  12
ENDBRANCH  10  11
ENDBRANCH   9  10
ENDBRANCH   8   9
ENDBRANCH   7   8
ENDBRANCH   6   7
ENDBRANCH   5   6
ENDBRANCH   4   5
ENDBRANCH   3   4
ENDBRANCH   2   3
ENDBRANCH   1   2
BRANCH   1  17
ATOM     17  C   UNL     1     156.545 174.661 165.151  1.00  0.00     0.000 C 
BRANCH  17  18
ATOM     18  C   UNL     1     155.640 174.027 166.218  1.00  0.00     0.000 C 
BRANCH  18  19
ATOM     19  C   UNL     1     156.295 172.773 166.818  1.00  0.00     0.000 C 
BRANCH  19  20
ATOM     20  C   UNL     1     155.309 171.604 166.991  1.00  0.00     0.000 C 
BRANCH  20  21
ATOM     21  C   UNL     1     154.084 171.636 166.055  1.00  0.00     0.000 C 
BRANCH  21  22
ATOM     22  C   UNL     1     154.254 170.875 164.728  1.00  0.00    -0.000 C 
BRANCH  22  23
ATOM     23  C   UNL     1     154.601 171.797 163.549  1.00  0.00    -0.000 C 
BRANCH  23  24
ATOM     24  C   UNL     1     153.366 172.576 163.082  1.00  0.00    -0.000 C 
BRANCH  24  25
ATOM     25  C   UNL     1     153.574 174.089 163.243  1.00  0.00    -0.000 C 
BRANCH  25  26
ATOM     26  C   UNL     1     153.351 174.861 161.933  1.00  0.00    -0.000 C 
BRANCH  26  27
ATOM     27  C   UNL     1     154.631 175.536 161.418  1.00  0.00    -0.000 C 
BRANCH  27  28
ATOM     28  C   UNL     1     155.772 174.517 161.283  1.00  0.00    -0.000 C 
BRANCH  28  29
ATOM     29  C   UNL     1     156.944 175.051 160.443  1.00  0.00    -0.003 C 
ATOM     30  C   UNL     1     157.062 174.362 159.084  1.00  0.00     0.004 C 
ENDBRANCH  28  29
ENDBRANCH  27  28
ENDBRANCH  26  27
ENDBRANCH  25  26
ENDBRANCH  24  25
ENDBRANCH  23  24
ENDBRANCH  22  23
ENDBRANCH  21  22
ENDBRANCH  20  21
ENDBRANCH  19  20
ENDBRANCH  18  19
ENDBRANCH  17  18
ENDBRANCH   1  17
TORSDOF 26
ENDMDL
MODEL 5
REMARK VINA RESULT:    -4.208      3.793     10.574
REMARK INTER + INTRA:         -14.154
REMARK INTER:                 -11.583
REMARK INTRA:                  -2.571
REMARK UNBOUND:                -3.551
REMARK SMILES CCCCCCCCCCCCCCCCCCCCCCCCCCCC(=O)[O-]
REMARK SMILES IDX 15 1 16 2 17 3 18 4 19 5 20 6 21 7 22 8 23 9 24 10 25 11
REMARK SMILES IDX 26 12 27 13 28 14 29 15 30 16 14 17 13 18 12 19 11 20 10 21
REMARK SMILES IDX 9 22 8 23 7 24 6 25 5 26 4 27 3 28 2 29 1 30
REMARK H PARENT
REMARK Flexibility Score: inf
ROOT
ATOM      1  C   UNL     1     157.918 173.752 166.249  1.00  0.00     0.000 C 
ENDROOT
BRANCH   1   2
ATOM      2  C   UNL     1     156.439 173.501 166.596  1.00  0.00     0.000 C 
BRANCH   2   3
ATOM      3  C   UNL     1     156.248 172.351 167.597  1.00  0.00     0.000 C 
BRANCH   3   4
ATOM      4  C   UNL     1     154.879 171.679 167.409  1.00  0.00     0.000 C 
BRANCH   4   5
ATOM      5  C   UNL     1     154.754 170.933 166.067  1.00  0.00     0.000 C 
BRANCH   5   6
ATOM      6  C   UNL     1     153.690 171.491 165.102  1.00  0.00     0.000 C 
BRANCH   6   7
ATOM      7  C   UNL     1     154.185 171.587 163.649  1.00  0.00     0.000 C 
BRANCH   7   8
ATOM      8  C   UNL     1     154.838 172.942 163.329  1.00  0.00     0.000 C 
BRANCH   8   9
ATOM      9  C   UNL     1     156.337 172.821 163.005  1.00  0.00     0.000 C 
BRANCH   9  10
ATOM     10  C   UNL     1     156.803 173.856 161.966  1.00  0.00     0.000 C 
BRANCH  10  11
ATOM     11  C   UNL     1     155.673 174.672 161.306  1.00  0.00     0.000 C 
BRANCH  11  12
ATOM     12  C   UNL     1     155.708 174.646 159.763  1.00  0.00     0.006 C 
BRANCH  12  13
ATOM     13  C   UNL     1     157.080 174.228 159.220  1.00  0.00     0.053 C 
BRANCH  13  14
ATOM     14  C   UNL     1     157.089 174.277 157.724  1.00  0.00     0.041 C 
ATOM     15  O   UNL     1     157.898 175.028 157.119  1.00  0.00    -0.550 OA
ATOM     16  O   UNL     1     156.236 173.453 156.997  1.00  0.00    -0.550 OA
ENDBRANCH  13  14
ENDBRANCH  12  13
ENDBRANCH  11  12
ENDBRANCH  10  11
ENDBRANCH   9  10
ENDBRANCH   8   9
ENDBRANCH   7   8
ENDBRANCH   6   7
ENDBRANCH   5   6
ENDBRANCH   4   5
ENDBRANCH   3   4
ENDBRANCH   2   3
ENDBRANCH   1   2
BRANCH   1  17
ATOM     17  C   UNL     1     158.171 174.954 165.321  1.00  0.00     0.000 C 
BRANCH  17  18
ATOM     18  C   UNL     1     159.549 174.908 164.644  1.00  0.00     0.000 C 
BRANCH  18  19
ATOM     19  C   UNL     1     160.213 173.538 164.847  1.00  0.00     0.000 C 
BRANCH  19  20
ATOM     20  C   UNL     1     161.707 173.641 165.202  1.00  0.00     0.000 C 
BRANCH  20  21
ATOM     21  C   UNL     1     162.528 174.599 164.314  1.00  0.00     0.000 C 
BRANCH  21  22
ATOM     22  C   UNL     1     164.004 174.762 164.717  1.00  0.00    -0.000 C 
BRANCH  22  23
ATOM     23  C   UNL     1     164.652 173.444 165.167  1.00  0.00    -0.000 C 
BRANCH  23  24
ATOM     24  C   UNL     1     165.757 173.017 164.193  1.00  0.00    -0.000 C 
BRANCH  24  25
ATOM     25  C   UNL     1     167.140 173.109 164.853  1.00  0.00    -0.000 C 
BRANCH  25  26
ATOM     26  C   UNL     1     168.092 174.058 164.106  1.00  0.00    -0.000 C 
BRANCH  26  27
ATOM     27  C   UNL     1     168.272 173.673 162.629  1.00  0.00    -0.000 C 
BRANCH  27  28
ATOM     28  C   UNL     1     168.127 174.902 161.720  1.00  0.00    -0.000 C 
BRANCH  28  29
ATOM     29  C   UNL     1     166.663 175.193 161.352  1.00  0.00    -0.003 C 
ATOM     30  C   UNL     1     166.481 175.544 159.876  1.00  0.00     0.004 C 
ENDBRANCH  28  29
ENDBRANCH  27  28
ENDBRANCH  26  27
ENDBRANCH  25  26
ENDBRANCH  24  25
ENDBRANCH  23  24
ENDBRANCH  22  23
ENDBRANCH  21  22
ENDBRANCH  20  21
ENDBRANCH  19  20
ENDBRANCH  18  19
ENDBRANCH  17  18
ENDBRANCH   1  17
TORSDOF 26
ENDMDL
MODEL 6
REMARK VINA RESULT:    -4.048      1.320      2.813
REMARK INTER + INTRA:         -13.751
REMARK INTER:                 -10.213
REMARK INTRA:                  -3.539
REMARK UNBOUND:                -3.551
REMARK SMILES CCCCCCCCCCCCCCCCCCCCCCCCCCCC(=O)[O-]
REMARK SMILES IDX 15 1 16 2 17 3 18 4 19 5 20 6 21 7 22 8 23 9 24 10 25 11
REMARK SMILES IDX 26 12 27 13 28 14 29 15 30 16 14 17 13 18 12 19 11 20 10 21
REMARK SMILES IDX 9 22 8 23 7 24 6 25 5 26 4 27 3 28 2 29 1 30
REMARK H PARENT
REMARK Flexibility Score: inf
ROOT
ATOM      1  C   UNL     1     161.565 175.754 166.137  1.00  0.00     0.000 C 
ENDROOT
BRANCH   1   2
ATOM      2  C   UNL     1     162.942 175.666 166.820  1.00  0.00     0.000 C 
BRANCH   2   3
ATOM      3  C   UNL     1     163.094 174.413 167.696  1.00  0.00     0.000 C 
BRANCH   3   4
ATOM      4  C   UNL     1     164.399 173.670 167.372  1.00  0.00     0.000 C 
BRANCH   4   5
ATOM      5  C   UNL     1     164.291 172.781 166.118  1.00  0.00     0.000 C 
BRANCH   5   6
ATOM      6  C   UNL     1     165.251 173.147 164.970  1.00  0.00     0.000 C 
BRANCH   6   7
ATOM      7  C   UNL     1     164.577 173.973 163.861  1.00  0.00     0.000 C 
BRANCH   7   8
ATOM      8  C   UNL     1     165.568 174.863 163.093  1.00  0.00     0.000 C 
BRANCH   8   9
ATOM      9  C   UNL     1     165.947 174.286 161.717  1.00  0.00     0.000 C 
BRANCH   9  10
ATOM     10  C   UNL     1     167.046 175.103 161.015  1.00  0.00     0.000 C 
BRANCH  10  11
ATOM     11  C   UNL     1     168.480 174.577 161.219  1.00  0.00     0.000 C 
BRANCH  11  12
ATOM     12  C   UNL     1     168.549 173.249 162.004  1.00  0.00     0.006 C 
BRANCH  12  13
ATOM     13  C   UNL     1     169.775 173.181 162.925  1.00  0.00     0.053 C 
BRANCH  13  14
ATOM     14  C   UNL     1     169.356 173.256 164.360  1.00  0.00     0.041 C 
ATOM     15  O   UNL     1     168.600 174.183 164.752  1.00  0.00    -0.550 OA
ATOM     16  O   UNL     1     169.759 172.270 165.254  1.00  0.00    -0.550 OA
ENDBRANCH  13  14
ENDBRANCH  12  13
ENDBRANCH  11  12
ENDBRANCH  10  11
ENDBRANCH   9  10
ENDBRANCH   8   9
ENDBRANCH   7   8
ENDBRANCH   6   7
ENDBRANCH   5   6
ENDBRANCH   4   5
ENDBRANCH   3   4
ENDBRANCH   2   3
ENDBRANCH   1   2
BRANCH   1  17
ATOM     17  C   UNL     1     161.391 174.841 164.910  1.00  0.00     0.000 C 
BRANCH  17  18
ATOM     18  C   UNL     1     160.457 173.651 165.176  1.00  0.00     0.000 C 
BRANCH  18  19
ATOM     19  C   UNL     1     159.389 174.016 166.219  1.00  0.00     0.000 C 
BRANCH  19  20
ATOM     20  C   UNL     1     158.005 174.274 165.597  1.00  0.00     0.000 C 
BRANCH  20  21
ATOM     21  C   UNL     1     157.805 173.698 164.181  1.00  0.00     0.000 C 
BRANCH  21  22
ATOM     22  C   UNL     1     156.860 174.505 163.273  1.00  0.00    -0.000 C 
BRANCH  22  23
ATOM     23  C   UNL     1     155.685 175.131 164.037  1.00  0.00    -0.000 C 
BRANCH  23  24
ATOM     24  C   UNL     1     154.361 174.884 163.303  1.00  0.00    -0.000 C 
BRANCH  24  25
ATOM     25  C   UNL     1     154.364 173.517 162.604  1.00  0.00    -0.000 C 
BRANCH  25  26
ATOM     26  C   UNL     1     153.697 172.418 163.448  1.00  0.00    -0.000 C 
BRANCH  26  27
ATOM     27  C   UNL     1     154.714 171.446 164.065  1.00  0.00    -0.000 C 
BRANCH  27  28
ATOM     28  C   UNL     1     154.412 171.207 165.553  1.00  0.00    -0.000 C 
BRANCH  28  29
ATOM     29  C   UNL     1     155.357 171.990 166.478  1.00  0.00    -0.003 C 
ATOM     30  C   UNL     1     154.704 173.236 167.077  1.00  0.00     0.004 C 
ENDBRANCH  28  29
ENDBRANCH  27  28
ENDBRANCH  26  27
ENDBRANCH  25  26
ENDBRANCH  24  25
ENDBRANCH  23  24
ENDBRANCH  22  23
ENDBRANCH  21  22
ENDBRANCH  20  21
ENDBRANCH  19  20
ENDBRANCH  18  19
ENDBRANCH  17  18
ENDBRANCH   1  17
TORSDOF 26
ENDMDL
MODEL 7
REMARK VINA RESULT:    -4.043     12.201     16.192
REMARK INTER + INTRA:         -13.739
REMARK INTER:                  -8.036
REMARK INTRA:                  -5.704
REMARK UNBOUND:                -3.551
REMARK SMILES CCCCCCCCCCCCCCCCCCCCCCCCCCCC(=O)[O-]
REMARK SMILES IDX 15 1 16 2 17 3 18 4 19 5 20 6 21 7 22 8 23 9 24 10 25 11
REMARK SMILES IDX 26 12 27 13 28 14 29 15 30 16 14 17 13 18 12 19 11 20 10 21
REMARK SMILES IDX 9 22 8 23 7 24 6 25 5 26 4 27 3 28 2 29 1 30
REMARK H PARENT
REMARK Flexibility Score: inf
ROOT
ATOM      1  C   UNL     1     167.055 169.366 151.384  1.00  0.00     0.000 C 
ENDROOT
BRANCH   1   2
ATOM      2  C   UNL     1     166.656 170.680 152.081  1.00  0.00     0.000 C 
BRANCH   2   3
ATOM      3  C   UNL     1     166.515 170.528 153.604  1.00  0.00     0.000 C 
BRANCH   3   4
ATOM      4  C   UNL     1     166.812 169.086 154.043  1.00  0.00     0.000 C 
BRANCH   4   5
ATOM      5  C   UNL     1     166.596 168.859 155.552  1.00  0.00     0.000 C 
BRANCH   5   6
ATOM      6  C   UNL     1     166.386 167.392 155.972  1.00  0.00     0.000 C 
BRANCH   6   7
ATOM      7  C   UNL     1     166.248 166.437 154.774  1.00  0.00     0.000 C 
BRANCH   7   8
ATOM      8  C   UNL     1     164.971 165.582 154.837  1.00  0.00     0.000 C 
BRANCH   8   9
ATOM      9  C   UNL     1     163.805 166.301 155.539  1.00  0.00     0.000 C 
BRANCH   9  10
ATOM     10  C   UNL     1     162.820 166.942 154.546  1.00  0.00     0.000 C 
BRANCH  10  11
ATOM     11  C   UNL     1     163.041 168.446 154.289  1.00  0.00     0.000 C 
BRANCH  11  12
ATOM     12  C   UNL     1     163.410 168.779 152.828  1.00  0.00     0.006 C 
BRANCH  12  13
ATOM     13  C   UNL     1     162.946 170.183 152.416  1.00  0.00     0.053 C 
BRANCH  13  14
ATOM     14  C   UNL     1     162.899 170.302 150.926  1.00  0.00     0.041 C 
ATOM     15  O   UNL     1     163.683 171.085 150.328  1.00  0.00    -0.550 OA
ATOM     16  O   UNL     1     162.023 169.510 150.192  1.00  0.00    -0.550 OA
ENDBRANCH  13  14
ENDBRANCH  12  13
ENDBRANCH  11  12
ENDBRANCH  10  11
ENDBRANCH   9  10
ENDBRANCH   8   9
ENDBRANCH   7   8
ENDBRANCH   6   7
ENDBRANCH   5   6
ENDBRANCH   4   5
ENDBRANCH   3   4
ENDBRANCH   2   3
ENDBRANCH   1   2
BRANCH   1  17
ATOM     17  C   UNL     1     168.193 169.499 150.355  1.00  0.00     0.000 C 
BRANCH  17  18
ATOM     18  C   UNL     1     169.007 170.790 150.525  1.00  0.00     0.000 C 
BRANCH  18  19
ATOM     19  C   UNL     1     170.223 170.799 149.585  1.00  0.00     0.000 C 
BRANCH  19  20
ATOM     20  C   UNL     1     171.560 170.639 150.331  1.00  0.00     0.000 C 
BRANCH  20  21
ATOM     21  C   UNL     1     172.164 171.946 150.881  1.00  0.00     0.000 C 
BRANCH  21  22
ATOM     22  C   UNL     1     172.071 172.118 152.408  1.00  0.00    -0.000 C 
BRANCH  22  23
ATOM     23  C   UNL     1     171.202 173.314 152.824  1.00  0.00    -0.000 C 
BRANCH  23  24
ATOM     24  C   UNL     1     170.349 172.970 154.052  1.00  0.00    -0.000 C 
BRANCH  24  25
ATOM     25  C   UNL     1     169.847 171.520 153.986  1.00  0.00    -0.000 C 
BRANCH  25  26
ATOM     26  C   UNL     1     170.232 170.702 155.229  1.00  0.00    -0.000 C 
BRANCH  26  27
ATOM     27  C   UNL     1     170.451 169.214 154.915  1.00  0.00    -0.000 C 
BRANCH  27  28
ATOM     28  C   UNL     1     170.348 168.952 153.405  1.00  0.00    -0.000 C 
BRANCH  28  29
ATOM     29  C   UNL     1     170.030 167.483 153.083  1.00  0.00    -0.003 C 
ATOM     30  C   UNL     1     169.843 166.627 154.335  1.00  0.00     0.004 C 
ENDBRANCH  28  29
ENDBRANCH  27  28
ENDBRANCH  26  27
ENDBRANCH  25  26
ENDBRANCH  24  25
ENDBRANCH  23  24
ENDBRANCH  22  23
ENDBRANCH  21  22
ENDBRANCH  20  21
ENDBRANCH  19  20
ENDBRANCH  18  19
ENDBRANCH  17  18
ENDBRANCH   1  17
TORSDOF 26
ENDMDL
MODEL 8
REMARK VINA RESULT:    -4.034     12.890     16.383
REMARK INTER + INTRA:         -13.717
REMARK INTER:                  -8.076
REMARK INTRA:                  -5.641
REMARK UNBOUND:                -3.551
REMARK SMILES CCCCCCCCCCCCCCCCCCCCCCCCCCCC(=O)[O-]
REMARK SMILES IDX 15 1 16 2 17 3 18 4 19 5 20 6 21 7 22 8 23 9 24 10 25 11
REMARK SMILES IDX 26 12 27 13 28 14 29 15 30 16 14 17 13 18 12 19 11 20 10 21
REMARK SMILES IDX 9 22 8 23 7 24 6 25 5 26 4 27 3 28 2 29 1 30
REMARK H PARENT
REMARK Flexibility Score: inf
ROOT
ATOM      1  C   UNL     1     171.127 168.460 152.809  1.00  0.00     0.000 C 
ENDROOT
BRANCH   1   2
ATOM      2  C   UNL     1     171.717 168.289 154.221  1.00  0.00     0.000 C 
BRANCH   2   3
ATOM      3  C   UNL     1     170.648 167.986 155.282  1.00  0.00     0.000 C 
BRANCH   3   4
ATOM      4  C   UNL     1     169.270 167.786 154.634  1.00  0.00     0.000 C 
BRANCH   4   5
ATOM      5  C   UNL     1     168.201 167.292 155.628  1.00  0.00     0.000 C 
BRANCH   5   6
ATOM      6  C   UNL     1     166.848 168.025 155.555  1.00  0.00     0.000 C 
BRANCH   6   7
ATOM      7  C   UNL     1     165.643 167.084 155.726  1.00  0.00     0.000 C 
BRANCH   7   8
ATOM      8  C   UNL     1     164.514 167.372 154.724  1.00  0.00     0.000 C 
BRANCH   8   9
ATOM      9  C   UNL     1     164.849 168.526 153.761  1.00  0.00     0.000 C 
BRANCH   9  10
ATOM     10  C   UNL     1     163.601 169.306 153.314  1.00  0.00     0.000 C 
BRANCH  10  11
ATOM     11  C   UNL     1     163.887 170.644 152.605  1.00  0.00     0.000 C 
BRANCH  11  12
ATOM     12  C   UNL     1     162.957 170.923 151.405  1.00  0.00     0.006 C 
BRANCH  12  13
ATOM     13  C   UNL     1     163.739 171.154 150.105  1.00  0.00     0.053 C 
BRANCH  13  14
ATOM     14  C   UNL     1     163.332 170.159 149.065  1.00  0.00     0.041 C 
ATOM     15  O   UNL     1     164.174 169.734 148.230  1.00  0.00    -0.550 OA
ATOM     16  O   UNL     1     162.034 169.662 149.049  1.00  0.00    -0.550 OA
ENDBRANCH  13  14
ENDBRANCH  12  13
ENDBRANCH  11  12
ENDBRANCH  10  11
ENDBRANCH   9  10
ENDBRANCH   8   9
ENDBRANCH   7   8
ENDBRANCH   6   7
ENDBRANCH   5   6
ENDBRANCH   4   5
ENDBRANCH   3   4
ENDBRANCH   2   3
ENDBRANCH   1   2
BRANCH   1  17
ATOM     17  C   UNL     1     171.823 169.524 151.941  1.00  0.00     0.000 C 
BRANCH  17  18
ATOM     18  C   UNL     1     170.909 170.095 150.846  1.00  0.00     0.000 C 
BRANCH  18  19
ATOM     19  C   UNL     1     171.135 171.605 150.676  1.00  0.00     0.000 C 
BRANCH  19  20
ATOM     20  C   UNL     1     172.132 172.182 151.697  1.00  0.00     0.000 C 
BRANCH  20  21
ATOM     21  C   UNL     1     171.698 173.503 152.364  1.00  0.00     0.000 C 
BRANCH  21  22
ATOM     22  C   UNL     1     170.534 173.379 153.364  1.00  0.00    -0.000 C 
BRANCH  22  23
ATOM     23  C   UNL     1     170.710 172.211 154.346  1.00  0.00    -0.000 C 
BRANCH  23  24
ATOM     24  C   UNL     1     169.442 171.351 154.405  1.00  0.00    -0.000 C 
BRANCH  24  25
ATOM     25  C   UNL     1     168.480 171.705 153.262  1.00  0.00    -0.000 C 
BRANCH  25  26
ATOM     26  C   UNL     1     167.651 170.500 152.789  1.00  0.00    -0.000 C 
BRANCH  26  27
ATOM     27  C   UNL     1     167.370 170.530 151.279  1.00  0.00    -0.000 C 
BRANCH  27  28
ATOM     28  C   UNL     1     166.870 169.164 150.786  1.00  0.00    -0.000 C 
BRANCH  28  29
ATOM     29  C   UNL     1     167.888 168.040 151.034  1.00  0.00    -0.003 C 
ATOM     30  C   UNL     1     167.266 166.810 151.694  1.00  0.00     0.004 C 
ENDBRANCH  28  29
ENDBRANCH  27  28
ENDBRANCH  26  27
ENDBRANCH  25  26
ENDBRANCH  24  25
ENDBRANCH  23  24
ENDBRANCH  22  23
ENDBRANCH  21  22
ENDBRANCH  20  21
ENDBRANCH  19  20
ENDBRANCH  18  19
ENDBRANCH  17  18
ENDBRANCH   1  17
TORSDOF 26
ENDMDL
MODEL 9
REMARK VINA RESULT:    -4.007     12.236     16.282
REMARK INTER + INTRA:         -13.649
REMARK INTER:                  -7.828
REMARK INTRA:                  -5.822
REMARK UNBOUND:                -3.551
REMARK SMILES CCCCCCCCCCCCCCCCCCCCCCCCCCCC(=O)[O-]
REMARK SMILES IDX 15 1 16 2 17 3 18 4 19 5 20 6 21 7 22 8 23 9 24 10 25 11
REMARK SMILES IDX 26 12 27 13 28 14 29 15 30 16 14 17 13 18 12 19 11 20 10 21
REMARK SMILES IDX 9 22 8 23 7 24 6 25 5 26 4 27 3 28 2 29 1 30
REMARK H PARENT
REMARK Flexibility Score: inf
ROOT
ATOM      1  C   UNL     1     166.984 170.883 151.765  1.00  0.00     0.000 C 
ENDROOT
BRANCH   1   2
ATOM      2  C   UNL     1     167.021 169.769 150.704  1.00  0.00     0.000 C 
BRANCH   2   3
ATOM      3  C   UNL     1     166.465 168.433 151.221  1.00  0.00     0.000 C 
BRANCH   3   4
ATOM      4  C   UNL     1     165.285 167.958 150.360  1.00  0.00     0.000 C 
BRANCH   4   5
ATOM      5  C   UNL     1     164.625 169.097 149.559  1.00  0.00     0.000 C 
BRANCH   5   6
ATOM      6  C   UNL     1     163.200 169.475 150.006  1.00  0.00     0.000 C 
BRANCH   6   7
ATOM      7  C   UNL     1     163.120 170.870 150.648  1.00  0.00     0.000 C 
BRANCH   7   8
ATOM      8  C   UNL     1     163.394 170.848 152.160  1.00  0.00     0.000 C 
BRANCH   8   9
ATOM      9  C   UNL     1     162.794 169.615 152.859  1.00  0.00     0.000 C 
BRANCH   9  10
ATOM     10  C   UNL     1     163.752 168.994 153.890  1.00  0.00     0.000 C 
BRANCH  10  11
ATOM     11  C   UNL     1     163.940 167.468 153.770  1.00  0.00     0.000 C 
BRANCH  11  12
ATOM     12  C   UNL     1     164.793 166.856 154.901  1.00  0.00     0.006 C 
BRANCH  12  13
ATOM     13  C   UNL     1     166.296 166.933 154.602  1.00  0.00     0.053 C 
BRANCH  13  14
ATOM     14  C   UNL     1     167.015 167.640 155.707  1.00  0.00     0.041 C 
ATOM     15  O   UNL     1     168.087 167.168 156.170  1.00  0.00    -0.550 OA
ATOM     16  O   UNL     1     166.528 168.849 156.191  1.00  0.00    -0.550 OA
ENDBRANCH  13  14
ENDBRANCH  12  13
ENDBRANCH  11  12
ENDBRANCH  10  11
ENDBRANCH   9  10
ENDBRANCH   8   9
ENDBRANCH   7   8
ENDBRANCH   6   7
ENDBRANCH   5   6
ENDBRANCH   4   5
ENDBRANCH   3   4
ENDBRANCH   2   3
ENDBRANCH   1   2
BRANCH   1  17
ATOM     17  C   UNL     1     167.274 170.417 153.204  1.00  0.00     0.000 C 
BRANCH  17  18
ATOM     18  C   UNL     1     168.411 171.206 153.871  1.00  0.00     0.000 C 
BRANCH  18  19
ATOM     19  C   UNL     1     168.506 172.626 153.291  1.00  0.00     0.000 C 
BRANCH  19  20
ATOM     20  C   UNL     1     169.799 173.355 153.697  1.00  0.00     0.000 C 
BRANCH  20  21
ATOM     21  C   UNL     1     170.914 172.449 154.257  1.00  0.00     0.000 C 
BRANCH  21  22
ATOM     22  C   UNL     1     171.962 171.988 153.228  1.00  0.00    -0.000 C 
BRANCH  22  23
ATOM     23  C   UNL     1     171.973 172.850 151.957  1.00  0.00    -0.000 C 
BRANCH  23  24
ATOM     24  C   UNL     1     171.857 171.975 150.702  1.00  0.00    -0.000 C 
BRANCH  24  25
ATOM     25  C   UNL     1     170.515 171.229 150.672  1.00  0.00    -0.000 C 
BRANCH  25  26
ATOM     26  C   UNL     1     170.565 169.954 149.814  1.00  0.00    -0.000 C 
BRANCH  26  27
ATOM     27  C   UNL     1     170.967 168.711 150.623  1.00  0.00    -0.000 C 
BRANCH  27  28
ATOM     28  C   UNL     1     170.395 168.775 152.048  1.00  0.00    -0.000 C 
BRANCH  28  29
ATOM     29  C   UNL     1     171.432 168.396 153.117  1.00  0.00    -0.003 C 
ATOM     30  C   UNL     1     170.918 168.603 154.541  1.00  0.00     0.004 C 
ENDBRANCH  28  29
ENDBRANCH  27  28
ENDBRANCH  26  27
ENDBRANCH  25  26
ENDBRANCH  24  25
ENDBRANCH  23  24
ENDBRANCH  22  23
ENDBRANCH  21  22
ENDBRANCH  20  21
ENDBRANCH  19  20
ENDBRANCH  18  19
ENDBRANCH  17  18
ENDBRANCH   1  17
TORSDOF 26
ENDMDL
