MODEL 1
REMARK VINA RESULT:    -3.012      0.000      0.000
REMARK INTER + INTRA:         -12.395
REMARK INTER:                  -7.943
REMARK INTRA:                  -4.452
REMARK UNBOUND:                -4.452
REMARK SMILES CCCCCCCCCCCCCCCCCCCCCCCCCCCCCC(=O)[O-]
REMARK SMILES IDX 16 1 17 2 18 3 19 4 20 5 21 6 22 7 23 8 24 9 25 10 26 11
REMARK SMILES IDX 27 12 28 13 29 14 30 15 31 16 32 17 15 18 14 19 13 20 12 21
REMARK SMILES IDX 11 22 10 23 9 24 8 25 7 26 6 27 5 28 4 29 3 30 2 31 1 32
REMARK H PARENT
REMARK Flexibility Score: inf
ROOT
ATOM      1  C   UNL     1       3.341   4.557  -4.724  1.00  0.00     0.000 C 
ENDROOT
BRANCH   1   2
ATOM      2  C   UNL     1       2.926   6.007  -4.448  1.00  0.00     0.000 C 
BRANCH   2   3
ATOM      3  C   UNL     1       2.364   6.668  -5.713  1.00  0.00     0.000 C 
BRANCH   3   4
ATOM      4  C   UNL     1       1.434   7.834  -5.357  1.00  0.00     0.000 C 
BRANCH   4   5
ATOM      5  C   UNL     1       0.013   7.584  -5.883  1.00  0.00     0.000 C 
BRANCH   5   6
ATOM      6  C   UNL     1      -1.076   7.909  -4.844  1.00  0.00     0.000 C 
BRANCH   6   7
ATOM      7  C   UNL     1      -2.431   7.220  -5.088  1.00  0.00     0.000 C 
BRANCH   7   8
ATOM      8  C   UNL     1      -2.442   6.356  -6.358  1.00  0.00     0.000 C 
BRANCH   8   9
ATOM      9  C   UNL     1      -2.486   4.862  -6.004  1.00  0.00     0.000 C 
BRANCH   9  10
ATOM     10  C   UNL     1      -1.793   3.983  -7.059  1.00  0.00     0.000 C 
BRANCH  10  11
ATOM     11  C   UNL     1      -0.306   3.751  -6.741  1.00  0.00     0.000 C 
BRANCH  11  12
ATOM     12  C   UNL     1       0.173   2.334  -7.104  1.00  0.00     0.000 C 
BRANCH  12  13
ATOM     13  C   UNL     1       1.386   1.827  -6.303  1.00  0.00     0.006 C 
BRANCH  13  14
ATOM     14  C   UNL     1       1.090   1.659  -4.807  1.00  0.00     0.053 C 
BRANCH  14  15
ATOM     15  C   UNL     1       0.603   0.275  -4.514  1.00  0.00     0.041 C 
ATOM     16  O   UNL     1      -0.212   0.078  -3.574  1.00  0.00    -0.550 OA
ATOM     17  O   UNL     1       1.055  -0.800  -5.271  1.00  0.00    -0.550 OA
ENDBRANCH  14  15
ENDBRANCH  13  14
ENDBRANCH  12  13
ENDBRANCH  11  12
ENDBRANCH  10  11
ENDBRANCH   9  10
ENDBRANCH   8   9
ENDBRANCH   7   8
ENDBRANCH   6   7
ENDBRANCH   5   6
ENDBRANCH   4   5
ENDBRANCH   3   4
ENDBRANCH   2   3
ENDBRANCH   1   2
BRANCH   1  18
ATOM     18  C   UNL     1       4.481   4.496  -5.753  1.00  0.00     0.000 C 
BRANCH  18  19
ATOM     19  C   UNL     1       5.585   5.537  -5.496  1.00  0.00     0.000 C 
BRANCH  19  20
ATOM     20  C   UNL     1       6.258   6.110  -6.757  1.00  0.00     0.000 C 
BRANCH  20  21
ATOM     21  C   UNL     1       7.760   6.385  -6.570  1.00  0.00     0.000 C 
BRANCH  21  22
ATOM     22  C   UNL     1       8.414   5.457  -5.529  1.00  0.00     0.000 C 
BRANCH  22  23
ATOM     23  C   UNL     1       9.077   4.188  -6.099  1.00  0.00     0.000 C 
BRANCH  23  24
ATOM     24  C   UNL     1       8.089   3.027  -6.297  1.00  0.00    -0.000 C 
BRANCH  24  25
ATOM     25  C   UNL     1       7.979   2.117  -5.054  1.00  0.00    -0.000 C 
BRANCH  25  26
ATOM     26  C   UNL     1       6.875   2.538  -4.066  1.00  0.00    -0.000 C 
BRANCH  26  27
ATOM     27  C   UNL     1       6.118   1.372  -3.407  1.00  0.00    -0.000 C 
BRANCH  27  28
ATOM     28  C   UNL     1       4.695   1.160  -3.969  1.00  0.00    -0.000 C 
BRANCH  28  29
ATOM     29  C   UNL     1       4.583  -0.100  -4.841  1.00  0.00    -0.000 C 
BRANCH  29  30
ATOM     30  C   UNL     1       4.628   0.251  -6.332  1.00  0.00    -0.000 C 
BRANCH  30  31
ATOM     31  C   UNL     1       5.951  -0.200  -6.962  1.00  0.00    -0.003 C 
ATOM     32  C   UNL     1       6.674  -1.203  -6.068  1.00  0.00     0.004 C 
ENDBRANCH  30  31
ENDBRANCH  29  30
ENDBRANCH  28  29
ENDBRANCH  27  28
ENDBRANCH  26  27
ENDBRANCH  25  26
ENDBRANCH  24  25
ENDBRANCH  23  24
ENDBRANCH  22  23
ENDBRANCH  21  22
ENDBRANCH  20  21
ENDBRANCH  19  20
ENDBRANCH  18  19
ENDBRANCH   1  18
TORSDOF 28
ENDMDL
MODEL 2
REMARK VINA RESULT:    -2.928      2.725      8.237
REMARK INTER + INTRA:         -12.172
REMARK INTER:                  -8.364
REMARK INTRA:                  -3.807
REMARK UNBOUND:                -4.452
REMARK SMILES CCCCCCCCCCCCCCCCCCCCCCCCCCCCCC(=O)[O-]
REMARK SMILES IDX 16 1 17 2 18 3 19 4 20 5 21 6 22 7 23 8 24 9 25 10 26 11
REMARK SMILES IDX 27 12 28 13 29 14 30 15 31 16 32 17 15 18 14 19 13 20 12 21
REMARK SMILES IDX 11 22 10 23 9 24 8 25 7 26 6 27 5 28 4 29 3 30 2 31 1 32
REMARK H PARENT
REMARK Flexibility Score: inf
ROOT
ATOM      1  C   UNL     1       0.170   0.997  -4.270  1.00  0.00     0.000 C 
ENDROOT
BRANCH   1   2
ATOM      2  C   UNL     1      -0.561  -0.344  -4.137  1.00  0.00     0.000 C 
BRANCH   2   3
ATOM      3  C   UNL     1       0.426  -1.482  -3.853  1.00  0.00     0.000 C 
BRANCH   3   4
ATOM      4  C   UNL     1       1.460  -1.608  -4.978  1.00  0.00     0.000 C 
BRANCH   4   5
ATOM      5  C   UNL     1       2.730  -0.810  -4.649  1.00  0.00     0.000 C 
BRANCH   5   6
ATOM      6  C   UNL     1       3.827  -1.672  -3.996  1.00  0.00     0.000 C 
BRANCH   6   7
ATOM      7  C   UNL     1       4.789  -0.904  -3.071  1.00  0.00     0.000 C 
BRANCH   7   8
ATOM      8  C   UNL     1       5.799  -0.043  -3.842  1.00  0.00     0.000 C 
BRANCH   8   9
ATOM      9  C   UNL     1       6.234  -0.738  -5.141  1.00  0.00     0.000 C 
BRANCH   9  10
ATOM     10  C   UNL     1       6.458   0.252  -6.296  1.00  0.00     0.000 C 
BRANCH  10  11
ATOM     11  C   UNL     1       7.950   0.451  -6.614  1.00  0.00     0.000 C 
BRANCH  11  12
ATOM     12  C   UNL     1       8.382   1.927  -6.577  1.00  0.00     0.000 C 
BRANCH  12  13
ATOM     13  C   UNL     1       8.535   2.530  -5.168  1.00  0.00     0.006 C 
BRANCH  13  14
ATOM     14  C   UNL     1       7.377   3.461  -4.785  1.00  0.00     0.053 C 
BRANCH  14  15
ATOM     15  C   UNL     1       7.784   4.895  -4.913  1.00  0.00     0.041 C 
ATOM     16  O   UNL     1       7.309   5.606  -5.838  1.00  0.00    -0.550 OA
ATOM     17  O   UNL     1       8.694   5.446  -4.018  1.00  0.00    -0.550 OA
ENDBRANCH  14  15
ENDBRANCH  13  14
ENDBRANCH  12  13
ENDBRANCH  11  12
ENDBRANCH  10  11
ENDBRANCH   9  10
ENDBRANCH   8   9
ENDBRANCH   7   8
ENDBRANCH   6   7
ENDBRANCH   5   6
ENDBRANCH   4   5
ENDBRANCH   3   4
ENDBRANCH   2   3
ENDBRANCH   1   2
BRANCH   1  18
ATOM     18  C   UNL     1      -0.195   1.698  -5.588  1.00  0.00     0.000 C 
BRANCH  18  19
ATOM     19  C   UNL     1       0.997   1.829  -6.553  1.00  0.00     0.000 C 
BRANCH  19  20
ATOM     20  C   UNL     1       1.876   3.077  -6.350  1.00  0.00     0.000 C 
BRANCH  20  21
ATOM     21  C   UNL     1       3.363   2.741  -6.138  1.00  0.00     0.000 C 
BRANCH  21  22
ATOM     22  C   UNL     1       3.734   2.572  -4.653  1.00  0.00     0.000 C 
BRANCH  22  23
ATOM     23  C   UNL     1       3.188   3.658  -3.707  1.00  0.00     0.000 C 
BRANCH  23  24
ATOM     24  C   UNL     1       4.026   4.947  -3.721  1.00  0.00    -0.000 C 
BRANCH  24  25
ATOM     25  C   UNL     1       3.157   6.225  -3.761  1.00  0.00    -0.000 C 
BRANCH  25  26
ATOM     26  C   UNL     1       3.036   6.855  -5.160  1.00  0.00    -0.000 C 
BRANCH  26  27
ATOM     27  C   UNL     1       1.711   6.566  -5.887  1.00  0.00    -0.000 C 
BRANCH  27  28
ATOM     28  C   UNL     1       1.023   7.829  -6.451  1.00  0.00    -0.000 C 
BRANCH  28  29
ATOM     29  C   UNL     1      -0.510   7.720  -6.451  1.00  0.00    -0.000 C 
BRANCH  29  30
ATOM     30  C   UNL     1      -0.963   6.285  -6.743  1.00  0.00    -0.000 C 
BRANCH  30  31
ATOM     31  C   UNL     1      -2.234   5.941  -5.958  1.00  0.00    -0.003 C 
ATOM     32  C   UNL     1      -2.677   4.506  -6.226  1.00  0.00     0.004 C 
ENDBRANCH  30  31
ENDBRANCH  29  30
ENDBRANCH  28  29
ENDBRANCH  27  28
ENDBRANCH  26  27
ENDBRANCH  25  26
ENDBRANCH  24  25
ENDBRANCH  23  24
ENDBRANCH  22  23
ENDBRANCH  21  22
ENDBRANCH  20  21
ENDBRANCH  19  20
ENDBRANCH  18  19
ENDBRANCH   1  18
TORSDOF 28
ENDMDL
MODEL 3
REMARK VINA RESULT:    -2.812      3.734      6.328
REMARK INTER + INTRA:         -11.866
REMARK INTER:                  -8.395
REMARK INTRA:                  -3.471
REMARK UNBOUND:                -4.452
REMARK SMILES CCCCCCCCCCCCCCCCCCCCCCCCCCCCCC(=O)[O-]
REMARK SMILES IDX 16 1 17 2 18 3 19 4 20 5 21 6 22 7 23 8 24 9 25 10 26 11
REMARK SMILES IDX 27 12 28 13 29 14 30 15 31 16 32 17 15 18 14 19 13 20 12 21
REMARK SMILES IDX 11 22 10 23 9 24 8 25 7 26 6 27 5 28 4 29 3 30 2 31 1 32
REMARK H PARENT
REMARK Flexibility Score: inf
ROOT
ATOM      1  C   UNL     1       5.768   2.544  -3.619  1.00  0.00     0.000 C 
ENDROOT
BRANCH   1   2
ATOM      2  C   UNL     1       6.986   2.370  -4.533  1.00  0.00     0.000 C 
BRANCH   2   3
ATOM      3  C   UNL     1       7.116   3.548  -5.506  1.00  0.00     0.000 C 
BRANCH   3   4
ATOM      4  C   UNL     1       6.576   4.840  -4.882  1.00  0.00     0.000 C 
BRANCH   4   5
ATOM      5  C   UNL     1       6.107   5.821  -5.966  1.00  0.00     0.000 C 
BRANCH   5   6
ATOM      6  C   UNL     1       5.050   5.214  -6.907  1.00  0.00     0.000 C 
BRANCH   6   7
ATOM      7  C   UNL     1       3.600   5.640  -6.613  1.00  0.00     0.000 C 
BRANCH   7   8
ATOM      8  C   UNL     1       2.861   4.654  -5.697  1.00  0.00     0.000 C 
BRANCH   8   9
ATOM      9  C   UNL     1       1.917   3.754  -6.509  1.00  0.00     0.000 C 
BRANCH   9  10
ATOM     10  C   UNL     1       2.602   2.470  -7.004  1.00  0.00     0.000 C 
BRANCH  10  11
ATOM     11  C   UNL     1       1.844   1.201  -6.579  1.00  0.00     0.000 C 
BRANCH  11  12
ATOM     12  C   UNL     1       0.980   1.408  -5.323  1.00  0.00     0.000 C 
BRANCH  12  13
ATOM     13  C   UNL     1       0.759   0.149  -4.464  1.00  0.00     0.006 C 
BRANCH  13  14
ATOM     14  C   UNL     1       0.909  -1.154  -5.260  1.00  0.00     0.053 C 
BRANCH  14  15
ATOM     15  C   UNL     1       1.050  -2.325  -4.339  1.00  0.00     0.041 C 
ATOM     16  O   UNL     1       1.579  -3.392  -4.749  1.00  0.00    -0.550 OA
ATOM     17  O   UNL     1       0.587  -2.244  -3.031  1.00  0.00    -0.550 OA
ENDBRANCH  14  15
ENDBRANCH  13  14
ENDBRANCH  12  13
ENDBRANCH  11  12
ENDBRANCH  10  11
ENDBRANCH   9  10
ENDBRANCH   8   9
ENDBRANCH   7   8
ENDBRANCH   6   7
ENDBRANCH   5   6
ENDBRANCH   4   5
ENDBRANCH   3   4
ENDBRANCH   2   3
ENDBRANCH   1   2
BRANCH   1  18
ATOM     18  C   UNL     1       4.566   1.742  -4.141  1.00  0.00     0.000 C 
BRANCH  18  19
ATOM     19  C   UNL     1       4.608   0.257  -3.735  1.00  0.00     0.000 C 
BRANCH  19  20
ATOM     20  C   UNL     1       5.410  -0.662  -4.677  1.00  0.00     0.000 C 
BRANCH  20  21
ATOM     21  C   UNL     1       5.214  -0.322  -6.164  1.00  0.00     0.000 C 
BRANCH  21  22
ATOM     22  C   UNL     1       6.325  -0.899  -7.062  1.00  0.00     0.000 C 
BRANCH  22  23
ATOM     23  C   UNL     1       7.480  -1.595  -6.319  1.00  0.00     0.000 C 
BRANCH  23  24
ATOM     24  C   UNL     1       7.878  -2.941  -6.946  1.00  0.00    -0.000 C 
BRANCH  24  25
ATOM     25  C   UNL     1       7.128  -4.138  -6.317  1.00  0.00    -0.000 C 
BRANCH  25  26
ATOM     26  C   UNL     1       7.614  -5.511  -6.814  1.00  0.00    -0.000 C 
BRANCH  26  27
ATOM     27  C   UNL     1       8.655  -6.195  -5.910  1.00  0.00    -0.000 C 
BRANCH  27  28
ATOM     28  C   UNL     1       8.173  -7.536  -5.313  1.00  0.00    -0.000 C 
BRANCH  28  29
ATOM     29  C   UNL     1       7.487  -7.366  -3.949  1.00  0.00    -0.000 C 
BRANCH  29  30
ATOM     30  C   UNL     1       7.566  -8.656  -3.124  1.00  0.00    -0.000 C 
BRANCH  30  31
ATOM     31  C   UNL     1       6.924  -9.828  -3.876  1.00  0.00    -0.003 C 
ATOM     32  C   UNL     1       6.591 -10.976  -2.928  1.00  0.00     0.004 C 
ENDBRANCH  30  31
ENDBRANCH  29  30
ENDBRANCH  28  29
ENDBRANCH  27  28
ENDBRANCH  26  27
ENDBRANCH  25  26
ENDBRANCH  24  25
ENDBRANCH  23  24
ENDBRANCH  22  23
ENDBRANCH  21  22
ENDBRANCH  20  21
ENDBRANCH  19  20
ENDBRANCH  18  19
ENDBRANCH   1  18
TORSDOF 28
ENDMDL
MODEL 4
REMARK VINA RESULT:    -2.797      4.100      7.340
REMARK INTER + INTRA:         -11.826
REMARK INTER:                  -9.060
REMARK INTRA:                  -2.767
REMARK UNBOUND:                -4.452
REMARK SMILES CCCCCCCCCCCCCCCCCCCCCCCCCCCCCC(=O)[O-]
REMARK SMILES IDX 16 1 17 2 18 3 19 4 20 5 21 6 22 7 23 8 24 9 25 10 26 11
REMARK SMILES IDX 27 12 28 13 29 14 30 15 31 16 32 17 15 18 14 19 13 20 12 21
REMARK SMILES IDX 11 22 10 23 9 24 8 25 7 26 6 27 5 28 4 29 3 30 2 31 1 32
REMARK H PARENT
REMARK Flexibility Score: inf
ROOT
ATOM      1  C   UNL     1       1.807  -1.964  -4.487  1.00  0.00     0.000 C 
ENDROOT
BRANCH   1   2
ATOM      2  C   UNL     1       0.578  -1.390  -5.200  1.00  0.00     0.000 C 
BRANCH   2   3
ATOM      3  C   UNL     1      -0.252  -0.518  -4.249  1.00  0.00     0.000 C 
BRANCH   3   4
ATOM      4  C   UNL     1       0.031   0.971  -4.480  1.00  0.00     0.000 C 
BRANCH   4   5
ATOM      5  C   UNL     1       0.046   1.303  -5.979  1.00  0.00     0.000 C 
BRANCH   5   6
ATOM      6  C   UNL     1       1.146   2.311  -6.359  1.00  0.00     0.000 C 
BRANCH   6   7
ATOM      7  C   UNL     1       2.518   1.685  -6.670  1.00  0.00     0.000 C 
BRANCH   7   8
ATOM      8  C   UNL     1       3.681   2.430  -5.999  1.00  0.00     0.000 C 
BRANCH   8   9
ATOM      9  C   UNL     1       3.421   2.612  -4.496  1.00  0.00     0.000 C 
BRANCH   9  10
ATOM     10  C   UNL     1       4.279   3.728  -3.877  1.00  0.00     0.000 C 
BRANCH  10  11
ATOM     11  C   UNL     1       3.430   4.909  -3.376  1.00  0.00     0.000 C 
BRANCH  11  12
ATOM     12  C   UNL     1       3.499   6.136  -4.302  1.00  0.00     0.000 C 
BRANCH  12  13
ATOM     13  C   UNL     1       2.506   7.265  -3.969  1.00  0.00     0.006 C 
BRANCH  13  14
ATOM     14  C   UNL     1       1.706   7.740  -5.189  1.00  0.00     0.053 C 
BRANCH  14  15
ATOM     15  C   UNL     1       0.282   7.290  -5.099  1.00  0.00     0.041 C 
ATOM     16  O   UNL     1      -0.198   6.530  -5.981  1.00  0.00    -0.550 OA
ATOM     17  O   UNL     1      -0.520   7.718  -4.047  1.00  0.00    -0.550 OA
ENDBRANCH  14  15
ENDBRANCH  13  14
ENDBRANCH  12  13
ENDBRANCH  11  12
ENDBRANCH  10  11
ENDBRANCH   9  10
ENDBRANCH   8   9
ENDBRANCH   7   8
ENDBRANCH   6   7
ENDBRANCH   5   6
ENDBRANCH   4   5
ENDBRANCH   3   4
ENDBRANCH   2   3
ENDBRANCH   1   2
BRANCH   1  18
ATOM     18  C   UNL     1       2.832  -0.862  -4.178  1.00  0.00     0.000 C 
BRANCH  18  19
ATOM     19  C   UNL     1       4.246  -1.409  -3.909  1.00  0.00     0.000 C 
BRANCH  19  20
ATOM     20  C   UNL     1       5.267  -0.376  -3.396  1.00  0.00     0.000 C 
BRANCH  20  21
ATOM     21  C   UNL     1       6.201   0.150  -4.499  1.00  0.00     0.000 C 
BRANCH  21  22
ATOM     22  C   UNL     1       6.167  -0.711  -5.775  1.00  0.00     0.000 C 
BRANCH  22  23
ATOM     23  C   UNL     1       7.479  -1.441  -6.116  1.00  0.00     0.000 C 
BRANCH  23  24
ATOM     24  C   UNL     1       7.262  -2.723  -6.936  1.00  0.00    -0.000 C 
BRANCH  24  25
ATOM     25  C   UNL     1       8.173  -3.886  -6.481  1.00  0.00    -0.000 C 
BRANCH  25  26
ATOM     26  C   UNL     1       7.480  -5.261  -6.483  1.00  0.00    -0.000 C 
BRANCH  26  27
ATOM     27  C   UNL     1       8.412  -6.455  -6.215  1.00  0.00    -0.000 C 
BRANCH  27  28
ATOM     28  C   UNL     1       8.722  -6.678  -4.718  1.00  0.00    -0.000 C 
BRANCH  28  29
ATOM     29  C   UNL     1       7.583  -7.395  -3.977  1.00  0.00    -0.000 C 
BRANCH  29  30
ATOM     30  C   UNL     1       7.436  -8.843  -4.456  1.00  0.00    -0.000 C 
BRANCH  30  31
ATOM     31  C   UNL     1       7.388  -9.812  -3.269  1.00  0.00    -0.003 C 
ATOM     32  C   UNL     1       6.415 -10.958  -3.530  1.00  0.00     0.004 C 
ENDBRANCH  30  31
ENDBRANCH  29  30
ENDBRANCH  28  29
ENDBRANCH  27  28
ENDBRANCH  26  27
ENDBRANCH  25  26
ENDBRANCH  24  25
ENDBRANCH  23  24
ENDBRANCH  22  23
ENDBRANCH  21  22
ENDBRANCH  20  21
ENDBRANCH  19  20
ENDBRANCH  18  19
ENDBRANCH   1  18
TORSDOF 28
ENDMDL
MODEL 5
REMARK VINA RESULT:    -2.792      4.181      7.437
REMARK INTER + INTRA:         -11.815
REMARK INTER:                  -8.663
REMARK INTRA:                  -3.152
REMARK UNBOUND:                -4.452
REMARK SMILES CCCCCCCCCCCCCCCCCCCCCCCCCCCCCC(=O)[O-]
REMARK SMILES IDX 16 1 17 2 18 3 19 4 20 5 21 6 22 7 23 8 24 9 25 10 26 11
REMARK SMILES IDX 27 12 28 13 29 14 30 15 31 16 32 17 15 18 14 19 13 20 12 21
REMARK SMILES IDX 11 22 10 23 9 24 8 25 7 26 6 27 5 28 4 29 3 30 2 31 1 32
REMARK H PARENT
REMARK Flexibility Score: inf
ROOT
ATOM      1  C   UNL     1       1.812  -1.927  -4.485  1.00  0.00     0.000 C 
ENDROOT
BRANCH   1   2
ATOM      2  C   UNL     1       0.557  -1.354  -5.152  1.00  0.00     0.000 C 
BRANCH   2   3
ATOM      3  C   UNL     1      -0.274  -0.540  -4.152  1.00  0.00     0.000 C 
BRANCH   3   4
ATOM      4  C   UNL     1      -0.139   0.963  -4.419  1.00  0.00     0.000 C 
BRANCH   4   5
ATOM      5  C   UNL     1      -0.032   1.248  -5.924  1.00  0.00     0.000 C 
BRANCH   5   6
ATOM      6  C   UNL     1       1.002   2.340  -6.255  1.00  0.00     0.000 C 
BRANCH   6   7
ATOM      7  C   UNL     1       2.334   1.819  -6.826  1.00  0.00     0.000 C 
BRANCH   7   8
ATOM      8  C   UNL     1       3.553   2.274  -6.010  1.00  0.00     0.000 C 
BRANCH   8   9
ATOM      9  C   UNL     1       3.135   2.712  -4.598  1.00  0.00     0.000 C 
BRANCH   9  10
ATOM     10  C   UNL     1       4.297   3.326  -3.800  1.00  0.00     0.000 C 
BRANCH  10  11
ATOM     11  C   UNL     1       4.203   4.860  -3.718  1.00  0.00     0.000 C 
BRANCH  11  12
ATOM     12  C   UNL     1       4.702   5.561  -4.994  1.00  0.00     0.000 C 
BRANCH  12  13
ATOM     13  C   UNL     1       5.922   4.906  -5.667  1.00  0.00     0.006 C 
BRANCH  13  14
ATOM     14  C   UNL     1       7.201   5.009  -4.825  1.00  0.00     0.053 C 
BRANCH  14  15
ATOM     15  C   UNL     1       8.042   3.782  -4.985  1.00  0.00     0.041 C 
ATOM     16  O   UNL     1       8.658   3.305  -3.995  1.00  0.00    -0.550 OA
ATOM     17  O   UNL     1       8.157   3.171  -6.228  1.00  0.00    -0.550 OA
ENDBRANCH  14  15
ENDBRANCH  13  14
ENDBRANCH  12  13
ENDBRANCH  11  12
ENDBRANCH  10  11
ENDBRANCH   9  10
ENDBRANCH   8   9
ENDBRANCH   7   8
ENDBRANCH   6   7
ENDBRANCH   5   6
ENDBRANCH   4   5
ENDBRANCH   3   4
ENDBRANCH   2   3
ENDBRANCH   1   2
BRANCH   1  18
ATOM     18  C   UNL     1       2.931  -0.876  -4.418  1.00  0.00     0.000 C 
BRANCH  18  19
ATOM     19  C   UNL     1       4.218  -1.404  -3.758  1.00  0.00     0.000 C 
BRANCH  19  20
ATOM     20  C   UNL     1       5.242  -0.326  -3.354  1.00  0.00     0.000 C 
BRANCH  20  21
ATOM     21  C   UNL     1       6.129   0.135  -4.524  1.00  0.00     0.000 C 
BRANCH  21  22
ATOM     22  C   UNL     1       6.120  -0.850  -5.708  1.00  0.00     0.000 C 
BRANCH  22  23
ATOM     23  C   UNL     1       7.458  -1.559  -5.988  1.00  0.00     0.000 C 
BRANCH  23  24
ATOM     24  C   UNL     1       7.315  -2.777  -6.915  1.00  0.00    -0.000 C 
BRANCH  24  25
ATOM     25  C   UNL     1       8.010  -4.039  -6.357  1.00  0.00    -0.000 C 
BRANCH  25  26
ATOM     26  C   UNL     1       7.211  -5.338  -6.566  1.00  0.00    -0.000 C 
BRANCH  26  27
ATOM     27  C   UNL     1       7.975  -6.629  -6.222  1.00  0.00    -0.000 C 
BRANCH  27  28
ATOM     28  C   UNL     1       8.556  -6.644  -4.791  1.00  0.00    -0.000 C 
BRANCH  28  29
ATOM     29  C   UNL     1       7.615  -7.308  -3.774  1.00  0.00    -0.000 C 
BRANCH  29  30
ATOM     30  C   UNL     1       8.397  -8.160  -2.770  1.00  0.00    -0.000 C 
BRANCH  30  31
ATOM     31  C   UNL     1       8.117  -9.653  -2.982  1.00  0.00    -0.003 C 
ATOM     32  C   UNL     1       6.725  -9.875  -3.567  1.00  0.00     0.004 C 
ENDBRANCH  30  31
ENDBRANCH  29  30
ENDBRANCH  28  29
ENDBRANCH  27  28
ENDBRANCH  26  27
ENDBRANCH  25  26
ENDBRANCH  24  25
ENDBRANCH  23  24
ENDBRANCH  22  23
ENDBRANCH  21  22
ENDBRANCH  20  21
ENDBRANCH  19  20
ENDBRANCH  18  19
ENDBRANCH   1  18
TORSDOF 28
ENDMDL
MODEL 6
REMARK VINA RESULT:    -2.785      3.333      6.769
REMARK INTER + INTRA:         -11.795
REMARK INTER:                  -8.884
REMARK INTRA:                  -2.910
REMARK UNBOUND:                -4.452
REMARK SMILES CCCCCCCCCCCCCCCCCCCCCCCCCCCCCC(=O)[O-]
REMARK SMILES IDX 16 1 17 2 18 3 19 4 20 5 21 6 22 7 23 8 24 9 25 10 26 11
REMARK SMILES IDX 27 12 28 13 29 14 30 15 31 16 32 17 15 18 14 19 13 20 12 21
REMARK SMILES IDX 11 22 10 23 9 24 8 25 7 26 6 27 5 28 4 29 3 30 2 31 1 32
REMARK H PARENT
REMARK Flexibility Score: inf
ROOT
ATOM      1  C   UNL     1       0.297  -0.313  -4.602  1.00  0.00     0.000 C 
ENDROOT
BRANCH   1   2
ATOM      2  C   UNL     1       0.164   0.470  -5.913  1.00  0.00     0.000 C 
BRANCH   2   3
ATOM      3  C   UNL     1      -0.086   1.959  -5.640  1.00  0.00     0.000 C 
BRANCH   3   4
ATOM      4  C   UNL     1       0.875   2.836  -6.451  1.00  0.00     0.000 C 
BRANCH   4   5
ATOM      5  C   UNL     1       2.248   2.164  -6.591  1.00  0.00     0.000 C 
BRANCH   5   6
ATOM      6  C   UNL     1       3.343   2.860  -5.763  1.00  0.00     0.000 C 
BRANCH   6   7
ATOM      7  C   UNL     1       3.231   2.658  -4.241  1.00  0.00     0.000 C 
BRANCH   7   8
ATOM      8  C   UNL     1       3.555   3.930  -3.443  1.00  0.00     0.000 C 
BRANCH   8   9
ATOM      9  C   UNL     1       3.456   5.177  -4.336  1.00  0.00     0.000 C 
BRANCH   9  10
ATOM     10  C   UNL     1       3.461   6.485  -3.528  1.00  0.00     0.000 C 
BRANCH  10  11
ATOM     11  C   UNL     1       2.390   7.477  -4.015  1.00  0.00     0.000 C 
BRANCH  11  12
ATOM     12  C   UNL     1       1.691   7.020  -5.307  1.00  0.00     0.000 C 
BRANCH  12  13
ATOM     13  C   UNL     1       0.567   7.947  -5.807  1.00  0.00     0.006 C 
BRANCH  13  14
ATOM     14  C   UNL     1      -0.600   8.062  -4.817  1.00  0.00     0.053 C 
BRANCH  14  15
ATOM     15  C   UNL     1      -1.634   7.016  -5.091  1.00  0.00     0.041 C 
ATOM     16  O   UNL     1      -1.716   6.492  -6.233  1.00  0.00    -0.550 OA
ATOM     17  O   UNL     1      -2.516   6.626  -4.089  1.00  0.00    -0.550 OA
ENDBRANCH  14  15
ENDBRANCH  13  14
ENDBRANCH  12  13
ENDBRANCH  11  12
ENDBRANCH  10  11
ENDBRANCH   9  10
ENDBRANCH   8   9
ENDBRANCH   7   8
ENDBRANCH   6   7
ENDBRANCH   5   6
ENDBRANCH   4   5
ENDBRANCH   3   4
ENDBRANCH   2   3
ENDBRANCH   1   2
BRANCH   1  18
ATOM     18  C   UNL     1       0.779  -1.749  -4.863  1.00  0.00     0.000 C 
BRANCH  18  19
ATOM     19  C   UNL     1       2.129  -2.064  -4.193  1.00  0.00     0.000 C 
BRANCH  19  20
ATOM     20  C   UNL     1       3.136  -0.900  -4.159  1.00  0.00     0.000 C 
BRANCH  20  21
ATOM     21  C   UNL     1       4.520  -1.312  -3.628  1.00  0.00     0.000 C 
BRANCH  21  22
ATOM     22  C   UNL     1       5.667  -0.483  -4.236  1.00  0.00     0.000 C 
BRANCH  22  23
ATOM     23  C   UNL     1       5.489  -0.092  -5.715  1.00  0.00     0.000 C 
BRANCH  23  24
ATOM     24  C   UNL     1       6.767  -0.281  -6.548  1.00  0.00    -0.000 C 
BRANCH  24  25
ATOM     25  C   UNL     1       7.579  -1.525  -6.123  1.00  0.00    -0.000 C 
BRANCH  25  26
ATOM     26  C   UNL     1       7.367  -2.750  -7.032  1.00  0.00    -0.000 C 
BRANCH  26  27
ATOM     27  C   UNL     1       8.150  -4.007  -6.615  1.00  0.00    -0.000 C 
BRANCH  27  28
ATOM     28  C   UNL     1       7.255  -5.244  -6.376  1.00  0.00    -0.000 C 
BRANCH  28  29
ATOM     29  C   UNL     1       8.067  -6.522  -6.111  1.00  0.00    -0.000 C 
BRANCH  29  30
ATOM     30  C   UNL     1       7.685  -7.152  -4.768  1.00  0.00    -0.000 C 
BRANCH  30  31
ATOM     31  C   UNL     1       8.910  -7.285  -3.856  1.00  0.00    -0.003 C 
ATOM     32  C   UNL     1       8.609  -8.174  -2.653  1.00  0.00     0.004 C 
ENDBRANCH  30  31
ENDBRANCH  29  30
ENDBRANCH  28  29
ENDBRANCH  27  28
ENDBRANCH  26  27
ENDBRANCH  25  26
ENDBRANCH  24  25
ENDBRANCH  23  24
ENDBRANCH  22  23
ENDBRANCH  21  22
ENDBRANCH  20  21
ENDBRANCH  19  20
ENDBRANCH  18  19
ENDBRANCH   1  18
TORSDOF 28
ENDMDL
MODEL 7
REMARK VINA RESULT:    -2.499      3.652      9.259
REMARK INTER + INTRA:         -11.043
REMARK INTER:                  -7.822
REMARK INTRA:                  -3.221
REMARK UNBOUND:                -4.452
REMARK SMILES CCCCCCCCCCCCCCCCCCCCCCCCCCCCCC(=O)[O-]
REMARK SMILES IDX 16 1 17 2 18 3 19 4 20 5 21 6 22 7 23 8 24 9 25 10 26 11
REMARK SMILES IDX 27 12 28 13 29 14 30 15 31 16 32 17 15 18 14 19 13 20 12 21
REMARK SMILES IDX 11 22 10 23 9 24 8 25 7 26 6 27 5 28 4 29 3 30 2 31 1 32
REMARK H PARENT
REMARK Flexibility Score: inf
ROOT
ATOM      1  C   UNL     1       0.862  -1.696  -4.458  1.00  0.00     0.000 C 
ENDROOT
BRANCH   1   2
ATOM      2  C   UNL     1       2.296  -2.117  -4.119  1.00  0.00     0.000 C 
BRANCH   2   3
ATOM      3  C   UNL     1       3.291  -1.000  -4.459  1.00  0.00     0.000 C 
BRANCH   3   4
ATOM      4  C   UNL     1       4.476  -1.004  -3.487  1.00  0.00     0.000 C 
BRANCH   4   5
ATOM      5  C   UNL     1       5.718  -0.369  -4.129  1.00  0.00     0.000 C 
BRANCH   5   6
ATOM      6  C   UNL     1       5.514  -0.029  -5.617  1.00  0.00     0.000 C 
BRANCH   6   7
ATOM      7  C   UNL     1       6.703  -0.381  -6.530  1.00  0.00     0.000 C 
BRANCH   7   8
ATOM      8  C   UNL     1       6.882  -1.894  -6.724  1.00  0.00     0.000 C 
BRANCH   8   9
ATOM      9  C   UNL     1       8.329  -2.318  -6.428  1.00  0.00     0.000 C 
BRANCH   9  10
ATOM     10  C   UNL     1       8.438  -3.788  -5.992  1.00  0.00     0.000 C 
BRANCH  10  11
ATOM     11  C   UNL     1       7.309  -4.656  -6.574  1.00  0.00     0.000 C 
BRANCH  11  12
ATOM     12  C   UNL     1       7.685  -6.145  -6.673  1.00  0.00     0.000 C 
BRANCH  12  13
ATOM     13  C   UNL     1       8.550  -6.680  -5.517  1.00  0.00     0.006 C 
BRANCH  13  14
ATOM     14  C   UNL     1       8.095  -8.057  -5.015  1.00  0.00     0.053 C 
BRANCH  14  15
ATOM     15  C   UNL     1       7.466  -7.949  -3.661  1.00  0.00     0.041 C 
ATOM     16  O   UNL     1       6.790  -6.931  -3.358  1.00  0.00    -0.550 OA
ATOM     17  O   UNL     1       7.636  -8.967  -2.730  1.00  0.00    -0.550 OA
ENDBRANCH  14  15
ENDBRANCH  13  14
ENDBRANCH  12  13
ENDBRANCH  11  12
ENDBRANCH  10  11
ENDBRANCH   9  10
ENDBRANCH   8   9
ENDBRANCH   7   8
ENDBRANCH   6   7
ENDBRANCH   5   6
ENDBRANCH   4   5
ENDBRANCH   3   4
ENDBRANCH   2   3
ENDBRANCH   1   2
BRANCH   1  18
ATOM     18  C   UNL     1       0.849  -0.547  -5.478  1.00  0.00     0.000 C 
BRANCH  18  19
ATOM     19  C   UNL     1       0.392   0.793  -4.875  1.00  0.00     0.000 C 
BRANCH  19  20
ATOM     20  C   UNL     1       0.688   2.038  -5.733  1.00  0.00     0.000 C 
BRANCH  20  21
ATOM     21  C   UNL     1       2.166   2.462  -5.692  1.00  0.00     0.000 C 
BRANCH  21  22
ATOM     22  C   UNL     1       2.672   2.739  -4.263  1.00  0.00     0.000 C 
BRANCH  22  23
ATOM     23  C   UNL     1       4.184   3.004  -4.137  1.00  0.00     0.000 C 
BRANCH  23  24
ATOM     24  C   UNL     1       4.520   4.485  -3.897  1.00  0.00    -0.000 C 
BRANCH  24  25
ATOM     25  C   UNL     1       3.265   5.386  -3.874  1.00  0.00    -0.000 C 
BRANCH  25  26
ATOM     26  C   UNL     1       3.093   6.254  -5.134  1.00  0.00    -0.000 C 
BRANCH  26  27
ATOM     27  C   UNL     1       1.966   7.297  -5.053  1.00  0.00    -0.000 C 
BRANCH  27  28
ATOM     28  C   UNL     1       0.916   7.166  -6.179  1.00  0.00    -0.000 C 
BRANCH  28  29
ATOM     29  C   UNL     1       0.941   5.787  -6.856  1.00  0.00    -0.000 C 
BRANCH  29  30
ATOM     30  C   UNL     1      -0.478   5.254  -7.081  1.00  0.00    -0.000 C 
BRANCH  30  31
ATOM     31  C   UNL     1      -1.526   6.287  -6.651  1.00  0.00    -0.003 C 
ATOM     32  C   UNL     1      -2.618   5.643  -5.802  1.00  0.00     0.004 C 
ENDBRANCH  30  31
ENDBRANCH  29  30
ENDBRANCH  28  29
ENDBRANCH  27  28
ENDBRANCH  26  27
ENDBRANCH  25  26
ENDBRANCH  24  25
ENDBRANCH  23  24
ENDBRANCH  22  23
ENDBRANCH  21  22
ENDBRANCH  20  21
ENDBRANCH  19  20
ENDBRANCH  18  19
ENDBRANCH   1  18
TORSDOF 28
ENDMDL
MODEL 8
REMARK VINA RESULT:    -2.346      4.696      6.811
REMARK INTER + INTRA:         -10.638
REMARK INTER:                  -8.199
REMARK INTRA:                  -2.439
REMARK UNBOUND:                -4.452
REMARK SMILES CCCCCCCCCCCCCCCCCCCCCCCCCCCCCC(=O)[O-]
REMARK SMILES IDX 16 1 17 2 18 3 19 4 20 5 21 6 22 7 23 8 24 9 25 10 26 11
REMARK SMILES IDX 27 12 28 13 29 14 30 15 31 16 32 17 15 18 14 19 13 20 12 21
REMARK SMILES IDX 11 22 10 23 9 24 8 25 7 26 6 27 5 28 4 29 3 30 2 31 1 32
REMARK H PARENT
REMARK Flexibility Score: inf
ROOT
ATOM      1  C   UNL     1       5.060   2.041  -5.919  1.00  0.00     0.000 C 
ENDROOT
BRANCH   1   2
ATOM      2  C   UNL     1       4.838   3.365  -5.180  1.00  0.00     0.000 C 
BRANCH   2   3
ATOM      3  C   UNL     1       4.255   3.123  -3.782  1.00  0.00     0.000 C 
BRANCH   3   4
ATOM      4  C   UNL     1       3.348   4.283  -3.355  1.00  0.00     0.000 C 
BRANCH   4   5
ATOM      5  C   UNL     1       3.811   5.604  -3.984  1.00  0.00     0.000 C 
BRANCH   5   6
ATOM      6  C   UNL     1       2.829   6.764  -3.734  1.00  0.00     0.000 C 
BRANCH   6   7
ATOM      7  C   UNL     1       2.214   7.376  -5.006  1.00  0.00     0.000 C 
BRANCH   7   8
ATOM      8  C   UNL     1       2.648   6.653  -6.289  1.00  0.00     0.000 C 
BRANCH   8   9
ATOM      9  C   UNL     1       1.475   5.872  -6.901  1.00  0.00     0.000 C 
BRANCH   9  10
ATOM     10  C   UNL     1       1.630   4.350  -6.745  1.00  0.00     0.000 C 
BRANCH  10  11
ATOM     11  C   UNL     1       0.275   3.622  -6.737  1.00  0.00     0.000 C 
BRANCH  11  12
ATOM     12  C   UNL     1       0.413   2.096  -6.594  1.00  0.00     0.000 C 
BRANCH  12  13
ATOM     13  C   UNL     1       1.067   1.617  -5.285  1.00  0.00     0.006 C 
BRANCH  13  14
ATOM     14  C   UNL     1       0.558   0.244  -4.828  1.00  0.00     0.053 C 
BRANCH  14  15
ATOM     15  C   UNL     1       1.536  -0.831  -5.186  1.00  0.00     0.041 C 
ATOM     16  O   UNL     1       2.247  -1.361  -4.292  1.00  0.00    -0.550 OA
ATOM     17  O   UNL     1       1.670  -1.241  -6.507  1.00  0.00    -0.550 OA
ENDBRANCH  14  15
ENDBRANCH  13  14
ENDBRANCH  12  13
ENDBRANCH  11  12
ENDBRANCH  10  11
ENDBRANCH   9  10
ENDBRANCH   8   9
ENDBRANCH   7   8
ENDBRANCH   6   7
ENDBRANCH   5   6
ENDBRANCH   4   5
ENDBRANCH   3   4
ENDBRANCH   2   3
ENDBRANCH   1   2
BRANCH   1  18
ATOM     18  C   UNL     1       6.398   2.047  -6.675  1.00  0.00     0.000 C 
BRANCH  18  19
ATOM     19  C   UNL     1       7.337   0.903  -6.252  1.00  0.00     0.000 C 
BRANCH  19  20
ATOM     20  C   UNL     1       7.269  -0.364  -7.125  1.00  0.00     0.000 C 
BRANCH  20  21
ATOM     21  C   UNL     1       8.071  -1.542  -6.546  1.00  0.00     0.000 C 
BRANCH  21  22
ATOM     22  C   UNL     1       7.239  -2.832  -6.425  1.00  0.00     0.000 C 
BRANCH  22  23
ATOM     23  C   UNL     1       7.978  -4.132  -6.795  1.00  0.00     0.000 C 
BRANCH  23  24
ATOM     24  C   UNL     1       7.233  -5.399  -6.344  1.00  0.00    -0.000 C 
BRANCH  24  25
ATOM     25  C   UNL     1       8.175  -6.609  -6.149  1.00  0.00    -0.000 C 
BRANCH  25  26
ATOM     26  C   UNL     1       8.328  -7.053  -4.683  1.00  0.00    -0.000 C 
BRANCH  26  27
ATOM     27  C   UNL     1       7.689  -8.411  -4.349  1.00  0.00    -0.000 C 
BRANCH  27  28
ATOM     28  C   UNL     1       7.663  -9.395  -5.539  1.00  0.00    -0.000 C 
BRANCH  28  29
ATOM     29  C   UNL     1       7.629 -10.865  -5.094  1.00  0.00    -0.000 C 
BRANCH  29  30
ATOM     30  C   UNL     1       8.144 -11.022  -3.659  1.00  0.00    -0.000 C 
BRANCH  30  31
ATOM     31  C   UNL     1       6.996 -11.350  -2.697  1.00  0.00    -0.003 C 
ATOM     32  C   UNL     1       5.818 -11.977  -3.437  1.00  0.00     0.004 C 
ENDBRANCH  30  31
ENDBRANCH  29  30
ENDBRANCH  28  29
ENDBRANCH  27  28
ENDBRANCH  26  27
ENDBRANCH  25  26
ENDBRANCH  24  25
ENDBRANCH  23  24
ENDBRANCH  22  23
ENDBRANCH  21  22
ENDBRANCH  20  21
ENDBRANCH  19  20
ENDBRANCH  18  19
ENDBRANCH   1  18
TORSDOF 28
ENDMDL
MODEL 9
REMARK VINA RESULT:    -2.330      5.472     10.122
REMARK INTER + INTRA:         -10.597
REMARK INTER:                  -7.753
REMARK INTRA:                  -2.844
REMARK UNBOUND:                -4.452
REMARK SMILES CCCCCCCCCCCCCCCCCCCCCCCCCCCCCC(=O)[O-]
REMARK SMILES IDX 16 1 17 2 18 3 19 4 20 5 21 6 22 7 23 8 24 9 25 10 26 11
REMARK SMILES IDX 27 12 28 13 29 14 30 15 31 16 32 17 15 18 14 19 13 20 12 21
REMARK SMILES IDX 11 22 10 23 9 24 8 25 7 26 6 27 5 28 4 29 3 30 2 31 1 32
REMARK H PARENT
REMARK Flexibility Score: inf
ROOT
ATOM      1  C   UNL     1       5.285   0.857  -6.909  1.00  0.00     0.000 C 
ENDROOT
BRANCH   1   2
ATOM      2  C   UNL     1       5.010   0.245  -5.531  1.00  0.00     0.000 C 
BRANCH   2   3
ATOM      3  C   UNL     1       6.129  -0.723  -5.127  1.00  0.00     0.000 C 
BRANCH   3   4
ATOM      4  C   UNL     1       6.516  -1.636  -6.296  1.00  0.00     0.000 C 
BRANCH   4   5
ATOM      5  C   UNL     1       8.035  -1.857  -6.342  1.00  0.00     0.000 C 
BRANCH   5   6
ATOM      6  C   UNL     1       8.423  -3.347  -6.361  1.00  0.00     0.000 C 
BRANCH   6   7
ATOM      7  C   UNL     1       7.238  -4.323  -6.479  1.00  0.00     0.000 C 
BRANCH   7   8
ATOM      8  C   UNL     1       7.679  -5.792  -6.564  1.00  0.00     0.000 C 
BRANCH   8   9
ATOM      9  C   UNL     1       8.825  -6.078  -5.580  1.00  0.00     0.000 C 
BRANCH   9  10
ATOM     10  C   UNL     1       9.009  -7.579  -5.306  1.00  0.00     0.000 C 
BRANCH  10  11
ATOM     11  C   UNL     1       7.676  -8.348  -5.341  1.00  0.00     0.000 C 
BRANCH  11  12
ATOM     12  C   UNL     1       7.743  -9.700  -4.611  1.00  0.00     0.000 C 
BRANCH  12  13
ATOM     13  C   UNL     1       6.855  -9.814  -3.358  1.00  0.00     0.006 C 
BRANCH  13  14
ATOM     14  C   UNL     1       6.423 -11.255  -3.056  1.00  0.00     0.053 C 
BRANCH  14  15
ATOM     15  C   UNL     1       6.805 -11.643  -1.662  1.00  0.00     0.041 C 
ATOM     16  O   UNL     1       8.004 -11.909  -1.387  1.00  0.00    -0.550 OA
ATOM     17  O   UNL     1       5.835 -11.722  -0.670  1.00  0.00    -0.550 OA
ENDBRANCH  14  15
ENDBRANCH  13  14
ENDBRANCH  12  13
ENDBRANCH  11  12
ENDBRANCH  10  11
ENDBRANCH   9  10
ENDBRANCH   8   9
ENDBRANCH   7   8
ENDBRANCH   6   7
ENDBRANCH   5   6
ENDBRANCH   4   5
ENDBRANCH   3   4
ENDBRANCH   2   3
ENDBRANCH   1   2
BRANCH   1  18
ATOM     18  C   UNL     1       5.770   2.310  -6.782  1.00  0.00     0.000 C 
BRANCH  18  19
ATOM     19  C   UNL     1       6.261   2.662  -5.366  1.00  0.00     0.000 C 
BRANCH  19  20
ATOM     20  C   UNL     1       7.049   3.980  -5.250  1.00  0.00     0.000 C 
BRANCH  20  21
ATOM     21  C   UNL     1       6.210   5.140  -4.686  1.00  0.00     0.000 C 
BRANCH  21  22
ATOM     22  C   UNL     1       4.821   4.690  -4.193  1.00  0.00     0.000 C 
BRANCH  22  23
ATOM     23  C   UNL     1       3.843   5.828  -3.845  1.00  0.00     0.000 C 
BRANCH  23  24
ATOM     24  C   UNL     1       2.821   6.108  -4.959  1.00  0.00    -0.000 C 
BRANCH  24  25
ATOM     25  C   UNL     1       2.996   5.176  -6.179  1.00  0.00    -0.000 C 
BRANCH  25  26
ATOM     26  C   UNL     1       1.809   4.223  -6.413  1.00  0.00    -0.000 C 
BRANCH  26  27
ATOM     27  C   UNL     1       2.130   2.731  -6.222  1.00  0.00    -0.000 C 
BRANCH  27  28
ATOM     28  C   UNL     1       2.121   2.278  -4.745  1.00  0.00    -0.000 C 
BRANCH  28  29
ATOM     29  C   UNL     1       1.103   1.160  -4.473  1.00  0.00    -0.000 C 
BRANCH  29  30
ATOM     30  C   UNL     1       1.414  -0.087  -5.307  1.00  0.00    -0.000 C 
BRANCH  30  31
ATOM     31  C   UNL     1       0.487  -1.248  -4.924  1.00  0.00    -0.003 C 
ATOM     32  C   UNL     1       1.270  -2.389  -4.281  1.00  0.00     0.004 C 
ENDBRANCH  30  31
ENDBRANCH  29  30
ENDBRANCH  28  29
ENDBRANCH  27  28
ENDBRANCH  26  27
ENDBRANCH  25  26
ENDBRANCH  24  25
ENDBRANCH  23  24
ENDBRANCH  22  23
ENDBRANCH  21  22
ENDBRANCH  20  21
ENDBRANCH  19  20
ENDBRANCH  18  19
ENDBRANCH   1  18
TORSDOF 28
ENDMDL
