MODEL 1
REMARK VINA RESULT:    -5.847      0.000      0.000
REMARK INTER + INTRA:          -7.155
REMARK INTER:                  -6.873
REMARK INTRA:                  -0.282
REMARK UNBOUND:                -0.282
REMARK SMILES O=C([O-])C=Cc1ccc(O)c(O)c1
REMARK SMILES IDX 6 1 13 2 7 3 11 4 8 5 9 6 5 7 4 8 2 9 1 10 3 11 12 12 10 14
REMARK H PARENT 12 13 10 15
REMARK Flexibility Score: inf
ROOT
ATOM      1  C   UNL     1      -2.239   1.762  10.029  1.00  0.00    -0.022 A 
ATOM      2  C   UNL     1      -1.513   2.617   9.188  1.00  0.00     0.058 A 
ATOM      3  C   UNL     1      -3.372   1.100   9.527  1.00  0.00     0.012 A 
ATOM      4  C   UNL     1      -1.939   2.855   7.875  1.00  0.00     0.157 A 
ATOM      5  C   UNL     1      -3.801   1.334   8.218  1.00  0.00     0.051 A 
ATOM      6  C   UNL     1      -3.091   2.214   7.388  1.00  0.00     0.157 A 
ENDROOT
BRANCH   1   7
ATOM      7  C   UNL     1      -1.735   1.490  11.392  1.00  0.00     0.010 C 
ATOM      8  C   UNL     1      -2.208   2.043  12.521  1.00  0.00     0.025 C 
BRANCH   8   9
ATOM      9  C   UNL     1      -3.184   3.147  12.597  1.00  0.00     0.064 C 
ATOM     10  O   UNL     1      -2.818   4.351  12.607  1.00  0.00    -0.545 OA
ATOM     11  O   UNL     1      -4.534   2.849  12.728  1.00  0.00    -0.545 OA
ENDBRANCH   8   9
ENDBRANCH   1   7
BRANCH   4  12
ATOM     12  O   UNL     1      -1.205   3.726   7.073  1.00  0.00    -0.504 OA
ATOM     13  H   UNL     1      -0.633   3.396   6.304  1.00  0.00     0.293 HD
ENDBRANCH   4  12
BRANCH   6  14
ATOM     14  O   UNL     1      -3.523   2.448   6.083  1.00  0.00    -0.504 OA
ATOM     15  H   UNL     1      -2.985   3.016   5.440  1.00  0.00     0.293 HD
ENDBRANCH   6  14
TORSDOF 4
ENDMDL
MODEL 2
REMARK VINA RESULT:    -5.830      2.945      3.872
REMARK INTER + INTRA:          -7.135
REMARK INTER:                  -6.839
REMARK INTRA:                  -0.297
REMARK UNBOUND:                -0.282
REMARK SMILES O=C([O-])C=Cc1ccc(O)c(O)c1
REMARK SMILES IDX 6 1 13 2 7 3 11 4 8 5 9 6 5 7 4 8 2 9 1 10 3 11 12 12 10 14
REMARK H PARENT 12 13 10 15
REMARK Flexibility Score: inf
ROOT
ATOM      1  C   UNL     1      -2.913   1.231   9.159  1.00  0.00    -0.022 A 
ATOM      2  C   UNL     1      -3.524   1.403   7.909  1.00  0.00     0.058 A 
ATOM      3  C   UNL     1      -1.794   2.014   9.492  1.00  0.00     0.012 A 
ATOM      4  C   UNL     1      -2.998   2.306   6.977  1.00  0.00     0.157 A 
ATOM      5  C   UNL     1      -1.266   2.916   8.566  1.00  0.00     0.051 A 
ATOM      6  C   UNL     1      -1.861   3.064   7.305  1.00  0.00     0.157 A 
ENDROOT
BRANCH   1   7
ATOM      7  C   UNL     1      -3.521   0.308  10.141  1.00  0.00     0.010 C 
ATOM      8  C   UNL     1      -3.136  -0.959  10.361  1.00  0.00     0.025 C 
BRANCH   8   9
ATOM      9  C   UNL     1      -2.166  -1.718   9.548  1.00  0.00     0.064 C 
ATOM     10  O   UNL     1      -0.962  -1.835   9.898  1.00  0.00    -0.545 OA
ATOM     11  O   UNL     1      -2.575  -2.258   8.336  1.00  0.00    -0.545 OA
ENDBRANCH   8   9
ENDBRANCH   1   7
BRANCH   4  12
ATOM     12  O   UNL     1      -3.619   2.438   5.737  1.00  0.00    -0.504 OA
ATOM     13  H   UNL     1      -4.324   1.785   5.416  1.00  0.00     0.293 HD
ENDBRANCH   4  12
BRANCH   6  14
ATOM     14  O   UNL     1      -1.330   3.963   6.381  1.00  0.00    -0.504 OA
ATOM     15  H   UNL     1      -0.409   3.830   5.978  1.00  0.00     0.293 HD
ENDBRANCH   6  14
TORSDOF 4
ENDMDL
MODEL 3
REMARK VINA RESULT:    -5.815      3.434      4.476
REMARK INTER + INTRA:          -7.117
REMARK INTER:                  -6.831
REMARK INTRA:                  -0.285
REMARK UNBOUND:                -0.282
REMARK SMILES O=C([O-])C=Cc1ccc(O)c(O)c1
REMARK SMILES IDX 6 1 13 2 7 3 11 4 8 5 9 6 5 7 4 8 2 9 1 10 3 11 12 12 10 14
REMARK H PARENT 12 13 10 15
REMARK Flexibility Score: inf
ROOT
ATOM      1  C   UNL     1      -1.670   0.214   8.697  1.00  0.00    -0.022 A 
ATOM      2  C   UNL     1      -1.094   1.001   7.689  1.00  0.00     0.058 A 
ATOM      3  C   UNL     1      -2.145   0.832   9.866  1.00  0.00     0.012 A 
ATOM      4  C   UNL     1      -0.941   2.381   7.863  1.00  0.00     0.157 A 
ATOM      5  C   UNL     1      -1.995   2.210  10.044  1.00  0.00     0.051 A 
ATOM      6  C   UNL     1      -1.390   2.990   9.048  1.00  0.00     0.157 A 
ENDROOT
BRANCH   1   7
ATOM      7  C   UNL     1      -1.865  -1.232   8.463  1.00  0.00     0.010 C 
ATOM      8  C   UNL     1      -1.077  -2.210   8.936  1.00  0.00     0.025 C 
BRANCH   8   9
ATOM      9  C   UNL     1       0.218  -2.019   9.619  1.00  0.00     0.064 C 
ATOM     10  O   UNL     1       1.303  -2.001   8.981  1.00  0.00    -0.545 OA
ATOM     11  O   UNL     1       0.245  -1.925  11.004  1.00  0.00    -0.545 OA
ENDBRANCH   8   9
ENDBRANCH   1   7
BRANCH   4  12
ATOM     12  O   UNL     1      -0.347   3.130   6.849  1.00  0.00    -0.504 OA
ATOM     13  H   UNL     1       0.660   3.209   6.758  1.00  0.00     0.293 HD
ENDBRANCH   4  12
BRANCH   6  14
ATOM     14  O   UNL     1      -1.239   4.364   9.230  1.00  0.00    -0.504 OA
ATOM     15  H   UNL     1      -1.709   5.033   8.632  1.00  0.00     0.293 HD
ENDBRANCH   6  14
TORSDOF 4
ENDMDL
MODEL 4
REMARK VINA RESULT:    -5.813      2.423      3.377
REMARK INTER + INTRA:          -7.115
REMARK INTER:                  -6.832
REMARK INTRA:                  -0.283
REMARK UNBOUND:                -0.282
REMARK SMILES O=C([O-])C=Cc1ccc(O)c(O)c1
REMARK SMILES IDX 6 1 13 2 7 3 11 4 8 5 9 6 5 7 4 8 2 9 1 10 3 11 12 12 10 14
REMARK H PARENT 12 13 10 15
REMARK Flexibility Score: inf
ROOT
ATOM      1  C   UNL     1      -2.098   0.816   9.380  1.00  0.00    -0.022 A 
ATOM      2  C   UNL     1      -2.013   2.177   9.705  1.00  0.00     0.058 A 
ATOM      3  C   UNL     1      -1.519   0.355   8.186  1.00  0.00     0.012 A 
ATOM      4  C   UNL     1      -1.405   3.082   8.826  1.00  0.00     0.157 A 
ATOM      5  C   UNL     1      -0.911   1.254   7.306  1.00  0.00     0.051 A 
ATOM      6  C   UNL     1      -0.855   2.620   7.619  1.00  0.00     0.157 A 
ENDROOT
BRANCH   1   7
ATOM      7  C   UNL     1      -2.699  -0.123  10.351  1.00  0.00     0.010 C 
ATOM      8  C   UNL     1      -3.960  -0.581  10.312  1.00  0.00     0.025 C 
BRANCH   8   9
ATOM      9  C   UNL     1      -5.025  -0.100   9.410  1.00  0.00     0.064 C 
ATOM     10  O   UNL     1      -5.400  -0.773   8.415  1.00  0.00    -0.545 OA
ATOM     11  O   UNL     1      -5.577   1.156   9.626  1.00  0.00    -0.545 OA
ENDBRANCH   8   9
ENDBRANCH   1   7
BRANCH   4  12
ATOM     12  O   UNL     1      -1.355   4.431   9.172  1.00  0.00    -0.504 OA
ATOM     13  H   UNL     1      -1.052   5.143   8.518  1.00  0.00     0.293 HD
ENDBRANCH   4  12
BRANCH   6  14
ATOM     14  O   UNL     1      -0.250   3.516   6.738  1.00  0.00    -0.504 OA
ATOM     15  H   UNL     1       0.359   4.255   7.067  1.00  0.00     0.293 HD
ENDBRANCH   6  14
TORSDOF 4
ENDMDL
MODEL 5
REMARK VINA RESULT:    -5.748      1.969      2.494
REMARK INTER + INTRA:          -7.038
REMARK INTER:                  -6.753
REMARK INTRA:                  -0.285
REMARK UNBOUND:                -0.282
REMARK SMILES O=C([O-])C=Cc1ccc(O)c(O)c1
REMARK SMILES IDX 6 1 13 2 7 3 11 4 8 5 9 6 5 7 4 8 2 9 1 10 3 11 12 12 10 14
REMARK H PARENT 12 13 10 15
REMARK Flexibility Score: inf
ROOT
ATOM      1  C   UNL     1      -2.771   0.379   8.847  1.00  0.00    -0.022 A 
ATOM      2  C   UNL     1      -1.447   0.217   8.414  1.00  0.00     0.058 A 
ATOM      3  C   UNL     1      -3.576   1.362   8.247  1.00  0.00     0.012 A 
ATOM      4  C   UNL     1      -0.911   1.059   7.432  1.00  0.00     0.157 A 
ATOM      5  C   UNL     1      -3.046   2.204   7.267  1.00  0.00     0.051 A 
ATOM      6  C   UNL     1      -1.712   2.061   6.857  1.00  0.00     0.157 A 
ENDROOT
BRANCH   1   7
ATOM      7  C   UNL     1      -3.325  -0.558   9.847  1.00  0.00     0.010 C 
ATOM      8  C   UNL     1      -3.463  -0.304  11.158  1.00  0.00     0.025 C 
BRANCH   8   9
ATOM      9  C   UNL     1      -2.928   0.874  11.869  1.00  0.00     0.064 C 
ATOM     10  O   UNL     1      -3.670   1.833  12.208  1.00  0.00    -0.545 OA
ATOM     11  O   UNL     1      -1.563   0.957  12.109  1.00  0.00    -0.545 OA
ENDBRANCH   8   9
ENDBRANCH   1   7
BRANCH   4  12
ATOM     12  O   UNL     1       0.414   0.883   7.039  1.00  0.00    -0.504 OA
ATOM     13  H   UNL     1       0.669   0.292   6.256  1.00  0.00     0.293 HD
ENDBRANCH   4  12
BRANCH   6  14
ATOM     14  O   UNL     1      -1.185   2.904   5.881  1.00  0.00    -0.504 OA
ATOM     15  H   UNL     1      -0.397   2.626   5.308  1.00  0.00     0.293 HD
ENDBRANCH   6  14
TORSDOF 4
ENDMDL
MODEL 6
REMARK VINA RESULT:    -5.699      3.375      4.719
REMARK INTER + INTRA:          -6.980
REMARK INTER:                  -6.689
REMARK INTRA:                  -0.291
REMARK UNBOUND:                -0.282
REMARK SMILES O=C([O-])C=Cc1ccc(O)c(O)c1
REMARK SMILES IDX 6 1 13 2 7 3 11 4 8 5 9 6 5 7 4 8 2 9 1 10 3 11 12 12 10 14
REMARK H PARENT 12 13 10 15
REMARK Flexibility Score: inf
ROOT
ATOM      1  C   UNL     1      -3.632   0.128   8.821  1.00  0.00    -0.022 A 
ATOM      2  C   UNL     1      -3.709   1.343   8.126  1.00  0.00     0.058 A 
ATOM      3  C   UNL     1      -2.410  -0.565   8.865  1.00  0.00     0.012 A 
ATOM      4  C   UNL     1      -2.597   1.839   7.435  1.00  0.00     0.157 A 
ATOM      5  C   UNL     1      -1.298  -0.074   8.176  1.00  0.00     0.051 A 
ATOM      6  C   UNL     1      -1.386   1.126   7.456  1.00  0.00     0.157 A 
ENDROOT
BRANCH   1   7
ATOM      7  C   UNL     1      -4.807  -0.344   9.584  1.00  0.00     0.010 C 
ATOM      8  C   UNL     1      -5.686  -1.268   9.166  1.00  0.00     0.025 C 
BRANCH   8   9
ATOM      9  C   UNL     1      -5.748  -1.848   7.811  1.00  0.00     0.064 C 
ATOM     10  O   UNL     1      -5.072  -2.862   7.495  1.00  0.00    -0.545 OA
ATOM     11  O   UNL     1      -6.518  -1.220   6.841  1.00  0.00    -0.545 OA
ENDBRANCH   8   9
ENDBRANCH   1   7
BRANCH   4  12
ATOM     12  O   UNL     1      -2.713   3.041   6.738  1.00  0.00    -0.504 OA
ATOM     13  H   UNL     1      -3.614   3.451   6.520  1.00  0.00     0.293 HD
ENDBRANCH   4  12
BRANCH   6  14
ATOM     14  O   UNL     1      -0.275   1.613   6.768  1.00  0.00    -0.504 OA
ATOM     15  H   UNL     1      -0.341   2.414   6.152  1.00  0.00     0.293 HD
ENDBRANCH   6  14
TORSDOF 4
ENDMDL
MODEL 7
REMARK VINA RESULT:    -5.565      1.330      2.465
REMARK INTER + INTRA:          -6.823
REMARK INTER:                  -6.565
REMARK INTRA:                  -0.258
REMARK UNBOUND:                -0.282
REMARK SMILES O=C([O-])C=Cc1ccc(O)c(O)c1
REMARK SMILES IDX 6 1 13 2 7 3 11 4 8 5 9 6 5 7 4 8 2 9 1 10 3 11 12 12 10 14
REMARK H PARENT 12 13 10 15
REMARK Flexibility Score: inf
ROOT
ATOM      1  C   UNL     1      -2.890   1.027   9.518  1.00  0.00    -0.022 A 
ATOM      2  C   UNL     1      -3.507   1.176   8.268  1.00  0.00     0.058 A 
ATOM      3  C   UNL     1      -1.878   1.925   9.898  1.00  0.00     0.012 A 
ATOM      4  C   UNL     1      -3.085   2.174   7.380  1.00  0.00     0.157 A 
ATOM      5  C   UNL     1      -1.454   2.922   9.016  1.00  0.00     0.051 A 
ATOM      6  C   UNL     1      -2.051   3.049   7.754  1.00  0.00     0.157 A 
ENDROOT
BRANCH   1   7
ATOM      7  C   UNL     1      -3.392  -0.001  10.454  1.00  0.00     0.010 C 
ATOM      8  C   UNL     1      -4.322   0.196  11.401  1.00  0.00     0.025 C 
BRANCH   8   9
ATOM      9  C   UNL     1      -4.881   1.502  11.802  1.00  0.00     0.064 C 
ATOM     10  O   UNL     1      -5.990   1.907  11.365  1.00  0.00    -0.545 OA
ATOM     11  O   UNL     1      -4.134   2.333  12.627  1.00  0.00    -0.545 OA
ENDBRANCH   8   9
ENDBRANCH   1   7
BRANCH   4  12
ATOM     12  O   UNL     1      -3.707   2.281   6.138  1.00  0.00    -0.504 OA
ATOM     13  H   UNL     1      -3.196   2.539   5.301  1.00  0.00     0.293 HD
ENDBRANCH   4  12
BRANCH   6  14
ATOM     14  O   UNL     1      -1.624   4.043   6.874  1.00  0.00    -0.504 OA
ATOM     15  H   UNL     1      -0.742   3.972   6.380  1.00  0.00     0.293 HD
ENDBRANCH   6  14
TORSDOF 4
ENDMDL
MODEL 8
REMARK VINA RESULT:    -5.547      3.447      4.655
REMARK INTER + INTRA:          -6.802
REMARK INTER:                  -6.525
REMARK INTRA:                  -0.277
REMARK UNBOUND:                -0.282
REMARK SMILES O=C([O-])C=Cc1ccc(O)c(O)c1
REMARK SMILES IDX 6 1 13 2 7 3 11 4 8 5 9 6 5 7 4 8 2 9 1 10 3 11 12 12 10 14
REMARK H PARENT 12 13 10 15
REMARK Flexibility Score: inf
ROOT
ATOM      1  C   UNL     1      -1.939   0.022   9.014  1.00  0.00    -0.022 A 
ATOM      2  C   UNL     1      -2.201   0.747  10.185  1.00  0.00     0.058 A 
ATOM      3  C   UNL     1      -1.401   0.688   7.899  1.00  0.00     0.012 A 
ATOM      4  C   UNL     1      -1.982   2.128  10.232  1.00  0.00     0.157 A 
ATOM      5  C   UNL     1      -1.180   2.066   7.941  1.00  0.00     0.051 A 
ATOM      6  C   UNL     1      -1.473   2.793   9.104  1.00  0.00     0.157 A 
ENDROOT
BRANCH   1   7
ATOM      7  C   UNL     1      -2.132  -1.443   9.011  1.00  0.00     0.010 C 
ATOM      8  C   UNL     1      -1.242  -2.346   9.453  1.00  0.00     0.025 C 
BRANCH   8   9
ATOM      9  C   UNL     1       0.150  -2.060   9.852  1.00  0.00     0.064 C 
ATOM     10  O   UNL     1       1.074  -1.968   9.002  1.00  0.00    -0.545 OA
ATOM     11  O   UNL     1       0.459  -1.958  11.201  1.00  0.00    -0.545 OA
ENDBRANCH   8   9
ENDBRANCH   1   7
BRANCH   4  12
ATOM     12  O   UNL     1      -2.271   2.820  11.407  1.00  0.00    -0.504 OA
ATOM     13  H   UNL     1      -1.572   2.984  12.122  1.00  0.00     0.293 HD
ENDBRANCH   4  12
BRANCH   6  14
ATOM     14  O   UNL     1      -1.253   4.170   9.143  1.00  0.00    -0.504 OA
ATOM     15  H   UNL     1      -1.093   4.706   8.298  1.00  0.00     0.293 HD
ENDBRANCH   6  14
TORSDOF 4
ENDMDL
MODEL 9
REMARK VINA RESULT:    -5.535      2.753      3.643
REMARK INTER + INTRA:          -6.789
REMARK INTER:                  -6.542
REMARK INTRA:                  -0.247
REMARK UNBOUND:                -0.282
REMARK SMILES O=C([O-])C=Cc1ccc(O)c(O)c1
REMARK SMILES IDX 6 1 13 2 7 3 11 4 8 5 9 6 5 7 4 8 2 9 1 10 3 11 12 12 10 14
REMARK H PARENT 12 13 10 15
REMARK Flexibility Score: inf
ROOT
ATOM      1  C   UNL     1      -5.652   0.033  10.622  1.00  0.00    -0.022 A 
ATOM      2  C   UNL     1      -5.527   0.795   9.452  1.00  0.00     0.058 A 
ATOM      3  C   UNL     1      -4.625  -0.859  10.976  1.00  0.00     0.012 A 
ATOM      4  C   UNL     1      -4.417   0.635   8.613  1.00  0.00     0.157 A 
ATOM      5  C   UNL     1      -3.517  -1.023  10.142  1.00  0.00     0.051 A 
ATOM      6  C   UNL     1      -3.409  -0.282   8.957  1.00  0.00     0.157 A 
ENDROOT
BRANCH   1   7
ATOM      7  C   UNL     1      -6.808   0.262  11.515  1.00  0.00     0.010 C 
ATOM      8  C   UNL     1      -6.813   1.064  12.591  1.00  0.00     0.025 C 
BRANCH   8   9
ATOM      9  C   UNL     1      -5.631   1.719  13.184  1.00  0.00     0.064 C 
ATOM     10  O   UNL     1      -5.221   2.836  12.775  1.00  0.00    -0.545 OA
ATOM     11  O   UNL     1      -4.914   1.055  14.170  1.00  0.00    -0.545 OA
ENDBRANCH   8   9
ENDBRANCH   1   7
BRANCH   4  12
ATOM     12  O   UNL     1      -4.334   1.394   7.448  1.00  0.00    -0.504 OA
ATOM     13  H   UNL     1      -3.605   2.083   7.305  1.00  0.00     0.293 HD
ENDBRANCH   4  12
BRANCH   6  14
ATOM     14  O   UNL     1      -2.302  -0.449   8.125  1.00  0.00    -0.504 OA
ATOM     15  H   UNL     1      -1.973   0.297   7.523  1.00  0.00     0.293 HD
ENDBRANCH   6  14
TORSDOF 4
ENDMDL
