MODEL 1
REMARK VINA RESULT:    -6.174      0.000      0.000
REMARK INTER + INTRA:         -16.617
REMARK INTER:                 -13.392
REMARK INTRA:                  -3.225
REMARK UNBOUND:                -3.225
REMARK SMILES CCCCCCCCCCCCCCCCCCCCCC(=O)[O-]
REMARK SMILES IDX 12 1 11 2 10 3 9 4 8 5 7 6 6 7 5 8 4 9 3 10 2 11 1 12 13 13
REMARK SMILES IDX 14 14 15 15 16 16 17 17 18 18 19 19 20 20 21 21 22 22 23 23
REMARK SMILES IDX 24 24
REMARK H PARENT
REMARK Flexibility Score: inf
ROOT
ATOM      1  C   UNL     1     -13.259   2.883 -15.865  1.00  0.00     0.000 C 
ENDROOT
BRANCH   1   2
ATOM      2  C   UNL     1     -13.141   3.828 -17.082  1.00  0.00     0.000 C 
BRANCH   2   3
ATOM      3  C   UNL     1     -13.950   3.401 -18.326  1.00  0.00     0.000 C 
BRANCH   3   4
ATOM      4  C   UNL     1     -13.795   1.927 -18.754  1.00  0.00    -0.000 C 
BRANCH   4   5
ATOM      5  C   UNL     1     -14.643   1.555 -19.979  1.00  0.00    -0.000 C 
BRANCH   5   6
ATOM      6  C   UNL     1     -14.734   0.029 -20.138  1.00  0.00    -0.000 C 
BRANCH   6   7
ATOM      7  C   UNL     1     -13.715  -0.716 -19.262  1.00  0.00    -0.000 C 
BRANCH   7   8
ATOM      8  C   UNL     1     -14.387  -1.624 -18.216  1.00  0.00    -0.000 C 
BRANCH   8   9
ATOM      9  C   UNL     1     -15.865  -1.267 -17.976  1.00  0.00    -0.000 C 
BRANCH   9  10
ATOM     10  C   UNL     1     -16.116  -0.315 -16.791  1.00  0.00    -0.000 C 
BRANCH  10  11
ATOM     11  C   UNL     1     -16.951   0.914 -17.177  1.00  0.00    -0.003 C 
ATOM     12  C   UNL     1     -18.041   0.543 -18.179  1.00  0.00     0.004 C 
ENDBRANCH  10  11
ENDBRANCH   9  10
ENDBRANCH   8   9
ENDBRANCH   7   8
ENDBRANCH   6   7
ENDBRANCH   5   6
ENDBRANCH   4   5
ENDBRANCH   3   4
ENDBRANCH   2   3
ENDBRANCH   1   2
BRANCH   1  13
ATOM     13  C   UNL     1     -14.673   2.803 -15.267  1.00  0.00     0.000 C 
BRANCH  13  14
ATOM     14  C   UNL     1     -14.746   1.930 -14.008  1.00  0.00     0.000 C 
BRANCH  14  15
ATOM     15  C   UNL     1     -15.256   2.734 -12.806  1.00  0.00     0.000 C 
BRANCH  15  16
ATOM     16  C   UNL     1     -15.736   1.807 -11.684  1.00  0.00     0.000 C 
BRANCH  16  17
ATOM     17  C   UNL     1     -17.204   2.080 -11.336  1.00  0.00     0.000 C 
BRANCH  17  18
ATOM     18  C   UNL     1     -18.115   0.953 -11.848  1.00  0.00     0.000 C 
BRANCH  18  19
ATOM     19  C   UNL     1     -17.320  -0.320 -12.206  1.00  0.00     0.000 C 
BRANCH  19  20
ATOM     20  C   UNL     1     -17.892  -1.082 -13.412  1.00  0.00     0.006 C 
BRANCH  20  21
ATOM     21  C   UNL     1     -18.843  -0.231 -14.262  1.00  0.00     0.053 C 
BRANCH  21  22
ATOM     22  C   UNL     1     -19.604  -1.093 -15.219  1.00  0.00     0.041 C 
ATOM     23  O   UNL     1     -19.031  -2.051 -15.803  1.00  0.00    -0.550 OA
ATOM     24  O   UNL     1     -20.934  -0.803 -15.510  1.00  0.00    -0.550 OA
ENDBRANCH  21  22
ENDBRANCH  20  21
ENDBRANCH  19  20
ENDBRANCH  18  19
ENDBRANCH  17  18
ENDBRANCH  16  17
ENDBRANCH  15  16
ENDBRANCH  14  15
ENDBRANCH  13  14
ENDBRANCH   1  13
TORSDOF 20
ENDMDL
MODEL 2
REMARK VINA RESULT:    -6.157      2.606      6.780
REMARK INTER + INTRA:         -16.582
REMARK INTER:                 -13.244
REMARK INTRA:                  -3.338
REMARK UNBOUND:                -3.225
REMARK SMILES CCCCCCCCCCCCCCCCCCCCCC(=O)[O-]
REMARK SMILES IDX 12 1 11 2 10 3 9 4 8 5 7 6 6 7 5 8 4 9 3 10 2 11 1 12 13 13
REMARK SMILES IDX 14 14 15 15 16 16 17 17 18 18 19 19 20 20 21 21 22 22 23 23
REMARK SMILES IDX 24 24
REMARK H PARENT
REMARK Flexibility Score: inf
ROOT
ATOM      1  C   UNL     1     -16.181   0.496 -15.792  1.00  0.00     0.000 C 
ENDROOT
BRANCH   1   2
ATOM      2  C   UNL     1     -15.231   1.102 -14.736  1.00  0.00     0.000 C 
BRANCH   2   3
ATOM      3  C   UNL     1     -15.487   2.587 -14.397  1.00  0.00     0.000 C 
BRANCH   3   4
ATOM      4  C   UNL     1     -15.663   2.913 -12.901  1.00  0.00    -0.000 C 
BRANCH   4   5
ATOM      5  C   UNL     1     -15.358   1.725 -11.976  1.00  0.00    -0.000 C 
BRANCH   5   6
ATOM      6  C   UNL     1     -16.523   1.475 -11.005  1.00  0.00    -0.000 C 
BRANCH   6   7
ATOM      7  C   UNL     1     -17.849   1.204 -11.732  1.00  0.00    -0.000 C 
BRANCH   7   8
ATOM      8  C   UNL     1     -17.938  -0.232 -12.281  1.00  0.00    -0.000 C 
BRANCH   8   9
ATOM      9  C   UNL     1     -18.531  -0.294 -13.701  1.00  0.00    -0.000 C 
BRANCH   9  10
ATOM     10  C   UNL     1     -19.113  -1.664 -14.098  1.00  0.00    -0.000 C 
BRANCH  10  11
ATOM     11  C   UNL     1     -19.627  -1.698 -15.544  1.00  0.00    -0.003 C 
ATOM     12  C   UNL     1     -21.011  -1.062 -15.650  1.00  0.00     0.004 C 
ENDBRANCH  10  11
ENDBRANCH   9  10
ENDBRANCH   8   9
ENDBRANCH   7   8
ENDBRANCH   6   7
ENDBRANCH   5   6
ENDBRANCH   4   5
ENDBRANCH   3   4
ENDBRANCH   2   3
ENDBRANCH   1   2
BRANCH   1  13
ATOM     13  C   UNL     1     -16.884   1.538 -16.678  1.00  0.00     0.000 C 
BRANCH  13  14
ATOM     14  C   UNL     1     -18.147   0.997 -17.359  1.00  0.00     0.000 C 
BRANCH  14  15
ATOM     15  C   UNL     1     -17.820   0.402 -18.734  1.00  0.00     0.000 C 
BRANCH  15  16
ATOM     16  C   UNL     1     -17.792  -1.130 -18.680  1.00  0.00     0.000 C 
BRANCH  16  17
ATOM     17  C   UNL     1     -16.370  -1.661 -18.890  1.00  0.00     0.000 C 
BRANCH  17  18
ATOM     18  C   UNL     1     -15.500  -0.639 -19.638  1.00  0.00     0.000 C 
BRANCH  18  19
ATOM     19  C   UNL     1     -14.028  -0.680 -19.177  1.00  0.00     0.000 C 
BRANCH  19  20
ATOM     20  C   UNL     1     -13.635   0.498 -18.270  1.00  0.00     0.006 C 
BRANCH  20  21
ATOM     21  C   UNL     1     -14.100   1.853 -18.815  1.00  0.00     0.053 C 
BRANCH  21  22
ATOM     22  C   UNL     1     -13.400   2.970 -18.107  1.00  0.00     0.041 C 
ATOM     23  O   UNL     1     -13.033   3.993 -18.744  1.00  0.00    -0.550 OA
ATOM     24  O   UNL     1     -13.102   2.856 -16.753  1.00  0.00    -0.550 OA
ENDBRANCH  21  22
ENDBRANCH  20  21
ENDBRANCH  19  20
ENDBRANCH  18  19
ENDBRANCH  17  18
ENDBRANCH  16  17
ENDBRANCH  15  16
ENDBRANCH  14  15
ENDBRANCH  13  14
ENDBRANCH   1  13
TORSDOF 20
ENDMDL
MODEL 3
REMARK VINA RESULT:    -5.956      1.315      4.990
REMARK INTER + INTRA:         -16.145
REMARK INTER:                 -12.865
REMARK INTRA:                  -3.281
REMARK UNBOUND:                -3.225
REMARK SMILES CCCCCCCCCCCCCCCCCCCCCC(=O)[O-]
REMARK SMILES IDX 12 1 11 2 10 3 9 4 8 5 7 6 6 7 5 8 4 9 3 10 2 11 1 12 13 13
REMARK SMILES IDX 14 14 15 15 16 16 17 17 18 18 19 19 20 20 21 21 22 22 23 23
REMARK SMILES IDX 24 24
REMARK H PARENT
REMARK Flexibility Score: inf
ROOT
ATOM      1  C   UNL     1     -13.963   0.270 -19.771  1.00  0.00     0.000 C 
ENDROOT
BRANCH   1   2
ATOM      2  C   UNL     1     -13.756   0.852 -18.354  1.00  0.00     0.000 C 
BRANCH   2   3
ATOM      3  C   UNL     1     -13.258   2.312 -18.310  1.00  0.00     0.000 C 
BRANCH   3   4
ATOM      4  C   UNL     1     -13.808   3.175 -17.157  1.00  0.00    -0.000 C 
BRANCH   4   5
ATOM      5  C   UNL     1     -15.342   3.174 -17.071  1.00  0.00    -0.000 C 
BRANCH   5   6
ATOM      6  C   UNL     1     -15.818   2.467 -15.792  1.00  0.00    -0.000 C 
BRANCH   6   7
ATOM      7  C   UNL     1     -14.652   2.031 -14.891  1.00  0.00    -0.000 C 
BRANCH   7   8
ATOM      8  C   UNL     1     -15.126   1.517 -13.520  1.00  0.00    -0.000 C 
BRANCH   8   9
ATOM      9  C   UNL     1     -15.338   2.649 -12.497  1.00  0.00    -0.000 C 
BRANCH   9  10
ATOM     10  C   UNL     1     -16.203   2.267 -11.281  1.00  0.00    -0.000 C 
BRANCH  10  11
ATOM     11  C   UNL     1     -17.230   1.171 -11.599  1.00  0.00    -0.003 C 
ATOM     12  C   UNL     1     -17.321   0.158 -10.460  1.00  0.00     0.004 C 
ENDBRANCH  10  11
ENDBRANCH   9  10
ENDBRANCH   8   9
ENDBRANCH   7   8
ENDBRANCH   6   7
ENDBRANCH   5   6
ENDBRANCH   4   5
ENDBRANCH   3   4
ENDBRANCH   2   3
ENDBRANCH   1   2
BRANCH   1  13
ATOM     13  C   UNL     1     -15.355  -0.341 -20.002  1.00  0.00     0.000 C 
BRANCH  13  14
ATOM     14  C   UNL     1     -16.500   0.602 -19.613  1.00  0.00     0.000 C 
BRANCH  14  15
ATOM     15  C   UNL     1     -17.531  -0.114 -18.734  1.00  0.00     0.000 C 
BRANCH  15  16
ATOM     16  C   UNL     1     -17.314  -1.631 -18.752  1.00  0.00     0.000 C 
BRANCH  16  17
ATOM     17  C   UNL     1     -17.012  -2.161 -17.346  1.00  0.00     0.000 C 
BRANCH  17  18
ATOM     18  C   UNL     1     -16.437  -1.054 -16.447  1.00  0.00     0.000 C 
BRANCH  18  19
ATOM     19  C   UNL     1     -16.931  -1.173 -14.990  1.00  0.00     0.000 C 
BRANCH  19  20
ATOM     20  C   UNL     1     -18.131  -0.267 -14.673  1.00  0.00     0.006 C 
BRANCH  20  21
ATOM     21  C   UNL     1     -19.467  -1.020 -14.676  1.00  0.00     0.053 C 
BRANCH  21  22
ATOM     22  C   UNL     1     -20.420  -0.393 -15.644  1.00  0.00     0.041 C 
ATOM     23  O   UNL     1     -20.100   0.660 -16.256  1.00  0.00    -0.550 OA
ATOM     24  O   UNL     1     -21.685  -0.941 -15.827  1.00  0.00    -0.550 OA
ENDBRANCH  21  22
ENDBRANCH  20  21
ENDBRANCH  19  20
ENDBRANCH  18  19
ENDBRANCH  17  18
ENDBRANCH  16  17
ENDBRANCH  15  16
ENDBRANCH  14  15
ENDBRANCH  13  14
ENDBRANCH   1  13
TORSDOF 20
ENDMDL
MODEL 4
REMARK VINA RESULT:    -5.900      2.427      7.269
REMARK INTER + INTRA:         -16.025
REMARK INTER:                 -13.636
REMARK INTRA:                  -2.388
REMARK UNBOUND:                -3.225
REMARK SMILES CCCCCCCCCCCCCCCCCCCCCC(=O)[O-]
REMARK SMILES IDX 12 1 11 2 10 3 9 4 8 5 7 6 6 7 5 8 4 9 3 10 2 11 1 12 13 13
REMARK SMILES IDX 14 14 15 15 16 16 17 17 18 18 19 19 20 20 21 21 22 22 23 23
REMARK SMILES IDX 24 24
REMARK H PARENT
REMARK Flexibility Score: inf
ROOT
ATOM      1  C   UNL     1     -18.156  -2.627 -16.916  1.00  0.00     0.000 C 
ENDROOT
BRANCH   1   2
ATOM      2  C   UNL     1     -19.087  -2.236 -15.746  1.00  0.00     0.000 C 
BRANCH   2   3
ATOM      3  C   UNL     1     -18.991  -0.763 -15.294  1.00  0.00     0.000 C 
BRANCH   3   4
ATOM      4  C   UNL     1     -18.472  -0.534 -13.860  1.00  0.00    -0.000 C 
BRANCH   4   5
ATOM      5  C   UNL     1     -16.941  -0.578 -13.750  1.00  0.00    -0.000 C 
BRANCH   5   6
ATOM      6  C   UNL     1     -16.299   0.520 -14.612  1.00  0.00    -0.000 C 
BRANCH   6   7
ATOM      7  C   UNL     1     -15.085   1.171 -13.931  1.00  0.00    -0.000 C 
BRANCH   7   8
ATOM      8  C   UNL     1     -15.248   2.692 -13.760  1.00  0.00    -0.000 C 
BRANCH   8   9
ATOM      9  C   UNL     1     -15.427   3.113 -12.289  1.00  0.00    -0.000 C 
BRANCH   9  10
ATOM     10  C   UNL     1     -15.788   1.964 -11.328  1.00  0.00    -0.000 C 
BRANCH  10  11
ATOM     11  C   UNL     1     -17.292   1.881 -11.034  1.00  0.00    -0.003 C 
ATOM     12  C   UNL     1     -17.623   0.636 -10.214  1.00  0.00     0.004 C 
ENDBRANCH  10  11
ENDBRANCH   9  10
ENDBRANCH   8   9
ENDBRANCH   7   8
ENDBRANCH   6   7
ENDBRANCH   5   6
ENDBRANCH   4   5
ENDBRANCH   3   4
ENDBRANCH   2   3
ENDBRANCH   1   2
BRANCH   1  13
ATOM     13  C   UNL     1     -16.673  -2.299 -16.675  1.00  0.00     0.000 C 
BRANCH  13  14
ATOM     14  C   UNL     1     -15.976  -1.714 -17.910  1.00  0.00     0.000 C 
BRANCH  14  15
ATOM     15  C   UNL     1     -16.997  -1.317 -18.983  1.00  0.00     0.000 C 
BRANCH  15  16
ATOM     16  C   UNL     1     -16.621   0.017 -19.636  1.00  0.00     0.000 C 
BRANCH  16  17
ATOM     17  C   UNL     1     -15.312  -0.106 -20.425  1.00  0.00     0.000 C 
BRANCH  17  18
ATOM     18  C   UNL     1     -14.815   1.270 -20.895  1.00  0.00     0.000 C 
BRANCH  18  19
ATOM     19  C   UNL     1     -14.378   2.165 -19.717  1.00  0.00     0.000 C 
BRANCH  19  20
ATOM     20  C   UNL     1     -13.619   1.405 -18.617  1.00  0.00     0.006 C 
BRANCH  20  21
ATOM     21  C   UNL     1     -13.782   2.039 -17.231  1.00  0.00     0.053 C 
BRANCH  21  22
ATOM     22  C   UNL     1     -14.758   3.171 -17.284  1.00  0.00     0.041 C 
ATOM     23  O   UNL     1     -15.991   2.952 -17.146  1.00  0.00    -0.550 OA
ATOM     24  O   UNL     1     -14.311   4.463 -17.544  1.00  0.00    -0.550 OA
ENDBRANCH  21  22
ENDBRANCH  20  21
ENDBRANCH  19  20
ENDBRANCH  18  19
ENDBRANCH  17  18
ENDBRANCH  16  17
ENDBRANCH  15  16
ENDBRANCH  14  15
ENDBRANCH  13  14
ENDBRANCH   1  13
TORSDOF 20
ENDMDL
MODEL 5
REMARK VINA RESULT:    -5.894      2.694      7.147
REMARK INTER + INTRA:         -16.011
REMARK INTER:                 -12.741
REMARK INTRA:                  -3.270
REMARK UNBOUND:                -3.225
REMARK SMILES CCCCCCCCCCCCCCCCCCCCCC(=O)[O-]
REMARK SMILES IDX 12 1 11 2 10 3 9 4 8 5 7 6 6 7 5 8 4 9 3 10 2 11 1 12 13 13
REMARK SMILES IDX 14 14 15 15 16 16 17 17 18 18 19 19 20 20 21 21 22 22 23 23
REMARK SMILES IDX 24 24
REMARK H PARENT
REMARK Flexibility Score: inf
ROOT
ATOM      1  C   UNL     1     -19.686   0.114 -16.545  1.00  0.00     0.000 C 
ENDROOT
BRANCH   1   2
ATOM      2  C   UNL     1     -19.352  -0.606 -15.219  1.00  0.00     0.000 C 
BRANCH   2   3
ATOM      3  C   UNL     1     -18.332   0.121 -14.316  1.00  0.00     0.000 C 
BRANCH   3   4
ATOM      4  C   UNL     1     -16.969  -0.579 -14.144  1.00  0.00    -0.000 C 
BRANCH   4   5
ATOM      5  C   UNL     1     -15.845   0.063 -14.969  1.00  0.00    -0.000 C 
BRANCH   5   6
ATOM      6  C   UNL     1     -15.824   1.587 -14.772  1.00  0.00    -0.000 C 
BRANCH   6   7
ATOM      7  C   UNL     1     -14.785   2.033 -13.732  1.00  0.00    -0.000 C 
BRANCH   7   8
ATOM      8  C   UNL     1     -15.386   2.953 -12.654  1.00  0.00    -0.000 C 
BRANCH   8   9
ATOM      9  C   UNL     1     -15.821   2.188 -11.390  1.00  0.00    -0.000 C 
BRANCH   9  10
ATOM     10  C   UNL     1     -17.342   1.988 -11.248  1.00  0.00    -0.000 C 
BRANCH  10  11
ATOM     11  C   UNL     1     -17.715   0.590 -10.734  1.00  0.00    -0.003 C 
ATOM     12  C   UNL     1     -17.622   0.523  -9.212  1.00  0.00     0.004 C 
ENDBRANCH  10  11
ENDBRANCH   9  10
ENDBRANCH   8   9
ENDBRANCH   7   8
ENDBRANCH   6   7
ENDBRANCH   5   6
ENDBRANCH   4   5
ENDBRANCH   3   4
ENDBRANCH   2   3
ENDBRANCH   1   2
BRANCH   1  13
ATOM     13  C   UNL     1     -18.522   0.937 -17.123  1.00  0.00     0.000 C 
BRANCH  13  14
ATOM     14  C   UNL     1     -18.005   0.391 -18.460  1.00  0.00     0.000 C 
BRANCH  14  15
ATOM     15  C   UNL     1     -17.895  -1.138 -18.427  1.00  0.00     0.000 C 
BRANCH  15  16
ATOM     16  C   UNL     1     -16.561  -1.608 -19.017  1.00  0.00     0.000 C 
BRANCH  16  17
ATOM     17  C   UNL     1     -15.532  -1.869 -17.912  1.00  0.00     0.000 C 
BRANCH  17  18
ATOM     18  C   UNL     1     -14.184  -1.206 -18.240  1.00  0.00     0.000 C 
BRANCH  18  19
ATOM     19  C   UNL     1     -14.253  -0.356 -19.526  1.00  0.00     0.000 C 
BRANCH  19  20
ATOM     20  C   UNL     1     -14.034   1.146 -19.281  1.00  0.00     0.006 C 
BRANCH  20  21
ATOM     21  C   UNL     1     -13.918   1.499 -17.794  1.00  0.00     0.053 C 
BRANCH  21  22
ATOM     22  C   UNL     1     -13.496   2.925 -17.626  1.00  0.00     0.041 C 
ATOM     23  O   UNL     1     -12.930   3.298 -16.563  1.00  0.00    -0.550 OA
ATOM     24  O   UNL     1     -13.779   3.856 -18.621  1.00  0.00    -0.550 OA
ENDBRANCH  21  22
ENDBRANCH  20  21
ENDBRANCH  19  20
ENDBRANCH  18  19
ENDBRANCH  17  18
ENDBRANCH  16  17
ENDBRANCH  15  16
ENDBRANCH  14  15
ENDBRANCH  13  14
ENDBRANCH   1  13
TORSDOF 20
ENDMDL
MODEL 6
REMARK VINA RESULT:    -5.891      2.343      7.029
REMARK INTER + INTRA:         -16.005
REMARK INTER:                 -13.105
REMARK INTRA:                  -2.900
REMARK UNBOUND:                -3.225
REMARK SMILES CCCCCCCCCCCCCCCCCCCCCC(=O)[O-]
REMARK SMILES IDX 12 1 11 2 10 3 9 4 8 5 7 6 6 7 5 8 4 9 3 10 2 11 1 12 13 13
REMARK SMILES IDX 14 14 15 15 16 16 17 17 18 18 19 19 20 20 21 21 22 22 23 23
REMARK SMILES IDX 24 24
REMARK H PARENT
REMARK Flexibility Score: inf
ROOT
ATOM      1  C   UNL     1     -15.883   0.185 -16.246  1.00  0.00     0.000 C 
ENDROOT
BRANCH   1   2
ATOM      2  C   UNL     1     -17.104   1.124 -16.123  1.00  0.00     0.000 C 
BRANCH   2   3
ATOM      3  C   UNL     1     -18.323   0.733 -16.987  1.00  0.00     0.000 C 
BRANCH   3   4
ATOM      4  C   UNL     1     -19.375  -0.159 -16.298  1.00  0.00    -0.000 C 
BRANCH   4   5
ATOM      5  C   UNL     1     -19.366  -0.044 -14.767  1.00  0.00    -0.000 C 
BRANCH   5   6
ATOM      6  C   UNL     1     -18.929  -1.368 -14.121  1.00  0.00    -0.000 C 
BRANCH   6   7
ATOM      7  C   UNL     1     -18.064  -1.157 -12.869  1.00  0.00    -0.000 C 
BRANCH   7   8
ATOM      8  C   UNL     1     -17.877   0.332 -12.525  1.00  0.00    -0.000 C 
BRANCH   8   9
ATOM      9  C   UNL     1     -17.215   0.550 -11.152  1.00  0.00    -0.000 C 
BRANCH   9  10
ATOM     10  C   UNL     1     -16.103   1.616 -11.132  1.00  0.00    -0.000 C 
BRANCH  10  11
ATOM     11  C   UNL     1     -15.283   1.647 -12.430  1.00  0.00    -0.003 C 
ATOM     12  C   UNL     1     -15.518   2.948 -13.195  1.00  0.00     0.004 C 
ENDBRANCH  10  11
ENDBRANCH   9  10
ENDBRANCH   8   9
ENDBRANCH   7   8
ENDBRANCH   6   7
ENDBRANCH   5   6
ENDBRANCH   4   5
ENDBRANCH   3   4
ENDBRANCH   2   3
ENDBRANCH   1   2
BRANCH   1  13
ATOM     13  C   UNL     1     -16.247  -1.294 -16.458  1.00  0.00     0.000 C 
BRANCH  13  14
ATOM     14  C   UNL     1     -15.673  -1.876 -17.757  1.00  0.00     0.000 C 
BRANCH  14  15
ATOM     15  C   UNL     1     -16.614  -1.617 -18.940  1.00  0.00     0.000 C 
BRANCH  15  16
ATOM     16  C   UNL     1     -16.204  -0.354 -19.705  1.00  0.00     0.000 C 
BRANCH  16  17
ATOM     17  C   UNL     1     -14.704  -0.363 -20.019  1.00  0.00     0.000 C 
BRANCH  17  18
ATOM     18  C   UNL     1     -13.997   0.846 -19.387  1.00  0.00     0.000 C 
BRANCH  18  19
ATOM     19  C   UNL     1     -14.571   2.185 -19.892  1.00  0.00     0.000 C 
BRANCH  19  20
ATOM     20  C   UNL     1     -14.019   3.411 -19.146  1.00  0.00     0.006 C 
BRANCH  20  21
ATOM     21  C   UNL     1     -13.041   3.039 -18.026  1.00  0.00     0.053 C 
BRANCH  21  22
ATOM     22  C   UNL     1     -13.682   3.226 -16.687  1.00  0.00     0.041 C 
ATOM     23  O   UNL     1     -13.039   2.969 -15.634  1.00  0.00    -0.550 OA
ATOM     24  O   UNL     1     -15.010   3.631 -16.603  1.00  0.00    -0.550 OA
ENDBRANCH  21  22
ENDBRANCH  20  21
ENDBRANCH  19  20
ENDBRANCH  18  19
ENDBRANCH  17  18
ENDBRANCH  16  17
ENDBRANCH  15  16
ENDBRANCH  14  15
ENDBRANCH  13  14
ENDBRANCH   1  13
TORSDOF 20
ENDMDL
MODEL 7
REMARK VINA RESULT:    -5.850      1.324      5.858
REMARK INTER + INTRA:         -15.915
REMARK INTER:                 -13.350
REMARK INTRA:                  -2.565
REMARK UNBOUND:                -3.225
REMARK SMILES CCCCCCCCCCCCCCCCCCCCCC(=O)[O-]
REMARK SMILES IDX 12 1 11 2 10 3 9 4 8 5 7 6 6 7 5 8 4 9 3 10 2 11 1 12 13 13
REMARK SMILES IDX 14 14 15 15 16 16 17 17 18 18 19 19 20 20 21 21 22 22 23 23
REMARK SMILES IDX 24 24
REMARK H PARENT
REMARK Flexibility Score: inf
ROOT
ATOM      1  C   UNL     1     -13.309   3.380 -16.298  1.00  0.00     0.000 C 
ENDROOT
BRANCH   1   2
ATOM      2  C   UNL     1     -13.676   1.917 -15.961  1.00  0.00     0.000 C 
BRANCH   2   3
ATOM      3  C   UNL     1     -14.426   1.719 -14.626  1.00  0.00     0.000 C 
BRANCH   3   4
ATOM      4  C   UNL     1     -15.370   2.865 -14.211  1.00  0.00    -0.000 C 
BRANCH   4   5
ATOM      5  C   UNL     1     -15.463   3.059 -12.690  1.00  0.00    -0.000 C 
BRANCH   5   6
ATOM      6  C   UNL     1     -15.499   1.703 -11.967  1.00  0.00    -0.000 C 
BRANCH   6   7
ATOM      7  C   UNL     1     -16.725   1.554 -11.053  1.00  0.00    -0.000 C 
BRANCH   7   8
ATOM      8  C   UNL     1     -17.880   0.797 -11.733  1.00  0.00    -0.000 C 
BRANCH   8   9
ATOM      9  C   UNL     1     -17.441   0.061 -13.013  1.00  0.00    -0.000 C 
BRANCH   9  10
ATOM     10  C   UNL     1     -18.358  -1.102 -13.436  1.00  0.00    -0.000 C 
BRANCH  10  11
ATOM     11  C   UNL     1     -19.263  -0.748 -14.625  1.00  0.00    -0.003 C 
ATOM     12  C   UNL     1     -19.699  -2.005 -15.375  1.00  0.00     0.004 C 
ENDBRANCH  10  11
ENDBRANCH   9  10
ENDBRANCH   8   9
ENDBRANCH   7   8
ENDBRANCH   6   7
ENDBRANCH   5   6
ENDBRANCH   4   5
ENDBRANCH   3   4
ENDBRANCH   2   3
ENDBRANCH   1   2
BRANCH   1  13
ATOM     13  C   UNL     1     -14.008   3.931 -17.552  1.00  0.00     0.000 C 
BRANCH  13  14
ATOM     14  C   UNL     1     -13.739   3.092 -18.808  1.00  0.00     0.000 C 
BRANCH  14  15
ATOM     15  C   UNL     1     -14.841   2.047 -19.020  1.00  0.00     0.000 C 
BRANCH  15  16
ATOM     16  C   UNL     1     -14.654   1.311 -20.351  1.00  0.00     0.000 C 
BRANCH  16  17
ATOM     17  C   UNL     1     -14.481  -0.196 -20.126  1.00  0.00     0.000 C 
BRANCH  17  18
ATOM     18  C   UNL     1     -13.977  -0.491 -18.705  1.00  0.00     0.000 C 
BRANCH  18  19
ATOM     19  C   UNL     1     -14.614  -1.766 -18.114  1.00  0.00     0.000 C 
BRANCH  19  20
ATOM     20  C   UNL     1     -16.151  -1.737 -18.107  1.00  0.00     0.006 C 
BRANCH  20  21
ATOM     21  C   UNL     1     -16.724  -0.585 -17.273  1.00  0.00     0.053 C 
BRANCH  21  22
ATOM     22  C   UNL     1     -17.751   0.170 -18.058  1.00  0.00     0.041 C 
ATOM     23  O   UNL     1     -17.913  -0.069 -19.284  1.00  0.00    -0.550 OA
ATOM     24  O   UNL     1     -18.490   1.178 -17.447  1.00  0.00    -0.550 OA
ENDBRANCH  21  22
ENDBRANCH  20  21
ENDBRANCH  19  20
ENDBRANCH  18  19
ENDBRANCH  17  18
ENDBRANCH  16  17
ENDBRANCH  15  16
ENDBRANCH  14  15
ENDBRANCH  13  14
ENDBRANCH   1  13
TORSDOF 20
ENDMDL
MODEL 8
REMARK VINA RESULT:    -5.844      1.325      2.381
REMARK INTER + INTRA:         -15.901
REMARK INTER:                 -12.959
REMARK INTRA:                  -2.942
REMARK UNBOUND:                -3.225
REMARK SMILES CCCCCCCCCCCCCCCCCCCCCC(=O)[O-]
REMARK SMILES IDX 12 1 11 2 10 3 9 4 8 5 7 6 6 7 5 8 4 9 3 10 2 11 1 12 13 13
REMARK SMILES IDX 14 14 15 15 16 16 17 17 18 18 19 19 20 20 21 21 22 22 23 23
REMARK SMILES IDX 24 24
REMARK H PARENT
REMARK Flexibility Score: inf
ROOT
ATOM      1  C   UNL     1     -13.724   3.507 -17.461  1.00  0.00     0.000 C 
ENDROOT
BRANCH   1   2
ATOM      2  C   UNL     1     -13.488   2.839 -18.834  1.00  0.00     0.000 C 
BRANCH   2   3
ATOM      3  C   UNL     1     -14.717   2.120 -19.433  1.00  0.00     0.000 C 
BRANCH   3   4
ATOM      4  C   UNL     1     -14.424   0.808 -20.190  1.00  0.00    -0.000 C 
BRANCH   4   5
ATOM      5  C   UNL     1     -13.596  -0.195 -19.374  1.00  0.00    -0.000 C 
BRANCH   5   6
ATOM      6  C   UNL     1     -14.292  -0.527 -18.045  1.00  0.00    -0.000 C 
BRANCH   6   7
ATOM      7  C   UNL     1     -15.038  -1.869 -18.089  1.00  0.00    -0.000 C 
BRANCH   7   8
ATOM      8  C   UNL     1     -16.029  -2.032 -16.923  1.00  0.00    -0.000 C 
BRANCH   8   9
ATOM      9  C   UNL     1     -17.496  -1.854 -17.355  1.00  0.00    -0.000 C 
BRANCH   9  10
ATOM     10  C   UNL     1     -18.163  -0.556 -16.861  1.00  0.00    -0.000 C 
BRANCH  10  11
ATOM     11  C   UNL     1     -18.001   0.611 -17.846  1.00  0.00    -0.003 C 
ATOM     12  C   UNL     1     -17.844   0.102 -19.277  1.00  0.00     0.004 C 
ENDBRANCH  10  11
ENDBRANCH   9  10
ENDBRANCH   8   9
ENDBRANCH   7   8
ENDBRANCH   6   7
ENDBRANCH   5   6
ENDBRANCH   4   5
ENDBRANCH   3   4
ENDBRANCH   2   3
ENDBRANCH   1   2
BRANCH   1  13
ATOM     13  C   UNL     1     -15.190   3.496 -17.000  1.00  0.00     0.000 C 
BRANCH  13  14
ATOM     14  C   UNL     1     -15.489   2.399 -15.969  1.00  0.00     0.000 C 
BRANCH  14  15
ATOM     15  C   UNL     1     -14.206   1.935 -15.269  1.00  0.00     0.000 C 
BRANCH  15  16
ATOM     16  C   UNL     1     -14.393   1.888 -13.749  1.00  0.00     0.000 C 
BRANCH  16  17
ATOM     17  C   UNL     1     -15.517   2.831 -13.304  1.00  0.00     0.000 C 
BRANCH  17  18
ATOM     18  C   UNL     1     -15.831   2.655 -11.810  1.00  0.00     0.000 C 
BRANCH  18  19
ATOM     19  C   UNL     1     -15.775   1.176 -11.374  1.00  0.00     0.000 C 
BRANCH  19  20
ATOM     20  C   UNL     1     -17.154   0.575 -11.060  1.00  0.00     0.006 C 
BRANCH  20  21
ATOM     21  C   UNL     1     -18.122   0.646 -12.247  1.00  0.00     0.053 C 
BRANCH  21  22
ATOM     22  C   UNL     1     -17.885  -0.495 -13.185  1.00  0.00     0.041 C 
ATOM     23  O   UNL     1     -18.803  -1.326 -13.418  1.00  0.00    -0.550 OA
ATOM     24  O   UNL     1     -16.630  -0.673 -13.759  1.00  0.00    -0.550 OA
ENDBRANCH  21  22
ENDBRANCH  20  21
ENDBRANCH  19  20
ENDBRANCH  18  19
ENDBRANCH  17  18
ENDBRANCH  16  17
ENDBRANCH  15  16
ENDBRANCH  14  15
ENDBRANCH  13  14
ENDBRANCH   1  13
TORSDOF 20
ENDMDL
MODEL 9
REMARK VINA RESULT:    -5.819      2.112      4.742
REMARK INTER + INTRA:         -15.849
REMARK INTER:                 -12.484
REMARK INTRA:                  -3.364
REMARK UNBOUND:                -3.225
REMARK SMILES CCCCCCCCCCCCCCCCCCCCCC(=O)[O-]
REMARK SMILES IDX 12 1 11 2 10 3 9 4 8 5 7 6 6 7 5 8 4 9 3 10 2 11 1 12 13 13
REMARK SMILES IDX 14 14 15 15 16 16 17 17 18 18 19 19 20 20 21 21 22 22 23 23
REMARK SMILES IDX 24 24
REMARK H PARENT
REMARK Flexibility Score: inf
ROOT
ATOM      1  C   UNL     1     -19.240  -0.725 -16.546  1.00  0.00     0.000 C 
ENDROOT
BRANCH   1   2
ATOM      2  C   UNL     1     -18.806   0.550 -17.303  1.00  0.00     0.000 C 
BRANCH   2   3
ATOM      3  C   UNL     1     -17.672   0.350 -18.331  1.00  0.00     0.000 C 
BRANCH   3   4
ATOM      4  C   UNL     1     -17.266  -1.112 -18.606  1.00  0.00    -0.000 C 
BRANCH   4   5
ATOM      5  C   UNL     1     -15.938  -1.512 -17.946  1.00  0.00    -0.000 C 
BRANCH   5   6
ATOM      6  C   UNL     1     -14.942  -0.342 -17.970  1.00  0.00    -0.000 C 
BRANCH   6   7
ATOM      7  C   UNL     1     -14.165  -0.256 -19.293  1.00  0.00    -0.000 C 
BRANCH   7   8
ATOM      8  C   UNL     1     -14.401   1.074 -20.031  1.00  0.00    -0.000 C 
BRANCH   8   9
ATOM      9  C   UNL     1     -14.607   2.261 -19.073  1.00  0.00    -0.000 C 
BRANCH   9  10
ATOM     10  C   UNL     1     -13.307   2.888 -18.532  1.00  0.00    -0.000 C 
BRANCH  10  11
ATOM     11  C   UNL     1     -13.541   3.784 -17.308  1.00  0.00    -0.003 C 
ATOM     12  C   UNL     1     -13.000   3.130 -16.039  1.00  0.00     0.004 C 
ENDBRANCH  10  11
ENDBRANCH   9  10
ENDBRANCH   8   9
ENDBRANCH   7   8
ENDBRANCH   6   7
ENDBRANCH   5   6
ENDBRANCH   4   5
ENDBRANCH   3   4
ENDBRANCH   2   3
ENDBRANCH   1   2
BRANCH   1  13
ATOM     13  C   UNL     1     -19.762  -0.465 -15.123  1.00  0.00     0.000 C 
BRANCH  13  14
ATOM     14  C   UNL     1     -18.639  -0.289 -14.092  1.00  0.00     0.000 C 
BRANCH  14  15
ATOM     15  C   UNL     1     -17.368  -1.028 -14.529  1.00  0.00     0.000 C 
BRANCH  15  16
ATOM     16  C   UNL     1     -16.128  -0.146 -14.351  1.00  0.00     0.000 C 
BRANCH  16  17
ATOM     17  C   UNL     1     -16.382   1.272 -14.876  1.00  0.00     0.000 C 
BRANCH  17  18
ATOM     18  C   UNL     1     -15.680   2.322 -14.001  1.00  0.00     0.000 C 
BRANCH  18  19
ATOM     19  C   UNL     1     -15.172   1.726 -12.672  1.00  0.00     0.000 C 
BRANCH  19  20
ATOM     20  C   UNL     1     -15.849   2.327 -11.430  1.00  0.00     0.006 C 
BRANCH  20  21
ATOM     21  C   UNL     1     -17.328   1.942 -11.310  1.00  0.00     0.053 C 
BRANCH  21  22
ATOM     22  C   UNL     1     -17.486   0.735 -10.439  1.00  0.00     0.041 C 
ATOM     23  O   UNL     1     -17.872   0.859  -9.246  1.00  0.00    -0.550 OA
ATOM     24  O   UNL     1     -17.152  -0.524 -10.929  1.00  0.00    -0.550 OA
ENDBRANCH  21  22
ENDBRANCH  20  21
ENDBRANCH  19  20
ENDBRANCH  18  19
ENDBRANCH  17  18
ENDBRANCH  16  17
ENDBRANCH  15  16
ENDBRANCH  14  15
ENDBRANCH  13  14
ENDBRANCH   1  13
TORSDOF 20
ENDMDL
