MODEL 1
REMARK VINA RESULT:    -4.455      0.000      0.000
REMARK INTER + INTRA:         -10.095
REMARK INTER:                  -8.363
REMARK INTRA:                  -1.732
REMARK UNBOUND:                -1.732
REMARK SMILES CCCCCCCCC=CCCCCCCCC(=O)[O-]
REMARK SMILES IDX 10 1 9 2 11 3 12 4 13 5 14 6 15 7 16 8 17 9 18 10 19 11
REMARK SMILES IDX 20 12 8 13 7 14 6 15 5 16 4 17 3 18 2 19 1 20
REMARK H PARENT
REMARK Flexibility Score: inf
ROOT
ATOM      1  C   UNL     1      -7.055  25.901  23.574  1.00  0.00    -0.031 C 
ATOM      2  C   UNL     1      -7.446  25.664  22.307  1.00  0.00    -0.031 C 
ENDROOT
BRANCH   1   3
ATOM      3  C   UNL     1      -7.924  26.490  24.662  1.00  0.00     0.027 C 
BRANCH   3   4
ATOM      4  C   UNL     1      -9.059  25.532  25.068  1.00  0.00     0.004 C 
BRANCH   4   5
ATOM      5  C   UNL     1      -9.797  25.925  26.362  1.00  0.00     0.000 C 
BRANCH   5   6
ATOM      6  C   UNL     1      -9.657  27.417  26.698  1.00  0.00     0.000 C 
BRANCH   6   7
ATOM      7  C   UNL     1     -10.900  28.202  26.252  1.00  0.00     0.000 C 
BRANCH   7   8
ATOM      8  C   UNL     1     -11.125  28.169  24.728  1.00  0.00     0.006 C 
BRANCH   8   9
ATOM      9  C   UNL     1     -10.861  29.513  24.027  1.00  0.00     0.053 C 
BRANCH   9  10
ATOM     10  C   UNL     1     -10.036  29.361  22.785  1.00  0.00     0.041 C 
ATOM     11  O   UNL     1      -8.779  29.346  22.859  1.00  0.00    -0.550 OA
ATOM     12  O   UNL     1     -10.651  29.280  21.541  1.00  0.00    -0.550 OA
ENDBRANCH   9  10
ENDBRANCH   8   9
ENDBRANCH   7   8
ENDBRANCH   6   7
ENDBRANCH   5   6
ENDBRANCH   4   5
ENDBRANCH   3   4
ENDBRANCH   1   3
BRANCH   2  13
ATOM     13  C   UNL     1      -8.831  25.908  21.758  1.00  0.00     0.027 C 
BRANCH  13  14
ATOM     14  C   UNL     1      -8.832  26.513  20.342  1.00  0.00     0.004 C 
BRANCH  14  15
ATOM     15  C   UNL     1     -10.068  26.142  19.501  1.00  0.00     0.000 C 
BRANCH  15  16
ATOM     16  C   UNL     1     -10.020  24.700  18.965  1.00  0.00     0.000 C 
BRANCH  16  17
ATOM     17  C   UNL     1     -11.020  23.776  19.679  1.00  0.00    -0.000 C 
BRANCH  17  18
ATOM     18  C   UNL     1     -10.364  22.475  20.176  1.00  0.00    -0.000 C 
BRANCH  18  19
ATOM     19  C   UNL     1     -10.444  22.322  21.703  1.00  0.00    -0.003 C 
ATOM     20  C   UNL     1      -9.070  22.320  22.372  1.00  0.00     0.004 C 
ENDBRANCH  18  19
ENDBRANCH  17  18
ENDBRANCH  16  17
ENDBRANCH  15  16
ENDBRANCH  14  15
ENDBRANCH  13  14
ENDBRANCH   2  13
TORSDOF 15
ENDMDL
MODEL 2
REMARK VINA RESULT:    -4.218      2.378      6.430
REMARK INTER + INTRA:          -9.650
REMARK INTER:                  -7.837
REMARK INTRA:                  -1.812
REMARK UNBOUND:                -1.732
REMARK SMILES CCCCCCCCC=CCCCCCCCC(=O)[O-]
REMARK SMILES IDX 10 1 9 2 11 3 12 4 13 5 14 6 15 7 16 8 17 9 18 10 19 11
REMARK SMILES IDX 20 12 8 13 7 14 6 15 5 16 4 17 3 18 2 19 1 20
REMARK H PARENT
REMARK Flexibility Score: inf
ROOT
ATOM      1  C   UNL     1      -6.997  25.881  23.123  1.00  0.00    -0.031 C 
ATOM      2  C   UNL     1      -7.587  25.897  24.334  1.00  0.00    -0.031 C 
ENDROOT
BRANCH   1   3
ATOM      3  C   UNL     1      -7.560  25.220  21.885  1.00  0.00     0.027 C 
BRANCH   3   4
ATOM      4  C   UNL     1      -8.403  26.198  21.047  1.00  0.00     0.004 C 
BRANCH   4   5
ATOM      5  C   UNL     1      -9.711  25.603  20.491  1.00  0.00     0.000 C 
BRANCH   5   6
ATOM      6  C   UNL     1      -9.606  25.213  19.010  1.00  0.00     0.000 C 
BRANCH   6   7
ATOM      7  C   UNL     1     -10.214  23.824  18.761  1.00  0.00     0.000 C 
BRANCH   7   8
ATOM      8  C   UNL     1     -11.115  23.340  19.914  1.00  0.00     0.006 C 
BRANCH   8   9
ATOM      9  C   UNL     1     -10.596  22.079  20.626  1.00  0.00     0.053 C 
BRANCH   9  10
ATOM     10  C   UNL     1     -10.181  22.347  22.041  1.00  0.00     0.041 C 
ATOM     11  O   UNL     1     -11.018  22.789  22.872  1.00  0.00    -0.550 OA
ATOM     12  O   UNL     1      -8.862  22.152  22.434  1.00  0.00    -0.550 OA
ENDBRANCH   9  10
ENDBRANCH   8   9
ENDBRANCH   7   8
ENDBRANCH   6   7
ENDBRANCH   5   6
ENDBRANCH   4   5
ENDBRANCH   3   4
ENDBRANCH   1   3
BRANCH   2  13
ATOM     13  C   UNL     1      -8.930  25.290  24.661  1.00  0.00     0.027 C 
BRANCH  13  14
ATOM     14  C   UNL     1      -9.662  26.004  25.813  1.00  0.00     0.004 C 
BRANCH  14  15
ATOM     15  C   UNL     1     -10.797  26.938  25.354  1.00  0.00     0.000 C 
BRANCH  15  16
ATOM     16  C   UNL     1     -10.470  28.427  25.559  1.00  0.00     0.000 C 
BRANCH  16  17
ATOM     17  C   UNL     1      -9.094  28.809  24.991  1.00  0.00    -0.000 C 
BRANCH  17  18
ATOM     18  C   UNL     1      -9.201  29.766  23.789  1.00  0.00    -0.000 C 
BRANCH  18  19
ATOM     19  C   UNL     1      -9.634  29.047  22.501  1.00  0.00    -0.003 C 
ATOM     20  C   UNL     1     -11.125  29.206  22.205  1.00  0.00     0.004 C 
ENDBRANCH  18  19
ENDBRANCH  17  18
ENDBRANCH  16  17
ENDBRANCH  15  16
ENDBRANCH  14  15
ENDBRANCH  13  14
ENDBRANCH   2  13
TORSDOF 15
ENDMDL
MODEL 3
REMARK VINA RESULT:    -4.177      1.945      5.994
REMARK INTER + INTRA:          -9.572
REMARK INTER:                  -7.665
REMARK INTRA:                  -1.907
REMARK UNBOUND:                -1.732
REMARK SMILES CCCCCCCCC=CCCCCCCCC(=O)[O-]
REMARK SMILES IDX 10 1 9 2 11 3 12 4 13 5 14 6 15 7 16 8 17 9 18 10 19 11
REMARK SMILES IDX 20 12 8 13 7 14 6 15 5 16 4 17 3 18 2 19 1 20
REMARK H PARENT
REMARK Flexibility Score: inf
ROOT
ATOM      1  C   UNL     1      -8.231  25.404  21.799  1.00  0.00    -0.031 C 
ATOM      2  C   UNL     1      -8.183  26.738  21.618  1.00  0.00    -0.031 C 
ENDROOT
BRANCH   1   3
ATOM      3  C   UNL     1      -8.988  24.697  22.900  1.00  0.00     0.027 C 
BRANCH   3   4
ATOM      4  C   UNL     1      -9.974  23.656  22.338  1.00  0.00     0.004 C 
BRANCH   4   5
ATOM      5  C   UNL     1      -9.361  22.266  22.081  1.00  0.00     0.000 C 
BRANCH   5   6
ATOM      6  C   UNL     1     -10.076  21.498  20.961  1.00  0.00     0.000 C 
BRANCH   6   7
ATOM      7  C   UNL     1     -11.106  22.389  20.250  1.00  0.00     0.000 C 
BRANCH   7   8
ATOM      8  C   UNL     1     -10.734  22.701  18.787  1.00  0.00     0.006 C 
BRANCH   8   9
ATOM      9  C   UNL     1      -9.796  23.910  18.624  1.00  0.00     0.053 C 
BRANCH   9  10
ATOM     10  C   UNL     1     -10.534  25.165  18.265  1.00  0.00     0.041 C 
ATOM     11  O   UNL     1     -10.662  26.087  19.113  1.00  0.00    -0.550 OA
ATOM     12  O   UNL     1     -11.117  25.299  17.011  1.00  0.00    -0.550 OA
ENDBRANCH   9  10
ENDBRANCH   8   9
ENDBRANCH   7   8
ENDBRANCH   6   7
ENDBRANCH   5   6
ENDBRANCH   4   5
ENDBRANCH   3   4
ENDBRANCH   1   3
BRANCH   2  13
ATOM     13  C   UNL     1      -8.906  27.761  22.460  1.00  0.00     0.027 C 
BRANCH  13  14
ATOM     14  C   UNL     1     -10.282  28.161  21.894  1.00  0.00     0.004 C 
BRANCH  14  15
ATOM     15  C   UNL     1     -10.954  29.327  22.640  1.00  0.00     0.000 C 
BRANCH  15  16
ATOM     16  C   UNL     1     -10.212  29.724  23.929  1.00  0.00     0.000 C 
BRANCH  16  17
ATOM     17  C   UNL     1     -11.124  29.685  25.166  1.00  0.00    -0.000 C 
BRANCH  17  18
ATOM     18  C   UNL     1     -11.043  28.339  25.911  1.00  0.00    -0.000 C 
BRANCH  18  19
ATOM     19  C   UNL     1      -9.649  27.699  25.819  1.00  0.00    -0.003 C 
ATOM     20  C   UNL     1      -9.631  26.245  26.291  1.00  0.00     0.004 C 
ENDBRANCH  18  19
ENDBRANCH  17  18
ENDBRANCH  16  17
ENDBRANCH  15  16
ENDBRANCH  14  15
ENDBRANCH  13  14
ENDBRANCH   2  13
TORSDOF 15
ENDMDL
MODEL 4
REMARK VINA RESULT:    -4.107      2.393      6.160
REMARK INTER + INTRA:          -9.440
REMARK INTER:                  -7.458
REMARK INTRA:                  -1.982
REMARK UNBOUND:                -1.732
REMARK SMILES CCCCCCCCC=CCCCCCCCC(=O)[O-]
REMARK SMILES IDX 10 1 9 2 11 3 12 4 13 5 14 6 15 7 16 8 17 9 18 10 19 11
REMARK SMILES IDX 20 12 8 13 7 14 6 15 5 16 4 17 3 18 2 19 1 20
REMARK H PARENT
REMARK Flexibility Score: inf
ROOT
ATOM      1  C   UNL     1      -9.511  29.378  22.753  1.00  0.00    -0.031 C 
ATOM      2  C   UNL     1      -9.204  29.606  24.044  1.00  0.00    -0.031 C 
ENDROOT
BRANCH   1   3
ATOM      3  C   UNL     1     -10.911  29.256  22.195  1.00  0.00     0.027 C 
BRANCH   3   4
ATOM      4  C   UNL     1     -10.935  28.454  20.881  1.00  0.00     0.004 C 
BRANCH   4   5
ATOM      5  C   UNL     1     -10.721  26.938  21.051  1.00  0.00     0.000 C 
BRANCH   5   6
ATOM      6  C   UNL     1     -10.198  26.263  19.775  1.00  0.00     0.000 C 
BRANCH   6   7
ATOM      7  C   UNL     1     -10.934  24.941  19.509  1.00  0.00     0.000 C 
BRANCH   7   8
ATOM      8  C   UNL     1     -10.037  23.700  19.686  1.00  0.00     0.006 C 
BRANCH   8   9
ATOM      9  C   UNL     1      -9.078  23.787  20.886  1.00  0.00     0.053 C 
BRANCH   9  10
ATOM     10  C   UNL     1      -9.564  23.002  22.068  1.00  0.00     0.041 C 
ATOM     11  O   UNL     1      -8.881  22.042  22.513  1.00  0.00    -0.550 OA
ATOM     12  O   UNL     1     -10.790  23.301  22.651  1.00  0.00    -0.550 OA
ENDBRANCH   9  10
ENDBRANCH   8   9
ENDBRANCH   7   8
ENDBRANCH   6   7
ENDBRANCH   5   6
ENDBRANCH   4   5
ENDBRANCH   3   4
ENDBRANCH   1   3
BRANCH   2  13
ATOM     13  C   UNL     1     -10.202  29.816  25.157  1.00  0.00     0.027 C 
BRANCH  13  14
ATOM     14  C   UNL     1     -11.125  28.605  25.391  1.00  0.00     0.004 C 
BRANCH  14  15
ATOM     15  C   UNL     1     -10.841  27.842  26.697  1.00  0.00     0.000 C 
BRANCH  15  16
ATOM     16  C   UNL     1      -9.508  27.074  26.668  1.00  0.00     0.000 C 
BRANCH  16  17
ATOM     17  C   UNL     1      -9.610  25.754  25.885  1.00  0.00    -0.000 C 
BRANCH  17  18
ATOM     18  C   UNL     1      -9.205  25.915  24.409  1.00  0.00    -0.000 C 
BRANCH  18  19
ATOM     19  C   UNL     1      -7.690  26.110  24.232  1.00  0.00    -0.003 C 
ATOM     20  C   UNL     1      -7.264  26.152  22.765  1.00  0.00     0.004 C 
ENDBRANCH  18  19
ENDBRANCH  17  18
ENDBRANCH  16  17
ENDBRANCH  15  16
ENDBRANCH  14  15
ENDBRANCH  13  14
ENDBRANCH   2  13
TORSDOF 15
ENDMDL
MODEL 5
REMARK VINA RESULT:    -4.023      1.375      6.079
REMARK INTER + INTRA:          -9.282
REMARK INTER:                  -7.759
REMARK INTRA:                  -1.523
REMARK UNBOUND:                -1.732
REMARK SMILES CCCCCCCCC=CCCCCCCCC(=O)[O-]
REMARK SMILES IDX 10 1 9 2 11 3 12 4 13 5 14 6 15 7 16 8 17 9 18 10 19 11
REMARK SMILES IDX 20 12 8 13 7 14 6 15 5 16 4 17 3 18 2 19 1 20
REMARK H PARENT
REMARK Flexibility Score: inf
ROOT
ATOM      1  C   UNL     1      -8.030  23.882  21.914  1.00  0.00    -0.031 C 
ATOM      2  C   UNL     1      -8.093  25.070  22.546  1.00  0.00    -0.031 C 
ENDROOT
BRANCH   1   3
ATOM      3  C   UNL     1      -8.990  22.731  22.116  1.00  0.00     0.027 C 
BRANCH   3   4
ATOM      4  C   UNL     1     -10.432  23.117  21.741  1.00  0.00     0.004 C 
BRANCH   4   5
ATOM      5  C   UNL     1     -11.002  22.361  20.526  1.00  0.00     0.000 C 
BRANCH   5   6
ATOM      6  C   UNL     1     -10.243  22.663  19.226  1.00  0.00     0.000 C 
BRANCH   6   7
ATOM      7  C   UNL     1     -11.109  23.485  18.259  1.00  0.00     0.000 C 
BRANCH   7   8
ATOM      8  C   UNL     1     -10.615  24.934  18.084  1.00  0.00     0.006 C 
BRANCH   8   9
ATOM      9  C   UNL     1      -9.481  25.329  19.046  1.00  0.00     0.053 C 
BRANCH   9  10
ATOM     10  C   UNL     1      -9.837  26.507  19.902  1.00  0.00     0.041 C 
ATOM     11  O   UNL     1     -10.978  26.584  20.428  1.00  0.00    -0.550 OA
ATOM     12  O   UNL     1      -8.925  27.540  20.086  1.00  0.00    -0.550 OA
ENDBRANCH   9  10
ENDBRANCH   8   9
ENDBRANCH   7   8
ENDBRANCH   6   7
ENDBRANCH   5   6
ENDBRANCH   4   5
ENDBRANCH   3   4
ENDBRANCH   1   3
BRANCH   2  13
ATOM     13  C   UNL     1      -9.153  25.476  23.541  1.00  0.00     0.027 C 
BRANCH  13  14
ATOM     14  C   UNL     1      -8.623  25.620  24.980  1.00  0.00     0.004 C 
BRANCH  14  15
ATOM     15  C   UNL     1      -8.695  27.054  25.535  1.00  0.00     0.000 C 
BRANCH  15  16
ATOM     16  C   UNL     1     -10.075  27.405  26.119  1.00  0.00     0.000 C 
BRANCH  16  17
ATOM     17  C   UNL     1     -10.720  28.610  25.414  1.00  0.00    -0.000 C 
BRANCH  17  18
ATOM     18  C   UNL     1     -11.018  28.330  23.930  1.00  0.00    -0.000 C 
BRANCH  18  19
ATOM     19  C   UNL     1     -10.244  29.265  22.987  1.00  0.00    -0.003 C 
ATOM     20  C   UNL     1      -8.901  29.712  23.565  1.00  0.00     0.004 C 
ENDBRANCH  18  19
ENDBRANCH  17  18
ENDBRANCH  16  17
ENDBRANCH  15  16
ENDBRANCH  14  15
ENDBRANCH  13  14
ENDBRANCH   2  13
TORSDOF 15
ENDMDL
MODEL 6
REMARK VINA RESULT:    -3.969      1.301      2.613
REMARK INTER + INTRA:          -9.182
REMARK INTER:                  -7.409
REMARK INTRA:                  -1.773
REMARK UNBOUND:                -1.732
REMARK SMILES CCCCCCCCC=CCCCCCCCC(=O)[O-]
REMARK SMILES IDX 10 1 9 2 11 3 12 4 13 5 14 6 15 7 16 8 17 9 18 10 19 11
REMARK SMILES IDX 20 12 8 13 7 14 6 15 5 16 4 17 3 18 2 19 1 20
REMARK H PARENT
REMARK Flexibility Score: inf
ROOT
ATOM      1  C   UNL     1      -6.964  25.622  22.395  1.00  0.00    -0.031 C 
ATOM      2  C   UNL     1      -7.435  24.532  21.758  1.00  0.00    -0.031 C 
ENDROOT
BRANCH   1   3
ATOM      3  C   UNL     1      -7.789  26.563  23.243  1.00  0.00     0.027 C 
BRANCH   3   4
ATOM      4  C   UNL     1      -7.654  26.248  24.744  1.00  0.00     0.004 C 
BRANCH   4   5
ATOM      5  C   UNL     1      -8.993  26.086  25.489  1.00  0.00     0.000 C 
BRANCH   5   6
ATOM      6  C   UNL     1     -10.144  25.667  24.562  1.00  0.00     0.000 C 
BRANCH   6   7
ATOM      7  C   UNL     1     -11.114  26.835  24.327  1.00  0.00     0.000 C 
BRANCH   7   8
ATOM      8  C   UNL     1     -10.881  28.021  25.283  1.00  0.00     0.006 C 
BRANCH   8   9
ATOM      9  C   UNL     1     -10.890  29.394  24.590  1.00  0.00     0.053 C 
BRANCH   9  10
ATOM     10  C   UNL     1      -9.681  29.612  23.731  1.00  0.00     0.041 C 
ATOM     11  O   UNL     1      -8.549  29.768  24.260  1.00  0.00    -0.550 OA
ATOM     12  O   UNL     1      -9.808  29.686  22.348  1.00  0.00    -0.550 OA
ENDBRANCH   9  10
ENDBRANCH   8   9
ENDBRANCH   7   8
ENDBRANCH   6   7
ENDBRANCH   5   6
ENDBRANCH   4   5
ENDBRANCH   3   4
ENDBRANCH   1   3
BRANCH   2  13
ATOM     13  C   UNL     1      -8.860  24.036  21.807  1.00  0.00     0.027 C 
BRANCH  13  14
ATOM     14  C   UNL     1      -9.033  22.747  22.632  1.00  0.00     0.004 C 
BRANCH  14  15
ATOM     15  C   UNL     1     -10.111  21.793  22.087  1.00  0.00     0.000 C 
BRANCH  15  16
ATOM     16  C   UNL     1      -9.863  21.376  20.627  1.00  0.00     0.000 C 
BRANCH  16  17
ATOM     17  C   UNL     1     -11.121  21.521  19.754  1.00  0.00    -0.000 C 
BRANCH  17  18
ATOM     18  C   UNL     1     -10.860  22.351  18.484  1.00  0.00    -0.000 C 
BRANCH  18  19
ATOM     19  C   UNL     1      -9.988  23.587  18.757  1.00  0.00    -0.003 C 
ATOM     20  C   UNL     1     -10.466  24.829  18.006  1.00  0.00     0.004 C 
ENDBRANCH  18  19
ENDBRANCH  17  18
ENDBRANCH  16  17
ENDBRANCH  15  16
ENDBRANCH  14  15
ENDBRANCH  13  14
ENDBRANCH   2  13
TORSDOF 15
ENDMDL
MODEL 7
REMARK VINA RESULT:    -3.823      1.969      3.789
REMARK INTER + INTRA:          -8.908
REMARK INTER:                  -7.181
REMARK INTRA:                  -1.727
REMARK UNBOUND:                -1.732
REMARK SMILES CCCCCCCCC=CCCCCCCCC(=O)[O-]
REMARK SMILES IDX 10 1 9 2 11 3 12 4 13 5 14 6 15 7 16 8 17 9 18 10 19 11
REMARK SMILES IDX 20 12 8 13 7 14 6 15 5 16 4 17 3 18 2 19 1 20
REMARK H PARENT
REMARK Flexibility Score: inf
ROOT
ATOM      1  C   UNL     1      -8.265  26.055  21.768  1.00  0.00    -0.031 C 
ATOM      2  C   UNL     1      -7.902  24.831  22.196  1.00  0.00    -0.031 C 
ENDROOT
BRANCH   1   3
ATOM      3  C   UNL     1      -9.673  26.607  21.789  1.00  0.00     0.027 C 
BRANCH   3   4
ATOM      4  C   UNL     1      -9.698  28.095  22.181  1.00  0.00     0.004 C 
BRANCH   4   5
ATOM      5  C   UNL     1     -11.001  28.558  22.858  1.00  0.00     0.000 C 
BRANCH   5   6
ATOM      6  C   UNL     1     -10.815  29.824  23.708  1.00  0.00     0.000 C 
BRANCH   6   7
ATOM      7  C   UNL     1     -10.264  29.478  25.099  1.00  0.00     0.000 C 
BRANCH   7   8
ATOM      8  C   UNL     1     -11.125  28.446  25.854  1.00  0.00     0.006 C 
BRANCH   8   9
ATOM      9  C   UNL     1     -10.348  27.631  26.902  1.00  0.00     0.053 C 
BRANCH   9  10
ATOM     10  C   UNL     1     -10.183  26.194  26.506  1.00  0.00     0.041 C 
ATOM     11  O   UNL     1      -9.573  25.896  25.445  1.00  0.00    -0.550 OA
ATOM     12  O   UNL     1     -10.740  25.185  27.284  1.00  0.00    -0.550 OA
ENDBRANCH   9  10
ENDBRANCH   8   9
ENDBRANCH   7   8
ENDBRANCH   6   7
ENDBRANCH   5   6
ENDBRANCH   4   5
ENDBRANCH   3   4
ENDBRANCH   1   3
BRANCH   2  13
ATOM     13  C   UNL     1      -8.827  23.807  22.807  1.00  0.00     0.027 C 
BRANCH  13  14
ATOM     14  C   UNL     1      -8.794  22.444  22.090  1.00  0.00     0.004 C 
BRANCH  14  15
ATOM     15  C   UNL     1     -10.176  21.784  21.932  1.00  0.00     0.000 C 
BRANCH  15  16
ATOM     16  C   UNL     1     -10.555  21.527  20.462  1.00  0.00     0.000 C 
BRANCH  16  17
ATOM     17  C   UNL     1     -11.123  22.780  19.776  1.00  0.00    -0.000 C 
BRANCH  17  18
ATOM     18  C   UNL     1     -10.320  23.177  18.524  1.00  0.00    -0.000 C 
BRANCH  18  19
ATOM     19  C   UNL     1      -9.413  24.394  18.767  1.00  0.00    -0.003 C 
ATOM     20  C   UNL     1     -10.123  25.724  18.522  1.00  0.00     0.004 C 
ENDBRANCH  18  19
ENDBRANCH  17  18
ENDBRANCH  16  17
ENDBRANCH  15  16
ENDBRANCH  14  15
ENDBRANCH  13  14
ENDBRANCH   2  13
TORSDOF 15
ENDMDL
MODEL 8
REMARK VINA RESULT:    -3.666      1.817      3.479
REMARK INTER + INTRA:          -8.612
REMARK INTER:                  -7.053
REMARK INTRA:                  -1.560
REMARK UNBOUND:                -1.732
REMARK SMILES CCCCCCCCC=CCCCCCCCC(=O)[O-]
REMARK SMILES IDX 10 1 9 2 11 3 12 4 13 5 14 6 15 7 16 8 17 9 18 10 19 11
REMARK SMILES IDX 20 12 8 13 7 14 6 15 5 16 4 17 3 18 2 19 1 20
REMARK H PARENT
REMARK Flexibility Score: inf
ROOT
ATOM      1  C   UNL     1      -9.287  27.227  20.989  1.00  0.00    -0.031 C 
ATOM      2  C   UNL     1      -9.197  26.201  20.121  1.00  0.00    -0.031 C 
ENDROOT
BRANCH   1   3
ATOM      3  C   UNL     1     -10.311  28.337  20.928  1.00  0.00     0.027 C 
BRANCH   3   4
ATOM      4  C   UNL     1     -11.123  28.439  22.233  1.00  0.00     0.004 C 
BRANCH   4   5
ATOM      5  C   UNL     1     -10.494  29.343  23.310  1.00  0.00     0.000 C 
BRANCH   5   6
ATOM      6  C   UNL     1      -8.975  29.155  23.434  1.00  0.00     0.000 C 
BRANCH   6   7
ATOM      7  C   UNL     1      -8.613  28.450  24.750  1.00  0.00     0.000 C 
BRANCH   7   8
ATOM      8  C   UNL     1      -9.844  28.074  25.598  1.00  0.00     0.006 C 
BRANCH   8   9
ATOM      9  C   UNL     1      -9.948  26.573  25.919  1.00  0.00     0.053 C 
BRANCH   9  10
ATOM     10  C   UNL     1      -9.476  25.709  24.788  1.00  0.00     0.041 C 
ATOM     11  O   UNL     1     -10.236  25.474  23.812  1.00  0.00    -0.550 OA
ATOM     12  O   UNL     1      -8.213  25.129  24.830  1.00  0.00    -0.550 OA
ENDBRANCH   9  10
ENDBRANCH   8   9
ENDBRANCH   7   8
ENDBRANCH   6   7
ENDBRANCH   5   6
ENDBRANCH   4   5
ENDBRANCH   3   4
ENDBRANCH   1   3
BRANCH   2  13
ATOM     13  C   UNL     1     -10.125  25.957  18.956  1.00  0.00     0.027 C 
BRANCH  13  14
ATOM     14  C   UNL     1     -10.219  24.475  18.545  1.00  0.00     0.004 C 
BRANCH  14  15
ATOM     15  C   UNL     1     -11.041  23.606  19.514  1.00  0.00     0.000 C 
BRANCH  15  16
ATOM     16  C   UNL     1     -10.840  22.097  19.288  1.00  0.00     0.000 C 
BRANCH  16  17
ATOM     17  C   UNL     1     -10.476  21.354  20.584  1.00  0.00    -0.000 C 
BRANCH  17  18
ATOM     18  C   UNL     1     -10.432  22.292  21.805  1.00  0.00    -0.000 C 
BRANCH  18  19
ATOM     19  C   UNL     1      -9.030  22.382  22.428  1.00  0.00    -0.003 C 
ATOM     20  C   UNL     1      -8.161  23.460  21.782  1.00  0.00     0.004 C 
ENDBRANCH  18  19
ENDBRANCH  17  18
ENDBRANCH  16  17
ENDBRANCH  15  16
ENDBRANCH  14  15
ENDBRANCH  13  14
ENDBRANCH   2  13
TORSDOF 15
ENDMDL
MODEL 9
REMARK VINA RESULT:    -3.496      1.195      3.189
REMARK INTER + INTRA:          -8.293
REMARK INTER:                  -6.476
REMARK INTRA:                  -1.817
REMARK UNBOUND:                -1.732
REMARK SMILES CCCCCCCCC=CCCCCCCCC(=O)[O-]
REMARK SMILES IDX 10 1 9 2 11 3 12 4 13 5 14 6 15 7 16 8 17 9 18 10 19 11
REMARK SMILES IDX 20 12 8 13 7 14 6 15 5 16 4 17 3 18 2 19 1 20
REMARK H PARENT
REMARK Flexibility Score: inf
ROOT
ATOM      1  C   UNL     1      -9.131  22.066  22.116  1.00  0.00    -0.031 C 
ATOM      2  C   UNL     1     -10.064  21.552  21.292  1.00  0.00    -0.031 C 
ENDROOT
BRANCH   1   3
ATOM      3  C   UNL     1      -8.826  23.538  22.282  1.00  0.00     0.027 C 
BRANCH   3   4
ATOM      4  C   UNL     1      -9.516  24.128  23.525  1.00  0.00     0.004 C 
BRANCH   4   5
ATOM      5  C   UNL     1      -8.749  25.284  24.196  1.00  0.00     0.000 C 
BRANCH   5   6
ATOM      6  C   UNL     1      -8.950  25.329  25.717  1.00  0.00     0.000 C 
BRANCH   6   7
ATOM      7  C   UNL     1      -9.410  26.723  26.172  1.00  0.00     0.000 C 
BRANCH   7   8
ATOM      8  C   UNL     1      -9.031  27.841  25.182  1.00  0.00     0.006 C 
BRANCH   8   9
ATOM      9  C   UNL     1     -10.138  28.887  24.966  1.00  0.00     0.053 C 
BRANCH   9  10
ATOM     10  C   UNL     1     -10.028  29.575  23.638  1.00  0.00     0.041 C 
ATOM     11  O   UNL     1      -8.961  30.161  23.316  1.00  0.00    -0.550 OA
ATOM     12  O   UNL     1     -11.117  29.608  22.774  1.00  0.00    -0.550 OA
ENDBRANCH   9  10
ENDBRANCH   8   9
ENDBRANCH   7   8
ENDBRANCH   6   7
ENDBRANCH   5   6
ENDBRANCH   4   5
ENDBRANCH   3   4
ENDBRANCH   1   3
BRANCH   2  13
ATOM     13  C   UNL     1     -10.996  22.354  20.417  1.00  0.00     0.027 C 
BRANCH  13  14
ATOM     14  C   UNL     1     -10.404  22.689  19.035  1.00  0.00     0.004 C 
BRANCH  14  15
ATOM     15  C   UNL     1     -11.124  23.838  18.305  1.00  0.00     0.000 C 
BRANCH  15  16
ATOM     16  C   UNL     1     -10.155  24.891  17.737  1.00  0.00     0.000 C 
BRANCH  16  17
ATOM     17  C   UNL     1      -9.602  25.824  18.826  1.00  0.00    -0.000 C 
BRANCH  17  18
ATOM     18  C   UNL     1     -10.568  25.976  20.015  1.00  0.00    -0.000 C 
BRANCH  18  19
ATOM     19  C   UNL     1     -10.021  26.915  21.103  1.00  0.00    -0.003 C 
ATOM     20  C   UNL     1      -8.494  26.923  21.168  1.00  0.00     0.004 C 
ENDBRANCH  18  19
ENDBRANCH  17  18
ENDBRANCH  16  17
ENDBRANCH  15  16
ENDBRANCH  14  15
ENDBRANCH  13  14
ENDBRANCH   2  13
TORSDOF 15
ENDMDL
