MODEL 1
REMARK VINA RESULT:    -3.542      0.000      0.000
REMARK INTER + INTRA:          -3.646
REMARK INTER:                  -3.646
REMARK INTRA:                   0.000
REMARK UNBOUND:                 0.000
REMARK SMILES CC1(C)[C@H]2CC[C@](C)(C2)[C@H]1O
REMARK SMILES IDX 1 1 2 2 4 3 5 4 6 5 7 6 9 7 10 8 8 9 3 10 11 11
REMARK H PARENT 11 12
REMARK Flexibility Score: inf
ROOT
ATOM      1  C   UNL     1     136.494 150.313 144.990  1.00  0.00     0.014 C 
ATOM      2  C   UNL     1     136.757 148.842 144.582  1.00  0.00    -0.006 C 
ATOM      3  C   UNL     1     136.753 147.928 145.859  1.00  0.00    -0.002 C 
ATOM      4  C   UNL     1     136.732 146.431 145.482  1.00  0.00     0.005 C 
ATOM      5  C   UNL     1     138.129 146.206 144.885  1.00  0.00     0.010 C 
ATOM      6  C   UNL     1     138.806 147.590 145.055  1.00  0.00    -0.006 C 
ATOM      7  C   UNL     1     138.187 148.045 146.361  1.00  0.00     0.013 C 
ATOM      8  C   UNL     1     138.228 148.658 144.080  1.00  0.00     0.126 C 
ATOM      9  C   UNL     1     140.336 147.532 145.077  1.00  0.00     0.014 C 
ATOM     10  C   UNL     1     135.671 148.462 143.541  1.00  0.00     0.014 C 
ENDROOT
BRANCH   8  11
ATOM     11  O   UNL     1     138.376 148.356 142.710  1.00  0.00    -0.392 OA
ATOM     12  H   UNL     1     139.154 148.837 142.342  1.00  0.00     0.211 HD
ENDBRANCH   8  11
TORSDOF 1
ENDMDL
MODEL 2
REMARK VINA RESULT:    -3.538      9.746     11.410
REMARK INTER + INTRA:          -3.642
REMARK INTER:                  -3.642
REMARK INTRA:                   0.000
REMARK UNBOUND:                 0.000
REMARK SMILES CC1(C)[C@H]2CC[C@](C)(C2)[C@H]1O
REMARK SMILES IDX 1 1 2 2 4 3 5 4 6 5 7 6 9 7 10 8 8 9 3 10 11 11
REMARK H PARENT 11 12
REMARK Flexibility Score: inf
ROOT
ATOM      1  C   UNL     1     150.340 145.163 145.047  1.00  0.00     0.014 C 
ATOM      2  C   UNL     1     148.876 144.885 144.625  1.00  0.00    -0.006 C 
ATOM      3  C   UNL     1     147.949 144.884 145.892  1.00  0.00    -0.002 C 
ATOM      4  C   UNL     1     146.456 144.890 145.500  1.00  0.00     0.005 C 
ATOM      5  C   UNL     1     146.251 143.488 144.906  1.00  0.00     0.010 C 
ATOM      6  C   UNL     1     147.638 142.826 145.093  1.00  0.00    -0.006 C 
ATOM      7  C   UNL     1     148.075 143.454 146.401  1.00  0.00     0.013 C 
ATOM      8  C   UNL     1     148.711 143.409 144.126  1.00  0.00     0.126 C 
ATOM      9  C   UNL     1     147.595 141.295 145.120  1.00  0.00     0.014 C 
ATOM     10  C   UNL     1     148.497 145.963 143.576  1.00  0.00     0.014 C 
ENDROOT
BRANCH   8  11
ATOM     11  O   UNL     1     148.424 143.254 142.754  1.00  0.00    -0.392 OA
ATOM     12  H   UNL     1     148.706 144.060 142.259  1.00  0.00     0.211 HD
ENDBRANCH   8  11
TORSDOF 1
ENDMDL
MODEL 3
REMARK VINA RESULT:    -3.528     10.466     12.222
REMARK INTER + INTRA:          -3.632
REMARK INTER:                  -3.632
REMARK INTRA:                   0.000
REMARK UNBOUND:                 0.000
REMARK SMILES CC1(C)[C@H]2CC[C@](C)(C2)[C@H]1O
REMARK SMILES IDX 1 1 2 2 4 3 5 4 6 5 7 6 9 7 10 8 8 9 3 10 11 11
REMARK H PARENT 11 12
REMARK Flexibility Score: inf
ROOT
ATOM      1  C   UNL     1     135.898 135.852 145.925  1.00  0.00     0.014 C 
ATOM      2  C   UNL     1     135.138 136.594 144.797  1.00  0.00    -0.006 C 
ATOM      3  C   UNL     1     134.528 137.928 145.356  1.00  0.00    -0.002 C 
ATOM      4  C   UNL     1     134.005 138.831 144.218  1.00  0.00     0.005 C 
ATOM      5  C   UNL     1     132.778 138.063 143.706  1.00  0.00     0.010 C 
ATOM      6  C   UNL     1     132.708 136.844 144.660  1.00  0.00    -0.006 C 
ATOM      7  C   UNL     1     133.202 137.470 145.949  1.00  0.00     0.013 C 
ATOM      8  C   UNL     1     133.843 135.812 144.392  1.00  0.00     0.126 C 
ATOM      9  C   UNL     1     131.314 136.220 144.766  1.00  0.00     0.014 C 
ATOM     10  C   UNL     1     136.148 136.808 143.638  1.00  0.00     0.014 C 
ENDROOT
BRANCH   8  11
ATOM     11  O   UNL     1     133.844 135.252 143.098  1.00  0.00    -0.392 OA
ATOM     12  H   UNL     1     134.709 135.429 142.657  1.00  0.00     0.211 HD
ENDBRANCH   8  11
TORSDOF 1
ENDMDL
MODEL 4
REMARK VINA RESULT:    -3.516     14.254     15.816
REMARK INTER + INTRA:          -3.619
REMARK INTER:                  -3.619
REMARK INTRA:                   0.000
REMARK UNBOUND:                 0.000
REMARK SMILES CC1(C)[C@H]2CC[C@](C)(C2)[C@H]1O
REMARK SMILES IDX 1 1 2 2 4 3 5 4 6 5 7 6 9 7 10 8 8 9 3 10 11 11
REMARK H PARENT 11 12
REMARK Flexibility Score: inf
ROOT
ATOM      1  C   UNL     1     145.703 135.942 145.927  1.00  0.00     0.014 C 
ATOM      2  C   UNL     1     144.980 135.184 144.786  1.00  0.00    -0.006 C 
ATOM      3  C   UNL     1     143.639 134.569 145.324  1.00  0.00    -0.002 C 
ATOM      4  C   UNL     1     142.755 134.048 144.171  1.00  0.00     0.005 C 
ATOM      5  C   UNL     1     143.533 132.823 143.666  1.00  0.00     0.010 C 
ATOM      6  C   UNL     1     144.738 132.753 144.638  1.00  0.00    -0.006 C 
ATOM      7  C   UNL     1     144.092 133.242 145.919  1.00  0.00     0.013 C 
ATOM      8  C   UNL     1     145.771 133.892 144.389  1.00  0.00     0.126 C 
ATOM      9  C   UNL     1     145.364 131.360 144.748  1.00  0.00     0.014 C 
ATOM     10  C   UNL     1     144.781 136.197 143.628  1.00  0.00     0.014 C 
ENDROOT
BRANCH   8  11
ATOM     11  O   UNL     1     146.350 133.899 143.103  1.00  0.00    -0.392 OA
ATOM     12  H   UNL     1     145.830 133.318 142.498  1.00  0.00     0.211 HD
ENDBRANCH   8  11
TORSDOF 1
ENDMDL
MODEL 5
REMARK VINA RESULT:    -3.484      8.720     10.595
REMARK INTER + INTRA:          -3.586
REMARK INTER:                  -3.586
REMARK INTRA:                   0.000
REMARK UNBOUND:                 0.000
REMARK SMILES CC1(C)[C@H]2CC[C@](C)(C2)[C@H]1O
REMARK SMILES IDX 1 1 2 2 4 3 5 4 6 5 7 6 9 7 10 8 8 9 3 10 11 11
REMARK H PARENT 11 12
REMARK Flexibility Score: inf
ROOT
ATOM      1  C   UNL     1     145.679 145.710 145.888  1.00  0.00     0.014 C 
ATOM      2  C   UNL     1     146.466 144.953 144.790  1.00  0.00    -0.006 C 
ATOM      3  C   UNL     1     147.104 143.652 145.394  1.00  0.00    -0.002 C 
ATOM      4  C   UNL     1     147.657 142.728 144.288  1.00  0.00     0.005 C 
ATOM      5  C   UNL     1     148.870 143.510 143.762  1.00  0.00     0.010 C 
ATOM      6  C   UNL     1     148.903 144.758 144.679  1.00  0.00    -0.006 C 
ATOM      7  C   UNL     1     148.413 144.160 145.983  1.00  0.00     0.013 C 
ATOM      8  C   UNL     1     147.746 145.754 144.371  1.00  0.00     0.126 C 
ATOM      9  C   UNL     1     150.281 145.419 144.776  1.00  0.00     0.014 C 
ATOM     10  C   UNL     1     145.472 144.680 143.630  1.00  0.00     0.014 C 
ENDROOT
BRANCH   8  11
ATOM     11  O   UNL     1     147.742 146.274 143.061  1.00  0.00    -0.392 OA
ATOM     12  H   UNL     1     148.392 145.785 142.503  1.00  0.00     0.211 HD
ENDBRANCH   8  11
TORSDOF 1
ENDMDL
MODEL 6
REMARK VINA RESULT:    -3.484      9.728     11.401
REMARK INTER + INTRA:          -3.585
REMARK INTER:                  -3.585
REMARK INTRA:                   0.000
REMARK UNBOUND:                 0.000
REMARK SMILES CC1(C)[C@H]2CC[C@](C)(C2)[C@H]1O
REMARK SMILES IDX 1 1 2 2 4 3 5 4 6 5 7 6 9 7 10 8 8 9 3 10 11 11
REMARK H PARENT 11 12
REMARK Flexibility Score: inf
ROOT
ATOM      1  C   UNL     1     131.260 136.443 145.094  1.00  0.00     0.014 C 
ATOM      2  C   UNL     1     132.716 136.752 144.666  1.00  0.00    -0.006 C 
ATOM      3  C   UNL     1     133.646 136.786 145.930  1.00  0.00    -0.002 C 
ATOM      4  C   UNL     1     135.138 136.811 145.534  1.00  0.00     0.005 C 
ATOM      5  C   UNL     1     135.309 138.211 144.927  1.00  0.00     0.010 C 
ATOM      6  C   UNL     1     133.906 138.843 145.111  1.00  0.00    -0.006 C 
ATOM      7  C   UNL     1     133.488 138.217 146.427  1.00  0.00     0.013 C 
ATOM      8  C   UNL     1     132.845 138.226 144.153  1.00  0.00     0.126 C 
ATOM      9  C   UNL     1     133.914 140.374 145.125  1.00  0.00     0.014 C 
ATOM     10  C   UNL     1     133.118 135.673 143.625  1.00  0.00     0.014 C 
ENDROOT
BRANCH   8  11
ATOM     11  O   UNL     1     133.125 138.375 142.779  1.00  0.00    -0.392 OA
ATOM     12  H   UNL     1     132.976 137.519 142.311  1.00  0.00     0.211 HD
ENDBRANCH   8  11
TORSDOF 1
ENDMDL
MODEL 7
REMARK VINA RESULT:    -3.482      0.873      3.338
REMARK INTER + INTRA:          -3.583
REMARK INTER:                  -3.583
REMARK INTRA:                   0.000
REMARK UNBOUND:                 0.000
REMARK SMILES CC1(C)[C@H]2CC[C@](C)(C2)[C@H]1O
REMARK SMILES IDX 1 1 2 2 4 3 5 4 6 5 7 6 9 7 10 8 8 9 3 10 11 11
REMARK H PARENT 11 12
REMARK Flexibility Score: inf
ROOT
ATOM      1  C   UNL     1     139.126 145.257 144.982  1.00  0.00     0.014 C 
ATOM      2  C   UNL     1     138.924 146.792 145.030  1.00  0.00    -0.006 C 
ATOM      3  C   UNL     1     138.040 147.174 146.270  1.00  0.00    -0.002 C 
ATOM      4  C   UNL     1     138.043 148.697 146.519  1.00  0.00     0.005 C 
ATOM      5  C   UNL     1     137.241 149.242 145.327  1.00  0.00     0.010 C 
ATOM      6  C   UNL     1     136.819 147.954 144.576  1.00  0.00    -0.006 C 
ATOM      7  C   UNL     1     136.623 147.003 145.739  1.00  0.00     0.013 C 
ATOM      8  C   UNL     1     138.014 147.270 143.848  1.00  0.00     0.126 C 
ATOM      9  C   UNL     1     135.576 148.129 143.698  1.00  0.00     0.014 C 
ATOM     10  C   UNL     1     140.338 147.432 145.051  1.00  0.00     0.014 C 
ENDROOT
BRANCH   8  11
ATOM     11  O   UNL     1     138.647 148.063 142.869  1.00  0.00    -0.392 OA
ATOM     12  H   UNL     1     138.206 147.933 141.996  1.00  0.00     0.211 HD
ENDBRANCH   8  11
TORSDOF 1
ENDMDL
MODEL 8
REMARK VINA RESULT:    -3.479      1.327      3.116
REMARK INTER + INTRA:          -3.581
REMARK INTER:                  -3.581
REMARK INTRA:                   0.000
REMARK UNBOUND:                 0.000
REMARK SMILES CC1(C)[C@H]2CC[C@](C)(C2)[C@H]1O
REMARK SMILES IDX 1 1 2 2 4 3 5 4 6 5 7 6 9 7 10 8 8 9 3 10 11 11
REMARK H PARENT 11 12
REMARK Flexibility Score: inf
ROOT
ATOM      1  C   UNL     1     135.834 145.678 145.848  1.00  0.00     0.014 C 
ATOM      2  C   UNL     1     136.606 146.481 144.772  1.00  0.00    -0.006 C 
ATOM      3  C   UNL     1     137.869 147.154 145.416  1.00  0.00    -0.002 C 
ATOM      4  C   UNL     1     138.815 147.729 144.340  1.00  0.00     0.005 C 
ATOM      5  C   UNL     1     138.020 148.920 143.784  1.00  0.00     0.010 C 
ATOM      6  C   UNL     1     136.741 148.922 144.659  1.00  0.00    -0.006 C 
ATOM      7  C   UNL     1     137.308 148.452 145.984  1.00  0.00     0.013 C 
ATOM      8  C   UNL     1     135.787 147.738 144.322  1.00  0.00     0.126 C 
ATOM      9  C   UNL     1     136.041 150.282 144.729  1.00  0.00     0.014 C 
ATOM     10  C   UNL     1     136.943 145.491 143.626  1.00  0.00     0.014 C 
ENDROOT
BRANCH   8  11
ATOM     11  O   UNL     1     135.311 147.717 142.995  1.00  0.00    -0.392 OA
ATOM     12  H   UNL     1     136.031 147.985 142.376  1.00  0.00     0.211 HD
ENDBRANCH   8  11
TORSDOF 1
ENDMDL
MODEL 9
REMARK VINA RESULT:    -3.471      9.724     11.097
REMARK INTER + INTRA:          -3.573
REMARK INTER:                  -3.573
REMARK INTRA:                   0.000
REMARK UNBOUND:                 0.000
REMARK SMILES CC1(C)[C@H]2CC[C@](C)(C2)[C@H]1O
REMARK SMILES IDX 1 1 2 2 4 3 5 4 6 5 7 6 9 7 10 8 8 9 3 10 11 11
REMARK H PARENT 11 12
REMARK Flexibility Score: inf
ROOT
ATOM      1  C   UNL     1     145.245 142.549 144.948  1.00  0.00     0.014 C 
ATOM      2  C   UNL     1     146.785 142.707 145.010  1.00  0.00    -0.006 C 
ATOM      3  C   UNL     1     147.178 143.599 146.241  1.00  0.00    -0.002 C 
ATOM      4  C   UNL     1     148.698 143.556 146.508  1.00  0.00     0.005 C 
ATOM      5  C   UNL     1     149.278 144.323 145.310  1.00  0.00     0.010 C 
ATOM      6  C   UNL     1     148.012 144.771 144.538  1.00  0.00    -0.006 C 
ATOM      7  C   UNL     1     147.054 145.012 145.687  1.00  0.00     0.013 C 
ATOM      8  C   UNL     1     147.302 143.585 143.821  1.00  0.00     0.126 C 
ATOM      9  C   UNL     1     148.233 145.994 143.644  1.00  0.00     0.014 C 
ATOM     10  C   UNL     1     147.383 141.276 145.060  1.00  0.00     0.014 C 
ENDROOT
BRANCH   8  11
ATOM     11  O   UNL     1     148.087 142.914 142.860  1.00  0.00    -0.392 OA
ATOM     12  H   UNL     1     147.647 142.957 141.978  1.00  0.00     0.211 HD
ENDBRANCH   8  11
TORSDOF 1
ENDMDL
