MODEL 1
REMARK VINA RESULT:    -7.924      0.000      0.000
REMARK INTER + INTRA:          -9.848
REMARK INTER:                  -9.546
REMARK INTRA:                  -0.303
REMARK UNBOUND:                -0.303
REMARK SMILES O=c1c(O)c(-c2ccc(O)c(O)c2)oc2cc(O)cc(O)c12
REMARK SMILES IDX 5 1 3 2 2 3 1 4 22 5 20 6 19 7 17 8 16 9 15 10 14 11 6 12
REMARK SMILES IDX 7 13 8 14 9 15 13 16 11 17 10 18 12 20 4 22 21 24 18 26
REMARK H PARENT 10 19 12 21 4 23 21 25 18 27
REMARK Flexibility Score: inf
ROOT
ATOM      1  C   UNL     1      20.809   9.461 150.854  1.00  0.00     0.180 A 
ATOM      2  C   UNL     1      21.481  10.133 151.890  1.00  0.00     0.208 A 
ATOM      3  C   UNL     1      20.788  10.419 153.077  1.00  0.00     0.238 A 
ATOM      4  O   UNL     1      21.409  10.972 154.021  1.00  0.00    -0.285 OA
ATOM      5  C   UNL     1      19.429  10.044 153.208  1.00  0.00     0.111 A 
ATOM      6  C   UNL     1      18.618  10.318 154.349  1.00  0.00     0.134 A 
ATOM      7  C   UNL     1      17.326   9.786 154.424  1.00  0.00     0.093 A 
ATOM      8  C   UNL     1      16.791   9.045 153.370  1.00  0.00     0.123 A 
ATOM      9  C   UNL     1      17.554   8.820 152.224  1.00  0.00     0.094 A 
ATOM     10  C   UNL     1      18.860   9.307 152.136  1.00  0.00     0.146 A 
ATOM     11  O   UNL     1      19.555   9.063 151.032  1.00  0.00    -0.452 OA
ENDROOT
BRANCH   1  12
ATOM     12  C   UNL     1      21.466   9.147 149.564  1.00  0.00     0.025 A 
ATOM     13  C   UNL     1      21.308  10.022 148.477  1.00  0.00     0.016 A 
ATOM     14  C   UNL     1      21.936   9.756 147.257  1.00  0.00     0.051 A 
ATOM     15  C   UNL     1      22.742   8.620 147.111  1.00  0.00     0.157 A 
ATOM     16  C   UNL     1      22.294   8.018 149.418  1.00  0.00     0.062 A 
ATOM     17  C   UNL     1      22.924   7.752 148.195  1.00  0.00     0.158 A 
BRANCH  15  18
ATOM     18  O   UNL     1      23.368   8.350 145.896  1.00  0.00    -0.504 OA
ATOM     19  H   UNL     1      23.301   8.989 145.111  1.00  0.00     0.293 HD
ENDBRANCH  15  18
BRANCH  17  20
ATOM     20  O   UNL     1      23.739   6.631 148.051  1.00  0.00    -0.504 OA
ATOM     21  H   UNL     1      24.242   6.237 148.837  1.00  0.00     0.293 HD
ENDBRANCH  17  20
ENDBRANCH   1  12
BRANCH   2  22
ATOM     22  O   UNL     1      22.828  10.475 151.749  1.00  0.00    -0.502 OA
ATOM     23  H   UNL     1      23.495   9.876 151.277  1.00  0.00     0.293 HD
ENDBRANCH   2  22
BRANCH   6  24
ATOM     24  O   UNL     1      19.023  11.125 155.417  1.00  0.00    -0.507 OA
ATOM     25  H   UNL     1      19.460  10.786 156.261  1.00  0.00     0.293 HD
ENDBRANCH   6  24
BRANCH   8  26
ATOM     26  O   UNL     1      15.495   8.543 153.471  1.00  0.00    -0.508 OA
ATOM     27  H   UNL     1      15.012   8.156 152.669  1.00  0.00     0.293 HD
ENDBRANCH   8  26
TORSDOF 6
ENDMDL
MODEL 2
REMARK VINA RESULT:    -6.843     10.195     12.952
REMARK INTER + INTRA:          -8.545
REMARK INTER:                  -8.455
REMARK INTRA:                  -0.091
REMARK UNBOUND:                -0.303
REMARK SMILES O=c1c(O)c(-c2ccc(O)c(O)c2)oc2cc(O)cc(O)c12
REMARK SMILES IDX 5 1 3 2 2 3 1 4 22 5 20 6 19 7 17 8 16 9 15 10 14 11 6 12
REMARK SMILES IDX 7 13 8 14 9 15 13 16 11 17 10 18 12 20 4 22 21 24 18 26
REMARK H PARENT 10 19 12 21 4 23 21 25 18 27
REMARK Flexibility Score: inf
ROOT
ATOM      1  C   UNL     1      17.412   4.853 141.229  1.00  0.00     0.180 A 
ATOM      2  C   UNL     1      17.699   3.604 140.651  1.00  0.00     0.208 A 
ATOM      3  C   UNL     1      19.040   3.244 140.440  1.00  0.00     0.238 A 
ATOM      4  O   UNL     1      19.292   2.103 139.972  1.00  0.00    -0.285 OA
ATOM      5  C   UNL     1      20.075   4.141 140.796  1.00  0.00     0.111 A 
ATOM      6  C   UNL     1      21.466   3.897 140.591  1.00  0.00     0.134 A 
ATOM      7  C   UNL     1      22.409   4.798 141.101  1.00  0.00     0.093 A 
ATOM      8  C   UNL     1      22.010   5.966 141.750  1.00  0.00     0.123 A 
ATOM      9  C   UNL     1      20.652   6.245 141.903  1.00  0.00     0.094 A 
ATOM     10  C   UNL     1      19.688   5.347 141.438  1.00  0.00     0.146 A 
ATOM     11  O   UNL     1      18.407   5.644 141.613  1.00  0.00    -0.452 OA
ENDROOT
BRANCH   1  12
ATOM     12  C   UNL     1      16.024   5.314 141.459  1.00  0.00     0.025 A 
ATOM     13  C   UNL     1      15.566   6.476 140.817  1.00  0.00     0.016 A 
ATOM     14  C   UNL     1      14.253   6.917 141.003  1.00  0.00     0.051 A 
ATOM     15  C   UNL     1      13.375   6.194 141.820  1.00  0.00     0.157 A 
ATOM     16  C   UNL     1      15.131   4.580 142.263  1.00  0.00     0.062 A 
ATOM     17  C   UNL     1      13.814   5.022 142.448  1.00  0.00     0.158 A 
BRANCH  15  18
ATOM     18  O   UNL     1      12.065   6.632 142.010  1.00  0.00    -0.504 OA
ATOM     19  H   UNL     1      11.385   6.069 142.509  1.00  0.00     0.293 HD
ENDBRANCH  15  18
BRANCH  17  20
ATOM     20  O   UNL     1      12.933   4.297 143.249  1.00  0.00    -0.504 OA
ATOM     21  H   UNL     1      12.592   3.385 142.970  1.00  0.00     0.293 HD
ENDBRANCH  17  20
ENDBRANCH   1  12
BRANCH   2  22
ATOM     22  O   UNL     1      16.663   2.725 140.327  1.00  0.00    -0.502 OA
ATOM     23  H   UNL     1      16.050   2.325 141.027  1.00  0.00     0.293 HD
ENDBRANCH   2  22
BRANCH   6  24
ATOM     24  O   UNL     1      21.969   2.807 139.875  1.00  0.00    -0.507 OA
ATOM     25  H   UNL     1      22.432   2.011 140.288  1.00  0.00     0.293 HD
ENDBRANCH   6  24
BRANCH   8  26
ATOM     26  O   UNL     1      22.976   6.848 142.231  1.00  0.00    -0.508 OA
ATOM     27  H   UNL     1      23.640   7.297 141.611  1.00  0.00     0.293 HD
ENDBRANCH   8  26
TORSDOF 6
ENDMDL
MODEL 3
REMARK VINA RESULT:    -6.615     10.519     12.805
REMARK INTER + INTRA:          -8.271
REMARK INTER:                  -8.101
REMARK INTRA:                  -0.170
REMARK UNBOUND:                -0.303
REMARK SMILES O=c1c(O)c(-c2ccc(O)c(O)c2)oc2cc(O)cc(O)c12
REMARK SMILES IDX 5 1 3 2 2 3 1 4 22 5 20 6 19 7 17 8 16 9 15 10 14 11 6 12
REMARK SMILES IDX 7 13 8 14 9 15 13 16 11 17 10 18 12 20 4 22 21 24 18 26
REMARK H PARENT 10 19 12 21 4 23 21 25 18 27
REMARK Flexibility Score: inf
ROOT
ATOM      1  C   UNL     1      17.668   5.026 141.369  1.00  0.00     0.180 A 
ATOM      2  C   UNL     1      18.735   5.916 141.582  1.00  0.00     0.208 A 
ATOM      3  C   UNL     1      20.051   5.441 141.460  1.00  0.00     0.238 A 
ATOM      4  O   UNL     1      21.001   6.254 141.599  1.00  0.00    -0.285 OA
ATOM      5  C   UNL     1      20.283   4.081 141.142  1.00  0.00     0.111 A 
ATOM      6  C   UNL     1      21.574   3.483 141.033  1.00  0.00     0.134 A 
ATOM      7  C   UNL     1      21.688   2.162 140.584  1.00  0.00     0.093 A 
ATOM      8  C   UNL     1      20.557   1.396 140.306  1.00  0.00     0.123 A 
ATOM      9  C   UNL     1      19.287   1.952 140.467  1.00  0.00     0.094 A 
ATOM     10  C   UNL     1      19.142   3.279 140.876  1.00  0.00     0.146 A 
ATOM     11  O   UNL     1      17.918   3.773 141.007  1.00  0.00    -0.452 OA
ENDROOT
BRANCH   1  12
ATOM     12  C   UNL     1      16.254   5.445 141.504  1.00  0.00     0.025 A 
ATOM     13  C   UNL     1      15.712   6.356 140.582  1.00  0.00     0.016 A 
ATOM     14  C   UNL     1      14.374   6.749 140.678  1.00  0.00     0.051 A 
ATOM     15  C   UNL     1      13.556   6.226 141.687  1.00  0.00     0.157 A 
ATOM     16  C   UNL     1      15.422   4.908 142.504  1.00  0.00     0.062 A 
ATOM     17  C   UNL     1      14.080   5.302 142.599  1.00  0.00     0.158 A 
BRANCH  15  18
ATOM     18  O   UNL     1      12.222   6.618 141.788  1.00  0.00    -0.504 OA
ATOM     19  H   UNL     1      11.835   6.962 142.659  1.00  0.00     0.293 HD
ENDBRANCH  15  18
BRANCH  17  20
ATOM     20  O   UNL     1      13.259   4.772 143.593  1.00  0.00    -0.504 OA
ATOM     21  H   UNL     1      12.413   4.262 143.366  1.00  0.00     0.293 HD
ENDBRANCH  17  20
ENDBRANCH   1  12
BRANCH   2  22
ATOM     22  O   UNL     1      18.483   7.258 141.874  1.00  0.00    -0.502 OA
ATOM     23  H   UNL     1      18.929   8.017 141.372  1.00  0.00     0.293 HD
ENDBRANCH   2  22
BRANCH   6  24
ATOM     24  O   UNL     1      22.765   4.131 141.375  1.00  0.00    -0.507 OA
ATOM     25  H   UNL     1      23.662   3.677 141.464  1.00  0.00     0.293 HD
ENDBRANCH   6  24
BRANCH   8  26
ATOM     26  O   UNL     1      20.707   0.079 139.877  1.00  0.00    -0.508 OA
ATOM     27  H   UNL     1      20.685  -0.697 140.529  1.00  0.00     0.293 HD
ENDBRANCH   8  26
TORSDOF 6
ENDMDL
MODEL 4
REMARK VINA RESULT:    -6.581     11.873     14.170
REMARK INTER + INTRA:          -8.231
REMARK INTER:                  -8.381
REMARK INTRA:                   0.150
REMARK UNBOUND:                -0.303
REMARK SMILES O=c1c(O)c(-c2ccc(O)c(O)c2)oc2cc(O)cc(O)c12
REMARK SMILES IDX 5 1 3 2 2 3 1 4 22 5 20 6 19 7 17 8 16 9 15 10 14 11 6 12
REMARK SMILES IDX 7 13 8 14 9 15 13 16 11 17 10 18 12 20 4 22 21 24 18 26
REMARK H PARENT 10 19 12 21 4 23 21 25 18 27
REMARK Flexibility Score: inf
ROOT
ATOM      1  C   UNL     1      13.516   4.701 141.418  1.00  0.00     0.180 A 
ATOM      2  C   UNL     1      14.086   3.514 141.910  1.00  0.00     0.208 A 
ATOM      3  C   UNL     1      15.480   3.354 141.855  1.00  0.00     0.238 A 
ATOM      4  O   UNL     1      15.989   2.313 142.345  1.00  0.00    -0.285 OA
ATOM      5  C   UNL     1      16.285   4.375 141.294  1.00  0.00     0.111 A 
ATOM      6  C   UNL     1      17.703   4.303 141.150  1.00  0.00     0.134 A 
ATOM      7  C   UNL     1      18.410   5.426 140.703  1.00  0.00     0.093 A 
ATOM      8  C   UNL     1      17.746   6.594 140.331  1.00  0.00     0.123 A 
ATOM      9  C   UNL     1      16.354   6.655 140.411  1.00  0.00     0.094 A 
ATOM     10  C   UNL     1      15.624   5.565 140.889  1.00  0.00     0.146 A 
ATOM     11  O   UNL     1      14.303   5.667 140.959  1.00  0.00    -0.452 OA
ENDROOT
BRANCH   1  12
ATOM     12  C   UNL     1      12.054   4.931 141.419  1.00  0.00     0.025 A 
ATOM     13  C   UNL     1      11.187   3.879 141.079  1.00  0.00     0.016 A 
ATOM     14  C   UNL     1       9.803   4.069 141.095  1.00  0.00     0.051 A 
ATOM     15  C   UNL     1       9.264   5.307 141.465  1.00  0.00     0.157 A 
ATOM     16  C   UNL     1      11.506   6.167 141.811  1.00  0.00     0.062 A 
ATOM     17  C   UNL     1      10.117   6.357 141.827  1.00  0.00     0.158 A 
BRANCH  15  18
ATOM     18  O   UNL     1       7.884   5.501 141.480  1.00  0.00    -0.504 OA
ATOM     19  H   UNL     1       7.243   4.736 141.657  1.00  0.00     0.293 HD
ENDBRANCH  15  18
BRANCH  17  20
ATOM     20  O   UNL     1       9.577   7.583 142.210  1.00  0.00    -0.504 OA
ATOM     21  H   UNL     1       9.100   8.182 141.546  1.00  0.00     0.293 HD
ENDBRANCH  17  20
ENDBRANCH   1  12
BRANCH   2  22
ATOM     22  O   UNL     1      13.276   2.528 142.479  1.00  0.00    -0.502 OA
ATOM     23  H   UNL     1      12.485   2.749 143.071  1.00  0.00     0.293 HD
ENDBRANCH   2  22
BRANCH   6  24
ATOM     24  O   UNL     1      18.455   3.153 141.406  1.00  0.00    -0.507 OA
ATOM     25  H   UNL     1      18.075   2.278 141.734  1.00  0.00     0.293 HD
ENDBRANCH   6  24
BRANCH   8  26
ATOM     26  O   UNL     1      18.480   7.687 139.875  1.00  0.00    -0.508 OA
ATOM     27  H   UNL     1      18.653   7.834 138.888  1.00  0.00     0.293 HD
ENDBRANCH   8  26
TORSDOF 6
ENDMDL
MODEL 5
REMARK VINA RESULT:    -6.455     11.208     13.242
REMARK INTER + INTRA:          -8.078
REMARK INTER:                  -8.236
REMARK INTRA:                   0.158
REMARK UNBOUND:                -0.303
REMARK SMILES O=c1c(O)c(-c2ccc(O)c(O)c2)oc2cc(O)cc(O)c12
REMARK SMILES IDX 5 1 3 2 2 3 1 4 22 5 20 6 19 7 17 8 16 9 15 10 14 11 6 12
REMARK SMILES IDX 7 13 8 14 9 15 13 16 11 17 10 18 12 20 4 22 21 24 18 26
REMARK H PARENT 10 19 12 21 4 23 21 25 18 27
REMARK Flexibility Score: inf
ROOT
ATOM      1  C   UNL     1      15.926   5.023 141.106  1.00  0.00     0.180 A 
ATOM      2  C   UNL     1      16.501   6.258 140.758  1.00  0.00     0.208 A 
ATOM      3  C   UNL     1      17.901   6.371 140.723  1.00  0.00     0.238 A 
ATOM      4  O   UNL     1      18.409   7.463 140.359  1.00  0.00    -0.285 OA
ATOM      5  C   UNL     1      18.706   5.254 141.052  1.00  0.00     0.111 A 
ATOM      6  C   UNL     1      20.133   5.266 141.089  1.00  0.00     0.134 A 
ATOM      7  C   UNL     1      20.829   4.070 141.298  1.00  0.00     0.093 A 
ATOM      8  C   UNL     1      20.151   2.876 141.538  1.00  0.00     0.123 A 
ATOM      9  C   UNL     1      18.756   2.863 141.564  1.00  0.00     0.094 A 
ATOM     10  C   UNL     1      18.033   4.033 141.321  1.00  0.00     0.146 A 
ATOM     11  O   UNL     1      16.708   3.977 141.344  1.00  0.00    -0.452 OA
ENDROOT
BRANCH   1  12
ATOM     12  C   UNL     1      14.460   4.834 141.189  1.00  0.00     0.025 A 
ATOM     13  C   UNL     1      13.901   3.598 140.824  1.00  0.00     0.016 A 
ATOM     14  C   UNL     1      12.522   3.390 140.915  1.00  0.00     0.051 A 
ATOM     15  C   UNL     1      11.684   4.408 141.385  1.00  0.00     0.157 A 
ATOM     16  C   UNL     1      13.616   5.847 141.680  1.00  0.00     0.062 A 
ATOM     17  C   UNL     1      12.232   5.638 141.772  1.00  0.00     0.158 A 
BRANCH  15  18
ATOM     18  O   UNL     1      10.308   4.206 141.475  1.00  0.00    -0.504 OA
ATOM     19  H   UNL     1       9.910   3.561 142.148  1.00  0.00     0.293 HD
ENDBRANCH  15  18
BRANCH  17  20
ATOM     20  O   UNL     1      11.398   6.644 142.253  1.00  0.00    -0.504 OA
ATOM     21  H   UNL     1      11.437   6.949 143.219  1.00  0.00     0.293 HD
ENDBRANCH  17  20
ENDBRANCH   1  12
BRANCH   2  22
ATOM     22  O   UNL     1      15.688   7.341 140.416  1.00  0.00    -0.502 OA
ATOM     23  H   UNL     1      15.077   7.795 141.084  1.00  0.00     0.293 HD
ENDBRANCH   2  22
BRANCH   6  24
ATOM     24  O   UNL     1      20.906   6.423 140.953  1.00  0.00    -0.507 OA
ATOM     25  H   UNL     1      20.669   7.323 141.342  1.00  0.00     0.293 HD
ENDBRANCH   6  24
BRANCH   8  26
ATOM     26  O   UNL     1      20.876   1.706 141.759  1.00  0.00    -0.508 OA
ATOM     27  H   UNL     1      21.889   1.694 141.713  1.00  0.00     0.293 HD
ENDBRANCH   8  26
TORSDOF 6
ENDMDL
MODEL 6
REMARK VINA RESULT:    -6.341     11.348     13.056
REMARK INTER + INTRA:          -7.941
REMARK INTER:                  -7.869
REMARK INTRA:                  -0.072
REMARK UNBOUND:                -0.303
REMARK SMILES O=c1c(O)c(-c2ccc(O)c(O)c2)oc2cc(O)cc(O)c12
REMARK SMILES IDX 5 1 3 2 2 3 1 4 22 5 20 6 19 7 17 8 16 9 15 10 14 11 6 12
REMARK SMILES IDX 7 13 8 14 9 15 13 16 11 17 10 18 12 20 4 22 21 24 18 26
REMARK H PARENT 10 19 12 21 4 23 21 25 18 27
REMARK Flexibility Score: inf
ROOT
ATOM      1  C   UNL     1      14.514   4.965 141.357  1.00  0.00     0.180 A 
ATOM      2  C   UNL     1      13.464   5.893 141.472  1.00  0.00     0.208 A 
ATOM      3  C   UNL     1      12.147   5.418 141.594  1.00  0.00     0.238 A 
ATOM      4  O   UNL     1      11.217   6.252 141.750  1.00  0.00    -0.285 OA
ATOM      5  C   UNL     1      11.897   4.025 141.585  1.00  0.00     0.111 A 
ATOM      6  C   UNL     1      10.600   3.434 141.662  1.00  0.00     0.134 A 
ATOM      7  C   UNL     1      10.480   2.044 141.776  1.00  0.00     0.093 A 
ATOM      8  C   UNL     1      11.604   1.220 141.750  1.00  0.00     0.123 A 
ATOM      9  C   UNL     1      12.874   1.783 141.615  1.00  0.00     0.094 A 
ATOM     10  C   UNL     1      13.028   3.169 141.536  1.00  0.00     0.146 A 
ATOM     11  O   UNL     1      14.253   3.665 141.419  1.00  0.00    -0.452 OA
ENDROOT
BRANCH   1  12
ATOM     12  C   UNL     1      15.924   5.389 141.200  1.00  0.00     0.025 A 
ATOM     13  C   UNL     1      16.639   5.001 140.055  1.00  0.00     0.016 A 
ATOM     14  C   UNL     1      17.964   5.408 139.876  1.00  0.00     0.051 A 
ATOM     15  C   UNL     1      18.588   6.219 140.831  1.00  0.00     0.157 A 
ATOM     16  C   UNL     1      16.550   6.221 142.147  1.00  0.00     0.062 A 
ATOM     17  C   UNL     1      17.879   6.630 141.966  1.00  0.00     0.158 A 
BRANCH  15  18
ATOM     18  O   UNL     1      19.910   6.625 140.657  1.00  0.00    -0.504 OA
ATOM     19  H   UNL     1      20.140   7.552 140.317  1.00  0.00     0.293 HD
ENDBRANCH  15  18
BRANCH  17  20
ATOM     20  O   UNL     1      18.499   7.449 142.908  1.00  0.00    -0.504 OA
ATOM     21  H   UNL     1      18.242   8.424 143.013  1.00  0.00     0.293 HD
ENDBRANCH  17  20
ENDBRANCH   1  12
BRANCH   2  22
ATOM     22  O   UNL     1      13.736   7.263 141.501  1.00  0.00    -0.502 OA
ATOM     23  H   UNL     1      14.627   7.647 141.212  1.00  0.00     0.293 HD
ENDBRANCH   2  22
BRANCH   6  24
ATOM     24  O   UNL     1       9.408   4.161 141.603  1.00  0.00    -0.507 OA
ATOM     25  H   UNL     1       9.276   5.009 141.073  1.00  0.00     0.293 HD
ENDBRANCH   6  24
BRANCH   8  26
ATOM     26  O   UNL     1      11.446  -0.161 141.851  1.00  0.00    -0.508 OA
ATOM     27  H   UNL     1      12.222  -0.767 142.093  1.00  0.00     0.293 HD
ENDBRANCH   8  26
TORSDOF 6
ENDMDL
MODEL 7
REMARK VINA RESULT:    -6.234     10.348     11.827
REMARK INTER + INTRA:          -7.812
REMARK INTER:                  -7.803
REMARK INTRA:                  -0.009
REMARK UNBOUND:                -0.303
REMARK SMILES O=c1c(O)c(-c2ccc(O)c(O)c2)oc2cc(O)cc(O)c12
REMARK SMILES IDX 5 1 3 2 2 3 1 4 22 5 20 6 19 7 17 8 16 9 15 10 14 11 6 12
REMARK SMILES IDX 7 13 8 14 9 15 13 16 11 17 10 18 12 20 4 22 21 24 18 26
REMARK H PARENT 10 19 12 21 4 23 21 25 18 27
REMARK Flexibility Score: inf
ROOT
ATOM      1  C   UNL     1      17.280   5.100 141.223  1.00  0.00     0.180 A 
ATOM      2  C   UNL     1      16.638   6.350 141.208  1.00  0.00     0.208 A 
ATOM      3  C   UNL     1      15.240   6.399 141.336  1.00  0.00     0.238 A 
ATOM      4  O   UNL     1      14.676   7.524 141.375  1.00  0.00    -0.285 OA
ATOM      5  C   UNL     1      14.502   5.198 141.463  1.00  0.00     0.111 A 
ATOM      6  C   UNL     1      13.080   5.127 141.560  1.00  0.00     0.134 A 
ATOM      7  C   UNL     1      12.465   3.895 141.814  1.00  0.00     0.093 A 
ATOM      8  C   UNL     1      13.214   2.723 141.909  1.00  0.00     0.123 A 
ATOM      9  C   UNL     1      14.600   2.772 141.757  1.00  0.00     0.094 A 
ATOM     10  C   UNL     1      15.246   3.991 141.540  1.00  0.00     0.146 A 
ATOM     11  O   UNL     1      16.566   3.996 141.411  1.00  0.00    -0.452 OA
ENDROOT
BRANCH   1  12
ATOM     12  C   UNL     1      18.747   4.966 141.068  1.00  0.00     0.025 A 
ATOM     13  C   UNL     1      19.262   4.143 140.053  1.00  0.00     0.016 A 
ATOM     14  C   UNL     1      20.643   4.020 139.875  1.00  0.00     0.051 A 
ATOM     15  C   UNL     1      21.527   4.728 140.698  1.00  0.00     0.157 A 
ATOM     16  C   UNL     1      19.639   5.691 141.879  1.00  0.00     0.062 A 
ATOM     17  C   UNL     1      21.024   5.568 141.700  1.00  0.00     0.158 A 
BRANCH  15  18
ATOM     18  O   UNL     1      22.904   4.605 140.526  1.00  0.00    -0.504 OA
ATOM     19  H   UNL     1      23.522   5.405 140.608  1.00  0.00     0.293 HD
ENDBRANCH  15  18
BRANCH  17  20
ATOM     20  O   UNL     1      21.906   6.282 142.508  1.00  0.00    -0.504 OA
ATOM     21  H   UNL     1      22.706   5.837 142.942  1.00  0.00     0.293 HD
ENDBRANCH  17  20
ENDBRANCH   1  12
BRANCH   2  22
ATOM     22  O   UNL     1      17.388   7.524 141.103  1.00  0.00    -0.502 OA
ATOM     23  H   UNL     1      18.378   7.521 140.891  1.00  0.00     0.293 HD
ENDBRANCH   2  22
BRANCH   6  24
ATOM     24  O   UNL     1      12.231   6.224 141.388  1.00  0.00    -0.507 OA
ATOM     25  H   UNL     1      12.038   6.918 142.094  1.00  0.00     0.293 HD
ENDBRANCH   6  24
BRANCH   8  26
ATOM     26  O   UNL     1      12.567   1.512 142.147  1.00  0.00    -0.508 OA
ATOM     27  H   UNL     1      13.071   0.700 142.486  1.00  0.00     0.293 HD
ENDBRANCH   8  26
TORSDOF 6
ENDMDL
MODEL 8
REMARK VINA RESULT:    -6.175     11.370     13.106
REMARK INTER + INTRA:          -7.741
REMARK INTER:                  -7.406
REMARK INTRA:                  -0.334
REMARK UNBOUND:                -0.303
REMARK SMILES O=c1c(O)c(-c2ccc(O)c(O)c2)oc2cc(O)cc(O)c12
REMARK SMILES IDX 5 1 3 2 2 3 1 4 22 5 20 6 19 7 17 8 16 9 15 10 14 11 6 12
REMARK SMILES IDX 7 13 8 14 9 15 13 16 11 17 10 18 12 20 4 22 21 24 18 26
REMARK H PARENT 10 19 12 21 4 23 21 25 18 27
REMARK Flexibility Score: inf
ROOT
ATOM      1  C   UNL     1      14.268   5.011 141.384  1.00  0.00     0.180 A 
ATOM      2  C   UNL     1      14.277   3.610 141.500  1.00  0.00     0.208 A 
ATOM      3  C   UNL     1      13.054   2.930 141.625  1.00  0.00     0.238 A 
ATOM      4  O   UNL     1      13.065   1.673 141.674  1.00  0.00    -0.285 OA
ATOM      5  C   UNL     1      11.841   3.660 141.650  1.00  0.00     0.111 A 
ATOM      6  C   UNL     1      10.548   3.078 141.813  1.00  0.00     0.134 A 
ATOM      7  C   UNL     1       9.408   3.882 141.690  1.00  0.00     0.093 A 
ATOM      8  C   UNL     1       9.515   5.255 141.477  1.00  0.00     0.123 A 
ATOM      9  C   UNL     1      10.776   5.845 141.375  1.00  0.00     0.094 A 
ATOM     10  C   UNL     1      11.931   5.064 141.456  1.00  0.00     0.146 A 
ATOM     11  O   UNL     1      13.110   5.661 141.344  1.00  0.00    -0.452 OA
ENDROOT
BRANCH   1  12
ATOM     12  C   UNL     1      15.516   5.800 141.273  1.00  0.00     0.025 A 
ATOM     13  C   UNL     1      16.012   6.134 140.003  1.00  0.00     0.016 A 
ATOM     14  C   UNL     1      17.177   6.896 139.875  1.00  0.00     0.051 A 
ATOM     15  C   UNL     1      17.854   7.347 141.015  1.00  0.00     0.157 A 
ATOM     16  C   UNL     1      16.189   6.273 142.416  1.00  0.00     0.062 A 
ATOM     17  C   UNL     1      17.357   7.037 142.287  1.00  0.00     0.158 A 
BRANCH  15  18
ATOM     18  O   UNL     1      19.017   8.105 140.892  1.00  0.00    -0.504 OA
ATOM     19  H   UNL     1      19.635   8.258 141.681  1.00  0.00     0.293 HD
ENDBRANCH  15  18
BRANCH  17  20
ATOM     20  O   UNL     1      18.024   7.500 143.420  1.00  0.00    -0.504 OA
ATOM     21  H   UNL     1      18.688   8.265 143.368  1.00  0.00     0.293 HD
ENDBRANCH  17  20
ENDBRANCH   1  12
BRANCH   2  22
ATOM     22  O   UNL     1      15.483   2.909 141.451  1.00  0.00    -0.502 OA
ATOM     23  H   UNL     1      16.338   3.268 141.858  1.00  0.00     0.293 HD
ENDBRANCH   2  22
BRANCH   6  24
ATOM     24  O   UNL     1      10.332   1.732 142.121  1.00  0.00    -0.507 OA
ATOM     25  H   UNL     1       9.426   1.292 142.173  1.00  0.00     0.293 HD
ENDBRANCH   6  24
BRANCH   8  26
ATOM     26  O   UNL     1       8.360   6.027 141.375  1.00  0.00    -0.508 OA
ATOM     27  H   UNL     1       8.195   6.633 140.580  1.00  0.00     0.293 HD
ENDBRANCH   8  26
TORSDOF 6
ENDMDL
MODEL 9
REMARK VINA RESULT:    -6.118      2.187      7.823
REMARK INTER + INTRA:          -7.672
REMARK INTER:                  -7.718
REMARK INTRA:                   0.046
REMARK UNBOUND:                -0.303
REMARK SMILES O=c1c(O)c(-c2ccc(O)c(O)c2)oc2cc(O)cc(O)c12
REMARK SMILES IDX 5 1 3 2 2 3 1 4 22 5 20 6 19 7 17 8 16 9 15 10 14 11 6 12
REMARK SMILES IDX 7 13 8 14 9 15 13 16 11 17 10 18 12 20 4 22 21 24 18 26
REMARK H PARENT 10 19 12 21 4 23 21 25 18 27
REMARK Flexibility Score: inf
ROOT
ATOM      1  C   UNL     1      18.333  10.098 153.784  1.00  0.00     0.180 A 
ATOM      2  C   UNL     1      17.827   9.372 152.692  1.00  0.00     0.208 A 
ATOM      3  C   UNL     1      18.650   9.165 151.572  1.00  0.00     0.238 A 
ATOM      4  O   UNL     1      18.211   8.469 150.621  1.00  0.00    -0.285 OA
ATOM      5  C   UNL     1      19.961   9.699 151.554  1.00  0.00     0.111 A 
ATOM      6  C   UNL     1      20.867   9.584 150.457  1.00  0.00     0.134 A 
ATOM      7  C   UNL     1      22.184  10.037 150.598  1.00  0.00     0.093 A 
ATOM      8  C   UNL     1      22.609  10.659 151.771  1.00  0.00     0.123 A 
ATOM      9  C   UNL     1      21.715  10.830 152.829  1.00  0.00     0.094 A 
ATOM     10  C   UNL     1      20.405  10.356 152.731  1.00  0.00     0.146 A 
ATOM     11  O   UNL     1      19.589  10.529 153.763  1.00  0.00    -0.452 OA
ENDROOT
BRANCH   1  12
ATOM     12  C   UNL     1      17.518  10.379 154.988  1.00  0.00     0.025 A 
ATOM     13  C   UNL     1      16.211  10.873 154.838  1.00  0.00     0.016 A 
ATOM     14  C   UNL     1      15.417  11.124 155.960  1.00  0.00     0.051 A 
ATOM     15  C   UNL     1      15.911  10.871 157.246  1.00  0.00     0.157 A 
ATOM     16  C   UNL     1      18.001  10.107 156.281  1.00  0.00     0.062 A 
ATOM     17  C   UNL     1      17.204  10.359 157.406  1.00  0.00     0.158 A 
BRANCH  15  18
ATOM     18  O   UNL     1      15.122  11.123 158.367  1.00  0.00    -0.504 OA
ATOM     19  H   UNL     1      15.048  12.052 158.765  1.00  0.00     0.293 HD
ENDBRANCH  15  18
BRANCH  17  20
ATOM     20  O   UNL     1      17.687  10.094 158.686  1.00  0.00    -0.504 OA
ATOM     21  H   UNL     1      17.338   9.317 159.234  1.00  0.00     0.293 HD
ENDBRANCH  17  20
ENDBRANCH   1  12
BRANCH   2  22
ATOM     22  O   UNL     1      16.538   8.836 152.740  1.00  0.00    -0.502 OA
ATOM     23  H   UNL     1      16.358   7.875 153.003  1.00  0.00     0.293 HD
ENDBRANCH   2  22
BRANCH   6  24
ATOM     24  O   UNL     1      20.518   9.062 149.208  1.00  0.00    -0.507 OA
ATOM     25  H   UNL     1      20.607   8.093 148.945  1.00  0.00     0.293 HD
ENDBRANCH   6  24
BRANCH   8  26
ATOM     26  O   UNL     1      23.923  11.112 151.872  1.00  0.00    -0.508 OA
ATOM     27  H   UNL     1      24.556  10.751 152.577  1.00  0.00     0.293 HD
ENDBRANCH   8  26
TORSDOF 6
ENDMDL
