MODEL 1
REMARK VINA RESULT:     1.451      0.000      0.000
REMARK INTER + INTRA:           2.648
REMARK INTER:                   3.656
REMARK INTRA:                  -1.008
REMARK UNBOUND:                -1.008
REMARK SMILES CCCCCCCCCCCCCCCCCCCCCCCCCCCC(=O)[O-]
REMARK SMILES IDX 15 1 16 2 17 3 18 4 19 5 20 6 21 7 22 8 23 9 24 10 25 11
REMARK SMILES IDX 26 12 27 13 28 14 29 15 30 16 14 17 13 18 12 19 11 20 10 21
REMARK SMILES IDX 9 22 8 23 7 24 6 25 5 26 4 27 3 28 2 29 1 30
REMARK H PARENT
REMARK Flexibility Score: inf
ROOT
ATOM      1  C   UNL     1      -4.064  35.686  22.331  1.00  0.00     0.000 C 
ENDROOT
BRANCH   1   2
ATOM      2  C   UNL     1      -3.717  35.099  20.955  1.00  0.00     0.000 C 
BRANCH   2   3
ATOM      3  C   UNL     1      -4.830  35.334  19.920  1.00  0.00     0.000 C 
BRANCH   3   4
ATOM      4  C   UNL     1      -4.375  35.050  18.477  1.00  0.00     0.000 C 
BRANCH   4   5
ATOM      5  C   UNL     1      -4.046  36.336  17.702  1.00  0.00     0.000 C 
BRANCH   5   6
ATOM      6  C   UNL     1      -4.204  37.606  18.555  1.00  0.00     0.000 C 
BRANCH   6   7
ATOM      7  C   UNL     1      -2.985  38.544  18.463  1.00  0.00     0.000 C 
BRANCH   7   8
ATOM      8  C   UNL     1      -1.803  38.166  19.376  1.00  0.00     0.000 C 
BRANCH   8   9
ATOM      9  C   UNL     1      -0.491  37.954  18.606  1.00  0.00     0.000 C 
BRANCH   9  10
ATOM     10  C   UNL     1      -0.717  38.072  17.092  1.00  0.00     0.000 C 
BRANCH  10  11
ATOM     11  C   UNL     1      -1.012  36.718  16.426  1.00  0.00     0.000 C 
BRANCH  11  12
ATOM     12  C   UNL     1      -2.071  36.818  15.319  1.00  0.00     0.006 C 
BRANCH  12  13
ATOM     13  C   UNL     1      -2.201  38.259  14.813  1.00  0.00     0.053 C 
BRANCH  13  14
ATOM     14  C   UNL     1      -3.577  38.516  14.283  1.00  0.00     0.041 C 
ATOM     15  O   UNL     1      -4.018  39.692  14.204  1.00  0.00    -0.550 OA
ATOM     16  O   UNL     1      -4.377  37.453  13.876  1.00  0.00    -0.550 OA
ENDBRANCH  13  14
ENDBRANCH  12  13
ENDBRANCH  11  12
ENDBRANCH  10  11
ENDBRANCH   9  10
ENDBRANCH   8   9
ENDBRANCH   7   8
ENDBRANCH   6   7
ENDBRANCH   5   6
ENDBRANCH   4   5
ENDBRANCH   3   4
ENDBRANCH   2   3
ENDBRANCH   1   2
BRANCH   1  17
ATOM     17  C   UNL     1      -5.584  35.811  22.517  1.00  0.00     0.000 C 
BRANCH  17  18
ATOM     18  C   UNL     1      -6.114  37.209  22.156  1.00  0.00     0.000 C 
BRANCH  18  19
ATOM     19  C   UNL     1      -5.117  38.120  21.413  1.00  0.00     0.000 C 
BRANCH  19  20
ATOM     20  C   UNL     1      -5.565  39.594  21.311  1.00  0.00     0.000 C 
BRANCH  20  21
ATOM     21  C   UNL     1      -4.860  40.509  22.332  1.00  0.00     0.000 C 
BRANCH  21  22
ATOM     22  C   UNL     1      -5.151  40.112  23.789  1.00  0.00    -0.000 C 
BRANCH  22  23
ATOM     23  C   UNL     1      -4.381  38.858  24.235  1.00  0.00    -0.000 C 
BRANCH  23  24
ATOM     24  C   UNL     1      -4.900  38.342  25.585  1.00  0.00    -0.000 C 
BRANCH  24  25
ATOM     25  C   UNL     1      -3.828  37.574  26.381  1.00  0.00    -0.000 C 
BRANCH  25  26
ATOM     26  C   UNL     1      -2.702  38.448  26.968  1.00  0.00    -0.000 C 
BRANCH  26  27
ATOM     27  C   UNL     1      -1.737  37.720  27.921  1.00  0.00    -0.000 C 
BRANCH  27  28
ATOM     28  C   UNL     1      -1.879  36.189  27.861  1.00  0.00    -0.000 C 
BRANCH  28  29
ATOM     29  C   UNL     1      -1.896  35.546  29.257  1.00  0.00    -0.003 C 
ATOM     30  C   UNL     1      -0.815  34.479  29.429  1.00  0.00     0.004 C 
ENDBRANCH  28  29
ENDBRANCH  27  28
ENDBRANCH  26  27
ENDBRANCH  25  26
ENDBRANCH  24  25
ENDBRANCH  23  24
ENDBRANCH  22  23
ENDBRANCH  21  22
ENDBRANCH  20  21
ENDBRANCH  19  20
ENDBRANCH  18  19
ENDBRANCH  17  18
ENDBRANCH   1  17
TORSDOF 26
ENDMDL
MODEL 2
REMARK VINA RESULT:     1.792      2.133      5.540
REMARK INTER + INTRA:           3.508
REMARK INTER:                   3.670
REMARK INTRA:                  -0.163
REMARK UNBOUND:                -1.008
REMARK SMILES CCCCCCCCCCCCCCCCCCCCCCCCCCCC(=O)[O-]
REMARK SMILES IDX 15 1 16 2 17 3 18 4 19 5 20 6 21 7 22 8 23 9 24 10 25 11
REMARK SMILES IDX 26 12 27 13 28 14 29 15 30 16 14 17 13 18 12 19 11 20 10 21
REMARK SMILES IDX 9 22 8 23 7 24 6 25 5 26 4 27 3 28 2 29 1 30
REMARK H PARENT
REMARK Flexibility Score: inf
ROOT
ATOM      1  C   UNL     1      -4.822  37.435  25.411  1.00  0.00     0.000 C 
ENDROOT
BRANCH   1   2
ATOM      2  C   UNL     1      -6.125  36.666  25.153  1.00  0.00     0.000 C 
BRANCH   2   3
ATOM      3  C   UNL     1      -5.908  35.143  25.114  1.00  0.00     0.000 C 
BRANCH   3   4
ATOM      4  C   UNL     1      -6.100  34.547  23.708  1.00  0.00     0.000 C 
BRANCH   4   5
ATOM      5  C   UNL     1      -6.088  35.621  22.609  1.00  0.00     0.000 C 
BRANCH   5   6
ATOM      6  C   UNL     1      -4.670  35.965  22.123  1.00  0.00     0.000 C 
BRANCH   6   7
ATOM      7  C   UNL     1      -4.320  35.298  20.779  1.00  0.00     0.000 C 
BRANCH   7   8
ATOM      8  C   UNL     1      -5.103  35.831  19.564  1.00  0.00     0.000 C 
BRANCH   8   9
ATOM      9  C   UNL     1      -4.684  35.174  18.240  1.00  0.00     0.000 C 
BRANCH   9  10
ATOM     10  C   UNL     1      -3.474  35.894  17.629  1.00  0.00     0.000 C 
BRANCH  10  11
ATOM     11  C   UNL     1      -3.800  36.574  16.290  1.00  0.00     0.000 C 
BRANCH  11  12
ATOM     12  C   UNL     1      -2.970  37.845  16.051  1.00  0.00     0.006 C 
BRANCH  12  13
ATOM     13  C   UNL     1      -2.974  38.231  14.567  1.00  0.00     0.053 C 
BRANCH  13  14
ATOM     14  C   UNL     1      -4.073  39.203  14.273  1.00  0.00     0.041 C 
ATOM     15  O   UNL     1      -5.195  38.792  13.878  1.00  0.00    -0.550 OA
ATOM     16  O   UNL     1      -3.859  40.568  14.435  1.00  0.00    -0.550 OA
ENDBRANCH  13  14
ENDBRANCH  12  13
ENDBRANCH  11  12
ENDBRANCH  10  11
ENDBRANCH   9  10
ENDBRANCH   8   9
ENDBRANCH   7   8
ENDBRANCH   6   7
ENDBRANCH   5   6
ENDBRANCH   4   5
ENDBRANCH   3   4
ENDBRANCH   2   3
ENDBRANCH   1   2
BRANCH   1  17
ATOM     17  C   UNL     1      -5.080  38.713  26.226  1.00  0.00     0.000 C 
BRANCH  17  18
ATOM     18  C   UNL     1      -5.202  39.966  25.343  1.00  0.00     0.000 C 
BRANCH  18  19
ATOM     19  C   UNL     1      -4.626  39.829  23.920  1.00  0.00     0.000 C 
BRANCH  19  20
ATOM     20  C   UNL     1      -5.692  39.616  22.824  1.00  0.00     0.000 C 
BRANCH  20  21
ATOM     21  C   UNL     1      -5.941  40.878  21.974  1.00  0.00     0.000 C 
BRANCH  21  22
ATOM     22  C   UNL     1      -5.997  40.580  20.466  1.00  0.00    -0.000 C 
BRANCH  22  23
ATOM     23  C   UNL     1      -5.242  39.298  20.079  1.00  0.00    -0.000 C 
BRANCH  23  24
ATOM     24  C   UNL     1      -4.041  39.063  21.008  1.00  0.00    -0.000 C 
BRANCH  24  25
ATOM     25  C   UNL     1      -2.858  38.387  20.292  1.00  0.00    -0.000 C 
BRANCH  25  26
ATOM     26  C   UNL     1      -2.569  38.914  18.872  1.00  0.00    -0.000 C 
BRANCH  26  27
ATOM     27  C   UNL     1      -1.139  39.438  18.645  1.00  0.00    -0.000 C 
BRANCH  27  28
ATOM     28  C   UNL     1      -0.077  38.328  18.724  1.00  0.00    -0.000 C 
BRANCH  28  29
ATOM     29  C   UNL     1      -0.601  36.975  18.216  1.00  0.00    -0.003 C 
ATOM     30  C   UNL     1      -0.147  36.662  16.791  1.00  0.00     0.004 C 
ENDBRANCH  28  29
ENDBRANCH  27  28
ENDBRANCH  26  27
ENDBRANCH  25  26
ENDBRANCH  24  25
ENDBRANCH  23  24
ENDBRANCH  22  23
ENDBRANCH  21  22
ENDBRANCH  20  21
ENDBRANCH  19  20
ENDBRANCH  18  19
ENDBRANCH  17  18
ENDBRANCH   1  17
TORSDOF 26
ENDMDL
MODEL 3
REMARK VINA RESULT:     1.842      4.344      9.931
REMARK INTER + INTRA:           3.633
REMARK INTER:                   4.669
REMARK INTRA:                  -1.036
REMARK UNBOUND:                -1.008
REMARK SMILES CCCCCCCCCCCCCCCCCCCCCCCCCCCC(=O)[O-]
REMARK SMILES IDX 15 1 16 2 17 3 18 4 19 5 20 6 21 7 22 8 23 9 24 10 25 11
REMARK SMILES IDX 26 12 27 13 28 14 29 15 30 16 14 17 13 18 12 19 11 20 10 21
REMARK SMILES IDX 9 22 8 23 7 24 6 25 5 26 4 27 3 28 2 29 1 30
REMARK H PARENT
REMARK Flexibility Score: inf
ROOT
ATOM      1  C   UNL     1      -4.532  36.086  21.522  1.00  0.00     0.000 C 
ENDROOT
BRANCH   1   2
ATOM      2  C   UNL     1      -4.674  36.987  22.756  1.00  0.00     0.000 C 
BRANCH   2   3
ATOM      3  C   UNL     1      -5.826  37.997  22.614  1.00  0.00     0.000 C 
BRANCH   3   4
ATOM      4  C   UNL     1      -5.497  39.149  21.649  1.00  0.00     0.000 C 
BRANCH   4   5
ATOM      5  C   UNL     1      -4.836  40.340  22.360  1.00  0.00     0.000 C 
BRANCH   5   6
ATOM      6  C   UNL     1      -4.108  39.936  23.653  1.00  0.00     0.000 C 
BRANCH   6   7
ATOM      7  C   UNL     1      -4.850  40.391  24.925  1.00  0.00     0.000 C 
BRANCH   7   8
ATOM      8  C   UNL     1      -4.824  39.383  26.090  1.00  0.00     0.000 C 
BRANCH   8   9
ATOM      9  C   UNL     1      -4.773  37.921  25.623  1.00  0.00     0.000 C 
BRANCH   9  10
ATOM     10  C   UNL     1      -3.761  37.115  26.448  1.00  0.00     0.000 C 
BRANCH  10  11
ATOM     11  C   UNL     1      -2.616  37.981  26.998  1.00  0.00     0.000 C 
BRANCH  11  12
ATOM     12  C   UNL     1      -1.730  37.228  28.002  1.00  0.00     0.006 C 
BRANCH  12  13
ATOM     13  C   UNL     1      -2.219  35.787  28.191  1.00  0.00     0.053 C 
BRANCH  13  14
ATOM     14  C   UNL     1      -1.498  35.125  29.323  1.00  0.00     0.041 C 
ATOM     15  O   UNL     1      -2.111  34.835  30.383  1.00  0.00    -0.550 OA
ATOM     16  O   UNL     1      -0.144  34.827  29.207  1.00  0.00    -0.550 OA
ENDBRANCH  13  14
ENDBRANCH  12  13
ENDBRANCH  11  12
ENDBRANCH  10  11
ENDBRANCH   9  10
ENDBRANCH   8   9
ENDBRANCH   7   8
ENDBRANCH   6   7
ENDBRANCH   5   6
ENDBRANCH   4   5
ENDBRANCH   3   4
ENDBRANCH   2   3
ENDBRANCH   1   2
BRANCH   1  17
ATOM     17  C   UNL     1      -5.872  35.930  20.786  1.00  0.00     0.000 C 
BRANCH  17  18
ATOM     18  C   UNL     1      -5.764  35.042  19.536  1.00  0.00     0.000 C 
BRANCH  18  19
ATOM     19  C   UNL     1      -5.387  35.779  18.235  1.00  0.00     0.000 C 
BRANCH  19  20
ATOM     20  C   UNL     1      -3.937  36.305  18.205  1.00  0.00     0.000 C 
BRANCH  20  21
ATOM     21  C   UNL     1      -3.832  37.803  18.551  1.00  0.00     0.000 C 
BRANCH  21  22
ATOM     22  C   UNL     1      -2.753  38.099  19.606  1.00  0.00    -0.000 C 
BRANCH  22  23
ATOM     23  C   UNL     1      -1.549  38.865  19.033  1.00  0.00    -0.000 C 
BRANCH  23  24
ATOM     24  C   UNL     1      -0.652  37.941  18.198  1.00  0.00    -0.000 C 
BRANCH  24  25
ATOM     25  C   UNL     1      -1.026  37.937  16.704  1.00  0.00    -0.000 C 
BRANCH  25  26
ATOM     26  C   UNL     1      -1.592  36.603  16.179  1.00  0.00    -0.000 C 
BRANCH  26  27
ATOM     27  C   UNL     1      -2.426  36.707  14.889  1.00  0.00    -0.000 C 
BRANCH  27  28
ATOM     28  C   UNL     1      -2.557  38.152  14.377  1.00  0.00    -0.000 C 
BRANCH  28  29
ATOM     29  C   UNL     1      -4.012  38.532  14.056  1.00  0.00    -0.003 C 
ATOM     30  C   UNL     1      -4.249  40.041  14.088  1.00  0.00     0.004 C 
ENDBRANCH  28  29
ENDBRANCH  27  28
ENDBRANCH  26  27
ENDBRANCH  25  26
ENDBRANCH  24  25
ENDBRANCH  23  24
ENDBRANCH  22  23
ENDBRANCH  21  22
ENDBRANCH  20  21
ENDBRANCH  19  20
ENDBRANCH  18  19
ENDBRANCH  17  18
ENDBRANCH   1  17
TORSDOF 26
ENDMDL
MODEL 4
REMARK VINA RESULT:     2.125      3.760      9.090
REMARK INTER + INTRA:           4.346
REMARK INTER:                   4.553
REMARK INTRA:                  -0.207
REMARK UNBOUND:                -1.008
REMARK SMILES CCCCCCCCCCCCCCCCCCCCCCCCCCCC(=O)[O-]
REMARK SMILES IDX 15 1 16 2 17 3 18 4 19 5 20 6 21 7 22 8 23 9 24 10 25 11
REMARK SMILES IDX 26 12 27 13 28 14 29 15 30 16 14 17 13 18 12 19 11 20 10 21
REMARK SMILES IDX 9 22 8 23 7 24 6 25 5 26 4 27 3 28 2 29 1 30
REMARK H PARENT
REMARK Flexibility Score: inf
ROOT
ATOM      1  C   UNL     1      -3.667  35.426  22.659  1.00  0.00     0.000 C 
ENDROOT
BRANCH   1   2
ATOM      2  C   UNL     1      -5.024  35.098  23.298  1.00  0.00     0.000 C 
BRANCH   2   3
ATOM      3  C   UNL     1      -6.122  36.092  22.884  1.00  0.00     0.000 C 
BRANCH   3   4
ATOM      4  C   UNL     1      -6.065  36.460  21.391  1.00  0.00     0.000 C 
BRANCH   4   5
ATOM      5  C   UNL     1      -5.594  37.905  21.160  1.00  0.00     0.000 C 
BRANCH   5   6
ATOM      6  C   UNL     1      -4.254  38.214  21.848  1.00  0.00     0.000 C 
BRANCH   6   7
ATOM      7  C   UNL     1      -4.036  39.721  22.084  1.00  0.00     0.000 C 
BRANCH   7   8
ATOM      8  C   UNL     1      -5.181  40.435  22.830  1.00  0.00     0.000 C 
BRANCH   8   9
ATOM      9  C   UNL     1      -5.320  39.986  24.292  1.00  0.00     0.000 C 
BRANCH   9  10
ATOM     10  C   UNL     1      -6.056  38.642  24.386  1.00  0.00     0.000 C 
BRANCH  10  11
ATOM     11  C   UNL     1      -5.844  37.940  25.736  1.00  0.00     0.000 C 
BRANCH  11  12
ATOM     12  C   UNL     1      -4.380  37.546  25.979  1.00  0.00     0.006 C 
BRANCH  12  13
ATOM     13  C   UNL     1      -3.594  38.709  26.595  1.00  0.00     0.053 C 
BRANCH  13  14
ATOM     14  C   UNL     1      -2.275  38.239  27.124  1.00  0.00     0.041 C 
ATOM     15  O   UNL     1      -2.152  37.070  27.573  1.00  0.00    -0.550 OA
ATOM     16  O   UNL     1      -1.179  39.096  27.124  1.00  0.00    -0.550 OA
ENDBRANCH  13  14
ENDBRANCH  12  13
ENDBRANCH  11  12
ENDBRANCH  10  11
ENDBRANCH   9  10
ENDBRANCH   8   9
ENDBRANCH   7   8
ENDBRANCH   6   7
ENDBRANCH   5   6
ENDBRANCH   4   5
ENDBRANCH   3   4
ENDBRANCH   2   3
ENDBRANCH   1   2
BRANCH   1  17
ATOM     17  C   UNL     1      -3.047  34.186  21.996  1.00  0.00     0.000 C 
BRANCH  17  18
ATOM     18  C   UNL     1      -2.731  34.404  20.507  1.00  0.00     0.000 C 
BRANCH  18  19
ATOM     19  C   UNL     1      -3.306  35.696  19.893  1.00  0.00     0.000 C 
BRANCH  19  20
ATOM     20  C   UNL     1      -4.168  35.468  18.634  1.00  0.00     0.000 C 
BRANCH  20  21
ATOM     21  C   UNL     1      -4.216  36.698  17.705  1.00  0.00     0.000 C 
BRANCH  21  22
ATOM     22  C   UNL     1      -3.864  38.007  18.431  1.00  0.00    -0.000 C 
BRANCH  22  23
ATOM     23  C   UNL     1      -2.423  38.029  18.965  1.00  0.00    -0.000 C 
BRANCH  23  24
ATOM     24  C   UNL     1      -1.451  38.579  17.910  1.00  0.00    -0.000 C 
BRANCH  24  25
ATOM     25  C   UNL     1      -0.695  37.467  17.160  1.00  0.00    -0.000 C 
BRANCH  25  26
ATOM     26  C   UNL     1      -1.566  36.608  16.220  1.00  0.00    -0.000 C 
BRANCH  26  27
ATOM     27  C   UNL     1      -1.542  37.028  14.739  1.00  0.00    -0.000 C 
BRANCH  27  28
ATOM     28  C   UNL     1      -2.898  37.566  14.249  1.00  0.00    -0.000 C 
BRANCH  28  29
ATOM     29  C   UNL     1      -3.188  38.985  14.764  1.00  0.00    -0.003 C 
ATOM     30  C   UNL     1      -4.457  39.585  14.158  1.00  0.00     0.004 C 
ENDBRANCH  28  29
ENDBRANCH  27  28
ENDBRANCH  26  27
ENDBRANCH  25  26
ENDBRANCH  24  25
ENDBRANCH  23  24
ENDBRANCH  22  23
ENDBRANCH  21  22
ENDBRANCH  20  21
ENDBRANCH  19  20
ENDBRANCH  18  19
ENDBRANCH  17  18
ENDBRANCH   1  17
TORSDOF 26
ENDMDL
MODEL 5
REMARK VINA RESULT:     2.422      2.169      8.875
REMARK INTER + INTRA:           5.097
REMARK INTER:                   6.562
REMARK INTRA:                  -1.466
REMARK UNBOUND:                -1.008
REMARK SMILES CCCCCCCCCCCCCCCCCCCCCCCCCCCC(=O)[O-]
REMARK SMILES IDX 15 1 16 2 17 3 18 4 19 5 20 6 21 7 22 8 23 9 24 10 25 11
REMARK SMILES IDX 26 12 27 13 28 14 29 15 30 16 14 17 13 18 12 19 11 20 10 21
REMARK SMILES IDX 9 22 8 23 7 24 6 25 5 26 4 27 3 28 2 29 1 30
REMARK H PARENT
REMARK Flexibility Score: inf
ROOT
ATOM      1  C   UNL     1      -4.363  40.668  22.960  1.00  0.00     0.000 C 
ENDROOT
BRANCH   1   2
ATOM      2  C   UNL     1      -5.344  40.091  23.990  1.00  0.00     0.000 C 
BRANCH   2   3
ATOM      3  C   UNL     1      -5.013  40.532  25.426  1.00  0.00     0.000 C 
BRANCH   3   4
ATOM      4  C   UNL     1      -4.699  39.348  26.358  1.00  0.00     0.000 C 
BRANCH   4   5
ATOM      5  C   UNL     1      -4.260  38.094  25.585  1.00  0.00     0.000 C 
BRANCH   5   6
ATOM      6  C   UNL     1      -4.786  36.791  26.212  1.00  0.00     0.000 C 
BRANCH   6   7
ATOM      7  C   UNL     1      -6.125  36.332  25.601  1.00  0.00     0.000 C 
BRANCH   7   8
ATOM      8  C   UNL     1      -6.013  35.652  24.223  1.00  0.00     0.000 C 
BRANCH   8   9
ATOM      9  C   UNL     1      -5.536  36.605  23.117  1.00  0.00     0.000 C 
BRANCH   9  10
ATOM     10  C   UNL     1      -5.449  35.879  21.767  1.00  0.00     0.000 C 
BRANCH  10  11
ATOM     11  C   UNL     1      -4.002  35.567  21.350  1.00  0.00     0.000 C 
BRANCH  11  12
ATOM     12  C   UNL     1      -3.922  34.676  20.103  1.00  0.00     0.006 C 
BRANCH  12  13
ATOM     13  C   UNL     1      -5.007  35.054  19.088  1.00  0.00     0.053 C 
BRANCH  13  14
ATOM     14  C   UNL     1      -4.440  35.903  17.994  1.00  0.00     0.041 C 
ATOM     15  O   UNL     1      -3.853  35.370  17.016  1.00  0.00    -0.550 OA
ATOM     16  O   UNL     1      -4.559  37.288  18.054  1.00  0.00    -0.550 OA
ENDBRANCH  13  14
ENDBRANCH  12  13
ENDBRANCH  11  12
ENDBRANCH  10  11
ENDBRANCH   9  10
ENDBRANCH   8   9
ENDBRANCH   7   8
ENDBRANCH   6   7
ENDBRANCH   5   6
ENDBRANCH   4   5
ENDBRANCH   3   4
ENDBRANCH   2   3
ENDBRANCH   1   2
BRANCH   1  17
ATOM     17  C   UNL     1      -4.331  39.819  21.681  1.00  0.00     0.000 C 
BRANCH  17  18
ATOM     18  C   UNL     1      -3.074  38.939  21.582  1.00  0.00     0.000 C 
BRANCH  18  19
ATOM     19  C   UNL     1      -2.892  38.198  20.242  1.00  0.00     0.000 C 
BRANCH  19  20
ATOM     20  C   UNL     1      -1.468  38.295  19.655  1.00  0.00     0.000 C 
BRANCH  20  21
ATOM     21  C   UNL     1      -1.456  38.729  18.175  1.00  0.00     0.000 C 
BRANCH  21  22
ATOM     22  C   UNL     1      -1.156  37.566  17.215  1.00  0.00    -0.000 C 
BRANCH  22  23
ATOM     23  C   UNL     1      -1.358  37.941  15.737  1.00  0.00    -0.000 C 
BRANCH  23  24
ATOM     24  C   UNL     1      -2.218  36.894  15.014  1.00  0.00    -0.000 C 
BRANCH  24  25
ATOM     25  C   UNL     1      -3.603  37.434  14.614  1.00  0.00    -0.000 C 
BRANCH  25  26
ATOM     26  C   UNL     1      -3.586  38.788  13.876  1.00  0.00    -0.000 C 
BRANCH  26  27
ATOM     27  C   UNL     1      -3.964  40.008  14.736  1.00  0.00    -0.000 C 
BRANCH  27  28
ATOM     28  C   UNL     1      -4.902  40.985  14.006  1.00  0.00    -0.000 C 
BRANCH  28  29
ATOM     29  C   UNL     1      -4.616  42.452  14.366  1.00  0.00    -0.003 C 
ATOM     30  C   UNL     1      -5.789  43.125  15.078  1.00  0.00     0.004 C 
ENDBRANCH  28  29
ENDBRANCH  27  28
ENDBRANCH  26  27
ENDBRANCH  25  26
ENDBRANCH  24  25
ENDBRANCH  23  24
ENDBRANCH  22  23
ENDBRANCH  21  22
ENDBRANCH  20  21
ENDBRANCH  19  20
ENDBRANCH  18  19
ENDBRANCH  17  18
ENDBRANCH   1  17
TORSDOF 26
ENDMDL
MODEL 6
REMARK VINA RESULT:     2.444      2.694      4.762
REMARK INTER + INTRA:           5.151
REMARK INTER:                   5.834
REMARK INTRA:                  -0.683
REMARK UNBOUND:                -1.008
REMARK SMILES CCCCCCCCCCCCCCCCCCCCCCCCCCCC(=O)[O-]
REMARK SMILES IDX 15 1 16 2 17 3 18 4 19 5 20 6 21 7 22 8 23 9 24 10 25 11
REMARK SMILES IDX 26 12 27 13 28 14 29 15 30 16 14 17 13 18 12 19 11 20 10 21
REMARK SMILES IDX 9 22 8 23 7 24 6 25 5 26 4 27 3 28 2 29 1 30
REMARK H PARENT
REMARK Flexibility Score: inf
ROOT
ATOM      1  C   UNL     1      -4.092  36.010  18.006  1.00  0.00     0.000 C 
ENDROOT
BRANCH   1   2
ATOM      2  C   UNL     1      -3.125  35.703  16.854  1.00  0.00     0.000 C 
BRANCH   2   3
ATOM      3  C   UNL     1      -3.195  36.756  15.734  1.00  0.00     0.000 C 
BRANCH   3   4
ATOM      4  C   UNL     1      -2.055  37.787  15.810  1.00  0.00     0.000 C 
BRANCH   4   5
ATOM      5  C   UNL     1      -1.045  37.464  16.923  1.00  0.00     0.000 C 
BRANCH   5   6
ATOM      6  C   UNL     1      -0.674  38.694  17.769  1.00  0.00     0.000 C 
BRANCH   6   7
ATOM      7  C   UNL     1      -0.733  38.417  19.284  1.00  0.00     0.000 C 
BRANCH   7   8
ATOM      8  C   UNL     1      -2.042  37.770  19.777  1.00  0.00     0.000 C 
BRANCH   8   9
ATOM      9  C   UNL     1      -3.114  38.799  20.165  1.00  0.00     0.000 C 
BRANCH   9  10
ATOM     10  C   UNL     1      -4.257  38.814  19.139  1.00  0.00     0.000 C 
BRANCH  10  11
ATOM     11  C   UNL     1      -5.595  39.268  19.744  1.00  0.00     0.000 C 
BRANCH  11  12
ATOM     12  C   UNL     1      -5.422  40.330  20.840  1.00  0.00     0.006 C 
BRANCH  12  13
ATOM     13  C   UNL     1      -5.673  39.731  22.228  1.00  0.00     0.053 C 
BRANCH  13  14
ATOM     14  C   UNL     1      -4.584  40.115  23.179  1.00  0.00     0.041 C 
ATOM     15  O   UNL     1      -3.377  39.965  22.856  1.00  0.00    -0.550 OA
ATOM     16  O   UNL     1      -4.902  40.639  24.428  1.00  0.00    -0.550 OA
ENDBRANCH  13  14
ENDBRANCH  12  13
ENDBRANCH  11  12
ENDBRANCH  10  11
ENDBRANCH   9  10
ENDBRANCH   8   9
ENDBRANCH   7   8
ENDBRANCH   6   7
ENDBRANCH   5   6
ENDBRANCH   4   5
ENDBRANCH   3   4
ENDBRANCH   2   3
ENDBRANCH   1   2
BRANCH   1  17
ATOM     17  C   UNL     1      -5.162  34.916  18.144  1.00  0.00     0.000 C 
BRANCH  17  18
ATOM     18  C   UNL     1      -6.059  35.113  19.377  1.00  0.00     0.000 C 
BRANCH  18  19
ATOM     19  C   UNL     1      -5.759  36.372  20.216  1.00  0.00     0.000 C 
BRANCH  19  20
ATOM     20  C   UNL     1      -5.054  36.083  21.557  1.00  0.00     0.000 C 
BRANCH  20  21
ATOM     21  C   UNL     1      -6.036  35.715  22.687  1.00  0.00     0.000 C 
BRANCH  21  22
ATOM     22  C   UNL     1      -6.124  36.797  23.776  1.00  0.00    -0.000 C 
BRANCH  22  23
ATOM     23  C   UNL     1      -5.783  36.266  25.178  1.00  0.00    -0.000 C 
BRANCH  23  24
ATOM     24  C   UNL     1      -5.408  37.414  26.128  1.00  0.00    -0.000 C 
BRANCH  24  25
ATOM     25  C   UNL     1      -4.153  38.179  25.670  1.00  0.00    -0.000 C 
BRANCH  25  26
ATOM     26  C   UNL     1      -3.218  38.636  26.809  1.00  0.00    -0.000 C 
BRANCH  26  27
ATOM     27  C   UNL     1      -2.092  37.649  27.168  1.00  0.00    -0.000 C 
BRANCH  27  28
ATOM     28  C   UNL     1      -2.570  36.499  28.072  1.00  0.00    -0.000 C 
BRANCH  28  29
ATOM     29  C   UNL     1      -1.429  35.546  28.462  1.00  0.00    -0.003 C 
ATOM     30  C   UNL     1      -1.592  34.973  29.869  1.00  0.00     0.004 C 
ENDBRANCH  28  29
ENDBRANCH  27  28
ENDBRANCH  26  27
ENDBRANCH  25  26
ENDBRANCH  24  25
ENDBRANCH  23  24
ENDBRANCH  22  23
ENDBRANCH  21  22
ENDBRANCH  20  21
ENDBRANCH  19  20
ENDBRANCH  18  19
ENDBRANCH  17  18
ENDBRANCH   1  17
TORSDOF 26
ENDMDL
MODEL 7
REMARK VINA RESULT:     2.463      4.377      8.983
REMARK INTER + INTRA:           5.199
REMARK INTER:                   6.574
REMARK INTRA:                  -1.375
REMARK UNBOUND:                -1.008
REMARK SMILES CCCCCCCCCCCCCCCCCCCCCCCCCCCC(=O)[O-]
REMARK SMILES IDX 15 1 16 2 17 3 18 4 19 5 20 6 21 7 22 8 23 9 24 10 25 11
REMARK SMILES IDX 26 12 27 13 28 14 29 15 30 16 14 17 13 18 12 19 11 20 10 21
REMARK SMILES IDX 9 22 8 23 7 24 6 25 5 26 4 27 3 28 2 29 1 30
REMARK H PARENT
REMARK Flexibility Score: inf
ROOT
ATOM      1  C   UNL     1      -5.289  35.100  19.344  1.00  0.00     0.000 C 
ENDROOT
BRANCH   1   2
ATOM      2  C   UNL     1      -5.810  35.849  20.579  1.00  0.00     0.000 C 
BRANCH   2   3
ATOM      3  C   UNL     1      -4.704  36.112  21.615  1.00  0.00     0.000 C 
BRANCH   3   4
ATOM      4  C   UNL     1      -5.026  35.519  22.998  1.00  0.00     0.000 C 
BRANCH   4   5
ATOM      5  C   UNL     1      -6.069  36.348  23.764  1.00  0.00     0.000 C 
BRANCH   5   6
ATOM      6  C   UNL     1      -5.916  36.240  25.290  1.00  0.00     0.000 C 
BRANCH   6   7
ATOM      7  C   UNL     1      -6.123  37.587  26.009  1.00  0.00     0.000 C 
BRANCH   7   8
ATOM      8  C   UNL     1      -5.511  38.807  25.294  1.00  0.00     0.000 C 
BRANCH   8   9
ATOM      9  C   UNL     1      -3.997  38.942  25.519  1.00  0.00     0.000 C 
BRANCH   9  10
ATOM     10  C   UNL     1      -3.480  37.837  26.452  1.00  0.00     0.000 C 
BRANCH  10  11
ATOM     11  C   UNL     1      -2.330  38.309  27.354  1.00  0.00     0.000 C 
BRANCH  11  12
ATOM     12  C   UNL     1      -1.419  37.158  27.807  1.00  0.00     0.006 C 
BRANCH  12  13
ATOM     13  C   UNL     1      -2.242  35.917  28.168  1.00  0.00     0.053 C 
BRANCH  13  14
ATOM     14  C   UNL     1      -1.594  35.153  29.280  1.00  0.00     0.041 C 
ATOM     15  O   UNL     1      -0.413  34.734  29.159  1.00  0.00    -0.550 OA
ATOM     16  O   UNL     1      -2.296  34.902  30.455  1.00  0.00    -0.550 OA
ENDBRANCH  13  14
ENDBRANCH  12  13
ENDBRANCH  11  12
ENDBRANCH  10  11
ENDBRANCH   9  10
ENDBRANCH   8   9
ENDBRANCH   7   8
ENDBRANCH   6   7
ENDBRANCH   5   6
ENDBRANCH   4   5
ENDBRANCH   3   4
ENDBRANCH   2   3
ENDBRANCH   1   2
BRANCH   1  17
ATOM     17  C   UNL     1      -4.222  35.920  18.603  1.00  0.00     0.000 C 
BRANCH  17  18
ATOM     18  C   UNL     1      -3.940  35.387  17.189  1.00  0.00     0.000 C 
BRANCH  18  19
ATOM     19  C   UNL     1      -2.665  35.939  16.519  1.00  0.00     0.000 C 
BRANCH  19  20
ATOM     20  C   UNL     1      -2.804  37.381  15.988  1.00  0.00     0.000 C 
BRANCH  20  21
ATOM     21  C   UNL     1      -1.798  38.358  16.629  1.00  0.00     0.000 C 
BRANCH  21  22
ATOM     22  C   UNL     1      -0.635  37.640  17.335  1.00  0.00    -0.000 C 
BRANCH  22  23
ATOM     23  C   UNL     1      -0.435  38.106  18.786  1.00  0.00    -0.000 C 
BRANCH  23  24
ATOM     24  C   UNL     1      -1.687  37.833  19.632  1.00  0.00    -0.000 C 
BRANCH  24  25
ATOM     25  C   UNL     1      -2.689  39.002  19.607  1.00  0.00    -0.000 C 
BRANCH  25  26
ATOM     26  C   UNL     1      -4.139  38.609  19.260  1.00  0.00    -0.000 C 
BRANCH  26  27
ATOM     27  C   UNL     1      -5.221  39.246  20.151  1.00  0.00    -0.000 C 
BRANCH  27  28
ATOM     28  C   UNL     1      -4.872  39.190  21.649  1.00  0.00    -0.000 C 
BRANCH  28  29
ATOM     29  C   UNL     1      -5.692  40.189  22.481  1.00  0.00    -0.003 C 
ATOM     30  C   UNL     1      -4.911  41.457  22.820  1.00  0.00     0.004 C 
ENDBRANCH  28  29
ENDBRANCH  27  28
ENDBRANCH  26  27
ENDBRANCH  25  26
ENDBRANCH  24  25
ENDBRANCH  23  24
ENDBRANCH  22  23
ENDBRANCH  21  22
ENDBRANCH  20  21
ENDBRANCH  19  20
ENDBRANCH  18  19
ENDBRANCH  17  18
ENDBRANCH   1  17
TORSDOF 26
ENDMDL
MODEL 8
REMARK VINA RESULT:     2.523      2.909      5.088
REMARK INTER + INTRA:           5.350
REMARK INTER:                   5.853
REMARK INTRA:                  -0.503
REMARK UNBOUND:                -1.008
REMARK SMILES CCCCCCCCCCCCCCCCCCCCCCCCCCCC(=O)[O-]
REMARK SMILES IDX 15 1 16 2 17 3 18 4 19 5 20 6 21 7 22 8 23 9 24 10 25 11
REMARK SMILES IDX 26 12 27 13 28 14 29 15 30 16 14 17 13 18 12 19 11 20 10 21
REMARK SMILES IDX 9 22 8 23 7 24 6 25 5 26 4 27 3 28 2 29 1 30
REMARK H PARENT
REMARK Flexibility Score: inf
ROOT
ATOM      1  C   UNL     1      -0.847  37.872  18.777  1.00  0.00     0.000 C 
ENDROOT
BRANCH   1   2
ATOM      2  C   UNL     1      -0.634  38.073  17.270  1.00  0.00     0.000 C 
BRANCH   2   3
ATOM      3  C   UNL     1      -0.941  36.801  16.460  1.00  0.00     0.000 C 
BRANCH   3   4
ATOM      4  C   UNL     1      -1.765  37.084  15.191  1.00  0.00     0.000 C 
BRANCH   4   5
ATOM      5  C   UNL     1      -2.906  38.082  15.443  1.00  0.00     0.000 C 
BRANCH   5   6
ATOM      6  C   UNL     1      -3.993  37.525  16.378  1.00  0.00     0.000 C 
BRANCH   6   7
ATOM      7  C   UNL     1      -3.790  36.035  16.710  1.00  0.00     0.000 C 
BRANCH   7   8
ATOM      8  C   UNL     1      -3.715  35.707  18.214  1.00  0.00     0.000 C 
BRANCH   8   9
ATOM      9  C   UNL     1      -4.883  34.836  18.700  1.00  0.00     0.000 C 
BRANCH   9  10
ATOM     10  C   UNL     1      -6.038  35.705  19.217  1.00  0.00     0.000 C 
BRANCH  10  11
ATOM     11  C   UNL     1      -5.570  36.808  20.180  1.00  0.00     0.000 C 
BRANCH  11  12
ATOM     12  C   UNL     1      -6.113  36.624  21.605  1.00  0.00     0.006 C 
BRANCH  12  13
ATOM     13  C   UNL     1      -4.974  36.365  22.597  1.00  0.00     0.053 C 
BRANCH  13  14
ATOM     14  C   UNL     1      -5.385  35.364  23.631  1.00  0.00     0.041 C 
ATOM     15  O   UNL     1      -6.122  35.710  24.591  1.00  0.00    -0.550 OA
ATOM     16  O   UNL     1      -4.951  34.046  23.536  1.00  0.00    -0.550 OA
ENDBRANCH  13  14
ENDBRANCH  12  13
ENDBRANCH  11  12
ENDBRANCH  10  11
ENDBRANCH   9  10
ENDBRANCH   8   9
ENDBRANCH   7   8
ENDBRANCH   6   7
ENDBRANCH   5   6
ENDBRANCH   4   5
ENDBRANCH   3   4
ENDBRANCH   2   3
ENDBRANCH   1   2
BRANCH   1  17
ATOM     17  C   UNL     1      -1.702  39.000  19.375  1.00  0.00     0.000 C 
BRANCH  17  18
ATOM     18  C   UNL     1      -3.194  38.637  19.453  1.00  0.00     0.000 C 
BRANCH  18  19
ATOM     19  C   UNL     1      -3.907  39.056  20.755  1.00  0.00     0.000 C 
BRANCH  19  20
ATOM     20  C   UNL     1      -5.238  39.806  20.533  1.00  0.00     0.000 C 
BRANCH  20  21
ATOM     21  C   UNL     1      -5.934  40.200  21.851  1.00  0.00     0.000 C 
BRANCH  21  22
ATOM     22  C   UNL     1      -4.942  40.629  22.945  1.00  0.00    -0.000 C 
BRANCH  22  23
ATOM     23  C   UNL     1      -4.467  39.456  23.817  1.00  0.00    -0.000 C 
BRANCH  23  24
ATOM     24  C   UNL     1      -5.413  39.233  25.007  1.00  0.00    -0.000 C 
BRANCH  24  25
ATOM     25  C   UNL     1      -4.791  38.352  26.106  1.00  0.00    -0.000 C 
BRANCH  25  26
ATOM     26  C   UNL     1      -3.261  38.176  26.011  1.00  0.00    -0.000 C 
BRANCH  26  27
ATOM     27  C   UNL     1      -2.544  37.946  27.353  1.00  0.00    -0.000 C 
BRANCH  27  28
ATOM     28  C   UNL     1      -2.093  36.487  27.548  1.00  0.00    -0.000 C 
BRANCH  28  29
ATOM     29  C   UNL     1      -1.889  36.129  29.029  1.00  0.00    -0.003 C 
ATOM     30  C   UNL     1      -1.726  34.626  29.256  1.00  0.00     0.004 C 
ENDBRANCH  28  29
ENDBRANCH  27  28
ENDBRANCH  26  27
ENDBRANCH  25  26
ENDBRANCH  24  25
ENDBRANCH  23  24
ENDBRANCH  22  23
ENDBRANCH  21  22
ENDBRANCH  20  21
ENDBRANCH  19  20
ENDBRANCH  18  19
ENDBRANCH  17  18
ENDBRANCH   1  17
TORSDOF 26
ENDMDL
MODEL 9
REMARK VINA RESULT:     4.205      2.282      8.063
REMARK INTER + INTRA:           9.588
REMARK INTER:                   8.841
REMARK INTRA:                   0.747
REMARK UNBOUND:                -1.008
REMARK SMILES CCCCCCCCCCCCCCCCCCCCCCCCCCCC(=O)[O-]
REMARK SMILES IDX 15 1 16 2 17 3 18 4 19 5 20 6 21 7 22 8 23 9 24 10 25 11
REMARK SMILES IDX 26 12 27 13 28 14 29 15 30 16 14 17 13 18 12 19 11 20 10 21
REMARK SMILES IDX 9 22 8 23 7 24 6 25 5 26 4 27 3 28 2 29 1 30
REMARK H PARENT
REMARK Flexibility Score: inf
ROOT
ATOM      1  C   UNL     1      -6.125  37.282  24.179  1.00  0.00     0.000 C 
ENDROOT
BRANCH   1   2
ATOM      2  C   UNL     1      -5.864  38.034  25.492  1.00  0.00     0.000 C 
BRANCH   2   3
ATOM      3  C   UNL     1      -4.478  37.719  26.081  1.00  0.00     0.000 C 
BRANCH   3   4
ATOM      4  C   UNL     1      -3.471  38.868  25.888  1.00  0.00     0.000 C 
BRANCH   4   5
ATOM      5  C   UNL     1      -3.442  39.385  24.441  1.00  0.00     0.000 C 
BRANCH   5   6
ATOM      6  C   UNL     1      -4.327  40.625  24.231  1.00  0.00     0.000 C 
BRANCH   6   7
ATOM      7  C   UNL     1      -5.088  40.597  22.892  1.00  0.00     0.000 C 
BRANCH   7   8
ATOM      8  C   UNL     1      -4.780  39.383  21.993  1.00  0.00     0.000 C 
BRANCH   8   9
ATOM      9  C   UNL     1      -5.542  39.411  20.660  1.00  0.00     0.000 C 
BRANCH   9  10
ATOM     10  C   UNL     1      -4.661  38.897  19.513  1.00  0.00     0.000 C 
BRANCH  10  11
ATOM     11  C   UNL     1      -3.200  39.361  19.628  1.00  0.00     0.000 C 
BRANCH  11  12
ATOM     12  C   UNL     1      -2.195  38.216  19.438  1.00  0.00     0.006 C 
BRANCH  12  13
ATOM     13  C   UNL     1      -0.755  38.726  19.554  1.00  0.00     0.053 C 
BRANCH  13  14
ATOM     14  C   UNL     1       0.047  38.339  18.351  1.00  0.00     0.041 C 
ATOM     15  O   UNL     1      -0.390  38.576  17.195  1.00  0.00    -0.550 OA
ATOM     16  O   UNL     1       1.279  37.714  18.506  1.00  0.00    -0.550 OA
ENDBRANCH  13  14
ENDBRANCH  12  13
ENDBRANCH  11  12
ENDBRANCH  10  11
ENDBRANCH   9  10
ENDBRANCH   8   9
ENDBRANCH   7   8
ENDBRANCH   6   7
ENDBRANCH   5   6
ENDBRANCH   4   5
ENDBRANCH   3   4
ENDBRANCH   2   3
ENDBRANCH   1   2
BRANCH   1  17
ATOM     17  C   UNL     1      -5.967  35.764  24.363  1.00  0.00     0.000 C 
BRANCH  17  18
ATOM     18  C   UNL     1      -5.273  35.090  23.168  1.00  0.00     0.000 C 
BRANCH  18  19
ATOM     19  C   UNL     1      -5.485  35.782  21.807  1.00  0.00     0.000 C 
BRANCH  19  20
ATOM     20  C   UNL     1      -4.176  36.128  21.065  1.00  0.00     0.000 C 
BRANCH  20  21
ATOM     21  C   UNL     1      -4.380  36.339  19.552  1.00  0.00     0.000 C 
BRANCH  21  22
ATOM     22  C   UNL     1      -4.491  35.017  18.773  1.00  0.00    -0.000 C 
BRANCH  22  23
ATOM     23  C   UNL     1      -4.007  35.136  17.319  1.00  0.00    -0.000 C 
BRANCH  23  24
ATOM     24  C   UNL     1      -3.719  36.598  16.949  1.00  0.00    -0.000 C 
BRANCH  24  25
ATOM     25  C   UNL     1      -2.304  36.800  16.375  1.00  0.00    -0.000 C 
BRANCH  25  26
ATOM     26  C   UNL     1      -2.191  36.621  14.847  1.00  0.00    -0.000 C 
BRANCH  26  27
ATOM     27  C   UNL     1      -2.704  37.806  14.009  1.00  0.00    -0.000 C 
BRANCH  27  28
ATOM     28  C   UNL     1      -3.588  38.772  14.817  1.00  0.00    -0.000 C 
BRANCH  28  29
ATOM     29  C   UNL     1      -4.574  39.547  13.929  1.00  0.00    -0.003 C 
ATOM     30  C   UNL     1      -4.478  41.060  14.120  1.00  0.00     0.004 C 
ENDBRANCH  28  29
ENDBRANCH  27  28
ENDBRANCH  26  27
ENDBRANCH  25  26
ENDBRANCH  24  25
ENDBRANCH  23  24
ENDBRANCH  22  23
ENDBRANCH  21  22
ENDBRANCH  20  21
ENDBRANCH  19  20
ENDBRANCH  18  19
ENDBRANCH  17  18
ENDBRANCH   1  17
TORSDOF 26
ENDMDL
