MODEL 1
REMARK VINA RESULT:    -8.025      0.000      0.000
REMARK INTER + INTRA:          -8.621
REMARK INTER:                  -8.728
REMARK INTRA:                   0.107
REMARK UNBOUND:                 0.107
REMARK SMILES C[C@H]1[C@H](C)CC[C@]2(C(=O)[O-])CC[C@]3(C)C(=CC[C@@H]4[C@]5(C)CC[C@@H](O)C(C)(C)[C@H]5CC[C@]43C)[C@@H]12
REMARK SMILES IDX 7 1 6 2 11 3 33 4 5 5 12 6 15 7 2 8 3 9 13 10 16 11 1 12
REMARK SMILES IDX 4 13 14 14 31 15 17 16 18 17 30 18 32 19 19 20 29 21 28 22
REMARK SMILES IDX 21 23 20 24 25 25 22 26 23 27 26 28 27 29 8 30 9 31 10 32
REMARK SMILES IDX 24 33
REMARK H PARENT 24 34
REMARK Flexibility Score: inf
ROOT
ATOM      1  C   UNL     1       0.466 -10.043  14.852  1.00  0.00     0.017 C 
ATOM      2  C   UNL     1       1.574 -11.051  14.410  1.00  0.00     0.014 C 
ATOM      3  C   UNL     1      -0.608  -9.905  13.714  1.00  0.00     0.014 C 
ATOM      4  C   UNL     1       1.188  -8.684  15.122  1.00  0.00     0.030 C 
ATOM      5  C   UNL     1       2.732 -11.175  15.427  1.00  0.00     0.004 C 
ATOM      6  C   UNL     1      -0.536  -8.607  12.879  1.00  0.00     0.013 C 
ATOM      7  C   UNL     1       0.225  -7.499  15.055  1.00  0.00    -0.063 C 
ATOM      8  C   UNL     1       2.291  -8.757  16.233  1.00  0.00    -0.003 C 
ATOM      9  C   UNL     1       3.366  -9.819  15.836  1.00  0.00    -0.011 C 
ATOM     10  C   UNL     1      -0.440  -7.244  13.685  1.00  0.00    -0.006 C 
ATOM     11  C   UNL     1       0.040  -6.641  16.086  1.00  0.00    -0.027 C 
ATOM     12  C   UNL     1       1.799  -9.047  17.673  1.00  0.00     0.008 C 
ATOM     13  C   UNL     1       4.336  -9.308  14.755  1.00  0.00     0.008 C 
ATOM     14  C   UNL     1       0.568  -6.359  12.870  1.00  0.00     0.017 C 
ATOM     15  C   UNL     1      -1.871  -6.519  13.880  1.00  0.00    -0.020 C 
ATOM     16  C   UNL     1      -1.157  -5.731  16.200  1.00  0.00     0.032 C 
ATOM     17  C   UNL     1      -1.703  -5.275  14.830  1.00  0.00     0.006 C 
ATOM     18  C   UNL     1      -2.417  -5.970  12.529  1.00  0.00     0.008 C 
ATOM     19  C   UNL     1      -2.863  -7.561  14.488  1.00  0.00     0.012 C 
ATOM     20  C   UNL     1      -2.876  -4.149  14.811  1.00  0.00    -0.025 C 
ATOM     21  C   UNL     1      -3.780  -5.265  12.600  1.00  0.00     0.005 C 
ATOM     22  C   UNL     1      -4.128  -4.601  13.962  1.00  0.00     0.003 C 
ATOM     23  C   UNL     1      -3.369  -3.755  16.262  1.00  0.00     0.010 C 
ATOM     24  C   UNL     1      -2.250  -2.873  14.166  1.00  0.00     0.012 C 
ATOM     25  C   UNL     1      -5.354  -3.577  13.890  1.00  0.00    -0.006 C 
ATOM     26  C   UNL     1      -4.880  -3.491  16.419  1.00  0.00     0.033 C 
ATOM     27  C   UNL     1      -5.504  -2.758  15.232  1.00  0.00     0.120 C 
ATOM     28  C   UNL     1      -5.290  -2.610  12.673  1.00  0.00     0.014 C 
ATOM     29  C   UNL     1      -6.664  -4.398  13.705  1.00  0.00     0.014 C 
ENDROOT
BRANCH   1  30
ATOM     30  C   UNL     1      -0.273 -10.559  16.081  1.00  0.00     0.048 C 
ATOM     31  O   UNL     1       0.004 -11.683  16.580  1.00  0.00    -0.550 OA
ATOM     32  O   UNL     1      -1.352  -9.852  16.597  1.00  0.00    -0.550 OA
ENDBRANCH   1  30
BRANCH  27  33
ATOM     33  O   UNL     1      -4.947  -1.467  15.153  1.00  0.00    -0.393 OA
ATOM     34  H   UNL     1      -5.695  -0.814  15.168  1.00  0.00     0.210 HD
ENDBRANCH  27  33
TORSDOF 2
ENDMDL
MODEL 2
REMARK VINA RESULT:    -7.988      2.132      3.812
REMARK INTER + INTRA:          -8.581
REMARK INTER:                  -8.745
REMARK INTRA:                   0.164
REMARK UNBOUND:                 0.107
REMARK SMILES C[C@H]1[C@H](C)CC[C@]2(C(=O)[O-])CC[C@]3(C)C(=CC[C@@H]4[C@]5(C)CC[C@@H](O)C(C)(C)[C@H]5CC[C@]43C)[C@@H]12
REMARK SMILES IDX 7 1 6 2 11 3 33 4 5 5 12 6 15 7 2 8 3 9 13 10 16 11 1 12
REMARK SMILES IDX 4 13 14 14 31 15 17 16 18 17 30 18 32 19 19 20 29 21 28 22
REMARK SMILES IDX 21 23 20 24 25 25 22 26 23 27 26 28 27 29 8 30 9 31 10 32
REMARK SMILES IDX 24 33
REMARK H PARENT 24 34
REMARK Flexibility Score: inf
ROOT
ATOM      1  C   UNL     1      -1.727  -7.322  14.203  1.00  0.00     0.017 C 
ATOM      2  C   UNL     1      -0.748  -8.142  13.303  1.00  0.00     0.014 C 
ATOM      3  C   UNL     1      -3.180  -7.402  13.615  1.00  0.00     0.014 C 
ATOM      4  C   UNL     1      -1.193  -5.854  14.210  1.00  0.00     0.030 C 
ATOM      5  C   UNL     1       0.728  -8.039  13.748  1.00  0.00     0.004 C 
ATOM      6  C   UNL     1      -3.676  -6.136  12.880  1.00  0.00     0.013 C 
ATOM      7  C   UNL     1      -2.281  -4.850  14.596  1.00  0.00    -0.063 C 
ATOM      8  C   UNL     1       0.264  -5.706  14.765  1.00  0.00    -0.003 C 
ATOM      9  C   UNL     1       1.240  -6.583  13.917  1.00  0.00    -0.011 C 
ATOM     10  C   UNL     1      -3.483  -4.752  13.632  1.00  0.00    -0.006 C 
ATOM     11  C   UNL     1      -2.164  -4.005  15.647  1.00  0.00    -0.027 C 
ATOM     12  C   UNL     1       0.465  -6.031  16.267  1.00  0.00     0.008 C 
ATOM     13  C   UNL     1       1.578  -5.949  12.555  1.00  0.00     0.008 C 
ATOM     14  C   UNL     1      -3.063  -3.736  12.512  1.00  0.00     0.017 C 
ATOM     15  C   UNL     1      -4.805  -4.273  14.428  1.00  0.00    -0.020 C 
ATOM     16  C   UNL     1      -3.341  -3.306  16.281  1.00  0.00     0.032 C 
ATOM     17  C   UNL     1      -4.470  -2.991  15.277  1.00  0.00     0.006 C 
ATOM     18  C   UNL     1      -5.942  -3.866  13.446  1.00  0.00     0.008 C 
ATOM     19  C   UNL     1      -5.271  -5.449  15.346  1.00  0.00     0.012 C 
ATOM     20  C   UNL     1      -5.715  -2.080  15.790  1.00  0.00    -0.025 C 
ATOM     21  C   UNL     1      -7.251  -3.399  14.100  1.00  0.00     0.005 C 
ATOM     22  C   UNL     1      -7.112  -2.762  15.512  1.00  0.00     0.003 C 
ATOM     23  C   UNL     1      -5.625  -1.731  17.331  1.00  0.00     0.010 C 
ATOM     24  C   UNL     1      -5.632  -0.736  14.999  1.00  0.00     0.012 C 
ATOM     25  C   UNL     1      -8.410  -1.962  15.994  1.00  0.00    -0.006 C 
ATOM     26  C   UNL     1      -6.958  -1.720  18.106  1.00  0.00     0.033 C 
ATOM     27  C   UNL     1      -8.127  -1.140  17.312  1.00  0.00     0.120 C 
ATOM     28  C   UNL     1      -9.015  -1.035  14.900  1.00  0.00     0.014 C 
ATOM     29  C   UNL     1      -9.524  -2.997  16.329  1.00  0.00     0.014 C 
ENDROOT
BRANCH   1  30
ATOM     30  C   UNL     1      -1.796  -7.918  15.605  1.00  0.00     0.048 C 
ATOM     31  O   UNL     1      -1.358  -9.076  15.840  1.00  0.00    -0.550 OA
ATOM     32  O   UNL     1      -2.459  -7.241  16.621  1.00  0.00    -0.550 OA
ENDBRANCH   1  30
BRANCH  27  33
ATOM     33  O   UNL     1      -7.875   0.224  17.066  1.00  0.00    -0.393 OA
ATOM     34  H   UNL     1      -8.628   0.745  17.450  1.00  0.00     0.210 HD
ENDBRANCH  27  33
TORSDOF 2
ENDMDL
MODEL 3
REMARK VINA RESULT:    -7.707      2.970      5.785
REMARK INTER + INTRA:          -8.276
REMARK INTER:                  -8.389
REMARK INTRA:                   0.113
REMARK UNBOUND:                 0.107
REMARK SMILES C[C@H]1[C@H](C)CC[C@]2(C(=O)[O-])CC[C@]3(C)C(=CC[C@@H]4[C@]5(C)CC[C@@H](O)C(C)(C)[C@H]5CC[C@]43C)[C@@H]12
REMARK SMILES IDX 7 1 6 2 11 3 33 4 5 5 12 6 15 7 2 8 3 9 13 10 16 11 1 12
REMARK SMILES IDX 4 13 14 14 31 15 17 16 18 17 30 18 32 19 19 20 29 21 28 22
REMARK SMILES IDX 21 23 20 24 25 25 22 26 23 27 26 28 27 29 8 30 9 31 10 32
REMARK SMILES IDX 24 33
REMARK H PARENT 24 34
REMARK Flexibility Score: inf
ROOT
ATOM      1  C   UNL     1      -3.046  -5.977  15.357  1.00  0.00     0.017 C 
ATOM      2  C   UNL     1      -2.804  -7.514  15.224  1.00  0.00     0.014 C 
ATOM      3  C   UNL     1      -4.485  -5.714  15.928  1.00  0.00     0.014 C 
ATOM      4  C   UNL     1      -2.883  -5.379  13.923  1.00  0.00     0.030 C 
ATOM      5  C   UNL     1      -1.447  -7.869  14.574  1.00  0.00     0.004 C 
ATOM      6  C   UNL     1      -5.534  -5.231  14.902  1.00  0.00     0.013 C 
ATOM      7  C   UNL     1      -3.576  -4.024  13.784  1.00  0.00    -0.063 C 
ATOM      8  C   UNL     1      -1.474  -5.627  13.284  1.00  0.00    -0.003 C 
ATOM      9  C   UNL     1      -1.190  -7.162  13.217  1.00  0.00    -0.011 C 
ATOM     10  C   UNL     1      -5.110  -4.027  13.960  1.00  0.00    -0.006 C 
ATOM     11  C   UNL     1      -2.923  -2.897  13.413  1.00  0.00    -0.027 C 
ATOM     12  C   UNL     1      -0.275  -4.919  13.966  1.00  0.00     0.008 C 
ATOM     13  C   UNL     1      -1.950  -7.857  12.072  1.00  0.00     0.008 C 
ATOM     14  C   UNL     1      -5.709  -4.380  12.553  1.00  0.00     0.017 C 
ATOM     15  C   UNL     1      -5.618  -2.591  14.498  1.00  0.00    -0.020 C 
ATOM     16  C   UNL     1      -3.467  -1.510  13.648  1.00  0.00     0.032 C 
ATOM     17  C   UNL     1      -5.009  -1.450  13.600  1.00  0.00     0.006 C 
ATOM     18  C   UNL     1      -7.165  -2.459  14.387  1.00  0.00     0.008 C 
ATOM     19  C   UNL     1      -5.162  -2.440  15.984  1.00  0.00     0.012 C 
ATOM     20  C   UNL     1      -5.718   0.013  13.657  1.00  0.00    -0.025 C 
ATOM     21  C   UNL     1      -7.757  -1.129  14.879  1.00  0.00     0.005 C 
ATOM     22  C   UNL     1      -6.815   0.105  14.789  1.00  0.00     0.003 C 
ATOM     23  C   UNL     1      -4.680   1.188  13.866  1.00  0.00     0.010 C 
ATOM     24  C   UNL     1      -6.395   0.227  12.266  1.00  0.00     0.012 C 
ATOM     25  C   UNL     1      -7.565   1.508  14.950  1.00  0.00    -0.006 C 
ATOM     26  C   UNL     1      -5.137   2.345  14.777  1.00  0.00     0.033 C 
ATOM     27  C   UNL     1      -6.609   2.717  14.609  1.00  0.00     0.120 C 
ATOM     28  C   UNL     1      -8.880   1.611  14.125  1.00  0.00     0.014 C 
ATOM     29  C   UNL     1      -7.991   1.665  16.439  1.00  0.00     0.014 C 
ENDROOT
BRANCH   1  30
ATOM     30  C   UNL     1      -2.069  -5.362  16.353  1.00  0.00     0.048 C 
ATOM     31  O   UNL     1      -1.224  -6.076  16.958  1.00  0.00    -0.550 OA
ATOM     32  O   UNL     1      -2.179  -4.023  16.705  1.00  0.00    -0.550 OA
ENDBRANCH   1  30
BRANCH  27  33
ATOM     33  O   UNL     1      -6.803   3.222  13.308  1.00  0.00    -0.393 OA
ATOM     34  H   UNL     1      -7.642   2.826  12.952  1.00  0.00     0.210 HD
ENDBRANCH  27  33
TORSDOF 2
ENDMDL
MODEL 4
REMARK VINA RESULT:    -7.662      1.682      8.249
REMARK INTER + INTRA:          -8.227
REMARK INTER:                  -8.327
REMARK INTRA:                   0.100
REMARK UNBOUND:                 0.107
REMARK SMILES C[C@H]1[C@H](C)CC[C@]2(C(=O)[O-])CC[C@]3(C)C(=CC[C@@H]4[C@]5(C)CC[C@@H](O)C(C)(C)[C@H]5CC[C@]43C)[C@@H]12
REMARK SMILES IDX 7 1 6 2 11 3 33 4 5 5 12 6 15 7 2 8 3 9 13 10 16 11 1 12
REMARK SMILES IDX 4 13 14 14 31 15 17 16 18 17 30 18 32 19 19 20 29 21 28 22
REMARK SMILES IDX 21 23 20 24 25 25 22 26 23 27 26 28 27 29 8 30 9 31 10 32
REMARK SMILES IDX 24 33
REMARK H PARENT 24 34
REMARK Flexibility Score: inf
ROOT
ATOM      1  C   UNL     1      -5.094  -2.833  15.399  1.00  0.00     0.017 C 
ATOM      2  C   UNL     1      -5.553  -1.404  15.828  1.00  0.00     0.014 C 
ATOM      3  C   UNL     1      -4.378  -3.543  16.603  1.00  0.00     0.014 C 
ATOM      4  C   UNL     1      -4.122  -2.640  14.191  1.00  0.00     0.030 C 
ATOM      5  C   UNL     1      -6.180  -0.588  14.674  1.00  0.00     0.004 C 
ATOM      6  C   UNL     1      -2.838  -3.623  16.514  1.00  0.00     0.013 C 
ATOM      7  C   UNL     1      -3.206  -3.848  13.993  1.00  0.00    -0.063 C 
ATOM      8  C   UNL     1      -4.768  -1.915  12.962  1.00  0.00    -0.003 C 
ATOM      9  C   UNL     1      -5.300  -0.513  13.399  1.00  0.00    -0.011 C 
ATOM     10  C   UNL     1      -2.228  -4.153  15.149  1.00  0.00    -0.006 C 
ATOM     11  C   UNL     1      -3.154  -4.551  12.837  1.00  0.00    -0.027 C 
ATOM     12  C   UNL     1      -5.898  -2.680  12.228  1.00  0.00     0.008 C 
ATOM     13  C   UNL     1      -4.174   0.526  13.558  1.00  0.00     0.008 C 
ATOM     14  C   UNL     1      -0.962  -3.260  14.895  1.00  0.00     0.017 C 
ATOM     15  C   UNL     1      -1.869  -5.728  15.182  1.00  0.00    -0.020 C 
ATOM     16  C   UNL     1      -2.582  -5.944  12.741  1.00  0.00     0.032 C 
ATOM     17  C   UNL     1      -1.436  -6.197  13.743  1.00  0.00     0.006 C 
ATOM     18  C   UNL     1      -0.661  -6.014  16.121  1.00  0.00     0.008 C 
ATOM     19  C   UNL     1      -3.135  -6.503  15.669  1.00  0.00     0.012 C 
ATOM     20  C   UNL     1      -0.611  -7.593  13.623  1.00  0.00    -0.025 C 
ATOM     21  C   UNL     1      -0.238  -7.487  16.231  1.00  0.00     0.005 C 
ATOM     22  C   UNL     1      -0.551  -8.375  14.993  1.00  0.00     0.003 C 
ATOM     23  C   UNL     1      -1.203  -8.560  12.519  1.00  0.00     0.010 C 
ATOM     24  C   UNL     1       0.838  -7.212  13.184  1.00  0.00     0.012 C 
ATOM     25  C   UNL     1       0.221  -9.776  14.988  1.00  0.00    -0.006 C 
ATOM     26  C   UNL     1      -1.194 -10.065  12.857  1.00  0.00     0.033 C 
ATOM     27  C   UNL     1       0.058 -10.521  13.606  1.00  0.00     0.120 C 
ATOM     28  C   UNL     1       1.726  -9.661  15.364  1.00  0.00     0.014 C 
ATOM     29  C   UNL     1      -0.416 -10.687  16.078  1.00  0.00     0.014 C 
ENDROOT
BRANCH   1  30
ATOM     30  C   UNL     1      -6.295  -3.701  15.040  1.00  0.00     0.048 C 
ATOM     31  O   UNL     1      -7.471  -3.262  15.160  1.00  0.00    -0.550 OA
ATOM     32  O   UNL     1      -6.118  -5.034  14.695  1.00  0.00    -0.550 OA
ENDBRANCH   1  30
BRANCH  27  33
ATOM     33  O   UNL     1       1.174 -10.363  12.761  1.00  0.00    -0.393 OA
ATOM     34  H   UNL     1       1.115 -11.055  12.051  1.00  0.00     0.210 HD
ENDBRANCH  27  33
TORSDOF 2
ENDMDL
MODEL 5
REMARK VINA RESULT:    -7.413      1.908      8.097
REMARK INTER + INTRA:          -7.956
REMARK INTER:                  -8.055
REMARK INTRA:                   0.099
REMARK UNBOUND:                 0.107
REMARK SMILES C[C@H]1[C@H](C)CC[C@]2(C(=O)[O-])CC[C@]3(C)C(=CC[C@@H]4[C@]5(C)CC[C@@H](O)C(C)(C)[C@H]5CC[C@]43C)[C@@H]12
REMARK SMILES IDX 7 1 6 2 11 3 33 4 5 5 12 6 15 7 2 8 3 9 13 10 16 11 1 12
REMARK SMILES IDX 4 13 14 14 31 15 17 16 18 17 30 18 32 19 19 20 29 21 28 22
REMARK SMILES IDX 21 23 20 24 25 25 22 26 23 27 26 28 27 29 8 30 9 31 10 32
REMARK SMILES IDX 24 33
REMARK H PARENT 24 34
REMARK Flexibility Score: inf
ROOT
ATOM      1  C   UNL     1      -2.609  -4.933  14.887  1.00  0.00     0.017 C 
ATOM      2  C   UNL     1      -3.296  -3.674  14.267  1.00  0.00     0.014 C 
ATOM      3  C   UNL     1      -1.487  -4.484  15.889  1.00  0.00     0.014 C 
ATOM      4  C   UNL     1      -2.015  -5.744  13.691  1.00  0.00     0.030 C 
ATOM      5  C   UNL     1      -4.349  -4.018  13.189  1.00  0.00     0.004 C 
ATOM      6  C   UNL     1      -0.036  -4.627  15.378  1.00  0.00     0.013 C 
ATOM      7  C   UNL     1      -0.900  -6.690  14.137  1.00  0.00    -0.063 C 
ATOM      8  C   UNL     1      -3.081  -6.203  12.639  1.00  0.00    -0.003 C 
ATOM      9  C   UNL     1      -3.827  -4.955  12.068  1.00  0.00    -0.011 C 
ATOM     10  C   UNL     1       0.359  -6.020  14.730  1.00  0.00    -0.006 C 
ATOM     11  C   UNL     1      -0.941  -8.027  13.928  1.00  0.00    -0.027 C 
ATOM     12  C   UNL     1      -4.125  -7.240  13.124  1.00  0.00     0.008 C 
ATOM     13  C   UNL     1      -2.986  -4.179  11.038  1.00  0.00     0.008 C 
ATOM     14  C   UNL     1       1.275  -5.656  13.509  1.00  0.00     0.017 C 
ATOM     15  C   UNL     1       1.091  -7.019  15.768  1.00  0.00    -0.020 C 
ATOM     16  C   UNL     1      -0.081  -9.009  14.684  1.00  0.00     0.032 C 
ATOM     17  C   UNL     1       1.288  -8.426  15.091  1.00  0.00     0.006 C 
ATOM     18  C   UNL     1       2.514  -6.506  16.139  1.00  0.00     0.008 C 
ATOM     19  C   UNL     1       0.200  -7.129  17.046  1.00  0.00     0.012 C 
ATOM     20  C   UNL     1       2.382  -9.433  15.751  1.00  0.00    -0.025 C 
ATOM     21  C   UNL     1       3.299  -7.380  17.129  1.00  0.00     0.005 C 
ATOM     22  C   UNL     1       2.942  -8.894  17.125  1.00  0.00     0.003 C 
ATOM     23  C   UNL     1       1.811 -10.891  15.979  1.00  0.00     0.010 C 
ATOM     24  C   UNL     1       3.553  -9.543  14.725  1.00  0.00     0.012 C 
ATOM     25  C   UNL     1       4.011  -9.815  17.876  1.00  0.00    -0.006 C 
ATOM     26  C   UNL     1       2.266 -11.606  17.267  1.00  0.00     0.033 C 
ATOM     27  C   UNL     1       3.727 -11.349  17.631  1.00  0.00     0.120 C 
ATOM     28  C   UNL     1       5.487  -9.477  17.518  1.00  0.00     0.014 C 
ATOM     29  C   UNL     1       3.883  -9.563  19.407  1.00  0.00     0.014 C 
ENDROOT
BRANCH   1  30
ATOM     30  C   UNL     1      -3.610  -5.749  15.698  1.00  0.00     0.048 C 
ATOM     31  O   UNL     1      -4.792  -5.345  15.864  1.00  0.00    -0.550 OA
ATOM     32  O   UNL     1      -3.198  -6.891  16.372  1.00  0.00    -0.550 OA
ENDBRANCH   1  30
BRANCH  27  33
ATOM     33  O   UNL     1       4.549 -11.908  16.633  1.00  0.00    -0.393 OA
ATOM     34  H   UNL     1       5.470 -11.565  16.773  1.00  0.00     0.210 HD
ENDBRANCH  27  33
TORSDOF 2
ENDMDL
MODEL 6
REMARK VINA RESULT:    -7.347      3.718     10.356
REMARK INTER + INTRA:          -7.884
REMARK INTER:                  -7.983
REMARK INTRA:                   0.099
REMARK UNBOUND:                 0.107
REMARK SMILES C[C@H]1[C@H](C)CC[C@]2(C(=O)[O-])CC[C@]3(C)C(=CC[C@@H]4[C@]5(C)CC[C@@H](O)C(C)(C)[C@H]5CC[C@]43C)[C@@H]12
REMARK SMILES IDX 7 1 6 2 11 3 33 4 5 5 12 6 15 7 2 8 3 9 13 10 16 11 1 12
REMARK SMILES IDX 4 13 14 14 31 15 17 16 18 17 30 18 32 19 19 20 29 21 28 22
REMARK SMILES IDX 21 23 20 24 25 25 22 26 23 27 26 28 27 29 8 30 9 31 10 32
REMARK SMILES IDX 24 33
REMARK H PARENT 24 34
REMARK Flexibility Score: inf
ROOT
ATOM      1  C   UNL     1      -7.987   1.088  16.182  1.00  0.00     0.017 C 
ATOM      2  C   UNL     1      -9.347   1.837  16.352  1.00  0.00     0.014 C 
ATOM      3  C   UNL     1      -7.847   0.574  14.704  1.00  0.00     0.014 C 
ATOM      4  C   UNL     1      -8.007  -0.098  17.199  1.00  0.00     0.030 C 
ATOM      5  C   UNL     1      -9.619   2.293  17.804  1.00  0.00     0.004 C 
ATOM      6  C   UNL     1      -8.075  -0.940  14.498  1.00  0.00     0.013 C 
ATOM      7  C   UNL     1      -7.021  -1.201  16.813  1.00  0.00    -0.063 C 
ATOM      8  C   UNL     1      -8.168   0.346  18.693  1.00  0.00    -0.003 C 
ATOM      9  C   UNL     1      -9.489   1.162  18.859  1.00  0.00    -0.011 C 
ATOM     10  C   UNL     1      -7.299  -1.919  15.475  1.00  0.00    -0.006 C 
ATOM     11  C   UNL     1      -6.028  -1.620  17.633  1.00  0.00    -0.027 C 
ATOM     12  C   UNL     1      -6.994   1.152  19.302  1.00  0.00     0.008 C 
ATOM     13  C   UNL     1     -10.743   0.268  18.876  1.00  0.00     0.008 C 
ATOM     14  C   UNL     1      -8.320  -3.066  15.800  1.00  0.00     0.017 C 
ATOM     15  C   UNL     1      -5.923  -2.486  14.845  1.00  0.00    -0.020 C 
ATOM     16  C   UNL     1      -4.828  -2.395  17.149  1.00  0.00     0.032 C 
ATOM     17  C   UNL     1      -5.142  -3.303  15.941  1.00  0.00     0.006 C 
ATOM     18  C   UNL     1      -6.201  -3.474  13.674  1.00  0.00     0.008 C 
ATOM     19  C   UNL     1      -5.081  -1.269  14.345  1.00  0.00     0.012 C 
ATOM     20  C   UNL     1      -3.986  -4.328  15.435  1.00  0.00    -0.025 C 
ATOM     21  C   UNL     1      -4.957  -4.070  12.997  1.00  0.00     0.005 C 
ATOM     22  C   UNL     1      -3.690  -4.184  13.890  1.00  0.00     0.003 C 
ATOM     23  C   UNL     1      -2.626  -4.155  16.225  1.00  0.00     0.010 C 
ATOM     24  C   UNL     1      -4.516  -5.768  15.725  1.00  0.00     0.012 C 
ATOM     25  C   UNL     1      -2.552  -5.132  13.286  1.00  0.00    -0.006 C 
ATOM     26  C   UNL     1      -1.333  -4.305  15.397  1.00  0.00     0.033 C 
ATOM     27  C   UNL     1      -1.406  -5.403  14.336  1.00  0.00     0.120 C 
ATOM     28  C   UNL     1      -3.095  -6.476  12.721  1.00  0.00     0.014 C 
ATOM     29  C   UNL     1      -1.902  -4.400  12.075  1.00  0.00     0.014 C 
ENDROOT
BRANCH   1  30
ATOM     30  C   UNL     1      -6.816   2.035  16.421  1.00  0.00     0.048 C 
ATOM     31  O   UNL     1      -7.009   3.259  16.650  1.00  0.00    -0.550 OA
ATOM     32  O   UNL     1      -5.511   1.586  16.265  1.00  0.00    -0.550 OA
ENDBRANCH   1  30
BRANCH  27  33
ATOM     33  O   UNL     1      -1.534  -6.648  14.982  1.00  0.00    -0.393 OA
ATOM     34  H   UNL     1      -1.436  -7.357  14.292  1.00  0.00     0.210 HD
ENDBRANCH  27  33
TORSDOF 2
ENDMDL
MODEL 7
REMARK VINA RESULT:    -7.335      9.652     14.761
REMARK INTER + INTRA:          -7.871
REMARK INTER:                  -7.967
REMARK INTRA:                   0.096
REMARK UNBOUND:                 0.107
REMARK SMILES C[C@H]1[C@H](C)CC[C@]2(C(=O)[O-])CC[C@]3(C)C(=CC[C@@H]4[C@]5(C)CC[C@@H](O)C(C)(C)[C@H]5CC[C@]43C)[C@@H]12
REMARK SMILES IDX 7 1 6 2 11 3 33 4 5 5 12 6 15 7 2 8 3 9 13 10 16 11 1 12
REMARK SMILES IDX 4 13 14 14 31 15 17 16 18 17 30 18 32 19 19 20 29 21 28 22
REMARK SMILES IDX 21 23 20 24 25 25 22 26 23 27 26 28 27 29 8 30 9 31 10 32
REMARK SMILES IDX 24 33
REMARK H PARENT 24 34
REMARK Flexibility Score: inf
ROOT
ATOM      1  C   UNL     1      -8.223   1.378  26.445  1.00  0.00     0.017 C 
ATOM      2  C   UNL     1      -8.126   2.272  27.722  1.00  0.00     0.014 C 
ATOM      3  C   UNL     1      -6.978   1.634  25.523  1.00  0.00     0.014 C 
ATOM      4  C   UNL     1      -9.554   1.776  25.729  1.00  0.00     0.030 C 
ATOM      5  C   UNL     1      -9.361   2.163  28.644  1.00  0.00     0.004 C 
ATOM      6  C   UNL     1      -7.239   2.495  24.267  1.00  0.00     0.013 C 
ATOM      7  C   UNL     1      -9.547   1.391  24.249  1.00  0.00    -0.063 C 
ATOM      8  C   UNL     1     -10.836   1.567  26.604  1.00  0.00    -0.003 C 
ATOM      9  C   UNL     1     -10.714   2.399  27.921  1.00  0.00    -0.011 C 
ATOM     10  C   UNL     1      -8.487   2.093  23.373  1.00  0.00    -0.006 C 
ATOM     11  C   UNL     1     -10.477   0.578  23.696  1.00  0.00    -0.027 C 
ATOM     12  C   UNL     1     -11.195   0.103  26.961  1.00  0.00     0.008 C 
ATOM     13  C   UNL     1     -10.976   3.900  27.703  1.00  0.00     0.008 C 
ATOM     14  C   UNL     1      -9.123   3.456  22.926  1.00  0.00     0.017 C 
ATOM     15  C   UNL     1      -8.091   1.161  22.114  1.00  0.00    -0.020 C 
ATOM     16  C   UNL     1     -10.280  -0.125  22.376  1.00  0.00     0.032 C 
ATOM     17  C   UNL     1      -9.402   0.674  21.390  1.00  0.00     0.006 C 
ATOM     18  C   UNL     1      -7.273   1.956  21.055  1.00  0.00     0.008 C 
ATOM     19  C   UNL     1      -7.262  -0.050  22.648  1.00  0.00     0.012 C 
ATOM     20  C   UNL     1      -9.259   0.117  19.869  1.00  0.00    -0.025 C 
ATOM     21  C   UNL     1      -6.838   1.160  19.814  1.00  0.00     0.005 C 
ATOM     22  C   UNL     1      -7.752  -0.036  19.424  1.00  0.00     0.003 C 
ATOM     23  C   UNL     1      -9.989  -1.271  19.655  1.00  0.00     0.010 C 
ATOM     24  C   UNL     1      -9.964   1.163  18.949  1.00  0.00     0.012 C 
ATOM     25  C   UNL     1      -7.492  -0.597  17.949  1.00  0.00    -0.006 C 
ATOM     26  C   UNL     1      -9.276  -2.280  18.732  1.00  0.00     0.033 C 
ATOM     27  C   UNL     1      -8.601  -1.637  17.522  1.00  0.00     0.120 C 
ATOM     28  C   UNL     1      -7.354   0.517  16.872  1.00  0.00     0.014 C 
ATOM     29  C   UNL     1      -6.130  -1.352  17.949  1.00  0.00     0.014 C 
ENDROOT
BRANCH   1  30
ATOM     30  C   UNL     1      -8.187  -0.100  26.817  1.00  0.00     0.048 C 
ATOM     31  O   UNL     1      -7.998  -0.464  28.009  1.00  0.00    -0.550 OA
ATOM     32  O   UNL     1      -8.237  -1.073  25.827  1.00  0.00    -0.550 OA
ENDBRANCH   1  30
BRANCH  27  33
ATOM     33  O   UNL     1      -9.593  -1.074  16.696  1.00  0.00    -0.393 OA
ATOM     34  H   UNL     1      -9.568  -0.089  16.822  1.00  0.00     0.210 HD
ENDBRANCH  27  33
TORSDOF 2
ENDMDL
MODEL 8
REMARK VINA RESULT:    -7.210      9.336     12.831
REMARK INTER + INTRA:          -7.735
REMARK INTER:                  -7.833
REMARK INTRA:                   0.098
REMARK UNBOUND:                 0.107
REMARK SMILES C[C@H]1[C@H](C)CC[C@]2(C(=O)[O-])CC[C@]3(C)C(=CC[C@@H]4[C@]5(C)CC[C@@H](O)C(C)(C)[C@H]5CC[C@]43C)[C@@H]12
REMARK SMILES IDX 7 1 6 2 11 3 33 4 5 5 12 6 15 7 2 8 3 9 13 10 16 11 1 12
REMARK SMILES IDX 4 13 14 14 31 15 17 16 18 17 30 18 32 19 19 20 29 21 28 22
REMARK SMILES IDX 21 23 20 24 25 25 22 26 23 27 26 28 27 29 8 30 9 31 10 32
REMARK SMILES IDX 24 33
REMARK H PARENT 24 34
REMARK Flexibility Score: inf
ROOT
ATOM      1  C   UNL     1      -6.547   0.614  15.881  1.00  0.00     0.017 C 
ATOM      2  C   UNL     1      -6.067  -0.268  14.685  1.00  0.00     0.014 C 
ATOM      3  C   UNL     1      -5.664   0.318  17.146  1.00  0.00     0.014 C 
ATOM      4  C   UNL     1      -8.044   0.243  16.130  1.00  0.00     0.030 C 
ATOM      5  C   UNL     1      -6.943  -0.118  13.421  1.00  0.00     0.004 C 
ATOM      6  C   UNL     1      -6.329  -0.550  18.238  1.00  0.00     0.013 C 
ATOM      7  C   UNL     1      -8.499   0.612  17.543  1.00  0.00    -0.063 C 
ATOM      8  C   UNL     1      -8.977   0.494  14.898  1.00  0.00    -0.003 C 
ATOM      9  C   UNL     1      -8.461  -0.327  13.673  1.00  0.00    -0.011 C 
ATOM     10  C   UNL     1      -7.787  -0.126  18.698  1.00  0.00    -0.006 C 
ATOM     11  C   UNL     1      -9.540   1.442  17.787  1.00  0.00    -0.027 C 
ATOM     12  C   UNL     1      -9.174   1.970  14.472  1.00  0.00     0.008 C 
ATOM     13  C   UNL     1      -8.809  -1.823  13.770  1.00  0.00     0.008 C 
ATOM     14  C   UNL     1      -8.561  -1.477  18.895  1.00  0.00     0.017 C 
ATOM     15  C   UNL     1      -7.793   0.783  20.034  1.00  0.00    -0.020 C 
ATOM     16  C   UNL     1      -9.758   2.127  19.114  1.00  0.00     0.032 C 
ATOM     17  C   UNL     1      -9.255   1.295  20.313  1.00  0.00     0.006 C 
ATOM     18  C   UNL     1      -7.370  -0.044  21.283  1.00  0.00     0.008 C 
ATOM     19  C   UNL     1      -6.812   1.978  19.812  1.00  0.00     0.012 C 
ATOM     20  C   UNL     1      -9.592   1.833  21.810  1.00  0.00    -0.025 C 
ATOM     21  C   UNL     1      -7.335   0.728  22.611  1.00  0.00     0.005 C 
ATOM     22  C   UNL     1      -8.301   1.943  22.713  1.00  0.00     0.003 C 
ATOM     23  C   UNL     1     -10.322   3.237  21.806  1.00  0.00     0.010 C 
ATOM     24  C   UNL     1     -10.574   0.795  22.440  1.00  0.00     0.012 C 
ATOM     25  C   UNL     1      -8.511   2.482  24.204  1.00  0.00    -0.006 C 
ATOM     26  C   UNL     1      -9.918   4.217  22.926  1.00  0.00     0.033 C 
ATOM     27  C   UNL     1      -9.676   3.544  24.276  1.00  0.00     0.120 C 
ATOM     28  C   UNL     1      -8.746   1.353  25.249  1.00  0.00     0.014 C 
ATOM     29  C   UNL     1      -7.205   3.201  24.650  1.00  0.00     0.014 C 
ENDROOT
BRANCH   1  30
ATOM     30  C   UNL     1      -6.364   2.095  15.567  1.00  0.00     0.048 C 
ATOM     31  O   UNL     1      -5.785   2.467  14.510  1.00  0.00    -0.550 OA
ATOM     32  O   UNL     1      -6.721   3.059  16.501  1.00  0.00    -0.550 OA
ENDBRANCH   1  30
BRANCH  27  33
ATOM     33  O   UNL     1     -10.891   2.998  24.734  1.00  0.00    -0.393 OA
ATOM     34  H   UNL     1     -11.218   2.365  24.042  1.00  0.00     0.210 HD
ENDBRANCH  27  33
TORSDOF 2
ENDMDL
MODEL 9
REMARK VINA RESULT:    -7.207      9.469     12.801
REMARK INTER + INTRA:          -7.732
REMARK INTER:                  -7.829
REMARK INTRA:                   0.097
REMARK UNBOUND:                 0.107
REMARK SMILES C[C@H]1[C@H](C)CC[C@]2(C(=O)[O-])CC[C@]3(C)C(=CC[C@@H]4[C@]5(C)CC[C@@H](O)C(C)(C)[C@H]5CC[C@]43C)[C@@H]12
REMARK SMILES IDX 7 1 6 2 11 3 33 4 5 5 12 6 15 7 2 8 3 9 13 10 16 11 1 12
REMARK SMILES IDX 4 13 14 14 31 15 17 16 18 17 30 18 32 19 19 20 29 21 28 22
REMARK SMILES IDX 21 23 20 24 25 25 22 26 23 27 26 28 27 29 8 30 9 31 10 32
REMARK SMILES IDX 24 33
REMARK H PARENT 24 34
REMARK Flexibility Score: inf
ROOT
ATOM      1  C   UNL     1      -8.379   0.274  15.440  1.00  0.00     0.017 C 
ATOM      2  C   UNL     1      -8.761   0.502  13.943  1.00  0.00     0.014 C 
ATOM      3  C   UNL     1      -9.613  -0.309  16.218  1.00  0.00     0.014 C 
ATOM      4  C   UNL     1      -7.956   1.668  16.004  1.00  0.00     0.030 C 
ATOM      5  C   UNL     1      -7.637   1.170  13.118  1.00  0.00     0.004 C 
ATOM      6  C   UNL     1     -10.359   0.687  17.134  1.00  0.00     0.013 C 
ATOM      7  C   UNL     1      -8.054   1.724  17.529  1.00  0.00    -0.063 C 
ATOM      8  C   UNL     1      -6.743   2.318  15.256  1.00  0.00    -0.003 C 
ATOM      9  C   UNL     1      -7.086   2.481  13.741  1.00  0.00    -0.011 C 
ATOM     10  C   UNL     1      -9.469   1.552  18.123  1.00  0.00    -0.006 C 
ATOM     11  C   UNL     1      -7.000   2.023  18.324  1.00  0.00    -0.027 C 
ATOM     12  C   UNL     1      -5.381   1.592  15.392  1.00  0.00     0.008 C 
ATOM     13  C   UNL     1      -8.029   3.668  13.469  1.00  0.00     0.008 C 
ATOM     14  C   UNL     1     -10.122   2.979  18.115  1.00  0.00     0.017 C 
ATOM     15  C   UNL     1      -9.383   0.927  19.610  1.00  0.00    -0.020 C 
ATOM     16  C   UNL     1      -6.959   1.703  19.798  1.00  0.00     0.032 C 
ATOM     17  C   UNL     1      -8.349   1.750  20.466  1.00  0.00     0.006 C 
ATOM     18  C   UNL     1     -10.749   1.032  20.349  1.00  0.00     0.008 C 
ATOM     19  C   UNL     1      -8.944  -0.567  19.484  1.00  0.00     0.012 C 
ATOM     20  C   UNL     1      -8.425   1.604  22.084  1.00  0.00    -0.025 C 
ATOM     21  C   UNL     1     -10.780   0.459  21.775  1.00  0.00     0.005 C 
ATOM     22  C   UNL     1      -9.426   0.470  22.538  1.00  0.00     0.003 C 
ATOM     23  C   UNL     1      -7.013   1.320  22.739  1.00  0.00     0.010 C 
ATOM     24  C   UNL     1      -8.926   2.980  22.626  1.00  0.00     0.012 C 
ATOM     25  C   UNL     1      -9.565   0.224  24.112  1.00  0.00    -0.006 C 
ATOM     26  C   UNL     1      -7.000   0.340  23.929  1.00  0.00     0.033 C 
ATOM     27  C   UNL     1      -8.201   0.488  24.862  1.00  0.00     0.120 C 
ATOM     28  C   UNL     1     -10.710   1.044  24.773  1.00  0.00     0.014 C 
ATOM     29  C   UNL     1      -9.934  -1.271  24.340  1.00  0.00     0.014 C 
ENDROOT
BRANCH   1  30
ATOM     30  C   UNL     1      -7.266  -0.760  15.562  1.00  0.00     0.048 C 
ATOM     31  O   UNL     1      -6.848  -1.385  14.549  1.00  0.00    -0.550 OA
ATOM     32  O   UNL     1      -6.780  -1.122  16.811  1.00  0.00    -0.550 OA
ENDBRANCH   1  30
BRANCH  27  33
ATOM     33  O   UNL     1      -8.146   1.755  25.475  1.00  0.00    -0.393 OA
ATOM     34  H   UNL     1      -8.554   2.410  24.849  1.00  0.00     0.210 HD
ENDBRANCH  27  33
TORSDOF 2
ENDMDL
