MODEL 1
REMARK VINA RESULT:    -3.291      0.000      0.000
REMARK INTER + INTRA:          -3.907
REMARK INTER:                  -3.869
REMARK INTRA:                  -0.038
REMARK UNBOUND:                -0.038
REMARK SMILES O=c1c(O)c(-c2ccc(O)cc2)oc2cc(O)cc(O)c12
REMARK SMILES IDX 5 1 3 2 2 3 1 4 21 5 19 6 18 7 16 8 15 9 14 10 13 11 6 12
REMARK SMILES IDX 7 13 8 14 9 15 12 16 11 17 10 18 4 20 20 22 17 24
REMARK H PARENT 10 19 4 21 20 23 17 25
REMARK Flexibility Score: inf
ROOT
ATOM      1  C   UNL     1       0.347  59.775  -5.919  1.00  0.00     0.180 A 
ATOM      2  C   UNL     1       0.067  60.052  -4.570  1.00  0.00     0.208 A 
ATOM      3  C   UNL     1      -1.271  60.096  -4.147  1.00  0.00     0.238 A 
ATOM      4  O   UNL     1      -1.514  60.291  -2.927  1.00  0.00    -0.285 OA
ATOM      5  C   UNL     1      -2.313  59.877  -5.080  1.00  0.00     0.111 A 
ATOM      6  C   UNL     1      -3.704  59.937  -4.771  1.00  0.00     0.134 A 
ATOM      7  C   UNL     1      -4.644  59.575  -5.744  1.00  0.00     0.093 A 
ATOM      8  C   UNL     1      -4.245  59.219  -7.034  1.00  0.00     0.123 A 
ATOM      9  C   UNL     1      -2.892  59.215  -7.363  1.00  0.00     0.094 A 
ATOM     10  C   UNL     1      -1.928  59.536  -6.404  1.00  0.00     0.146 A 
ATOM     11  O   UNL     1      -0.648  59.510  -6.756  1.00  0.00    -0.452 OA
ENDROOT
BRANCH   1  12
ATOM     12  C   UNL     1       1.731  59.737  -6.444  1.00  0.00     0.021 A 
ATOM     13  C   UNL     1       2.700  58.876  -5.896  1.00  0.00     0.016 A 
ATOM     14  C   UNL     1       4.007  58.876  -6.393  1.00  0.00     0.047 A 
ATOM     15  C   UNL     1       4.366  59.744  -7.432  1.00  0.00     0.115 A 
ATOM     16  C   UNL     1       2.105  60.619  -7.472  1.00  0.00     0.016 A 
ATOM     17  C   UNL     1       3.413  60.616  -7.967  1.00  0.00     0.047 A 
BRANCH  15  18
ATOM     18  O   UNL     1       5.665  59.751  -7.935  1.00  0.00    -0.508 OA
ATOM     19  H   UNL     1       5.908  60.281  -8.764  1.00  0.00     0.293 HD
ENDBRANCH  15  18
ENDBRANCH   1  12
BRANCH   2  20
ATOM     20  O   UNL     1       1.111  60.243  -3.660  1.00  0.00    -0.502 OA
ATOM     21  H   UNL     1       2.053  59.914  -3.835  1.00  0.00     0.293 HD
ENDBRANCH   2  20
BRANCH   6  22
ATOM     22  O   UNL     1      -4.213  60.369  -3.542  1.00  0.00    -0.507 OA
ATOM     23  H   UNL     1      -5.068  60.890  -3.426  1.00  0.00     0.293 HD
ENDBRANCH   6  22
BRANCH   8  24
ATOM     24  O   UNL     1      -5.188  58.875  -8.001  1.00  0.00    -0.508 OA
ATOM     25  H   UNL     1      -5.990  59.464  -8.192  1.00  0.00     0.293 HD
ENDBRANCH   8  24
TORSDOF 5
ENDMDL
