MODEL 1
REMARK VINA RESULT:    -3.529      0.000      0.000
REMARK INTER + INTRA:          -7.306
REMARK INTER:                  -6.004
REMARK INTRA:                  -1.301
REMARK UNBOUND:                -1.301
REMARK SMILES CCCCCCCCCCCCCC(=O)[O-]
REMARK SMILES IDX 8 1 9 2 10 3 11 4 12 5 13 6 14 7 15 8 16 9 7 10 6 11 5 12
REMARK SMILES IDX 4 13 3 14 2 15 1 16
REMARK H PARENT
REMARK Flexibility Score: inf
ROOT
ATOM      1  C   UNL     1     -17.220  23.936  35.634  1.00  0.00     0.000 C 
ENDROOT
BRANCH   1   2
ATOM      2  C   UNL     1     -18.098  25.106  36.110  1.00  0.00     0.000 C 
BRANCH   2   3
ATOM      3  C   UNL     1     -17.518  26.474  35.721  1.00  0.00     0.000 C 
BRANCH   3   4
ATOM      4  C   UNL     1     -18.122  27.021  34.416  1.00  0.00     0.000 C 
BRANCH   4   5
ATOM      5  C   UNL     1     -17.082  27.148  33.291  1.00  0.00     0.006 C 
BRANCH   5   6
ATOM      6  C   UNL     1     -17.150  25.984  32.293  1.00  0.00     0.053 C 
BRANCH   6   7
ATOM      7  C   UNL     1     -15.773  25.521  31.937  1.00  0.00     0.041 C 
ATOM      8  O   UNL     1     -14.957  25.203  32.842  1.00  0.00    -0.550 OA
ATOM      9  O   UNL     1     -15.374  25.487  30.607  1.00  0.00    -0.550 OA
ENDBRANCH   6   7
ENDBRANCH   5   6
ENDBRANCH   4   5
ENDBRANCH   3   4
ENDBRANCH   2   3
ENDBRANCH   1   2
BRANCH   1  10
ATOM     10  C   UNL     1     -17.998  22.615  35.532  1.00  0.00     0.000 C 
BRANCH  10  11
ATOM     11  C   UNL     1     -18.124  22.114  34.085  1.00  0.00    -0.000 C 
BRANCH  11  12
ATOM     12  C   UNL     1     -16.847  22.416  33.287  1.00  0.00    -0.000 C 
BRANCH  12  13
ATOM     13  C   UNL     1     -15.713  21.414  33.570  1.00  0.00    -0.000 C 
BRANCH  13  14
ATOM     14  C   UNL     1     -14.321  22.042  33.783  1.00  0.00    -0.000 C 
BRANCH  14  15
ATOM     15  C   UNL     1     -13.580  21.568  35.046  1.00  0.00    -0.003 C 
ATOM     16  C   UNL     1     -14.299  21.957  36.337  1.00  0.00     0.004 C 
ENDBRANCH  14  15
ENDBRANCH  13  14
ENDBRANCH  12  13
ENDBRANCH  11  12
ENDBRANCH  10  11
ENDBRANCH   1  10
TORSDOF 12
ENDMDL
MODEL 2
REMARK VINA RESULT:    -3.363      2.080      4.950
REMARK INTER + INTRA:          -7.024
REMARK INTER:                  -5.765
REMARK INTRA:                  -1.259
REMARK UNBOUND:                -1.301
REMARK SMILES CCCCCCCCCCCCCC(=O)[O-]
REMARK SMILES IDX 8 1 9 2 10 3 11 4 12 5 13 6 14 7 15 8 16 9 7 10 6 11 5 12
REMARK SMILES IDX 4 13 3 14 2 15 1 16
REMARK H PARENT
REMARK Flexibility Score: inf
ROOT
ATOM      1  C   UNL     1     -17.108  24.231  35.563  1.00  0.00     0.000 C 
ENDROOT
BRANCH   1   2
ATOM      2  C   UNL     1     -17.775  22.849  35.676  1.00  0.00     0.000 C 
BRANCH   2   3
ATOM      3  C   UNL     1     -18.028  22.203  34.305  1.00  0.00     0.000 C 
BRANCH   3   4
ATOM      4  C   UNL     1     -16.891  22.477  33.305  1.00  0.00     0.000 C 
BRANCH   4   5
ATOM      5  C   UNL     1     -15.597  21.730  33.664  1.00  0.00     0.006 C 
BRANCH   5   6
ATOM      6  C   UNL     1     -14.443  22.683  34.005  1.00  0.00     0.053 C 
BRANCH   6   7
ATOM      7  C   UNL     1     -13.592  22.103  35.091  1.00  0.00     0.041 C 
ATOM      8  O   UNL     1     -12.403  21.766  34.853  1.00  0.00    -0.550 OA
ATOM      9  O   UNL     1     -14.129  21.891  36.354  1.00  0.00    -0.550 OA
ENDBRANCH   6   7
ENDBRANCH   5   6
ENDBRANCH   4   5
ENDBRANCH   3   4
ENDBRANCH   2   3
ENDBRANCH   1   2
BRANCH   1  10
ATOM     10  C   UNL     1     -18.125  25.382  35.593  1.00  0.00     0.000 C 
BRANCH  10  11
ATOM     11  C   UNL     1     -17.453  26.761  35.684  1.00  0.00    -0.000 C 
BRANCH  11  12
ATOM     12  C   UNL     1     -16.998  27.243  34.298  1.00  0.00    -0.000 C 
BRANCH  12  13
ATOM     13  C   UNL     1     -17.980  26.856  33.177  1.00  0.00    -0.000 C 
BRANCH  13  14
ATOM     14  C   UNL     1     -17.474  25.768  32.209  1.00  0.00    -0.000 C 
BRANCH  14  15
ATOM     15  C   UNL     1     -15.944  25.625  32.135  1.00  0.00    -0.003 C 
ATOM     16  C   UNL     1     -15.432  25.445  30.706  1.00  0.00     0.004 C 
ENDBRANCH  14  15
ENDBRANCH  13  14
ENDBRANCH  12  13
ENDBRANCH  11  12
ENDBRANCH  10  11
ENDBRANCH   1  10
TORSDOF 12
ENDMDL
MODEL 3
REMARK VINA RESULT:    -3.342     13.054     15.171
REMARK INTER + INTRA:          -6.988
REMARK INTER:                  -6.172
REMARK INTRA:                  -0.817
REMARK UNBOUND:                -1.301
REMARK SMILES CCCCCCCCCCCCCC(=O)[O-]
REMARK SMILES IDX 8 1 9 2 10 3 11 4 12 5 13 6 14 7 15 8 16 9 7 10 6 11 5 12
REMARK SMILES IDX 4 13 3 14 2 15 1 16
REMARK H PARENT
REMARK Flexibility Score: inf
ROOT
ATOM      1  C   UNL     1      -3.704  24.107  25.809  1.00  0.00     0.000 C 
ENDROOT
BRANCH   1   2
ATOM      2  C   UNL     1      -4.829  23.471  26.644  1.00  0.00     0.000 C 
BRANCH   2   3
ATOM      3  C   UNL     1      -6.202  23.577  25.962  1.00  0.00     0.000 C 
BRANCH   3   4
ATOM      4  C   UNL     1      -7.247  22.641  26.594  1.00  0.00     0.000 C 
BRANCH   4   5
ATOM      5  C   UNL     1      -8.679  23.184  26.468  1.00  0.00     0.006 C 
BRANCH   5   6
ATOM      6  C   UNL     1      -8.982  23.726  25.064  1.00  0.00     0.053 C 
BRANCH   6   7
ATOM      7  C   UNL     1     -10.026  22.888  24.395  1.00  0.00     0.041 C 
ATOM      8  O   UNL     1     -10.272  21.727  24.816  1.00  0.00    -0.550 OA
ATOM      9  O   UNL     1     -10.692  23.372  23.277  1.00  0.00    -0.550 OA
ENDBRANCH   6   7
ENDBRANCH   5   6
ENDBRANCH   4   5
ENDBRANCH   3   4
ENDBRANCH   2   3
ENDBRANCH   1   2
BRANCH   1  10
ATOM     10  C   UNL     1      -3.993  25.571  25.444  1.00  0.00     0.000 C 
BRANCH  10  11
ATOM     11  C   UNL     1      -3.169  26.562  26.281  1.00  0.00    -0.000 C 
BRANCH  11  12
ATOM     12  C   UNL     1      -2.503  27.617  25.384  1.00  0.00    -0.000 C 
BRANCH  12  13
ATOM     13  C   UNL     1      -1.705  26.997  24.223  1.00  0.00    -0.000 C 
BRANCH  13  14
ATOM     14  C   UNL     1      -0.429  26.236  24.637  1.00  0.00    -0.000 C 
BRANCH  14  15
ATOM     15  C   UNL     1      -0.077  25.028  23.751  1.00  0.00    -0.003 C 
ATOM     16  C   UNL     1      -0.595  23.706  24.314  1.00  0.00     0.004 C 
ENDBRANCH  14  15
ENDBRANCH  13  14
ENDBRANCH  12  13
ENDBRANCH  11  12
ENDBRANCH  10  11
ENDBRANCH   1  10
TORSDOF 12
ENDMDL
MODEL 4
REMARK VINA RESULT:    -3.331     13.626     15.650
REMARK INTER + INTRA:          -6.969
REMARK INTER:                  -6.181
REMARK INTRA:                  -0.788
REMARK UNBOUND:                -1.301
REMARK SMILES CCCCCCCCCCCCCC(=O)[O-]
REMARK SMILES IDX 8 1 9 2 10 3 11 4 12 5 13 6 14 7 15 8 16 9 7 10 6 11 5 12
REMARK SMILES IDX 4 13 3 14 2 15 1 16
REMARK H PARENT
REMARK Flexibility Score: inf
ROOT
ATOM      1  C   UNL     1      -3.674  24.072  25.871  1.00  0.00     0.000 C 
ENDROOT
BRANCH   1   2
ATOM      2  C   UNL     1      -4.069  25.501  25.458  1.00  0.00     0.000 C 
BRANCH   2   3
ATOM      3  C   UNL     1      -3.262  26.574  26.204  1.00  0.00     0.000 C 
BRANCH   3   4
ATOM      4  C   UNL     1      -2.593  27.578  25.249  1.00  0.00     0.000 C 
BRANCH   4   5
ATOM      5  C   UNL     1      -1.760  26.889  24.156  1.00  0.00     0.006 C 
BRANCH   5   6
ATOM      6  C   UNL     1      -0.470  26.266  24.704  1.00  0.00     0.053 C 
BRANCH   6   7
ATOM      7  C   UNL     1      -0.120  25.030  23.937  1.00  0.00     0.041 C 
ATOM      8  O   UNL     1       0.569  25.110  22.886  1.00  0.00    -0.550 OA
ATOM      9  O   UNL     1      -0.597  23.795  24.356  1.00  0.00    -0.550 OA
ENDBRANCH   6   7
ENDBRANCH   5   6
ENDBRANCH   4   5
ENDBRANCH   3   4
ENDBRANCH   2   3
ENDBRANCH   1   2
BRANCH   1  10
ATOM     10  C   UNL     1      -4.846  23.285  26.477  1.00  0.00     0.000 C 
BRANCH  10  11
ATOM     11  C   UNL     1      -6.200  23.683  25.869  1.00  0.00    -0.000 C 
BRANCH  11  12
ATOM     12  C   UNL     1      -7.347  22.897  26.524  1.00  0.00    -0.000 C 
BRANCH  12  13
ATOM     13  C   UNL     1      -8.736  23.347  26.038  1.00  0.00    -0.000 C 
BRANCH  13  14
ATOM     14  C   UNL     1      -8.726  24.368  24.882  1.00  0.00    -0.000 C 
BRANCH  14  15
ATOM     15  C   UNL     1      -9.859  24.197  23.854  1.00  0.00    -0.003 C 
ATOM     16  C   UNL     1     -10.451  22.788  23.852  1.00  0.00     0.004 C 
ENDBRANCH  14  15
ENDBRANCH  13  14
ENDBRANCH  12  13
ENDBRANCH  11  12
ENDBRANCH  10  11
ENDBRANCH   1  10
TORSDOF 12
ENDMDL
MODEL 5
REMARK VINA RESULT:    -3.212     13.088     15.116
REMARK INTER + INTRA:          -6.767
REMARK INTER:                  -6.325
REMARK INTRA:                  -0.442
REMARK UNBOUND:                -1.301
REMARK SMILES CCCCCCCCCCCCCC(=O)[O-]
REMARK SMILES IDX 8 1 9 2 10 3 11 4 12 5 13 6 14 7 15 8 16 9 7 10 6 11 5 12
REMARK SMILES IDX 4 13 3 14 2 15 1 16
REMARK H PARENT
REMARK Flexibility Score: inf
ROOT
ATOM      1  C   UNL     1      -5.345  23.199  25.814  1.00  0.00     0.000 C 
ENDROOT
BRANCH   1   2
ATOM      2  C   UNL     1      -4.260  24.089  26.445  1.00  0.00     0.000 C 
BRANCH   2   3
ATOM      3  C   UNL     1      -3.791  25.206  25.501  1.00  0.00     0.000 C 
BRANCH   3   4
ATOM      4  C   UNL     1      -3.456  26.508  26.250  1.00  0.00     0.000 C 
BRANCH   4   5
ATOM      5  C   UNL     1      -2.187  27.189  25.713  1.00  0.00     0.006 C 
BRANCH   5   6
ATOM      6  C   UNL     1      -1.771  26.654  24.336  1.00  0.00     0.053 C 
BRANCH   6   7
ATOM      7  C   UNL     1      -0.392  26.076  24.397  1.00  0.00     0.041 C 
ATOM      8  O   UNL     1       0.564  26.762  24.844  1.00  0.00    -0.550 OA
ATOM      9  O   UNL     1      -0.154  24.796  23.913  1.00  0.00    -0.550 OA
ENDBRANCH   6   7
ENDBRANCH   5   6
ENDBRANCH   4   5
ENDBRANCH   3   4
ENDBRANCH   2   3
ENDBRANCH   1   2
BRANCH   1  10
ATOM     10  C   UNL     1      -6.646  23.183  26.631  1.00  0.00     0.000 C 
BRANCH  10  11
ATOM     11  C   UNL     1      -7.879  23.534  25.784  1.00  0.00    -0.000 C 
BRANCH  11  12
ATOM     12  C   UNL     1      -9.045  22.582  26.092  1.00  0.00    -0.000 C 
BRANCH  12  13
ATOM     13  C   UNL     1      -9.918  22.285  24.859  1.00  0.00    -0.000 C 
BRANCH  13  14
ATOM     14  C   UNL     1     -10.163  23.487  23.926  1.00  0.00    -0.000 C 
BRANCH  14  15
ATOM     15  C   UNL     1     -11.517  23.475  23.193  1.00  0.00    -0.003 C 
ATOM     16  C   UNL     1     -11.370  23.456  21.672  1.00  0.00     0.004 C 
ENDBRANCH  14  15
ENDBRANCH  13  14
ENDBRANCH  12  13
ENDBRANCH  11  12
ENDBRANCH  10  11
ENDBRANCH   1  10
TORSDOF 12
ENDMDL
MODEL 6
REMARK VINA RESULT:    -3.126      1.892      5.193
REMARK INTER + INTRA:          -6.621
REMARK INTER:                  -5.710
REMARK INTRA:                  -0.911
REMARK UNBOUND:                -1.301
REMARK SMILES CCCCCCCCCCCCCC(=O)[O-]
REMARK SMILES IDX 8 1 9 2 10 3 11 4 12 5 13 6 14 7 15 8 16 9 7 10 6 11 5 12
REMARK SMILES IDX 4 13 3 14 2 15 1 16
REMARK H PARENT
REMARK Flexibility Score: inf
ROOT
ATOM      1  C   UNL     1     -16.742  23.864  32.907  1.00  0.00     0.000 C 
ENDROOT
BRANCH   1   2
ATOM      2  C   UNL     1     -16.804  22.361  33.234  1.00  0.00     0.000 C 
BRANCH   2   3
ATOM      3  C   UNL     1     -17.699  22.057  34.445  1.00  0.00     0.000 C 
BRANCH   3   4
ATOM      4  C   UNL     1     -17.150  22.659  35.750  1.00  0.00     0.000 C 
BRANCH   4   5
ATOM      5  C   UNL     1     -15.693  23.129  35.616  1.00  0.00     0.006 C 
BRANCH   5   6
ATOM      6  C   UNL     1     -14.697  22.149  36.252  1.00  0.00     0.053 C 
BRANCH   6   7
ATOM      7  C   UNL     1     -13.581  21.849  35.301  1.00  0.00     0.041 C 
ATOM      8  O   UNL     1     -13.039  20.712  35.298  1.00  0.00    -0.550 OA
ATOM      9  O   UNL     1     -13.108  22.840  34.452  1.00  0.00    -0.550 OA
ENDBRANCH   6   7
ENDBRANCH   5   6
ENDBRANCH   4   5
ENDBRANCH   3   4
ENDBRANCH   2   3
ENDBRANCH   1   2
BRANCH   1  10
ATOM     10  C   UNL     1     -18.125  24.460  32.604  1.00  0.00     0.000 C 
BRANCH  10  11
ATOM     11  C   UNL     1     -18.124  25.997  32.634  1.00  0.00    -0.000 C 
BRANCH  11  12
ATOM     12  C   UNL     1     -16.697  26.542  32.795  1.00  0.00    -0.000 C 
BRANCH  12  13
ATOM     13  C   UNL     1     -16.631  27.790  33.693  1.00  0.00    -0.000 C 
BRANCH  13  14
ATOM     14  C   UNL     1     -17.792  27.938  34.697  1.00  0.00    -0.000 C 
BRANCH  14  15
ATOM     15  C   UNL     1     -17.447  27.564  36.149  1.00  0.00    -0.003 C 
ATOM     16  C   UNL     1     -17.772  26.108  36.481  1.00  0.00     0.004 C 
ENDBRANCH  14  15
ENDBRANCH  13  14
ENDBRANCH  12  13
ENDBRANCH  11  12
ENDBRANCH  10  11
ENDBRANCH   1  10
TORSDOF 12
ENDMDL
MODEL 7
REMARK VINA RESULT:    -2.966     17.787     19.997
REMARK INTER + INTRA:          -6.348
REMARK INTER:                  -5.407
REMARK INTRA:                  -0.941
REMARK UNBOUND:                -1.301
REMARK SMILES CCCCCCCCCCCCCC(=O)[O-]
REMARK SMILES IDX 8 1 9 2 10 3 11 4 12 5 13 6 14 7 15 8 16 9 7 10 6 11 5 12
REMARK SMILES IDX 4 13 3 14 2 15 1 16
REMARK H PARENT
REMARK Flexibility Score: inf
ROOT
ATOM      1  C   UNL     1      -0.556  24.499  24.389  1.00  0.00     0.000 C 
ENDROOT
BRANCH   1   2
ATOM      2  C   UNL     1      -0.093  23.400  23.415  1.00  0.00     0.000 C 
BRANCH   2   3
ATOM      3  C   UNL     1       1.194  23.778  22.668  1.00  0.00     0.000 C 
BRANCH   3   4
ATOM      4  C   UNL     1       1.121  23.453  21.166  1.00  0.00     0.000 C 
BRANCH   4   5
ATOM      5  C   UNL     1       0.270  22.208  20.872  1.00  0.00     0.006 C 
BRANCH   5   6
ATOM      6  C   UNL     1       0.031  21.999  19.370  1.00  0.00     0.053 C 
BRANCH   6   7
ATOM      7  C   UNL     1       0.453  20.623  18.961  1.00  0.00     0.041 C 
ATOM      8  O   UNL     1       0.570  20.333  17.741  1.00  0.00    -0.550 OA
ATOM      9  O   UNL     1       0.670  19.648  19.925  1.00  0.00    -0.550 OA
ENDBRANCH   6   7
ENDBRANCH   5   6
ENDBRANCH   4   5
ENDBRANCH   3   4
ENDBRANCH   2   3
ENDBRANCH   1   2
BRANCH   1  10
ATOM     10  C   UNL     1       0.143  25.843  24.140  1.00  0.00     0.000 C 
BRANCH  10  11
ATOM     11  C   UNL     1      -0.849  26.984  23.868  1.00  0.00    -0.000 C 
BRANCH  11  12
ATOM     12  C   UNL     1      -1.306  27.638  25.181  1.00  0.00    -0.000 C 
BRANCH  12  13
ATOM     13  C   UNL     1      -2.830  27.577  25.383  1.00  0.00    -0.000 C 
BRANCH  13  14
ATOM     14  C   UNL     1      -3.332  26.391  26.230  1.00  0.00    -0.000 C 
BRANCH  14  15
ATOM     15  C   UNL     1      -3.893  25.207  25.422  1.00  0.00    -0.003 C 
ATOM     16  C   UNL     1      -4.112  23.957  26.273  1.00  0.00     0.004 C 
ENDBRANCH  14  15
ENDBRANCH  13  14
ENDBRANCH  12  13
ENDBRANCH  11  12
ENDBRANCH  10  11
ENDBRANCH   1  10
TORSDOF 12
ENDMDL
MODEL 8
REMARK VINA RESULT:    -2.805     18.496     20.820
REMARK INTER + INTRA:          -6.074
REMARK INTER:                  -5.371
REMARK INTRA:                  -0.703
REMARK UNBOUND:                -1.301
REMARK SMILES CCCCCCCCCCCCCC(=O)[O-]
REMARK SMILES IDX 8 1 9 2 10 3 11 4 12 5 13 6 14 7 15 8 16 9 7 10 6 11 5 12
REMARK SMILES IDX 4 13 3 14 2 15 1 16
REMARK H PARENT
REMARK Flexibility Score: inf
ROOT
ATOM      1  C   UNL     1       0.006  22.779  22.769  1.00  0.00     0.000 C 
ENDROOT
BRANCH   1   2
ATOM      2  C   UNL     1       0.975  23.375  21.733  1.00  0.00     0.000 C 
BRANCH   2   3
ATOM      3  C   UNL     1       1.411  22.349  20.676  1.00  0.00     0.000 C 
BRANCH   3   4
ATOM      4  C   UNL     1       0.214  21.667  19.988  1.00  0.00     0.000 C 
BRANCH   4   5
ATOM      5  C   UNL     1       0.646  20.572  19.001  1.00  0.00     0.006 C 
BRANCH   5   6
ATOM      6  C   UNL     1       1.559  19.522  19.649  1.00  0.00     0.053 C 
BRANCH   6   7
ATOM      7  C   UNL     1       0.797  18.262  19.916  1.00  0.00     0.041 C 
ATOM      8  O   UNL     1       0.004  17.805  19.051  1.00  0.00    -0.550 OA
ATOM      9  O   UNL     1       0.927  17.618  21.140  1.00  0.00    -0.550 OA
ENDBRANCH   6   7
ENDBRANCH   5   6
ENDBRANCH   4   5
ENDBRANCH   3   4
ENDBRANCH   2   3
ENDBRANCH   1   2
BRANCH   1  10
ATOM     10  C   UNL     1      -0.334  23.764  23.898  1.00  0.00     0.000 C 
BRANCH  10  11
ATOM     11  C   UNL     1       0.181  25.184  23.616  1.00  0.00    -0.000 C 
BRANCH  11  12
ATOM     12  C   UNL     1      -0.388  26.186  24.633  1.00  0.00    -0.000 C 
BRANCH  12  13
ATOM     13  C   UNL     1      -1.782  26.708  24.243  1.00  0.00    -0.000 C 
BRANCH  13  14
ATOM     14  C   UNL     1      -2.559  27.411  25.375  1.00  0.00    -0.000 C 
BRANCH  14  15
ATOM     15  C   UNL     1      -3.409  26.478  26.256  1.00  0.00    -0.003 C 
ATOM     16  C   UNL     1      -3.716  25.141  25.582  1.00  0.00     0.004 C 
ENDBRANCH  14  15
ENDBRANCH  13  14
ENDBRANCH  12  13
ENDBRANCH  11  12
ENDBRANCH  10  11
ENDBRANCH   1  10
TORSDOF 12
ENDMDL
MODEL 9
REMARK VINA RESULT:    -2.661     17.849     19.968
REMARK INTER + INTRA:          -5.829
REMARK INTER:                  -4.479
REMARK INTRA:                  -1.350
REMARK UNBOUND:                -1.301
REMARK SMILES CCCCCCCCCCCCCC(=O)[O-]
REMARK SMILES IDX 8 1 9 2 10 3 11 4 12 5 13 6 14 7 15 8 16 9 7 10 6 11 5 12
REMARK SMILES IDX 4 13 3 14 2 15 1 16
REMARK H PARENT
REMARK Flexibility Score: inf
ROOT
ATOM      1  C   UNL     1      -0.196  25.202  23.809  1.00  0.00     0.000 C 
ENDROOT
BRANCH   1   2
ATOM      2  C   UNL     1       0.903  24.313  23.200  1.00  0.00     0.000 C 
BRANCH   2   3
ATOM      3  C   UNL     1       1.930  25.118  22.389  1.00  0.00     0.000 C 
BRANCH   3   4
ATOM      4  C   UNL     1       1.411  25.496  20.991  1.00  0.00     0.000 C 
BRANCH   4   5
ATOM      5  C   UNL     1       1.284  27.016  20.799  1.00  0.00     0.006 C 
BRANCH   5   6
ATOM      6  C   UNL     1      -0.140  27.445  20.421  1.00  0.00     0.053 C 
BRANCH   6   7
ATOM      7  C   UNL     1      -0.333  27.364  18.940  1.00  0.00     0.041 C 
ATOM      8  O   UNL     1      -1.493  27.380  18.450  1.00  0.00    -0.550 OA
ATOM      9  O   UNL     1       0.766  27.223  18.103  1.00  0.00    -0.550 OA
ENDBRANCH   6   7
ENDBRANCH   5   6
ENDBRANCH   4   5
ENDBRANCH   3   4
ENDBRANCH   2   3
ENDBRANCH   1   2
BRANCH   1  10
ATOM     10  C   UNL     1       0.371  26.429  24.538  1.00  0.00     0.000 C 
BRANCH  10  11
ATOM     11  C   UNL     1      -0.338  27.733  24.139  1.00  0.00    -0.000 C 
BRANCH  11  12
ATOM     12  C   UNL     1      -1.853  27.627  24.372  1.00  0.00    -0.000 C 
BRANCH  12  13
ATOM     13  C   UNL     1      -2.222  27.475  25.858  1.00  0.00    -0.000 C 
BRANCH  13  14
ATOM     14  C   UNL     1      -3.423  26.552  26.145  1.00  0.00    -0.000 C 
BRANCH  14  15
ATOM     15  C   UNL     1      -3.419  25.222  25.371  1.00  0.00    -0.003 C 
ATOM     16  C   UNL     1      -4.256  24.138  26.049  1.00  0.00     0.004 C 
ENDBRANCH  14  15
ENDBRANCH  13  14
ENDBRANCH  12  13
ENDBRANCH  11  12
ENDBRANCH  10  11
ENDBRANCH   1  10
TORSDOF 12
ENDMDL
