MODEL 1
REMARK VINA RESULT:    -5.845      0.000      0.000
REMARK INTER + INTRA:          -6.187
REMARK INTER:                  -6.187
REMARK INTRA:                   0.000
REMARK UNBOUND:                 0.000
REMARK SMILES O=c1ccc2cc(O)c(O)cc2o1
REMARK SMILES IDX 4 1 3 2 2 3 1 4 13 5 12 6 11 7 9 8 7 9 6 10 5 11 8 12 10 14
REMARK H PARENT 8 13 10 15
REMARK Flexibility Score: inf
ROOT
ATOM      1  C   UNL     1      53.635 111.391  47.060  1.00  0.00     0.019 A 
ATOM      2  C   UNL     1      53.484 112.139  48.228  1.00  0.00     0.094 A 
ATOM      3  C   UNL     1      54.062 113.411  48.298  1.00  0.00     0.336 A 
ATOM      4  O   UNL     1      53.935 114.102  49.343  1.00  0.00    -0.246 OA
ATOM      5  O   UNL     1      54.745 113.899  47.265  1.00  0.00    -0.423 OA
ATOM      6  C   UNL     1      54.914 113.219  46.134  1.00  0.00     0.142 A 
ATOM      7  C   UNL     1      55.642 113.783  45.081  1.00  0.00     0.098 A 
ATOM      8  C   UNL     1      55.823 113.070  43.886  1.00  0.00     0.161 A 
ATOM      9  C   UNL     1      55.271 111.789  43.744  1.00  0.00     0.158 A 
ATOM     10  C   UNL     1      54.540 111.218  44.796  1.00  0.00     0.062 A 
ATOM     11  C   UNL     1      54.359 111.928  45.991  1.00  0.00     0.022 A 
ENDROOT
BRANCH   9  12
ATOM     12  O   UNL     1      55.456 111.088  42.553  1.00  0.00    -0.504 OA
ATOM     13  H   UNL     1      56.275 111.233  41.975  1.00  0.00     0.293 HD
ENDBRANCH   9  12
BRANCH   8  14
ATOM     14  O   UNL     1      56.548 113.630  42.836  1.00  0.00    -0.504 OA
ATOM     15  H   UNL     1      56.131 114.302  42.203  1.00  0.00     0.293 HD
ENDBRANCH   8  14
TORSDOF 2
ENDMDL
MODEL 2
REMARK VINA RESULT:    -5.500      3.077      3.955
REMARK INTER + INTRA:          -5.822
REMARK INTER:                  -5.822
REMARK INTRA:                   0.000
REMARK UNBOUND:                 0.000
REMARK SMILES O=c1ccc2cc(O)c(O)cc2o1
REMARK SMILES IDX 4 1 3 2 2 3 1 4 13 5 12 6 11 7 9 8 7 9 6 10 5 11 8 12 10 14
REMARK H PARENT 8 13 10 15
REMARK Flexibility Score: inf
ROOT
ATOM      1  C   UNL     1      51.182 113.749  45.013  1.00  0.00     0.019 A 
ATOM      2  C   UNL     1      49.956 114.010  45.624  1.00  0.00     0.094 A 
ATOM      3  C   UNL     1      49.853 113.893  47.014  1.00  0.00     0.336 A 
ATOM      4  O   UNL     1      48.755 114.125  47.585  1.00  0.00    -0.246 OA
ATOM      5  O   UNL     1      50.910 113.537  47.741  1.00  0.00    -0.423 OA
ATOM      6  C   UNL     1      52.097 113.279  47.198  1.00  0.00     0.142 A 
ATOM      7  C   UNL     1      53.173 112.910  48.012  1.00  0.00     0.098 A 
ATOM      8  C   UNL     1      54.426 112.637  47.445  1.00  0.00     0.161 A 
ATOM      9  C   UNL     1      54.604 112.735  46.057  1.00  0.00     0.158 A 
ATOM     10  C   UNL     1      53.530 113.105  45.235  1.00  0.00     0.062 A 
ATOM     11  C   UNL     1      52.276 113.378  45.801  1.00  0.00     0.022 A 
ENDROOT
BRANCH   9  12
ATOM     12  O   UNL     1      55.854 112.462  45.502  1.00  0.00    -0.504 OA
ATOM     13  H   UNL     1      56.699 112.882  45.869  1.00  0.00     0.293 HD
ENDBRANCH   9  12
BRANCH   8  14
ATOM     14  O   UNL     1      55.500 112.269  48.254  1.00  0.00    -0.504 OA
ATOM     15  H   UNL     1      56.122 112.961  48.657  1.00  0.00     0.293 HD
ENDBRANCH   8  14
TORSDOF 2
ENDMDL
MODEL 3
REMARK VINA RESULT:    -5.424      1.242      2.334
REMARK INTER + INTRA:          -5.741
REMARK INTER:                  -5.741
REMARK INTRA:                   0.000
REMARK UNBOUND:                 0.000
REMARK SMILES O=c1ccc2cc(O)c(O)cc2o1
REMARK SMILES IDX 4 1 3 2 2 3 1 4 13 5 12 6 11 7 9 8 7 9 6 10 5 11 8 12 10 14
REMARK H PARENT 8 13 10 15
REMARK Flexibility Score: inf
ROOT
ATOM      1  C   UNL     1      54.809 114.125  47.673  1.00  0.00     0.019 A 
ATOM      2  C   UNL     1      54.102 113.827  48.838  1.00  0.00     0.094 A 
ATOM      3  C   UNL     1      53.410 112.614  48.920  1.00  0.00     0.336 A 
ATOM      4  O   UNL     1      52.767 112.327  49.963  1.00  0.00    -0.246 OA
ATOM      5  O   UNL     1      53.427 111.758  47.901  1.00  0.00    -0.423 OA
ATOM      6  C   UNL     1      54.089 112.003  46.772  1.00  0.00     0.142 A 
ATOM      7  C   UNL     1      54.071 111.065  45.735  1.00  0.00     0.098 A 
ATOM      8  C   UNL     1      54.767 111.318  44.543  1.00  0.00     0.161 A 
ATOM      9  C   UNL     1      55.483 112.514  44.389  1.00  0.00     0.158 A 
ATOM     10  C   UNL     1      55.504 113.458  45.426  1.00  0.00     0.062 A 
ATOM     11  C   UNL     1      54.810 113.207  46.618  1.00  0.00     0.022 A 
ENDROOT
BRANCH   9  12
ATOM     12  O   UNL     1      56.171 112.757  43.201  1.00  0.00    -0.504 OA
ATOM     13  H   UNL     1      56.775 113.564  43.095  1.00  0.00     0.293 HD
ENDBRANCH   9  12
BRANCH   8  14
ATOM     14  O   UNL     1      54.751 110.386  43.508  1.00  0.00    -0.504 OA
ATOM     15  H   UNL     1      54.680 110.672  42.537  1.00  0.00     0.293 HD
ENDBRANCH   8  14
TORSDOF 2
ENDMDL
MODEL 4
REMARK VINA RESULT:    -5.317     10.829     11.696
REMARK INTER + INTRA:          -5.628
REMARK INTER:                  -5.628
REMARK INTRA:                   0.000
REMARK UNBOUND:                 0.000
REMARK SMILES O=c1ccc2cc(O)c(O)cc2o1
REMARK SMILES IDX 4 1 3 2 2 3 1 4 13 5 12 6 11 7 9 8 7 9 6 10 5 11 8 12 10 14
REMARK H PARENT 8 13 10 15
REMARK Flexibility Score: inf
ROOT
ATOM      1  C   UNL     1      46.513 107.825  53.434  1.00  0.00     0.019 A 
ATOM      2  C   UNL     1      47.078 109.030  53.852  1.00  0.00     0.094 A 
ATOM      3  C   UNL     1      48.469 109.172  53.823  1.00  0.00     0.336 A 
ATOM      4  O   UNL     1      48.998 110.252  54.196  1.00  0.00    -0.246 OA
ATOM      5  O   UNL     1      49.240 108.172  53.403  1.00  0.00    -0.423 OA
ATOM      6  C   UNL     1      48.742 107.007  52.996  1.00  0.00     0.142 A 
ATOM      7  C   UNL     1      49.602 105.992  52.565  1.00  0.00     0.098 A 
ATOM      8  C   UNL     1      49.082 104.761  52.135  1.00  0.00     0.161 A 
ATOM      9  C   UNL     1      47.696 104.547  52.136  1.00  0.00     0.158 A 
ATOM     10  C   UNL     1      46.829 105.561  52.567  1.00  0.00     0.062 A 
ATOM     11  C   UNL     1      47.347 106.791  52.997  1.00  0.00     0.022 A 
ENDROOT
BRANCH   9  12
ATOM     12  O   UNL     1      47.189 103.321  51.707  1.00  0.00    -0.504 OA
ATOM     13  H   UNL     1      47.208 103.053  50.731  1.00  0.00     0.293 HD
ENDBRANCH   9  12
BRANCH   8  14
ATOM     14  O   UNL     1      49.937 103.749  51.704  1.00  0.00    -0.504 OA
ATOM     15  H   UNL     1      50.156 103.621  50.723  1.00  0.00     0.293 HD
ENDBRANCH   8  14
TORSDOF 2
ENDMDL
MODEL 5
REMARK VINA RESULT:    -5.287     11.061     11.923
REMARK INTER + INTRA:          -5.596
REMARK INTER:                  -5.596
REMARK INTRA:                   0.000
REMARK UNBOUND:                 0.000
REMARK SMILES O=c1ccc2cc(O)c(O)cc2o1
REMARK SMILES IDX 4 1 3 2 2 3 1 4 13 5 12 6 11 7 9 8 7 9 6 10 5 11 8 12 10 14
REMARK H PARENT 8 13 10 15
REMARK Flexibility Score: inf
ROOT
ATOM      1  C   UNL     1      49.232 108.280  53.418  1.00  0.00     0.019 A 
ATOM      2  C   UNL     1      48.326 109.262  53.820  1.00  0.00     0.094 A 
ATOM      3  C   UNL     1      46.958 108.974  53.790  1.00  0.00     0.336 A 
ATOM      4  O   UNL     1      46.125 109.847  54.150  1.00  0.00    -0.246 OA
ATOM      5  O   UNL     1      46.528 107.782  53.383  1.00  0.00    -0.423 OA
ATOM      6  C   UNL     1      47.358 106.818  52.991  1.00  0.00     0.142 A 
ATOM      7  C   UNL     1      46.848 105.585  52.574  1.00  0.00     0.098 A 
ATOM      8  C   UNL     1      47.719 104.565  52.160  1.00  0.00     0.161 A 
ATOM      9  C   UNL     1      49.104 104.781  52.164  1.00  0.00     0.158 A 
ATOM     10  C   UNL     1      49.621 106.016  52.582  1.00  0.00     0.062 A 
ATOM     11  C   UNL     1      48.753 107.036  52.995  1.00  0.00     0.022 A 
ENDROOT
BRANCH   9  12
ATOM     12  O   UNL     1      49.962 103.763  51.751  1.00  0.00    -0.504 OA
ATOM     13  H   UNL     1      50.120 102.940  52.320  1.00  0.00     0.293 HD
ENDBRANCH   9  12
BRANCH   8  14
ATOM     14  O   UNL     1      47.214 103.335  51.744  1.00  0.00    -0.504 OA
ATOM     15  H   UNL     1      47.825 102.589  51.429  1.00  0.00     0.293 HD
ENDBRANCH   8  14
TORSDOF 2
ENDMDL
MODEL 6
REMARK VINA RESULT:    -4.804      3.708      5.802
REMARK INTER + INTRA:          -5.085
REMARK INTER:                  -5.085
REMARK INTRA:                   0.000
REMARK UNBOUND:                 0.000
REMARK SMILES O=c1ccc2cc(O)c(O)cc2o1
REMARK SMILES IDX 4 1 3 2 2 3 1 4 13 5 12 6 11 7 9 8 7 9 6 10 5 11 8 12 10 14
REMARK H PARENT 8 13 10 15
REMARK Flexibility Score: inf
ROOT
ATOM      1  C   UNL     1      52.093 114.105  44.953  1.00  0.00     0.019 A 
ATOM      2  C   UNL     1      53.467 113.912  45.096  1.00  0.00     0.094 A 
ATOM      3  C   UNL     1      53.971 113.532  46.344  1.00  0.00     0.336 A 
ATOM      4  O   UNL     1      55.208 113.352  46.493  1.00  0.00    -0.246 OA
ATOM      5  O   UNL     1      53.152 113.359  47.378  1.00  0.00    -0.423 OA
ATOM      6  C   UNL     1      51.836 113.534  47.285  1.00  0.00     0.142 A 
ATOM      7  C   UNL     1      51.023 113.337  48.406  1.00  0.00     0.098 A 
ATOM      8  C   UNL     1      49.635 113.519  48.314  1.00  0.00     0.161 A 
ATOM      9  C   UNL     1      49.058 113.900  47.093  1.00  0.00     0.158 A 
ATOM     10  C   UNL     1      49.868 114.098  45.965  1.00  0.00     0.062 A 
ATOM     11  C   UNL     1      51.255 113.917  46.056  1.00  0.00     0.022 A 
ENDROOT
BRANCH   9  12
ATOM     12  O   UNL     1      47.678 114.079  47.010  1.00  0.00    -0.504 OA
ATOM     13  H   UNL     1      47.036 113.504  47.543  1.00  0.00     0.293 HD
ENDBRANCH   9  12
BRANCH   8  14
ATOM     14  O   UNL     1      48.824 113.324  49.429  1.00  0.00    -0.504 OA
ATOM     15  H   UNL     1      48.727 114.035  50.146  1.00  0.00     0.293 HD
ENDBRANCH   8  14
TORSDOF 2
ENDMDL
MODEL 7
REMARK VINA RESULT:    -4.750      3.099      4.589
REMARK INTER + INTRA:          -5.028
REMARK INTER:                  -5.028
REMARK INTRA:                   0.000
REMARK UNBOUND:                 0.000
REMARK SMILES O=c1ccc2cc(O)c(O)cc2o1
REMARK SMILES IDX 4 1 3 2 2 3 1 4 13 5 12 6 11 7 9 8 7 9 6 10 5 11 8 12 10 14
REMARK H PARENT 8 13 10 15
REMARK Flexibility Score: inf
ROOT
ATOM      1  C   UNL     1      53.109 113.845  45.214  1.00  0.00     0.019 A 
ATOM      2  C   UNL     1      51.728 113.932  45.033  1.00  0.00     0.094 A 
ATOM      3  C   UNL     1      50.893 113.877  46.154  1.00  0.00     0.336 A 
ATOM      4  O   UNL     1      49.645 113.956  46.011  1.00  0.00    -0.246 OA
ATOM      5  O   UNL     1      51.409 113.743  47.373  1.00  0.00    -0.423 OA
ATOM      6  C   UNL     1      52.720 113.655  47.590  1.00  0.00     0.142 A 
ATOM      7  C   UNL     1      53.204 113.515  48.894  1.00  0.00     0.098 A 
ATOM      8  C   UNL     1      54.585 113.422  49.128  1.00  0.00     0.161 A 
ATOM      9  C   UNL     1      55.483 113.471  48.052  1.00  0.00     0.158 A 
ATOM     10  C   UNL     1      55.003 113.611  46.742  1.00  0.00     0.062 A 
ATOM     11  C   UNL     1      53.624 113.704  46.507  1.00  0.00     0.022 A 
ENDROOT
BRANCH   9  12
ATOM     12  O   UNL     1      56.853 113.378  48.294  1.00  0.00    -0.504 OA
ATOM     13  H   UNL     1      57.432 114.204  48.386  1.00  0.00     0.293 HD
ENDBRANCH   9  12
BRANCH   8  14
ATOM     14  O   UNL     1      55.070 113.283  50.427  1.00  0.00    -0.504 OA
ATOM     15  H   UNL     1      55.211 112.370  50.846  1.00  0.00     0.293 HD
ENDBRANCH   8  14
TORSDOF 2
ENDMDL
MODEL 8
REMARK VINA RESULT:    -4.744      1.707      5.128
REMARK INTER + INTRA:          -5.022
REMARK INTER:                  -5.022
REMARK INTRA:                   0.000
REMARK UNBOUND:                 0.000
REMARK SMILES O=c1ccc2cc(O)c(O)cc2o1
REMARK SMILES IDX 4 1 3 2 2 3 1 4 13 5 12 6 11 7 9 8 7 9 6 10 5 11 8 12 10 14
REMARK H PARENT 8 13 10 15
REMARK Flexibility Score: inf
ROOT
ATOM      1  C   UNL     1      52.871 113.005  45.846  1.00  0.00     0.019 A 
ATOM      2  C   UNL     1      53.894 113.023  44.898  1.00  0.00     0.094 A 
ATOM      3  C   UNL     1      55.223 113.049  45.335  1.00  0.00     0.336 A 
ATOM      4  O   UNL     1      56.160 113.064  44.494  1.00  0.00    -0.246 OA
ATOM      5  O   UNL     1      55.505 113.057  46.635  1.00  0.00    -0.423 OA
ATOM      6  C   UNL     1      54.559 113.040  47.572  1.00  0.00     0.142 A 
ATOM      7  C   UNL     1      54.916 113.049  48.924  1.00  0.00     0.098 A 
ATOM      8  C   UNL     1      53.923 113.032  49.916  1.00  0.00     0.161 A 
ATOM      9  C   UNL     1      52.569 113.005  49.552  1.00  0.00     0.158 A 
ATOM     10  C   UNL     1      52.206 112.996  48.198  1.00  0.00     0.062 A 
ATOM     11  C   UNL     1      53.196 113.013  47.206  1.00  0.00     0.022 A 
ENDROOT
BRANCH   9  12
ATOM     12  O   UNL     1      51.590 112.989  50.545  1.00  0.00    -0.504 OA
ATOM     13  H   UNL     1      51.508 112.217  51.195  1.00  0.00     0.293 HD
ENDBRANCH   9  12
BRANCH   8  14
ATOM     14  O   UNL     1      54.276 113.041  51.264  1.00  0.00    -0.504 OA
ATOM     15  H   UNL     1      54.045 113.823  51.868  1.00  0.00     0.293 HD
ENDBRANCH   8  14
TORSDOF 2
ENDMDL
