MODEL 1
REMARK VINA RESULT:    -6.270      0.000      0.000
REMARK INTER + INTRA:          -7.784
REMARK INTER:                  -7.552
REMARK INTRA:                  -0.232
REMARK UNBOUND:                -0.232
REMARK SMILES O=c1c(O)c(-c2ccc(O)c(O)c2)oc2cc(O)cc(O)c12
REMARK SMILES IDX 5 1 3 2 2 3 1 4 22 5 20 6 19 7 17 8 16 9 15 10 14 11 6 12
REMARK SMILES IDX 7 13 8 14 9 15 13 16 11 17 10 18 12 20 4 22 21 24 18 26
REMARK H PARENT 10 19 12 21 4 23 21 25 18 27
REMARK Flexibility Score: inf
ROOT
ATOM      1  C   UNL     1      27.349  -3.451  35.452  1.00  0.00     0.180 A 
ATOM      2  C   UNL     1      26.587  -2.671  36.339  1.00  0.00     0.208 A 
ATOM      3  C   UNL     1      25.205  -2.899  36.431  1.00  0.00     0.238 A 
ATOM      4  O   UNL     1      24.536  -2.235  37.266  1.00  0.00    -0.285 OA
ATOM      5  C   UNL     1      24.598  -3.892  35.623  1.00  0.00     0.111 A 
ATOM      6  C   UNL     1      23.201  -4.180  35.604  1.00  0.00     0.134 A 
ATOM      7  C   UNL     1      22.730  -5.271  34.864  1.00  0.00     0.093 A 
ATOM      8  C   UNL     1      23.599  -6.044  34.089  1.00  0.00     0.123 A 
ATOM      9  C   UNL     1      24.956  -5.735  34.054  1.00  0.00     0.094 A 
ATOM     10  C   UNL     1      25.461  -4.673  34.811  1.00  0.00     0.146 A 
ATOM     11  O   UNL     1      26.763  -4.419  34.757  1.00  0.00    -0.452 OA
ENDROOT
BRANCH   1  12
ATOM     12  C   UNL     1      28.807  -3.254  35.283  1.00  0.00     0.025 A 
ATOM     13  C   UNL     1      29.288  -2.624  34.124  1.00  0.00     0.016 A 
ATOM     14  C   UNL     1      30.659  -2.409  33.954  1.00  0.00     0.051 A 
ATOM     15  C   UNL     1      31.565  -2.805  34.941  1.00  0.00     0.157 A 
ATOM     16  C   UNL     1      29.718  -3.633  36.284  1.00  0.00     0.062 A 
ATOM     17  C   UNL     1      31.093  -3.416  36.115  1.00  0.00     0.158 A 
BRANCH  15  18
ATOM     18  O   UNL     1      32.926  -2.579  34.742  1.00  0.00    -0.504 OA
ATOM     19  H   UNL     1      33.286  -1.679  34.448  1.00  0.00     0.293 HD
ENDBRANCH  15  18
BRANCH  17  20
ATOM     20  O   UNL     1      31.991  -3.801  37.111  1.00  0.00    -0.504 OA
ATOM     21  H   UNL     1      32.459  -3.118  37.695  1.00  0.00     0.293 HD
ENDBRANCH  17  20
ENDBRANCH   1  12
BRANCH   2  22
ATOM     22  O   UNL     1      27.208  -1.711  37.143  1.00  0.00    -0.502 OA
ATOM     23  H   UNL     1      28.193  -1.751  37.374  1.00  0.00     0.293 HD
ENDBRANCH   2  22
BRANCH   6  24
ATOM     24  O   UNL     1      22.238  -3.414  36.268  1.00  0.00    -0.507 OA
ATOM     25  H   UNL     1      22.441  -2.689  36.939  1.00  0.00     0.293 HD
ENDBRANCH   6  24
BRANCH   8  26
ATOM     26  O   UNL     1      23.120  -7.118  33.343  1.00  0.00    -0.508 OA
ATOM     27  H   UNL     1      22.435  -7.763  33.720  1.00  0.00     0.293 HD
ENDBRANCH   8  26
TORSDOF 6
ENDMDL
MODEL 2
REMARK VINA RESULT:    -6.178      7.269      9.270
REMARK INTER + INTRA:          -7.674
REMARK INTER:                  -7.396
REMARK INTRA:                  -0.278
REMARK UNBOUND:                -0.232
REMARK SMILES O=c1c(O)c(-c2ccc(O)c(O)c2)oc2cc(O)cc(O)c12
REMARK SMILES IDX 5 1 3 2 2 3 1 4 22 5 20 6 19 7 17 8 16 9 15 10 14 11 6 12
REMARK SMILES IDX 7 13 8 14 9 15 13 16 11 17 10 18 12 20 4 22 21 24 18 26
REMARK H PARENT 10 19 12 21 4 23 21 25 18 27
REMARK Flexibility Score: inf
ROOT
ATOM      1  C   UNL     1      26.710  -0.464  42.964  1.00  0.00     0.180 A 
ATOM      2  C   UNL     1      25.947   0.537  43.590  1.00  0.00     0.208 A 
ATOM      3  C   UNL     1      25.583   1.676  42.856  1.00  0.00     0.238 A 
ATOM      4  O   UNL     1      24.855   2.543  43.406  1.00  0.00    -0.285 OA
ATOM      5  C   UNL     1      26.000   1.810  41.509  1.00  0.00     0.111 A 
ATOM      6  C   UNL     1      25.724   2.940  40.683  1.00  0.00     0.134 A 
ATOM      7  C   UNL     1      26.073   2.907  39.327  1.00  0.00     0.093 A 
ATOM      8  C   UNL     1      26.747   1.810  38.784  1.00  0.00     0.123 A 
ATOM      9  C   UNL     1      27.075   0.728  39.596  1.00  0.00     0.094 A 
ATOM     10  C   UNL     1      26.708   0.717  40.945  1.00  0.00     0.146 A 
ATOM     11  O   UNL     1      27.030  -0.340  41.681  1.00  0.00    -0.452 OA
ENDROOT
BRANCH   1  12
ATOM     12  C   UNL     1      27.153  -1.682  43.680  1.00  0.00     0.025 A 
ATOM     13  C   UNL     1      28.215  -1.599  44.593  1.00  0.00     0.016 A 
ATOM     14  C   UNL     1      28.635  -2.732  45.295  1.00  0.00     0.051 A 
ATOM     15  C   UNL     1      27.992  -3.959  45.108  1.00  0.00     0.157 A 
ATOM     16  C   UNL     1      26.493  -2.912  43.507  1.00  0.00     0.062 A 
ATOM     17  C   UNL     1      26.913  -4.050  44.212  1.00  0.00     0.158 A 
BRANCH  15  18
ATOM     18  O   UNL     1      28.434  -5.073  45.820  1.00  0.00    -0.504 OA
ATOM     19  H   UNL     1      28.572  -5.050  46.824  1.00  0.00     0.293 HD
ENDBRANCH  15  18
BRANCH  17  20
ATOM     20  O   UNL     1      26.258  -5.268  44.031  1.00  0.00    -0.504 OA
ATOM     21  H   UNL     1      26.260  -5.983  44.749  1.00  0.00     0.293 HD
ENDBRANCH  17  20
ENDBRANCH   1  12
BRANCH   2  22
ATOM     22  O   UNL     1      25.527   0.375  44.914  1.00  0.00    -0.502 OA
ATOM     23  H   UNL     1      24.567   0.520  45.201  1.00  0.00     0.293 HD
ENDBRANCH   2  22
BRANCH   6  24
ATOM     24  O   UNL     1      25.138   4.121  41.147  1.00  0.00    -0.507 OA
ATOM     25  H   UNL     1      25.351   5.044  40.801  1.00  0.00     0.293 HD
ENDBRANCH   6  24
BRANCH   8  26
ATOM     26  O   UNL     1      27.105   1.792  37.438  1.00  0.00    -0.508 OA
ATOM     27  H   UNL     1      26.813   2.525  36.801  1.00  0.00     0.293 HD
ENDBRANCH   8  26
TORSDOF 6
ENDMDL
MODEL 3
REMARK VINA RESULT:    -5.991      1.165      2.886
REMARK INTER + INTRA:          -7.449
REMARK INTER:                  -7.135
REMARK INTRA:                  -0.313
REMARK UNBOUND:                -0.232
REMARK SMILES O=c1c(O)c(-c2ccc(O)c(O)c2)oc2cc(O)cc(O)c12
REMARK SMILES IDX 5 1 3 2 2 3 1 4 22 5 20 6 19 7 17 8 16 9 15 10 14 11 6 12
REMARK SMILES IDX 7 13 8 14 9 15 13 16 11 17 10 18 12 20 4 22 21 24 18 26
REMARK H PARENT 10 19 12 21 4 23 21 25 18 27
REMARK Flexibility Score: inf
ROOT
ATOM      1  C   UNL     1      27.626  -4.326  34.750  1.00  0.00     0.180 A 
ATOM      2  C   UNL     1      27.286  -5.509  34.072  1.00  0.00     0.208 A 
ATOM      3  C   UNL     1      25.955  -5.955  34.106  1.00  0.00     0.238 A 
ATOM      4  O   UNL     1      25.646  -6.985  33.451  1.00  0.00    -0.285 OA
ATOM      5  C   UNL     1      24.984  -5.223  34.831  1.00  0.00     0.111 A 
ATOM      6  C   UNL     1      23.616  -5.604  34.968  1.00  0.00     0.134 A 
ATOM      7  C   UNL     1      22.716  -4.737  35.599  1.00  0.00     0.093 A 
ATOM      8  C   UNL     1      23.150  -3.531  36.156  1.00  0.00     0.123 A 
ATOM      9  C   UNL     1      24.494  -3.177  36.081  1.00  0.00     0.094 A 
ATOM     10  C   UNL     1      25.409  -4.006  35.425  1.00  0.00     0.146 A 
ATOM     11  O   UNL     1      26.680  -3.627  35.367  1.00  0.00    -0.452 OA
ENDROOT
BRANCH   1  12
ATOM     12  C   UNL     1      29.012  -3.805  34.780  1.00  0.00     0.025 A 
ATOM     13  C   UNL     1      29.465  -2.986  33.734  1.00  0.00     0.016 A 
ATOM     14  C   UNL     1      30.762  -2.467  33.754  1.00  0.00     0.051 A 
ATOM     15  C   UNL     1      31.619  -2.744  34.822  1.00  0.00     0.157 A 
ATOM     16  C   UNL     1      29.868  -4.066  35.865  1.00  0.00     0.062 A 
ATOM     17  C   UNL     1      31.170  -3.545  35.886  1.00  0.00     0.158 A 
BRANCH  15  18
ATOM     18  O   UNL     1      32.909  -2.214  34.812  1.00  0.00    -0.504 OA
ATOM     19  H   UNL     1      33.194  -1.480  35.450  1.00  0.00     0.293 HD
ENDBRANCH  15  18
BRANCH  17  20
ATOM     20  O   UNL     1      32.015  -3.814  36.962  1.00  0.00    -0.504 OA
ATOM     21  H   UNL     1      32.983  -3.514  36.964  1.00  0.00     0.293 HD
ENDBRANCH  17  20
ENDBRANCH   1  12
BRANCH   2  22
ATOM     22  O   UNL     1      28.255  -6.205  33.343  1.00  0.00    -0.502 OA
ATOM     23  H   UNL     1      28.803  -5.768  32.612  1.00  0.00     0.293 HD
ENDBRANCH   2  22
BRANCH   6  24
ATOM     24  O   UNL     1      23.100  -6.827  34.529  1.00  0.00    -0.507 OA
ATOM     25  H   UNL     1      23.650  -7.653  34.350  1.00  0.00     0.293 HD
ENDBRANCH   6  24
BRANCH   8  26
ATOM     26  O   UNL     1      22.251  -2.680  36.796  1.00  0.00    -0.508 OA
ATOM     27  H   UNL     1      22.549  -1.799  37.199  1.00  0.00     0.293 HD
ENDBRANCH   8  26
TORSDOF 6
ENDMDL
MODEL 4
REMARK VINA RESULT:    -5.515      8.014      9.775
REMARK INTER + INTRA:          -6.875
REMARK INTER:                  -6.599
REMARK INTRA:                  -0.276
REMARK UNBOUND:                -0.232
REMARK SMILES O=c1c(O)c(-c2ccc(O)c(O)c2)oc2cc(O)cc(O)c12
REMARK SMILES IDX 5 1 3 2 2 3 1 4 22 5 20 6 19 7 17 8 16 9 15 10 14 11 6 12
REMARK SMILES IDX 7 13 8 14 9 15 13 16 11 17 10 18 12 20 4 22 21 24 18 26
REMARK H PARENT 10 19 12 21 4 23 21 25 18 27
REMARK Flexibility Score: inf
ROOT
ATOM      1  C   UNL     1      26.897  -1.617  43.761  1.00  0.00     0.180 A 
ATOM      2  C   UNL     1      28.011  -1.727  44.610  1.00  0.00     0.208 A 
ATOM      3  C   UNL     1      28.213  -2.924  45.316  1.00  0.00     0.238 A 
ATOM      4  O   UNL     1      29.242  -3.036  46.034  1.00  0.00    -0.285 OA
ATOM      5  C   UNL     1      27.291  -3.989  45.178  1.00  0.00     0.111 A 
ATOM      6  C   UNL     1      27.374  -5.231  45.876  1.00  0.00     0.134 A 
ATOM      7  C   UNL     1      26.480  -6.261  45.563  1.00  0.00     0.093 A 
ATOM      8  C   UNL     1      25.464  -6.072  44.623  1.00  0.00     0.123 A 
ATOM      9  C   UNL     1      25.337  -4.844  43.979  1.00  0.00     0.094 A 
ATOM     10  C   UNL     1      26.237  -3.808  44.245  1.00  0.00     0.146 A 
ATOM     11  O   UNL     1      26.087  -2.656  43.601  1.00  0.00    -0.452 OA
ENDROOT
BRANCH   1  12
ATOM     12  C   UNL     1      26.604  -0.379  43.002  1.00  0.00     0.025 A 
ATOM     13  C   UNL     1      26.069   0.731  43.672  1.00  0.00     0.016 A 
ATOM     14  C   UNL     1      25.804   1.916  42.979  1.00  0.00     0.051 A 
ATOM     15  C   UNL     1      26.085   2.014  41.614  1.00  0.00     0.157 A 
ATOM     16  C   UNL     1      26.906  -0.272  41.633  1.00  0.00     0.062 A 
ATOM     17  C   UNL     1      26.642   0.916  40.936  1.00  0.00     0.158 A 
BRANCH  15  18
ATOM     18  O   UNL     1      25.808   3.208  40.949  1.00  0.00    -0.504 OA
ATOM     19  H   UNL     1      26.536   3.868  40.703  1.00  0.00     0.293 HD
ENDBRANCH  15  18
BRANCH  17  20
ATOM     20  O   UNL     1      26.937   1.013  39.577  1.00  0.00    -0.504 OA
ATOM     21  H   UNL     1      27.580   0.371  39.127  1.00  0.00     0.293 HD
ENDBRANCH  17  20
ENDBRANCH   1  12
BRANCH   2  22
ATOM     22  O   UNL     1      28.922  -0.672  44.716  1.00  0.00    -0.502 OA
ATOM     23  H   UNL     1      29.606  -0.617  45.462  1.00  0.00     0.293 HD
ENDBRANCH   2  22
BRANCH   6  24
ATOM     24  O   UNL     1      28.292  -5.490  46.898  1.00  0.00    -0.507 OA
ATOM     25  H   UNL     1      28.258  -5.083  47.820  1.00  0.00     0.293 HD
ENDBRANCH   6  24
BRANCH   8  26
ATOM     26  O   UNL     1      24.568  -7.097  44.328  1.00  0.00    -0.508 OA
ATOM     27  H   UNL     1      24.355  -7.358  43.372  1.00  0.00     0.293 HD
ENDBRANCH   8  26
TORSDOF 6
ENDMDL
MODEL 5
REMARK VINA RESULT:    -5.394      8.040     10.471
REMARK INTER + INTRA:          -6.729
REMARK INTER:                  -6.416
REMARK INTRA:                  -0.314
REMARK UNBOUND:                -0.232
REMARK SMILES O=c1c(O)c(-c2ccc(O)c(O)c2)oc2cc(O)cc(O)c12
REMARK SMILES IDX 5 1 3 2 2 3 1 4 22 5 20 6 19 7 17 8 16 9 15 10 14 11 6 12
REMARK SMILES IDX 7 13 8 14 9 15 13 16 11 17 10 18 12 20 4 22 21 24 18 26
REMARK H PARENT 10 19 12 21 4 23 21 25 18 27
REMARK Flexibility Score: inf
ROOT
ATOM      1  C   UNL     1      26.771  -1.208  43.581  1.00  0.00     0.180 A 
ATOM      2  C   UNL     1      25.996  -2.378  43.514  1.00  0.00     0.208 A 
ATOM      3  C   UNL     1      26.421  -3.518  44.214  1.00  0.00     0.238 A 
ATOM      4  O   UNL     1      25.695  -4.547  44.194  1.00  0.00    -0.285 OA
ATOM      5  C   UNL     1      27.625  -3.480  44.959  1.00  0.00     0.111 A 
ATOM      6  C   UNL     1      28.173  -4.588  45.672  1.00  0.00     0.134 A 
ATOM      7  C   UNL     1      29.300  -4.399  46.482  1.00  0.00     0.093 A 
ATOM      8  C   UNL     1      29.938  -3.158  46.550  1.00  0.00     0.123 A 
ATOM      9  C   UNL     1      29.446  -2.086  45.810  1.00  0.00     0.094 A 
ATOM     10  C   UNL     1      28.301  -2.234  45.022  1.00  0.00     0.146 A 
ATOM     11  O   UNL     1      27.859  -1.183  44.341  1.00  0.00    -0.452 OA
ENDROOT
BRANCH   1  12
ATOM     12  C   UNL     1      26.400   0.026  42.852  1.00  0.00     0.025 A 
ATOM     13  C   UNL     1      25.802   1.087  43.549  1.00  0.00     0.016 A 
ATOM     14  C   UNL     1      25.463   2.269  42.884  1.00  0.00     0.051 A 
ATOM     15  C   UNL     1      25.730   2.414  41.519  1.00  0.00     0.157 A 
ATOM     16  C   UNL     1      26.686   0.181  41.484  1.00  0.00     0.062 A 
ATOM     17  C   UNL     1      26.348   1.367  40.815  1.00  0.00     0.158 A 
BRANCH  15  18
ATOM     18  O   UNL     1      25.378   3.603  40.882  1.00  0.00    -0.504 OA
ATOM     19  H   UNL     1      24.623   4.190  41.216  1.00  0.00     0.293 HD
ENDBRANCH  15  18
BRANCH  17  20
ATOM     20  O   UNL     1      26.630   1.511  39.457  1.00  0.00    -0.504 OA
ATOM     21  H   UNL     1      26.908   2.402  39.065  1.00  0.00     0.293 HD
ENDBRANCH  17  20
ENDBRANCH   1  12
BRANCH   2  22
ATOM     22  O   UNL     1      24.799  -2.389  42.791  1.00  0.00    -0.502 OA
ATOM     23  H   UNL     1      24.093  -1.670  42.898  1.00  0.00     0.293 HD
ENDBRANCH   2  22
BRANCH   6  24
ATOM     24  O   UNL     1      27.668  -5.889  45.600  1.00  0.00    -0.507 OA
ATOM     25  H   UNL     1      27.089  -6.322  46.304  1.00  0.00     0.293 HD
ENDBRANCH   6  24
BRANCH   8  26
ATOM     26  O   UNL     1      31.068  -2.983  47.345  1.00  0.00    -0.508 OA
ATOM     27  H   UNL     1      31.734  -2.240  47.164  1.00  0.00     0.293 HD
ENDBRANCH   8  26
TORSDOF 6
ENDMDL
MODEL 6
REMARK VINA RESULT:    -5.323      1.569      7.104
REMARK INTER + INTRA:          -6.644
REMARK INTER:                  -6.366
REMARK INTRA:                  -0.278
REMARK UNBOUND:                -0.232
REMARK SMILES O=c1c(O)c(-c2ccc(O)c(O)c2)oc2cc(O)cc(O)c12
REMARK SMILES IDX 5 1 3 2 2 3 1 4 22 5 20 6 19 7 17 8 16 9 15 10 14 11 6 12
REMARK SMILES IDX 7 13 8 14 9 15 13 16 11 17 10 18 12 20 4 22 21 24 18 26
REMARK H PARENT 10 19 12 21 4 23 21 25 18 27
REMARK Flexibility Score: inf
ROOT
ATOM      1  C   UNL     1      27.655  -4.131  35.613  1.00  0.00     0.180 A 
ATOM      2  C   UNL     1      28.405  -5.079  36.331  1.00  0.00     0.208 A 
ATOM      3  C   UNL     1      29.799  -5.105  36.173  1.00  0.00     0.238 A 
ATOM      4  O   UNL     1      30.470  -5.921  36.858  1.00  0.00    -0.285 OA
ATOM      5  C   UNL     1      30.426  -4.195  35.287  1.00  0.00     0.111 A 
ATOM      6  C   UNL     1      31.827  -4.160  35.018  1.00  0.00     0.134 A 
ATOM      7  C   UNL     1      32.353  -3.133  34.225  1.00  0.00     0.093 A 
ATOM      8  C   UNL     1      31.518  -2.178  33.637  1.00  0.00     0.123 A 
ATOM      9  C   UNL     1      30.143  -2.240  33.845  1.00  0.00     0.094 A 
ATOM     10  C   UNL     1      29.593  -3.232  34.661  1.00  0.00     0.146 A 
ATOM     11  O   UNL     1      28.278  -3.248  34.842  1.00  0.00    -0.452 OA
ENDROOT
BRANCH   1  12
ATOM     12  C   UNL     1      26.179  -4.057  35.709  1.00  0.00     0.025 A 
ATOM     13  C   UNL     1      25.584  -2.985  36.394  1.00  0.00     0.016 A 
ATOM     14  C   UNL     1      24.193  -2.885  36.479  1.00  0.00     0.051 A 
ATOM     15  C   UNL     1      23.376  -3.842  35.869  1.00  0.00     0.157 A 
ATOM     16  C   UNL     1      25.357  -5.007  35.079  1.00  0.00     0.062 A 
ATOM     17  C   UNL     1      23.960  -4.907  35.162  1.00  0.00     0.158 A 
BRANCH  15  18
ATOM     18  O   UNL     1      21.992  -3.717  35.972  1.00  0.00    -0.504 OA
ATOM     19  H   UNL     1      21.547  -3.313  36.788  1.00  0.00     0.293 HD
ENDBRANCH  15  18
BRANCH  17  20
ATOM     20  O   UNL     1      23.151  -5.857  34.539  1.00  0.00    -0.504 OA
ATOM     21  H   UNL     1      22.146  -5.742  34.483  1.00  0.00     0.293 HD
ENDBRANCH  17  20
ENDBRANCH   1  12
BRANCH   2  22
ATOM     22  O   UNL     1      27.769  -5.954  37.217  1.00  0.00    -0.502 OA
ATOM     23  H   UNL     1      28.282  -6.585  37.820  1.00  0.00     0.293 HD
ENDBRANCH   2  22
BRANCH   6  24
ATOM     24  O   UNL     1      32.734  -5.118  35.480  1.00  0.00    -0.507 OA
ATOM     25  H   UNL     1      33.131  -5.135  36.407  1.00  0.00     0.293 HD
ENDBRANCH   6  24
BRANCH   8  26
ATOM     26  O   UNL     1      32.048  -1.169  32.836  1.00  0.00    -0.508 OA
ATOM     27  H   UNL     1      32.815  -0.587  33.154  1.00  0.00     0.293 HD
ENDBRANCH   8  26
TORSDOF 6
ENDMDL
MODEL 7
REMARK VINA RESULT:    -5.313      3.293      5.714
REMARK INTER + INTRA:          -6.632
REMARK INTER:                  -6.790
REMARK INTRA:                   0.158
REMARK UNBOUND:                -0.232
REMARK SMILES O=c1c(O)c(-c2ccc(O)c(O)c2)oc2cc(O)cc(O)c12
REMARK SMILES IDX 5 1 3 2 2 3 1 4 22 5 20 6 19 7 17 8 16 9 15 10 14 11 6 12
REMARK SMILES IDX 7 13 8 14 9 15 13 16 11 17 10 18 12 20 4 22 21 24 18 26
REMARK H PARENT 10 19 12 21 4 23 21 25 18 27
REMARK Flexibility Score: inf
ROOT
ATOM      1  C   UNL     1      25.935  -1.427  37.097  1.00  0.00     0.180 A 
ATOM      2  C   UNL     1      24.812  -1.804  36.341  1.00  0.00     0.208 A 
ATOM      3  C   UNL     1      24.850  -3.009  35.620  1.00  0.00     0.238 A 
ATOM      4  O   UNL     1      23.822  -3.368  34.988  1.00  0.00    -0.285 OA
ATOM      5  C   UNL     1      26.015  -3.813  35.652  1.00  0.00     0.111 A 
ATOM      6  C   UNL     1      26.179  -5.032  34.928  1.00  0.00     0.134 A 
ATOM      7  C   UNL     1      27.323  -5.811  35.136  1.00  0.00     0.093 A 
ATOM      8  C   UNL     1      28.340  -5.382  35.993  1.00  0.00     0.123 A 
ATOM      9  C   UNL     1      28.217  -4.165  36.658  1.00  0.00     0.094 A 
ATOM     10  C   UNL     1      27.069  -3.382  36.498  1.00  0.00     0.146 A 
ATOM     11  O   UNL     1      26.987  -2.234  37.159  1.00  0.00    -0.452 OA
ENDROOT
BRANCH   1  12
ATOM     12  C   UNL     1      25.980  -0.160  37.863  1.00  0.00     0.025 A 
ATOM     13  C   UNL     1      26.677  -0.114  39.081  1.00  0.00     0.016 A 
ATOM     14  C   UNL     1      26.749   1.077  39.809  1.00  0.00     0.051 A 
ATOM     15  C   UNL     1      26.142   2.239  39.327  1.00  0.00     0.157 A 
ATOM     16  C   UNL     1      25.387   1.015  37.369  1.00  0.00     0.062 A 
ATOM     17  C   UNL     1      25.460   2.211  38.098  1.00  0.00     0.158 A 
BRANCH  15  18
ATOM     18  O   UNL     1      26.228   3.411  40.077  1.00  0.00    -0.504 OA
ATOM     19  H   UNL     1      25.980   3.442  41.058  1.00  0.00     0.293 HD
ENDBRANCH  15  18
BRANCH  17  20
ATOM     20  O   UNL     1      24.863   3.371  37.605  1.00  0.00    -0.504 OA
ATOM     21  H   UNL     1      25.417   4.149  37.267  1.00  0.00     0.293 HD
ENDBRANCH  17  20
ENDBRANCH   1  12
BRANCH   2  22
ATOM     22  O   UNL     1      23.664  -1.007  36.341  1.00  0.00    -0.502 OA
ATOM     23  H   UNL     1      22.986  -1.030  37.093  1.00  0.00     0.293 HD
ENDBRANCH   2  22
BRANCH   6  24
ATOM     24  O   UNL     1      25.267  -5.504  33.979  1.00  0.00    -0.507 OA
ATOM     25  H   UNL     1      25.319  -5.320  32.989  1.00  0.00     0.293 HD
ENDBRANCH   6  24
BRANCH   8  26
ATOM     26  O   UNL     1      29.483  -6.155  36.183  1.00  0.00    -0.508 OA
ATOM     27  H   UNL     1      29.457  -7.166  36.112  1.00  0.00     0.293 HD
ENDBRANCH   8  26
TORSDOF 6
ENDMDL
MODEL 8
REMARK VINA RESULT:    -5.115      3.809      6.379
REMARK INTER + INTRA:          -6.394
REMARK INTER:                  -6.230
REMARK INTRA:                  -0.164
REMARK UNBOUND:                -0.232
REMARK SMILES O=c1c(O)c(-c2ccc(O)c(O)c2)oc2cc(O)cc(O)c12
REMARK SMILES IDX 5 1 3 2 2 3 1 4 22 5 20 6 19 7 17 8 16 9 15 10 14 11 6 12
REMARK SMILES IDX 7 13 8 14 9 15 13 16 11 17 10 18 12 20 4 22 21 24 18 26
REMARK H PARENT 10 19 12 21 4 23 21 25 18 27
REMARK Flexibility Score: inf
ROOT
ATOM      1  C   UNL     1      26.668  -0.694  38.052  1.00  0.00     0.180 A 
ATOM      2  C   UNL     1      25.695  -1.077  37.114  1.00  0.00     0.208 A 
ATOM      3  C   UNL     1      25.896  -2.247  36.364  1.00  0.00     0.238 A 
ATOM      4  O   UNL     1      24.996  -2.614  35.563  1.00  0.00    -0.285 OA
ATOM      5  C   UNL     1      27.075  -3.010  36.548  1.00  0.00     0.111 A 
ATOM      6  C   UNL     1      27.401  -4.188  35.814  1.00  0.00     0.134 A 
ATOM      7  C   UNL     1      28.531  -4.935  36.171  1.00  0.00     0.093 A 
ATOM      8  C   UNL     1      29.381  -4.508  37.194  1.00  0.00     0.123 A 
ATOM      9  C   UNL     1      29.104  -3.327  37.877  1.00  0.00     0.094 A 
ATOM     10  C   UNL     1      27.964  -2.579  37.567  1.00  0.00     0.146 A 
ATOM     11  O   UNL     1      27.731  -1.465  38.250  1.00  0.00    -0.452 OA
ENDROOT
BRANCH   1  12
ATOM     12  C   UNL     1      26.539   0.539  38.863  1.00  0.00     0.025 A 
ATOM     13  C   UNL     1      26.533   1.788  38.224  1.00  0.00     0.016 A 
ATOM     14  C   UNL     1      26.390   2.962  38.969  1.00  0.00     0.051 A 
ATOM     15  C   UNL     1      26.237   2.906  40.357  1.00  0.00     0.157 A 
ATOM     16  C   UNL     1      26.363   0.482  40.257  1.00  0.00     0.062 A 
ATOM     17  C   UNL     1      26.219   1.659  41.005  1.00  0.00     0.158 A 
BRANCH  15  18
ATOM     18  O   UNL     1      26.099   4.094  41.073  1.00  0.00    -0.504 OA
ATOM     19  H   UNL     1      26.171   4.125  42.083  1.00  0.00     0.293 HD
ENDBRANCH  15  18
BRANCH  17  20
ATOM     20  O   UNL     1      26.052   1.595  42.389  1.00  0.00    -0.504 OA
ATOM     21  H   UNL     1      25.143   1.437  42.806  1.00  0.00     0.293 HD
ENDBRANCH  17  20
ENDBRANCH   1  12
BRANCH   2  22
ATOM     22  O   UNL     1      24.528  -0.323  36.962  1.00  0.00    -0.502 OA
ATOM     23  H   UNL     1      23.766  -0.614  36.362  1.00  0.00     0.293 HD
ENDBRANCH   2  22
BRANCH   6  24
ATOM     24  O   UNL     1      26.670  -4.651  34.716  1.00  0.00    -0.507 OA
ATOM     25  H   UNL     1      27.057  -4.834  33.802  1.00  0.00     0.293 HD
ENDBRANCH   6  24
BRANCH   8  26
ATOM     26  O   UNL     1      30.512  -5.248  37.533  1.00  0.00    -0.508 OA
ATOM     27  H   UNL     1      31.030  -5.773  36.838  1.00  0.00     0.293 HD
ENDBRANCH   8  26
TORSDOF 6
ENDMDL
MODEL 9
REMARK VINA RESULT:    -5.085      1.875      2.425
REMARK INTER + INTRA:          -6.358
REMARK INTER:                  -6.027
REMARK INTRA:                  -0.330
REMARK UNBOUND:                -0.232
REMARK SMILES O=c1c(O)c(-c2ccc(O)c(O)c2)oc2cc(O)cc(O)c12
REMARK SMILES IDX 5 1 3 2 2 3 1 4 22 5 20 6 19 7 17 8 16 9 15 10 14 11 6 12
REMARK SMILES IDX 7 13 8 14 9 15 13 16 11 17 10 18 12 20 4 22 21 24 18 26
REMARK H PARENT 10 19 12 21 4 23 21 25 18 27
REMARK Flexibility Score: inf
ROOT
ATOM      1  C   UNL     1      28.384  -4.708  35.760  1.00  0.00     0.180 A 
ATOM      2  C   UNL     1      28.004  -3.476  36.321  1.00  0.00     0.208 A 
ATOM      3  C   UNL     1      26.642  -3.141  36.369  1.00  0.00     0.238 A 
ATOM      4  O   UNL     1      26.304  -2.061  36.921  1.00  0.00    -0.285 OA
ATOM      5  C   UNL     1      25.677  -4.034  35.841  1.00  0.00     0.111 A 
ATOM      6  C   UNL     1      24.274  -3.779  35.800  1.00  0.00     0.134 A 
ATOM      7  C   UNL     1      23.401  -4.788  35.376  1.00  0.00     0.093 A 
ATOM      8  C   UNL     1      23.886  -6.019  34.928  1.00  0.00     0.123 A 
ATOM      9  C   UNL     1      25.258  -6.256  34.908  1.00  0.00     0.094 A 
ATOM     10  C   UNL     1      26.152  -5.281  35.360  1.00  0.00     0.146 A 
ATOM     11  O   UNL     1      27.452  -5.552  35.334  1.00  0.00    -0.452 OA
ENDROOT
BRANCH   1  12
ATOM     12  C   UNL     1      29.803  -5.121  35.652  1.00  0.00     0.025 A 
ATOM     13  C   UNL     1      30.384  -5.871  36.685  1.00  0.00     0.016 A 
ATOM     14  C   UNL     1      31.715  -6.289  36.594  1.00  0.00     0.051 A 
ATOM     15  C   UNL     1      32.478  -5.978  35.465  1.00  0.00     0.157 A 
ATOM     16  C   UNL     1      30.565  -4.826  34.508  1.00  0.00     0.062 A 
ATOM     17  C   UNL     1      31.900  -5.246  34.414  1.00  0.00     0.158 A 
BRANCH  15  18
ATOM     18  O   UNL     1      33.803  -6.406  35.403  1.00  0.00    -0.504 OA
ATOM     19  H   UNL     1      34.579  -5.755  35.381  1.00  0.00     0.293 HD
ENDBRANCH  15  18
BRANCH  17  20
ATOM     20  O   UNL     1      32.652  -4.944  33.279  1.00  0.00    -0.504 OA
ATOM     21  H   UNL     1      32.852  -3.986  33.015  1.00  0.00     0.293 HD
ENDBRANCH  17  20
ENDBRANCH   1  12
BRANCH   2  22
ATOM     22  O   UNL     1      28.971  -2.619  36.856  1.00  0.00    -0.502 OA
ATOM     23  H   UNL     1      28.764  -1.963  37.599  1.00  0.00     0.293 HD
ENDBRANCH   2  22
BRANCH   6  24
ATOM     24  O   UNL     1      23.693  -2.553  36.137  1.00  0.00    -0.507 OA
ATOM     25  H   UNL     1      24.204  -1.695  36.281  1.00  0.00     0.293 HD
ENDBRANCH   6  24
BRANCH   8  26
ATOM     26  O   UNL     1      23.012  -7.012  34.492  1.00  0.00    -0.508 OA
ATOM     27  H   UNL     1      23.175  -7.523  33.632  1.00  0.00     0.293 HD
ENDBRANCH   8  26
TORSDOF 6
ENDMDL
