MODEL 1
REMARK VINA RESULT:    -4.123      0.000      0.000
REMARK INTER + INTRA:          -5.136
REMARK INTER:                  -4.847
REMARK INTRA:                  -0.289
REMARK UNBOUND:                -0.289
REMARK SMILES O=c1cc(-c2ccc(O)c(O)c2)oc2cc(O)cc(O)c12
REMARK SMILES IDX 4 1 3 2 2 3 1 4 21 5 19 6 18 7 16 8 15 9 14 10 13 11 5 12
REMARK SMILES IDX 6 13 7 14 8 15 12 16 10 17 9 18 11 20 20 22 17 24
REMARK H PARENT 9 19 11 21 20 23 17 25
REMARK Flexibility Score: inf
ROOT
ATOM      1  C   UNL     1     -13.107  37.524  20.000  1.00  0.00     0.138 A 
ATOM      2  C   UNL     1     -12.466  36.590  19.174  1.00  0.00     0.100 A 
ATOM      3  C   UNL     1     -12.433  36.795  17.794  1.00  0.00     0.197 A 
ATOM      4  O   UNL     1     -11.899  35.912  17.076  1.00  0.00    -0.289 OA
ATOM      5  C   UNL     1     -13.014  37.963  17.243  1.00  0.00     0.107 A 
ATOM      6  C   UNL     1     -13.012  38.296  15.854  1.00  0.00     0.134 A 
ATOM      7  C   UNL     1     -13.705  39.431  15.416  1.00  0.00     0.093 A 
ATOM      8  C   UNL     1     -14.352  40.275  16.321  1.00  0.00     0.123 A 
ATOM      9  C   UNL     1     -14.318  39.985  17.683  1.00  0.00     0.094 A 
ATOM     10  C   UNL     1     -13.665  38.843  18.148  1.00  0.00     0.146 A 
ATOM     11  O   UNL     1     -13.672  38.595  19.454  1.00  0.00    -0.456 OA
ENDROOT
BRANCH   1  12
ATOM     12  C   UNL     1     -13.170  37.356  21.474  1.00  0.00     0.021 A 
ATOM     13  C   UNL     1     -13.552  36.114  22.011  1.00  0.00     0.016 A 
ATOM     14  C   UNL     1     -13.614  35.927  23.394  1.00  0.00     0.051 A 
ATOM     15  C   UNL     1     -13.283  36.973  24.264  1.00  0.00     0.157 A 
ATOM     16  C   UNL     1     -12.827  38.400  22.355  1.00  0.00     0.062 A 
ATOM     17  C   UNL     1     -12.884  38.213  23.741  1.00  0.00     0.158 A 
BRANCH  15  18
ATOM     18  O   UNL     1     -13.346  36.783  25.644  1.00  0.00    -0.504 OA
ATOM     19  H   UNL     1     -12.589  37.068  26.254  1.00  0.00     0.293 HD
ENDBRANCH  15  18
BRANCH  17  20
ATOM     20  O   UNL     1     -12.538  39.271  24.581  1.00  0.00    -0.504 OA
ATOM     21  H   UNL     1     -11.810  39.934  24.340  1.00  0.00     0.293 HD
ENDBRANCH  17  20
ENDBRANCH   1  12
BRANCH   6  22
ATOM     22  O   UNL     1     -12.330  37.566  14.875  1.00  0.00    -0.507 OA
ATOM     23  H   UNL     1     -12.076  37.914  13.964  1.00  0.00     0.293 HD
ENDBRANCH   6  22
BRANCH   8  24
ATOM     24  O   UNL     1     -15.027  41.410  15.876  1.00  0.00    -0.508 OA
ATOM     25  H   UNL     1     -14.667  42.342  16.046  1.00  0.00     0.293 HD
ENDBRANCH   8  24
TORSDOF 5
ENDMDL
MODEL 2
REMARK VINA RESULT:    -3.739     21.846     24.700
REMARK INTER + INTRA:          -4.684
REMARK INTER:                  -4.389
REMARK INTRA:                  -0.295
REMARK UNBOUND:                -0.289
REMARK SMILES O=c1cc(-c2ccc(O)c(O)c2)oc2cc(O)cc(O)c12
REMARK SMILES IDX 4 1 3 2 2 3 1 4 21 5 19 6 18 7 16 8 15 9 14 10 13 11 5 12
REMARK SMILES IDX 6 13 7 14 8 15 12 16 10 17 9 18 11 20 20 22 17 24
REMARK H PARENT 9 19 11 21 20 23 17 25
REMARK Flexibility Score: inf
ROOT
ATOM      1  C   UNL     1      -1.795  54.937  32.759  1.00  0.00     0.138 A 
ATOM      2  C   UNL     1      -2.170  54.163  31.653  1.00  0.00     0.100 A 
ATOM      3  C   UNL     1      -3.520  53.903  31.416  1.00  0.00     0.197 A 
ATOM      4  O   UNL     1      -3.820  53.158  30.447  1.00  0.00    -0.289 OA
ATOM      5  C   UNL     1      -4.503  54.454  32.273  1.00  0.00     0.107 A 
ATOM      6  C   UNL     1      -5.912  54.285  32.111  1.00  0.00     0.134 A 
ATOM      7  C   UNL     1      -6.783  54.797  33.081  1.00  0.00     0.093 A 
ATOM      8  C   UNL     1      -6.302  55.520  34.174  1.00  0.00     0.123 A 
ATOM      9  C   UNL     1      -4.933  55.732  34.315  1.00  0.00     0.094 A 
ATOM     10  C   UNL     1      -4.035  55.206  33.384  1.00  0.00     0.146 A 
ATOM     11  O   UNL     1      -2.736  55.416  33.566  1.00  0.00    -0.456 OA
ENDROOT
BRANCH   1  12
ATOM     12  C   UNL     1      -0.374  55.246  33.056  1.00  0.00     0.021 A 
ATOM     13  C   UNL     1      -0.032  55.785  34.309  1.00  0.00     0.016 A 
ATOM     14  C   UNL     1       1.298  56.079  34.617  1.00  0.00     0.051 A 
ATOM     15  C   UNL     1       2.311  55.830  33.684  1.00  0.00     0.157 A 
ATOM     16  C   UNL     1       0.652  54.987  32.127  1.00  0.00     0.062 A 
ATOM     17  C   UNL     1       1.986  55.277  32.435  1.00  0.00     0.158 A 
BRANCH  15  18
ATOM     18  O   UNL     1       3.638  56.125  33.994  1.00  0.00    -0.504 OA
ATOM     19  H   UNL     1       4.395  55.501  33.738  1.00  0.00     0.293 HD
ENDBRANCH  15  18
BRANCH  17  20
ATOM     20  O   UNL     1       2.974  55.007  31.487  1.00  0.00    -0.504 OA
ATOM     21  H   UNL     1       3.856  54.576  31.738  1.00  0.00     0.293 HD
ENDBRANCH  17  20
ENDBRANCH   1  12
BRANCH   6  22
ATOM     22  O   UNL     1      -6.504  53.650  31.015  1.00  0.00    -0.507 OA
ATOM     23  H   UNL     1      -6.740  54.097  30.143  1.00  0.00     0.293 HD
ENDBRANCH   6  22
BRANCH   8  24
ATOM     24  O   UNL     1      -7.179  56.038  35.125  1.00  0.00    -0.508 OA
ATOM     25  H   UNL     1      -8.066  55.590  35.329  1.00  0.00     0.293 HD
ENDBRANCH   8  24
TORSDOF 5
ENDMDL
MODEL 3
REMARK VINA RESULT:    -3.697      1.242      2.708
REMARK INTER + INTRA:          -4.635
REMARK INTER:                  -4.368
REMARK INTRA:                  -0.266
REMARK UNBOUND:                -0.289
REMARK SMILES O=c1cc(-c2ccc(O)c(O)c2)oc2cc(O)cc(O)c12
REMARK SMILES IDX 4 1 3 2 2 3 1 4 21 5 19 6 18 7 16 8 15 9 14 10 13 11 5 12
REMARK SMILES IDX 6 13 7 14 8 15 12 16 10 17 9 18 11 20 20 22 17 24
REMARK H PARENT 9 19 11 21 20 23 17 25
REMARK Flexibility Score: inf
ROOT
ATOM      1  C   UNL     1     -13.676  37.924  19.933  1.00  0.00     0.138 A 
ATOM      2  C   UNL     1     -14.497  38.888  19.332  1.00  0.00     0.100 A 
ATOM      3  C   UNL     1     -14.415  39.105  17.956  1.00  0.00     0.197 A 
ATOM      4  O   UNL     1     -15.125  40.015  17.455  1.00  0.00    -0.289 OA
ATOM      5  C   UNL     1     -13.530  38.324  17.172  1.00  0.00     0.107 A 
ATOM      6  C   UNL     1     -13.386  38.433  15.756  1.00  0.00     0.134 A 
ATOM      7  C   UNL     1     -12.406  37.675  15.103  1.00  0.00     0.093 A 
ATOM      8  C   UNL     1     -11.605  36.772  15.805  1.00  0.00     0.123 A 
ATOM      9  C   UNL     1     -11.772  36.623  17.180  1.00  0.00     0.094 A 
ATOM     10  C   UNL     1     -12.717  37.389  17.866  1.00  0.00     0.146 A 
ATOM     11  O   UNL     1     -12.831  37.228  19.180  1.00  0.00    -0.456 OA
ENDROOT
BRANCH   1  12
ATOM     12  C   UNL     1     -13.724  37.652  21.392  1.00  0.00     0.021 A 
ATOM     13  C   UNL     1     -14.409  36.516  21.859  1.00  0.00     0.016 A 
ATOM     14  C   UNL     1     -14.464  36.233  23.226  1.00  0.00     0.051 A 
ATOM     15  C   UNL     1     -13.827  37.071  24.148  1.00  0.00     0.157 A 
ATOM     16  C   UNL     1     -13.075  38.484  22.324  1.00  0.00     0.062 A 
ATOM     17  C   UNL     1     -13.126  38.200  23.694  1.00  0.00     0.158 A 
BRANCH  15  18
ATOM     18  O   UNL     1     -13.885  36.786  25.511  1.00  0.00    -0.504 OA
ATOM     19  H   UNL     1     -13.701  37.496  26.211  1.00  0.00     0.293 HD
ENDBRANCH  15  18
BRANCH  17  20
ATOM     20  O   UNL     1     -12.472  39.049  24.586  1.00  0.00    -0.504 OA
ATOM     21  H   UNL     1     -12.622  40.051  24.583  1.00  0.00     0.293 HD
ENDBRANCH  17  20
ENDBRANCH   1  12
BRANCH   6  22
ATOM     22  O   UNL     1     -14.187  39.244  14.947  1.00  0.00    -0.507 OA
ATOM     23  H   UNL     1     -13.854  40.008  14.380  1.00  0.00     0.293 HD
ENDBRANCH   6  22
BRANCH   8  24
ATOM     24  O   UNL     1     -10.643  36.012  15.143  1.00  0.00    -0.508 OA
ATOM     25  H   UNL     1     -10.041  35.366  15.642  1.00  0.00     0.293 HD
ENDBRANCH   8  24
TORSDOF 5
ENDMDL
MODEL 4
REMARK VINA RESULT:    -3.488     21.736     24.786
REMARK INTER + INTRA:          -4.389
REMARK INTER:                  -4.080
REMARK INTRA:                  -0.309
REMARK UNBOUND:                -0.289
REMARK SMILES O=c1cc(-c2ccc(O)c(O)c2)oc2cc(O)cc(O)c12
REMARK SMILES IDX 4 1 3 2 2 3 1 4 21 5 19 6 18 7 16 8 15 9 14 10 13 11 5 12
REMARK SMILES IDX 6 13 7 14 8 15 12 16 10 17 9 18 11 20 20 22 17 24
REMARK H PARENT 9 19 11 21 20 23 17 25
REMARK Flexibility Score: inf
ROOT
ATOM      1  C   UNL     1      -1.798  55.007  33.632  1.00  0.00     0.138 A 
ATOM      2  C   UNL     1      -2.684  55.726  34.446  1.00  0.00     0.100 A 
ATOM      3  C   UNL     1      -4.045  55.422  34.424  1.00  0.00     0.197 A 
ATOM      4  O   UNL     1      -4.821  56.122  35.125  1.00  0.00    -0.289 OA
ATOM      5  C   UNL     1      -4.517  54.365  33.609  1.00  0.00     0.107 A 
ATOM      6  C   UNL     1      -5.878  53.942  33.530  1.00  0.00     0.134 A 
ATOM      7  C   UNL     1      -6.240  52.948  32.612  1.00  0.00     0.093 A 
ATOM      8  C   UNL     1      -5.282  52.323  31.811  1.00  0.00     0.123 A 
ATOM      9  C   UNL     1      -3.944  52.694  31.916  1.00  0.00     0.094 A 
ATOM     10  C   UNL     1      -3.555  53.705  32.797  1.00  0.00     0.146 A 
ATOM     11  O   UNL     1      -2.271  54.041  32.852  1.00  0.00    -0.456 OA
ENDROOT
BRANCH   1  12
ATOM     12  C   UNL     1      -0.340  55.288  33.618  1.00  0.00     0.021 A 
ATOM     13  C   UNL     1       0.266  55.849  34.756  1.00  0.00     0.016 A 
ATOM     14  C   UNL     1       1.636  56.117  34.771  1.00  0.00     0.051 A 
ATOM     15  C   UNL     1       2.427  55.820  33.656  1.00  0.00     0.157 A 
ATOM     16  C   UNL     1       0.464  54.980  32.503  1.00  0.00     0.062 A 
ATOM     17  C   UNL     1       1.838  55.245  32.518  1.00  0.00     0.158 A 
BRANCH  15  18
ATOM     18  O   UNL     1       3.795  56.090  33.674  1.00  0.00    -0.504 OA
ATOM     19  H   UNL     1       4.433  55.647  33.021  1.00  0.00     0.293 HD
ENDBRANCH  15  18
BRANCH  17  20
ATOM     20  O   UNL     1       2.601  54.926  31.394  1.00  0.00    -0.504 OA
ATOM     21  H   UNL     1       3.435  54.354  31.455  1.00  0.00     0.293 HD
ENDBRANCH  17  20
ENDBRANCH   1  12
BRANCH   6  22
ATOM     22  O   UNL     1      -6.902  54.443  34.341  1.00  0.00    -0.507 OA
ATOM     23  H   UNL     1      -7.690  53.911  34.676  1.00  0.00     0.293 HD
ENDBRANCH   6  22
BRANCH   8  24
ATOM     24  O   UNL     1      -5.650  51.325  30.912  1.00  0.00    -0.508 OA
ATOM     25  H   UNL     1      -6.291  51.508  30.148  1.00  0.00     0.293 HD
ENDBRANCH   8  24
TORSDOF 5
ENDMDL
MODEL 5
REMARK VINA RESULT:    -3.348      1.515      2.089
REMARK INTER + INTRA:          -4.224
REMARK INTER:                  -3.930
REMARK INTRA:                  -0.294
REMARK UNBOUND:                -0.289
REMARK SMILES O=c1cc(-c2ccc(O)c(O)c2)oc2cc(O)cc(O)c12
REMARK SMILES IDX 4 1 3 2 2 3 1 4 21 5 19 6 18 7 16 8 15 9 14 10 13 11 5 12
REMARK SMILES IDX 6 13 7 14 8 15 12 16 10 17 9 18 11 20 20 22 17 24
REMARK H PARENT 9 19 11 21 20 23 17 25
REMARK Flexibility Score: inf
ROOT
ATOM      1  C   UNL     1     -13.257  37.515  21.889  1.00  0.00     0.138 A 
ATOM      2  C   UNL     1     -12.220  36.695  21.423  1.00  0.00     0.100 A 
ATOM      3  C   UNL     1     -11.924  36.663  20.060  1.00  0.00     0.197 A 
ATOM      4  O   UNL     1     -11.025  35.875  19.667  1.00  0.00    -0.289 OA
ATOM      5  C   UNL     1     -12.648  37.485  19.163  1.00  0.00     0.107 A 
ATOM      6  C   UNL     1     -12.412  37.561  17.756  1.00  0.00     0.134 A 
ATOM      7  C   UNL     1     -13.260  38.338  16.957  1.00  0.00     0.093 A 
ATOM      8  C   UNL     1     -14.297  39.085  17.518  1.00  0.00     0.123 A 
ATOM      9  C   UNL     1     -14.504  39.057  18.895  1.00  0.00     0.094 A 
ATOM     10  C   UNL     1     -13.699  38.266  19.716  1.00  0.00     0.146 A 
ATOM     11  O   UNL     1     -13.942  38.253  21.023  1.00  0.00    -0.456 OA
ENDROOT
BRANCH   1  12
ATOM     12  C   UNL     1     -13.612  37.590  23.329  1.00  0.00     0.021 A 
ATOM     13  C   UNL     1     -13.666  36.408  24.088  1.00  0.00     0.016 A 
ATOM     14  C   UNL     1     -13.991  36.451  25.446  1.00  0.00     0.051 A 
ATOM     15  C   UNL     1     -14.257  37.674  26.071  1.00  0.00     0.157 A 
ATOM     16  C   UNL     1     -13.869  38.819  23.967  1.00  0.00     0.062 A 
ATOM     17  C   UNL     1     -14.191  38.864  25.328  1.00  0.00     0.158 A 
BRANCH  15  18
ATOM     18  O   UNL     1     -14.583  37.713  27.426  1.00  0.00    -0.504 OA
ATOM     19  H   UNL     1     -14.933  38.558  27.864  1.00  0.00     0.293 HD
ENDBRANCH  15  18
BRANCH  17  20
ATOM     20  O   UNL     1     -14.440  40.100  25.924  1.00  0.00    -0.504 OA
ATOM     21  H   UNL     1     -14.655  40.188  26.911  1.00  0.00     0.293 HD
ENDBRANCH  17  20
ENDBRANCH   1  12
BRANCH   6  22
ATOM     22  O   UNL     1     -11.356  36.918  17.104  1.00  0.00    -0.507 OA
ATOM     23  H   UNL     1     -10.947  36.041  17.386  1.00  0.00     0.293 HD
ENDBRANCH   6  22
BRANCH   8  24
ATOM     24  O   UNL     1     -15.125  39.867  16.714  1.00  0.00    -0.508 OA
ATOM     25  H   UNL     1     -14.763  40.655  16.189  1.00  0.00     0.293 HD
ENDBRANCH   8  24
TORSDOF 5
ENDMDL
MODEL 6
REMARK VINA RESULT:    -2.879      1.645      6.979
REMARK INTER + INTRA:          -3.674
REMARK INTER:                  -3.382
REMARK INTRA:                  -0.291
REMARK UNBOUND:                -0.289
REMARK SMILES O=c1cc(-c2ccc(O)c(O)c2)oc2cc(O)cc(O)c12
REMARK SMILES IDX 4 1 3 2 2 3 1 4 21 5 19 6 18 7 16 8 15 9 14 10 13 11 5 12
REMARK SMILES IDX 6 13 7 14 8 15 12 16 10 17 9 18 11 20 20 22 17 24
REMARK H PARENT 9 19 11 21 20 23 17 25
REMARK Flexibility Score: inf
ROOT
ATOM      1  C   UNL     1     -13.344  38.307  20.238  1.00  0.00     0.138 A 
ATOM      2  C   UNL     1     -12.469  37.242  20.491  1.00  0.00     0.100 A 
ATOM      3  C   UNL     1     -12.284  36.796  21.800  1.00  0.00     0.197 A 
ATOM      4  O   UNL     1     -11.450  35.875  22.001  1.00  0.00    -0.289 OA
ATOM      5  C   UNL     1     -13.008  37.398  22.858  1.00  0.00     0.107 A 
ATOM      6  C   UNL     1     -12.926  37.005  24.228  1.00  0.00     0.134 A 
ATOM      7  C   UNL     1     -13.616  37.741  25.199  1.00  0.00     0.093 A 
ATOM      8  C   UNL     1     -14.430  38.818  24.844  1.00  0.00     0.123 A 
ATOM      9  C   UNL     1     -14.555  39.179  23.504  1.00  0.00     0.094 A 
ATOM     10  C   UNL     1     -13.853  38.487  22.516  1.00  0.00     0.146 A 
ATOM     11  O   UNL     1     -13.988  38.876  21.252  1.00  0.00    -0.456 OA
ENDROOT
BRANCH   1  12
ATOM     12  C   UNL     1     -13.581  38.819  18.865  1.00  0.00     0.021 A 
ATOM     13  C   UNL     1     -14.769  39.517  18.583  1.00  0.00     0.016 A 
ATOM     14  C   UNL     1     -15.014  40.015  17.302  1.00  0.00     0.051 A 
ATOM     15  C   UNL     1     -14.072  39.836  16.282  1.00  0.00     0.157 A 
ATOM     16  C   UNL     1     -12.632  38.653  17.837  1.00  0.00     0.062 A 
ATOM     17  C   UNL     1     -12.874  39.155  16.553  1.00  0.00     0.158 A 
BRANCH  15  18
ATOM     18  O   UNL     1     -14.319  40.334  15.003  1.00  0.00    -0.504 OA
ATOM     19  H   UNL     1     -14.900  39.831  14.341  1.00  0.00     0.293 HD
ENDBRANCH  15  18
BRANCH  17  20
ATOM     20  O   UNL     1     -11.910  38.970  15.561  1.00  0.00    -0.504 OA
ATOM     21  H   UNL     1     -11.438  39.749  15.118  1.00  0.00     0.293 HD
ENDBRANCH  17  20
ENDBRANCH   1  12
BRANCH   6  22
ATOM     22  O   UNL     1     -12.207  35.895  24.683  1.00  0.00    -0.507 OA
ATOM     23  H   UNL     1     -11.730  35.836  25.569  1.00  0.00     0.293 HD
ENDBRANCH   6  22
BRANCH   8  24
ATOM     24  O   UNL     1     -15.125  39.535  25.816  1.00  0.00    -0.508 OA
ATOM     25  H   UNL     1     -16.049  39.911  25.639  1.00  0.00     0.293 HD
ENDBRANCH   8  24
TORSDOF 5
ENDMDL
MODEL 7
REMARK VINA RESULT:    -2.651      2.691      8.459
REMARK INTER + INTRA:          -3.405
REMARK INTER:                  -3.109
REMARK INTRA:                  -0.297
REMARK UNBOUND:                -0.289
REMARK SMILES O=c1cc(-c2ccc(O)c(O)c2)oc2cc(O)cc(O)c12
REMARK SMILES IDX 4 1 3 2 2 3 1 4 21 5 19 6 18 7 16 8 15 9 14 10 13 11 5 12
REMARK SMILES IDX 6 13 7 14 8 15 12 16 10 17 9 18 11 20 20 22 17 24
REMARK H PARENT 9 19 11 21 20 23 17 25
REMARK Flexibility Score: inf
ROOT
ATOM      1  C   UNL     1     -13.334  37.932  23.715  1.00  0.00     0.138 A 
ATOM      2  C   UNL     1     -14.021  39.140  23.894  1.00  0.00     0.100 A 
ATOM      3  C   UNL     1     -14.459  39.505  25.168  1.00  0.00     0.197 A 
ATOM      4  O   UNL     1     -15.120  40.569  25.285  1.00  0.00    -0.289 OA
ATOM      5  C   UNL     1     -14.173  38.671  26.275  1.00  0.00     0.107 A 
ATOM      6  C   UNL     1     -14.540  38.957  27.626  1.00  0.00     0.134 A 
ATOM      7  C   UNL     1     -14.290  38.006  28.623  1.00  0.00     0.093 A 
ATOM      8  C   UNL     1     -13.636  36.807  28.330  1.00  0.00     0.123 A 
ATOM      9  C   UNL     1     -13.231  36.541  27.025  1.00  0.00     0.094 A 
ATOM     10  C   UNL     1     -13.496  37.453  26.001  1.00  0.00     0.146 A 
ATOM     11  O   UNL     1     -13.108  37.151  24.766  1.00  0.00    -0.456 OA
ENDROOT
BRANCH   1  12
ATOM     12  C   UNL     1     -12.845  37.496  22.383  1.00  0.00     0.021 A 
ATOM     13  C   UNL     1     -12.093  36.313  22.278  1.00  0.00     0.016 A 
ATOM     14  C   UNL     1     -11.626  35.876  21.036  1.00  0.00     0.051 A 
ATOM     15  C   UNL     1     -11.910  36.608  19.877  1.00  0.00     0.157 A 
ATOM     16  C   UNL     1     -13.138  38.220  21.212  1.00  0.00     0.062 A 
ATOM     17  C   UNL     1     -12.674  37.783  19.965  1.00  0.00     0.158 A 
BRANCH  15  18
ATOM     18  O   UNL     1     -11.442  36.170  18.639  1.00  0.00    -0.504 OA
ATOM     19  H   UNL     1     -11.936  36.381  17.779  1.00  0.00     0.293 HD
ENDBRANCH  15  18
BRANCH  17  20
ATOM     20  O   UNL     1     -12.984  38.528  18.828  1.00  0.00    -0.504 OA
ATOM     21  H   UNL     1     -13.149  39.527  18.868  1.00  0.00     0.293 HD
ENDBRANCH  17  20
ENDBRANCH   1  12
BRANCH   6  22
ATOM     22  O   UNL     1     -15.125  40.157  28.041  1.00  0.00    -0.507 OA
ATOM     23  H   UNL     1     -15.698  40.269  28.863  1.00  0.00     0.293 HD
ENDBRANCH   6  22
BRANCH   8  24
ATOM     24  O   UNL     1     -13.379  35.875  29.334  1.00  0.00    -0.508 OA
ATOM     25  H   UNL     1     -12.450  35.498  29.482  1.00  0.00     0.293 HD
ENDBRANCH   8  24
TORSDOF 5
ENDMDL
MODEL 8
REMARK VINA RESULT:    -1.819     12.217     13.866
REMARK INTER + INTRA:          -2.427
REMARK INTER:                  -2.111
REMARK INTRA:                  -0.317
REMARK UNBOUND:                -0.289
REMARK SMILES O=c1cc(-c2ccc(O)c(O)c2)oc2cc(O)cc(O)c12
REMARK SMILES IDX 4 1 3 2 2 3 1 4 21 5 19 6 18 7 16 8 15 9 14 10 13 11 5 12
REMARK SMILES IDX 6 13 7 14 8 15 12 16 10 17 9 18 11 20 20 22 17 24
REMARK H PARENT 9 19 11 21 20 23 17 25
REMARK Flexibility Score: inf
ROOT
ATOM      1  C   UNL     1      -1.328  37.667  15.159  1.00  0.00     0.138 A 
ATOM      2  C   UNL     1      -0.421  36.599  15.103  1.00  0.00     0.100 A 
ATOM      3  C   UNL     1       0.948  36.858  15.025  1.00  0.00     0.197 A 
ATOM      4  O   UNL     1       1.731  35.880  14.920  1.00  0.00    -0.289 OA
ATOM      5  C   UNL     1       1.413  38.196  15.041  1.00  0.00     0.107 A 
ATOM      6  C   UNL     1       2.787  38.580  15.001  1.00  0.00     0.134 A 
ATOM      7  C   UNL     1       3.121  39.938  14.922  1.00  0.00     0.093 A 
ATOM      8  C   UNL     1       2.134  40.926  14.939  1.00  0.00     0.123 A 
ATOM      9  C   UNL     1       0.793  40.562  15.028  1.00  0.00     0.094 A 
ATOM     10  C   UNL     1       0.425  39.216  15.074  1.00  0.00     0.146 A 
ATOM     11  O   UNL     1      -0.867  38.913  15.140  1.00  0.00    -0.456 OA
ENDROOT
BRANCH   1  12
ATOM     12  C   UNL     1      -2.794  37.448  15.245  1.00  0.00     0.021 A 
ATOM     13  C   UNL     1      -3.285  36.154  15.494  1.00  0.00     0.016 A 
ATOM     14  C   UNL     1      -4.659  35.922  15.586  1.00  0.00     0.051 A 
ATOM     15  C   UNL     1      -5.566  36.979  15.442  1.00  0.00     0.157 A 
ATOM     16  C   UNL     1      -3.711  38.508  15.114  1.00  0.00     0.062 A 
ATOM     17  C   UNL     1      -5.089  38.278  15.209  1.00  0.00     0.158 A 
BRANCH  15  18
ATOM     18  O   UNL     1      -6.937  36.743  15.534  1.00  0.00    -0.504 OA
ATOM     19  H   UNL     1      -7.370  35.942  15.087  1.00  0.00     0.293 HD
ENDBRANCH  15  18
BRANCH  17  20
ATOM     20  O   UNL     1      -5.966  39.354  15.072  1.00  0.00    -0.504 OA
ATOM     21  H   UNL     1      -6.944  39.287  15.329  1.00  0.00     0.293 HD
ENDBRANCH  17  20
ENDBRANCH   1  12
BRANCH   6  22
ATOM     22  O   UNL     1       3.855  37.679  15.059  1.00  0.00    -0.507 OA
ATOM     23  H   UNL     1       4.503  37.597  15.827  1.00  0.00     0.293 HD
ENDBRANCH   6  22
BRANCH   8  24
ATOM     24  O   UNL     1       2.478  42.275  14.875  1.00  0.00    -0.508 OA
ATOM     25  H   UNL     1       2.691  42.727  13.994  1.00  0.00     0.293 HD
ENDBRANCH   8  24
TORSDOF 5
ENDMDL
MODEL 9
REMARK VINA RESULT:    -1.285     23.269     26.023
REMARK INTER + INTRA:          -1.800
REMARK INTER:                  -1.514
REMARK INTRA:                  -0.286
REMARK UNBOUND:                -0.289
REMARK SMILES O=c1cc(-c2ccc(O)c(O)c2)oc2cc(O)cc(O)c12
REMARK SMILES IDX 4 1 3 2 2 3 1 4 21 5 19 6 18 7 16 8 15 9 14 10 13 11 5 12
REMARK SMILES IDX 6 13 7 14 8 15 12 16 10 17 9 18 11 20 20 22 17 24
REMARK H PARENT 9 19 11 21 20 23 17 25
REMARK Flexibility Score: inf
ROOT
ATOM      1  C   UNL     1       0.060  55.076  32.653  1.00  0.00     0.138 A 
ATOM      2  C   UNL     1       0.589  54.623  33.870  1.00  0.00     0.100 A 
ATOM      3  C   UNL     1       1.972  54.562  34.042  1.00  0.00     0.197 A 
ATOM      4  O   UNL     1       2.415  54.100  35.125  1.00  0.00    -0.289 OA
ATOM      5  C   UNL     1       2.830  54.992  33.001  1.00  0.00     0.107 A 
ATOM      6  C   UNL     1       4.257  55.007  33.075  1.00  0.00     0.134 A 
ATOM      7  C   UNL     1       5.002  55.361  31.943  1.00  0.00     0.093 A 
ATOM      8  C   UNL     1       4.373  55.755  30.760  1.00  0.00     0.123 A 
ATOM      9  C   UNL     1       2.983  55.791  30.694  1.00  0.00     0.094 A 
ATOM     10  C   UNL     1       2.211  55.411  31.793  1.00  0.00     0.146 A 
ATOM     11  O   UNL     1       0.887  55.443  31.681  1.00  0.00    -0.456 OA
ENDROOT
BRANCH   1  12
ATOM     12  C   UNL     1      -1.403  55.163  32.417  1.00  0.00     0.021 A 
ATOM     13  C   UNL     1      -1.910  54.919  31.129  1.00  0.00     0.016 A 
ATOM     14  C   UNL     1      -3.283  54.988  30.881  1.00  0.00     0.051 A 
ATOM     15  C   UNL     1      -4.174  55.291  31.917  1.00  0.00     0.157 A 
ATOM     16  C   UNL     1      -2.307  55.455  33.458  1.00  0.00     0.062 A 
ATOM     17  C   UNL     1      -3.683  55.521  33.212  1.00  0.00     0.158 A 
BRANCH  15  18
ATOM     18  O   UNL     1      -5.544  55.360  31.666  1.00  0.00    -0.504 OA
ATOM     19  H   UNL     1      -6.058  56.229  31.759  1.00  0.00     0.293 HD
ENDBRANCH  15  18
BRANCH  17  20
ATOM     20  O   UNL     1      -4.546  55.814  34.268  1.00  0.00    -0.504 OA
ATOM     21  H   UNL     1      -5.504  56.105  34.114  1.00  0.00     0.293 HD
ENDBRANCH  17  20
ENDBRANCH   1  12
BRANCH   6  22
ATOM     22  O   UNL     1       4.984  54.709  34.231  1.00  0.00    -0.507 OA
ATOM     23  H   UNL     1       5.156  53.781  34.585  1.00  0.00     0.293 HD
ENDBRANCH   6  22
BRANCH   8  24
ATOM     24  O   UNL     1       5.125  56.120  29.645  1.00  0.00    -0.508 OA
ATOM     25  H   UNL     1       6.060  55.760  29.494  1.00  0.00     0.293 HD
ENDBRANCH   8  24
TORSDOF 5
ENDMDL
