MODEL 1
REMARK VINA RESULT:    -5.573      0.000      0.000
REMARK INTER + INTRA:          -6.990
REMARK INTER:                  -6.713
REMARK INTRA:                  -0.277
REMARK UNBOUND:                -0.277
REMARK SMILES O=c1c(O)c(-c2ccc(O)c(O)c2)oc2cc(O)cc(O)c12
REMARK SMILES IDX 5 1 3 2 2 3 1 4 22 5 20 6 19 7 17 8 16 9 15 10 14 11 6 12
REMARK SMILES IDX 7 13 8 14 9 15 13 16 11 17 10 18 12 20 4 22 21 24 18 26
REMARK H PARENT 10 19 12 21 4 23 21 25 18 27
REMARK Flexibility Score: inf
ROOT
ATOM      1  C   UNL     1      49.340 -22.333  12.646  1.00  0.00     0.180 A 
ATOM      2  C   UNL     1      50.471 -22.300  11.809  1.00  0.00     0.208 A 
ATOM      3  C   UNL     1      51.356 -21.214  11.907  1.00  0.00     0.238 A 
ATOM      4  O   UNL     1      52.378 -21.178  11.169  1.00  0.00    -0.285 OA
ATOM      5  C   UNL     1      51.086 -20.176  12.822  1.00  0.00     0.111 A 
ATOM      6  C   UNL     1      51.924 -19.046  12.981  1.00  0.00     0.134 A 
ATOM      7  C   UNL     1      51.582 -18.050  13.908  1.00  0.00     0.093 A 
ATOM      8  C   UNL     1      50.422 -18.161  14.676  1.00  0.00     0.123 A 
ATOM      9  C   UNL     1      49.589 -19.275  14.525  1.00  0.00     0.094 A 
ATOM     10  C   UNL     1      49.914 -20.279  13.607  1.00  0.00     0.146 A 
ATOM     11  O   UNL     1      49.109 -21.329  13.487  1.00  0.00    -0.452 OA
ENDROOT
BRANCH   1  12
ATOM     12  C   UNL     1      48.370 -23.452  12.615  1.00  0.00     0.025 A 
ATOM     13  C   UNL     1      47.417 -23.565  11.587  1.00  0.00     0.016 A 
ATOM     14  C   UNL     1      46.527 -24.642  11.565  1.00  0.00     0.051 A 
ATOM     15  C   UNL     1      46.582 -25.627  12.556  1.00  0.00     0.157 A 
ATOM     16  C   UNL     1      48.436 -24.453  13.597  1.00  0.00     0.062 A 
ATOM     17  C   UNL     1      47.543 -25.535  13.577  1.00  0.00     0.158 A 
BRANCH  15  18
ATOM     18  O   UNL     1      45.679 -26.688  12.508  1.00  0.00    -0.504 OA
ATOM     19  H   UNL     1      45.608 -27.297  11.701  1.00  0.00     0.293 HD
ENDBRANCH  15  18
BRANCH  17  20
ATOM     20  O   UNL     1      47.610 -26.517  14.564  1.00  0.00    -0.504 OA
ATOM     21  H   UNL     1      47.572 -27.503  14.336  1.00  0.00     0.293 HD
ENDBRANCH  17  20
ENDBRANCH   1  12
BRANCH   2  22
ATOM     22  O   UNL     1      50.690 -23.316  10.875  1.00  0.00    -0.502 OA
ATOM     23  H   UNL     1      49.937 -23.733  10.340  1.00  0.00     0.293 HD
ENDBRANCH   2  22
BRANCH   6  24
ATOM     24  O   UNL     1      53.091 -18.906  12.228  1.00  0.00    -0.507 OA
ATOM     25  H   UNL     1      54.006 -19.094  12.621  1.00  0.00     0.293 HD
ENDBRANCH   6  24
BRANCH   8  26
ATOM     26  O   UNL     1      50.104 -17.157  15.589  1.00  0.00    -0.508 OA
ATOM     27  H   UNL     1      50.498 -16.226  15.511  1.00  0.00     0.293 HD
ENDBRANCH   8  26
TORSDOF 6
ENDMDL
MODEL 2
REMARK VINA RESULT:    -5.498      0.570      1.426
REMARK INTER + INTRA:          -6.899
REMARK INTER:                  -6.620
REMARK INTRA:                  -0.279
REMARK UNBOUND:                -0.277
REMARK SMILES O=c1c(O)c(-c2ccc(O)c(O)c2)oc2cc(O)cc(O)c12
REMARK SMILES IDX 5 1 3 2 2 3 1 4 22 5 20 6 19 7 17 8 16 9 15 10 14 11 6 12
REMARK SMILES IDX 7 13 8 14 9 15 13 16 11 17 10 18 12 20 4 22 21 24 18 26
REMARK H PARENT 10 19 12 21 4 23 21 25 18 27
REMARK Flexibility Score: inf
ROOT
ATOM      1  C   UNL     1      49.372 -22.440  12.791  1.00  0.00     0.180 A 
ATOM      2  C   UNL     1      50.466 -22.375  11.907  1.00  0.00     0.208 A 
ATOM      3  C   UNL     1      51.302 -21.247  11.945  1.00  0.00     0.238 A 
ATOM      4  O   UNL     1      52.291 -21.182  11.165  1.00  0.00    -0.285 OA
ATOM      5  C   UNL     1      51.020 -20.200  12.846  1.00  0.00     0.111 A 
ATOM      6  C   UNL     1      51.810 -19.030  12.944  1.00  0.00     0.134 A 
ATOM      7  C   UNL     1      51.459 -18.028  13.862  1.00  0.00     0.093 A 
ATOM      8  C   UNL     1      50.336 -18.173  14.679  1.00  0.00     0.123 A 
ATOM      9  C   UNL     1      49.551 -19.328  14.587  1.00  0.00     0.094 A 
ATOM     10  C   UNL     1      49.886 -20.338  13.681  1.00  0.00     0.146 A 
ATOM     11  O   UNL     1      49.127 -21.426  13.617  1.00  0.00    -0.452 OA
ENDROOT
BRANCH   1  12
ATOM     12  C   UNL     1      48.455 -23.602  12.825  1.00  0.00     0.025 A 
ATOM     13  C   UNL     1      48.520 -24.555  13.858  1.00  0.00     0.016 A 
ATOM     14  C   UNL     1      47.629 -25.630  13.883  1.00  0.00     0.051 A 
ATOM     15  C   UNL     1      46.654 -25.766  12.889  1.00  0.00     0.157 A 
ATOM     16  C   UNL     1      47.462 -23.729  11.841  1.00  0.00     0.062 A 
ATOM     17  C   UNL     1      46.566 -24.809  11.864  1.00  0.00     0.158 A 
BRANCH  15  18
ATOM     18  O   UNL     1      45.780 -26.851  12.940  1.00  0.00    -0.504 OA
ATOM     19  H   UNL     1      46.004 -27.742  12.512  1.00  0.00     0.293 HD
ENDBRANCH  15  18
BRANCH  17  20
ATOM     20  O   UNL     1      45.592 -24.932  10.875  1.00  0.00    -0.504 OA
ATOM     21  H   UNL     1      45.062 -25.787  10.755  1.00  0.00     0.293 HD
ENDBRANCH  17  20
ENDBRANCH   1  12
BRANCH   2  22
ATOM     22  O   UNL     1      50.695 -23.403  10.989  1.00  0.00    -0.502 OA
ATOM     23  H   UNL     1      50.731 -24.377  11.263  1.00  0.00     0.293 HD
ENDBRANCH   2  22
BRANCH   6  24
ATOM     24  O   UNL     1      52.938 -18.855  12.141  1.00  0.00    -0.507 OA
ATOM     25  H   UNL     1      53.801 -19.354  12.318  1.00  0.00     0.293 HD
ENDBRANCH   6  24
BRANCH   8  26
ATOM     26  O   UNL     1      50.008 -17.162  15.581  1.00  0.00    -0.508 OA
ATOM     27  H   UNL     1      49.296 -16.473  15.369  1.00  0.00     0.293 HD
ENDBRANCH   8  26
TORSDOF 6
ENDMDL
MODEL 3
REMARK VINA RESULT:    -5.452      1.606      6.924
REMARK INTER + INTRA:          -6.845
REMARK INTER:                  -6.524
REMARK INTRA:                  -0.321
REMARK UNBOUND:                -0.277
REMARK SMILES O=c1c(O)c(-c2ccc(O)c(O)c2)oc2cc(O)cc(O)c12
REMARK SMILES IDX 5 1 3 2 2 3 1 4 22 5 20 6 19 7 17 8 16 9 15 10 14 11 6 12
REMARK SMILES IDX 7 13 8 14 9 15 13 16 11 17 10 18 12 20 4 22 21 24 18 26
REMARK H PARENT 10 19 12 21 4 23 21 25 18 27
REMARK Flexibility Score: inf
ROOT
ATOM      1  C   UNL     1      49.597 -21.650  13.303  1.00  0.00     0.180 A 
ATOM      2  C   UNL     1      48.789 -21.703  12.151  1.00  0.00     0.208 A 
ATOM      3  C   UNL     1      48.043 -22.866  11.898  1.00  0.00     0.238 A 
ATOM      4  O   UNL     1      47.308 -22.921  10.875  1.00  0.00    -0.285 OA
ATOM      5  C   UNL     1      48.132 -23.958  12.786  1.00  0.00     0.111 A 
ATOM      6  C   UNL     1      47.416 -25.164  12.602  1.00  0.00     0.134 A 
ATOM      7  C   UNL     1      47.565 -26.210  13.527  1.00  0.00     0.093 A 
ATOM      8  C   UNL     1      48.413 -26.072  14.627  1.00  0.00     0.123 A 
ATOM      9  C   UNL     1      49.123 -24.880  14.815  1.00  0.00     0.094 A 
ATOM     10  C   UNL     1      48.987 -23.828  13.906  1.00  0.00     0.146 A 
ATOM     11  O   UNL     1      49.668 -22.705  14.110  1.00  0.00    -0.452 OA
ENDROOT
BRANCH   1  12
ATOM     12  C   UNL     1      50.399 -20.454  13.648  1.00  0.00     0.025 A 
ATOM     13  C   UNL     1      51.736 -20.326  13.233  1.00  0.00     0.016 A 
ATOM     14  C   UNL     1      52.467 -19.179  13.550  1.00  0.00     0.051 A 
ATOM     15  C   UNL     1      51.874 -18.138  14.272  1.00  0.00     0.157 A 
ATOM     16  C   UNL     1      49.799 -19.400  14.354  1.00  0.00     0.062 A 
ATOM     17  C   UNL     1      50.531 -18.246  14.674  1.00  0.00     0.158 A 
BRANCH  15  18
ATOM     18  O   UNL     1      52.629 -17.006  14.575  1.00  0.00    -0.504 OA
ATOM     19  H   UNL     1      53.381 -17.027  15.253  1.00  0.00     0.293 HD
ENDBRANCH  15  18
BRANCH  17  20
ATOM     20  O   UNL     1      49.930 -17.210  15.386  1.00  0.00    -0.504 OA
ATOM     21  H   UNL     1      50.470 -16.438  15.760  1.00  0.00     0.293 HD
ENDBRANCH  17  20
ENDBRANCH   1  12
BRANCH   2  22
ATOM     22  O   UNL     1      48.757 -20.627  11.260  1.00  0.00    -0.502 OA
ATOM     23  H   UNL     1      49.121 -20.691  10.317  1.00  0.00     0.293 HD
ENDBRANCH   2  22
BRANCH   6  24
ATOM     24  O   UNL     1      46.561 -25.334  11.512  1.00  0.00    -0.507 OA
ATOM     25  H   UNL     1      45.716 -24.786  11.407  1.00  0.00     0.293 HD
ENDBRANCH   6  24
BRANCH   8  26
ATOM     26  O   UNL     1      48.543 -27.125  15.530  1.00  0.00    -0.508 OA
ATOM     27  H   UNL     1      48.957 -26.990  16.446  1.00  0.00     0.293 HD
ENDBRANCH   8  26
TORSDOF 6
ENDMDL
MODEL 4
REMARK VINA RESULT:    -5.058      1.739      6.705
REMARK INTER + INTRA:          -6.369
REMARK INTER:                  -6.485
REMARK INTRA:                   0.115
REMARK UNBOUND:                -0.277
REMARK SMILES O=c1c(O)c(-c2ccc(O)c(O)c2)oc2cc(O)cc(O)c12
REMARK SMILES IDX 5 1 3 2 2 3 1 4 22 5 20 6 19 7 17 8 16 9 15 10 14 11 6 12
REMARK SMILES IDX 7 13 8 14 9 15 13 16 11 17 10 18 12 20 4 22 21 24 18 26
REMARK H PARENT 10 19 12 21 4 23 21 25 18 27
REMARK Flexibility Score: inf
ROOT
ATOM      1  C   UNL     1      49.918 -21.591  12.740  1.00  0.00     0.180 A 
ATOM      2  C   UNL     1      50.530 -22.849  12.580  1.00  0.00     0.208 A 
ATOM      3  C   UNL     1      49.770 -23.913  12.071  1.00  0.00     0.238 A 
ATOM      4  O   UNL     1      50.310 -25.042  11.914  1.00  0.00    -0.285 OA
ATOM      5  C   UNL     1      48.412 -23.710  11.750  1.00  0.00     0.111 A 
ATOM      6  C   UNL     1      47.577 -24.729  11.236  1.00  0.00     0.134 A 
ATOM      7  C   UNL     1      46.232 -24.449  10.949  1.00  0.00     0.093 A 
ATOM      8  C   UNL     1      45.708 -23.173  11.167  1.00  0.00     0.123 A 
ATOM      9  C   UNL     1      46.529 -22.160  11.675  1.00  0.00     0.094 A 
ATOM     10  C   UNL     1      47.872 -22.419  11.965  1.00  0.00     0.146 A 
ATOM     11  O   UNL     1      48.631 -21.439  12.441  1.00  0.00    -0.452 OA
ENDROOT
BRANCH   1  12
ATOM     12  C   UNL     1      50.657 -20.415  13.254  1.00  0.00     0.025 A 
ATOM     13  C   UNL     1      51.986 -20.162  12.870  1.00  0.00     0.016 A 
ATOM     14  C   UNL     1      52.656 -19.033  13.349  1.00  0.00     0.051 A 
ATOM     15  C   UNL     1      52.010 -18.134  14.203  1.00  0.00     0.157 A 
ATOM     16  C   UNL     1      50.004 -19.500  14.094  1.00  0.00     0.062 A 
ATOM     17  C   UNL     1      50.675 -18.366  14.576  1.00  0.00     0.158 A 
BRANCH  15  18
ATOM     18  O   UNL     1      52.705 -17.018  14.665  1.00  0.00    -0.504 OA
ATOM     19  H   UNL     1      52.474 -16.565  15.542  1.00  0.00     0.293 HD
ENDBRANCH  15  18
BRANCH  17  20
ATOM     20  O   UNL     1      50.020 -17.471  15.420  1.00  0.00    -0.504 OA
ATOM     21  H   UNL     1      49.973 -17.622  16.421  1.00  0.00     0.293 HD
ENDBRANCH  17  20
ENDBRANCH   1  12
BRANCH   2  22
ATOM     22  O   UNL     1      51.864 -23.038  12.952  1.00  0.00    -0.502 OA
ATOM     23  H   UNL     1      52.189 -23.889  13.395  1.00  0.00     0.293 HD
ENDBRANCH   2  22
BRANCH   6  24
ATOM     24  O   UNL     1      48.069 -26.015  11.008  1.00  0.00    -0.507 OA
ATOM     25  H   UNL     1      49.054 -26.188  10.845  1.00  0.00     0.293 HD
ENDBRANCH   6  24
BRANCH   8  26
ATOM     26  O   UNL     1      44.369 -22.921  10.875  1.00  0.00    -0.508 OA
ATOM     27  H   UNL     1      43.629 -23.514  11.232  1.00  0.00     0.293 HD
ENDBRANCH   8  26
TORSDOF 6
ENDMDL
MODEL 5
REMARK VINA RESULT:    -4.693      2.159      7.041
REMARK INTER + INTRA:          -5.930
REMARK INTER:                  -6.276
REMARK INTRA:                   0.345
REMARK UNBOUND:                -0.277
REMARK SMILES O=c1c(O)c(-c2ccc(O)c(O)c2)oc2cc(O)cc(O)c12
REMARK SMILES IDX 5 1 3 2 2 3 1 4 22 5 20 6 19 7 17 8 16 9 15 10 14 11 6 12
REMARK SMILES IDX 7 13 8 14 9 15 13 16 11 17 10 18 12 20 4 22 21 24 18 26
REMARK H PARENT 10 19 12 21 4 23 21 25 18 27
REMARK Flexibility Score: inf
ROOT
ATOM      1  C   UNL     1      50.250 -21.862  12.739  1.00  0.00     0.180 A 
ATOM      2  C   UNL     1      48.879 -22.134  12.574  1.00  0.00     0.208 A 
ATOM      3  C   UNL     1      48.489 -23.400  12.108  1.00  0.00     0.238 A 
ATOM      4  O   UNL     1      47.263 -23.658  11.966  1.00  0.00    -0.285 OA
ATOM      5  C   UNL     1      49.473 -24.361  11.796  1.00  0.00     0.111 A 
ATOM      6  C   UNL     1      49.164 -25.657  11.318  1.00  0.00     0.134 A 
ATOM      7  C   UNL     1      50.202 -26.555  11.022  1.00  0.00     0.093 A 
ATOM      8  C   UNL     1      51.536 -26.182  11.193  1.00  0.00     0.123 A 
ATOM      9  C   UNL     1      51.848 -24.902  11.666  1.00  0.00     0.094 A 
ATOM     10  C   UNL     1      50.829 -23.995  11.968  1.00  0.00     0.146 A 
ATOM     11  O   UNL     1      51.151 -22.788  12.420  1.00  0.00    -0.452 OA
ENDROOT
BRANCH   1  12
ATOM     12  C   UNL     1      50.740 -20.559  13.243  1.00  0.00     0.025 A 
ATOM     13  C   UNL     1      51.998 -20.055  12.866  1.00  0.00     0.016 A 
ATOM     14  C   UNL     1      52.429 -18.812  13.334  1.00  0.00     0.051 A 
ATOM     15  C   UNL     1      51.611 -18.047  14.172  1.00  0.00     0.157 A 
ATOM     16  C   UNL     1      49.912 -19.780  14.067  1.00  0.00     0.062 A 
ATOM     17  C   UNL     1      50.344 -18.531  14.539  1.00  0.00     0.158 A 
BRANCH  15  18
ATOM     18  O   UNL     1      52.070 -16.812  14.625  1.00  0.00    -0.504 OA
ATOM     19  H   UNL     1      51.581 -15.948  14.421  1.00  0.00     0.293 HD
ENDBRANCH  15  18
BRANCH  17  20
ATOM     20  O   UNL     1      49.518 -17.772  15.367  1.00  0.00    -0.504 OA
ATOM     21  H   UNL     1      48.535 -17.641  15.160  1.00  0.00     0.293 HD
ENDBRANCH  17  20
ENDBRANCH   1  12
BRANCH   2  22
ATOM     22  O   UNL     1      47.926 -21.148  12.842  1.00  0.00    -0.502 OA
ATOM     23  H   UNL     1      48.060 -20.444  13.558  1.00  0.00     0.293 HD
ENDBRANCH   2  22
BRANCH   6  24
ATOM     24  O   UNL     1      47.841 -26.060  11.136  1.00  0.00    -0.507 OA
ATOM     25  H   UNL     1      47.085 -25.677  11.692  1.00  0.00     0.293 HD
ENDBRANCH   6  24
BRANCH   8  26
ATOM     26  O   UNL     1      52.548 -27.092  10.891  1.00  0.00    -0.508 OA
ATOM     27  H   UNL     1      52.343 -27.988  10.464  1.00  0.00     0.293 HD
ENDBRANCH   8  26
TORSDOF 6
ENDMDL
MODEL 6
REMARK VINA RESULT:    -4.438      1.678      6.796
REMARK INTER + INTRA:          -5.624
REMARK INTER:                  -5.791
REMARK INTRA:                   0.167
REMARK UNBOUND:                -0.277
REMARK SMILES O=c1c(O)c(-c2ccc(O)c(O)c2)oc2cc(O)cc(O)c12
REMARK SMILES IDX 5 1 3 2 2 3 1 4 22 5 20 6 19 7 17 8 16 9 15 10 14 11 6 12
REMARK SMILES IDX 7 13 8 14 9 15 13 16 11 17 10 18 12 20 4 22 21 24 18 26
REMARK H PARENT 10 19 12 21 4 23 21 25 18 27
REMARK Flexibility Score: inf
ROOT
ATOM      1  C   UNL     1      49.806 -22.225  13.030  1.00  0.00     0.180 A 
ATOM      2  C   UNL     1      50.796 -23.226  13.020  1.00  0.00     0.208 A 
ATOM      3  C   UNL     1      50.462 -24.505  12.547  1.00  0.00     0.238 A 
ATOM      4  O   UNL     1      51.343 -25.407  12.524  1.00  0.00    -0.285 OA
ATOM      5  C   UNL     1      49.147 -24.767  12.112  1.00  0.00     0.111 A 
ATOM      6  C   UNL     1      48.729 -26.028  11.625  1.00  0.00     0.134 A 
ATOM      7  C   UNL     1      47.398 -26.211  11.219  1.00  0.00     0.093 A 
ATOM      8  C   UNL     1      46.480 -25.161  11.292  1.00  0.00     0.123 A 
ATOM      9  C   UNL     1      46.887 -23.912  11.772  1.00  0.00     0.094 A 
ATOM     10  C   UNL     1      48.209 -23.709  12.180  1.00  0.00     0.146 A 
ATOM     11  O   UNL     1      48.571 -22.512  12.627  1.00  0.00    -0.452 OA
ENDROOT
BRANCH   1  12
ATOM     12  C   UNL     1      50.083 -20.847  13.497  1.00  0.00     0.025 A 
ATOM     13  C   UNL     1      49.168 -20.152  14.307  1.00  0.00     0.016 A 
ATOM     14  C   UNL     1      49.461 -18.861  14.755  1.00  0.00     0.051 A 
ATOM     15  C   UNL     1      50.673 -18.252  14.416  1.00  0.00     0.157 A 
ATOM     16  C   UNL     1      51.308 -20.241  13.175  1.00  0.00     0.062 A 
ATOM     17  C   UNL     1      51.604 -18.945  13.624  1.00  0.00     0.158 A 
BRANCH  15  18
ATOM     18  O   UNL     1      50.937 -16.963  14.877  1.00  0.00    -0.504 OA
ATOM     19  H   UNL     1      51.784 -16.735  15.385  1.00  0.00     0.293 HD
ENDBRANCH  15  18
BRANCH  17  20
ATOM     20  O   UNL     1      52.818 -18.348  13.288  1.00  0.00    -0.504 OA
ATOM     21  H   UNL     1      53.095 -17.453  13.675  1.00  0.00     0.293 HD
ENDBRANCH  17  20
ENDBRANCH   1  12
BRANCH   2  22
ATOM     22  O   UNL     1      52.079 -22.956  13.503  1.00  0.00    -0.502 OA
ATOM     23  H   UNL     1      52.639 -22.187  13.154  1.00  0.00     0.293 HD
ENDBRANCH   2  22
BRANCH   6  24
ATOM     24  O   UNL     1      49.621 -27.097  11.540  1.00  0.00    -0.507 OA
ATOM     25  H   UNL     1      49.361 -27.976  11.108  1.00  0.00     0.293 HD
ENDBRANCH   6  24
BRANCH   8  26
ATOM     26  O   UNL     1      45.165 -25.370  10.883  1.00  0.00    -0.508 OA
ATOM     27  H   UNL     1      44.485 -25.815  11.490  1.00  0.00     0.293 HD
ENDBRANCH   8  26
TORSDOF 6
ENDMDL
MODEL 7
REMARK VINA RESULT:    -3.833      5.418      7.190
REMARK INTER + INTRA:          -4.894
REMARK INTER:                  -4.565
REMARK INTRA:                  -0.329
REMARK UNBOUND:                -0.277
REMARK SMILES O=c1c(O)c(-c2ccc(O)c(O)c2)oc2cc(O)cc(O)c12
REMARK SMILES IDX 5 1 3 2 2 3 1 4 22 5 20 6 19 7 17 8 16 9 15 10 14 11 6 12
REMARK SMILES IDX 7 13 8 14 9 15 13 16 11 17 10 18 12 20 4 22 21 24 18 26
REMARK H PARENT 10 19 12 21 4 23 21 25 18 27
REMARK Flexibility Score: inf
ROOT
ATOM      1  C   UNL     1      45.429 -25.969  14.958  1.00  0.00     0.180 A 
ATOM      2  C   UNL     1      45.234 -25.594  13.615  1.00  0.00     0.208 A 
ATOM      3  C   UNL     1      46.331 -25.617  12.738  1.00  0.00     0.238 A 
ATOM      4  O   UNL     1      46.166 -25.293  11.530  1.00  0.00    -0.285 OA
ATOM      5  C   UNL     1      47.601 -25.992  13.221  1.00  0.00     0.111 A 
ATOM      6  C   UNL     1      48.757 -26.037  12.405  1.00  0.00     0.134 A 
ATOM      7  C   UNL     1      49.989 -26.413  12.963  1.00  0.00     0.093 A 
ATOM      8  C   UNL     1      50.087 -26.742  14.316  1.00  0.00     0.123 A 
ATOM      9  C   UNL     1      48.948 -26.699  15.128  1.00  0.00     0.094 A 
ATOM     10  C   UNL     1      47.712 -26.329  14.591  1.00  0.00     0.146 A 
ATOM     11  O   UNL     1      46.645 -26.302  15.382  1.00  0.00    -0.452 OA
ENDROOT
BRANCH   1  12
ATOM     12  C   UNL     1      44.320 -25.989  15.939  1.00  0.00     0.025 A 
ATOM     13  C   UNL     1      43.496 -27.118  16.089  1.00  0.00     0.016 A 
ATOM     14  C   UNL     1      42.471 -27.124  17.038  1.00  0.00     0.051 A 
ATOM     15  C   UNL     1      42.260 -26.011  17.859  1.00  0.00     0.157 A 
ATOM     16  C   UNL     1      44.119 -24.882  16.779  1.00  0.00     0.062 A 
ATOM     17  C   UNL     1      43.090 -24.884  17.732  1.00  0.00     0.158 A 
BRANCH  15  18
ATOM     18  O   UNL     1      41.227 -26.046  18.795  1.00  0.00    -0.504 OA
ATOM     19  H   UNL     1      41.168 -26.767  19.504  1.00  0.00     0.293 HD
ENDBRANCH  15  18
BRANCH  17  20
ATOM     20  O   UNL     1      42.891 -23.775  18.552  1.00  0.00    -0.504 OA
ATOM     21  H   UNL     1      42.165 -23.760  19.258  1.00  0.00     0.293 HD
ENDBRANCH  17  20
ENDBRANCH   1  12
BRANCH   2  22
ATOM     22  O   UNL     1      43.975 -25.179  13.173  1.00  0.00    -0.502 OA
ATOM     23  H   UNL     1      43.221 -25.830  12.992  1.00  0.00     0.293 HD
ENDBRANCH   2  22
BRANCH   6  24
ATOM     24  O   UNL     1      48.692 -25.714  11.049  1.00  0.00    -0.507 OA
ATOM     25  H   UNL     1      49.445 -25.222  10.582  1.00  0.00     0.293 HD
ENDBRANCH   6  24
BRANCH   8  26
ATOM     26  O   UNL     1      51.322 -27.110  14.845  1.00  0.00    -0.508 OA
ATOM     27  H   UNL     1      51.416 -27.905  15.468  1.00  0.00     0.293 HD
ENDBRANCH   8  26
TORSDOF 6
ENDMDL
MODEL 8
REMARK VINA RESULT:    -3.567      1.766      6.954
REMARK INTER + INTRA:          -4.574
REMARK INTER:                  -4.335
REMARK INTRA:                  -0.239
REMARK UNBOUND:                -0.277
REMARK SMILES O=c1c(O)c(-c2ccc(O)c(O)c2)oc2cc(O)cc(O)c12
REMARK SMILES IDX 5 1 3 2 2 3 1 4 22 5 20 6 19 7 17 8 16 9 15 10 14 11 6 12
REMARK SMILES IDX 7 13 8 14 9 15 13 16 11 17 10 18 12 20 4 22 21 24 18 26
REMARK H PARENT 10 19 12 21 4 23 21 25 18 27
REMARK Flexibility Score: inf
ROOT
ATOM      1  C   UNL     1      49.250 -22.692  12.123  1.00  0.00     0.180 A 
ATOM      2  C   UNL     1      49.776 -23.992  11.994  1.00  0.00     0.208 A 
ATOM      3  C   UNL     1      48.914 -25.040  11.632  1.00  0.00     0.238 A 
ATOM      4  O   UNL     1      49.376 -26.206  11.503  1.00  0.00    -0.285 OA
ATOM      5  C   UNL     1      47.545 -24.776  11.425  1.00  0.00     0.111 A 
ATOM      6  C   UNL     1      46.610 -25.775  11.061  1.00  0.00     0.134 A 
ATOM      7  C   UNL     1      45.261 -25.434  10.881  1.00  0.00     0.093 A 
ATOM      8  C   UNL     1      44.830 -24.118  11.059  1.00  0.00     0.123 A 
ATOM      9  C   UNL     1      45.748 -23.126  11.417  1.00  0.00     0.094 A 
ATOM     10  C   UNL     1      47.097 -23.445  11.599  1.00  0.00     0.146 A 
ATOM     11  O   UNL     1      47.950 -22.483  11.934  1.00  0.00    -0.452 OA
ENDROOT
BRANCH   1  12
ATOM     12  C   UNL     1      50.096 -21.532  12.484  1.00  0.00     0.025 A 
ATOM     13  C   UNL     1      50.040 -20.957  13.765  1.00  0.00     0.016 A 
ATOM     14  C   UNL     1      50.865 -19.878  14.092  1.00  0.00     0.051 A 
ATOM     15  C   UNL     1      51.766 -19.366  13.152  1.00  0.00     0.157 A 
ATOM     16  C   UNL     1      51.016 -21.030  11.550  1.00  0.00     0.062 A 
ATOM     17  C   UNL     1      51.846 -19.946  11.875  1.00  0.00     0.158 A 
BRANCH  15  18
ATOM     18  O   UNL     1      52.575 -18.287  13.507  1.00  0.00    -0.504 OA
ATOM     19  H   UNL     1      53.206 -18.325  14.299  1.00  0.00     0.293 HD
ENDBRANCH  15  18
BRANCH  17  20
ATOM     20  O   UNL     1      52.746 -19.447  10.936  1.00  0.00    -0.504 OA
ATOM     21  H   UNL     1      52.480 -19.302   9.969  1.00  0.00     0.293 HD
ENDBRANCH  17  20
ENDBRANCH   1  12
BRANCH   2  22
ATOM     22  O   UNL     1      51.127 -24.236  12.253  1.00  0.00    -0.502 OA
ATOM     23  H   UNL     1      51.803 -24.386  11.514  1.00  0.00     0.293 HD
ENDBRANCH   2  22
BRANCH   6  24
ATOM     24  O   UNL     1      47.009 -27.100  10.877  1.00  0.00    -0.507 OA
ATOM     25  H   UNL     1      46.385 -27.875  11.064  1.00  0.00     0.293 HD
ENDBRANCH   6  24
BRANCH   8  26
ATOM     26  O   UNL     1      43.484 -23.806  10.875  1.00  0.00    -0.508 OA
ATOM     27  H   UNL     1      42.930 -24.254  10.154  1.00  0.00     0.293 HD
ENDBRANCH   8  26
TORSDOF 6
ENDMDL
MODEL 9
REMARK VINA RESULT:    -3.021      1.571      2.310
REMARK INTER + INTRA:          -3.916
REMARK INTER:                  -3.609
REMARK INTRA:                  -0.307
REMARK UNBOUND:                -0.277
REMARK SMILES O=c1c(O)c(-c2ccc(O)c(O)c2)oc2cc(O)cc(O)c12
REMARK SMILES IDX 5 1 3 2 2 3 1 4 22 5 20 6 19 7 17 8 16 9 15 10 14 11 6 12
REMARK SMILES IDX 7 13 8 14 9 15 13 16 11 17 10 18 12 20 4 22 21 24 18 26
REMARK H PARENT 10 19 12 21 4 23 21 25 18 27
REMARK Flexibility Score: inf
ROOT
ATOM      1  C   UNL     1      48.364 -24.025  13.090  1.00  0.00     0.180 A 
ATOM      2  C   UNL     1      49.409 -24.516  12.285  1.00  0.00     0.208 A 
ATOM      3  C   UNL     1      50.548 -23.719  12.092  1.00  0.00     0.238 A 
ATOM      4  O   UNL     1      51.495 -24.152  11.381  1.00  0.00    -0.285 OA
ATOM      5  C   UNL     1      50.615 -22.442  12.687  1.00  0.00     0.111 A 
ATOM      6  C   UNL     1      51.725 -21.577  12.539  1.00  0.00     0.134 A 
ATOM      7  C   UNL     1      51.712 -20.317  13.158  1.00  0.00     0.093 A 
ATOM      8  C   UNL     1      50.614 -19.908  13.917  1.00  0.00     0.123 A 
ATOM      9  C   UNL     1      49.515 -20.759  14.068  1.00  0.00     0.094 A 
ATOM     10  C   UNL     1      49.509 -22.018  13.461  1.00  0.00     0.146 A 
ATOM     11  O   UNL     1      48.454 -22.810  13.624  1.00  0.00    -0.452 OA
ENDROOT
BRANCH   1  12
ATOM     12  C   UNL     1      47.138 -24.812  13.357  1.00  0.00     0.025 A 
ATOM     13  C   UNL     1      46.076 -24.846  12.435  1.00  0.00     0.016 A 
ATOM     14  C   UNL     1      44.939 -25.614  12.696  1.00  0.00     0.051 A 
ATOM     15  C   UNL     1      44.849 -26.370  13.870  1.00  0.00     0.157 A 
ATOM     16  C   UNL     1      47.054 -25.588  14.523  1.00  0.00     0.062 A 
ATOM     17  C   UNL     1      45.912 -26.360  14.788  1.00  0.00     0.158 A 
BRANCH  15  18
ATOM     18  O   UNL     1      43.700 -27.125  14.103  1.00  0.00    -0.504 OA
ATOM     19  H   UNL     1      43.585 -27.683  14.941  1.00  0.00     0.293 HD
ENDBRANCH  15  18
BRANCH  17  20
ATOM     20  O   UNL     1      45.834 -27.117  15.956  1.00  0.00    -0.504 OA
ATOM     21  H   UNL     1      46.567 -27.092  16.655  1.00  0.00     0.293 HD
ENDBRANCH  17  20
ENDBRANCH   1  12
BRANCH   2  22
ATOM     22  O   UNL     1      49.297 -25.763  11.665  1.00  0.00    -0.502 OA
ATOM     23  H   UNL     1      48.402 -26.172  11.425  1.00  0.00     0.293 HD
ENDBRANCH   2  22
BRANCH   6  24
ATOM     24  O   UNL     1      52.837 -21.956  11.786  1.00  0.00    -0.507 OA
ATOM     25  H   UNL     1      53.516 -22.621  12.136  1.00  0.00     0.293 HD
ENDBRANCH   6  24
BRANCH   8  26
ATOM     26  O   UNL     1      50.627 -18.651  14.520  1.00  0.00    -0.508 OA
ATOM     27  H   UNL     1      50.149 -17.859  14.104  1.00  0.00     0.293 HD
ENDBRANCH   8  26
TORSDOF 6
ENDMDL
