MODEL 1
REMARK VINA RESULT:    -4.253      0.000      0.000
REMARK INTER + INTRA:          -8.913
REMARK INTER:                  -7.237
REMARK INTRA:                  -1.676
REMARK UNBOUND:                -1.676
REMARK SMILES CCCCCCCCCCCCCC(=O)[O-]
REMARK SMILES IDX 8 1 9 2 10 3 11 4 12 5 13 6 14 7 15 8 16 9 7 10 6 11 5 12
REMARK SMILES IDX 4 13 3 14 2 15 1 16
REMARK H PARENT
REMARK Flexibility Score: inf
ROOT
ATOM      1  C   UNL     1      16.939  55.589 158.320  1.00  0.00     0.000 C 
ENDROOT
BRANCH   1   2
ATOM      2  C   UNL     1      18.059  54.691 157.770  1.00  0.00     0.000 C 
BRANCH   2   3
ATOM      3  C   UNL     1      18.732  53.847 158.868  1.00  0.00     0.000 C 
BRANCH   3   4
ATOM      4  C   UNL     1      17.991  53.928 160.212  1.00  0.00     0.000 C 
BRANCH   4   5
ATOM      5  C   UNL     1      18.935  54.220 161.391  1.00  0.00     0.006 C 
BRANCH   5   6
ATOM      6  C   UNL     1      20.407  53.986 161.026  1.00  0.00     0.053 C 
BRANCH   6   7
ATOM      7  C   UNL     1      21.229  55.224 161.220  1.00  0.00     0.041 C 
ATOM      8  O   UNL     1      21.227  56.131 160.348  1.00  0.00    -0.550 OA
ATOM      9  O   UNL     1      22.025  55.358 162.350  1.00  0.00    -0.550 OA
ENDBRANCH   6   7
ENDBRANCH   5   6
ENDBRANCH   4   5
ENDBRANCH   3   4
ENDBRANCH   2   3
ENDBRANCH   1   2
BRANCH   1  10
ATOM     10  C   UNL     1      15.801  55.799 157.312  1.00  0.00     0.000 C 
BRANCH  10  11
ATOM     11  C   UNL     1      15.487  54.497 156.560  1.00  0.00    -0.000 C 
BRANCH  11  12
ATOM     12  C   UNL     1      14.285  53.737 157.153  1.00  0.00    -0.000 C 
BRANCH  12  13
ATOM     13  C   UNL     1      14.651  52.542 158.053  1.00  0.00    -0.000 C 
BRANCH  13  14
ATOM     14  C   UNL     1      15.914  51.768 157.630  1.00  0.00    -0.000 C 
BRANCH  14  15
ATOM     15  C   UNL     1      16.504  50.883 158.749  1.00  0.00    -0.003 C 
ATOM     16  C   UNL     1      15.665  50.907 160.026  1.00  0.00     0.004 C 
ENDBRANCH  14  15
ENDBRANCH  13  14
ENDBRANCH  12  13
ENDBRANCH  11  12
ENDBRANCH  10  11
ENDBRANCH   1  10
TORSDOF 12
ENDMDL
MODEL 2
REMARK VINA RESULT:    -4.252      1.254      3.112
REMARK INTER + INTRA:          -8.912
REMARK INTER:                  -7.217
REMARK INTRA:                  -1.694
REMARK UNBOUND:                -1.676
REMARK SMILES CCCCCCCCCCCCCC(=O)[O-]
REMARK SMILES IDX 8 1 9 2 10 3 11 4 12 5 13 6 14 7 15 8 16 9 7 10 6 11 5 12
REMARK SMILES IDX 4 13 3 14 2 15 1 16
REMARK H PARENT
REMARK Flexibility Score: inf
ROOT
ATOM      1  C   UNL     1      14.802  51.912 159.545  1.00  0.00     0.000 C 
ENDROOT
BRANCH   1   2
ATOM      2  C   UNL     1      16.054  51.526 158.741  1.00  0.00     0.000 C 
BRANCH   2   3
ATOM      3  C   UNL     1      17.292  52.344 159.148  1.00  0.00     0.000 C 
BRANCH   3   4
ATOM      4  C   UNL     1      16.986  53.368 160.252  1.00  0.00     0.000 C 
BRANCH   4   5
ATOM      5  C   UNL     1      18.254  54.054 160.791  1.00  0.00     0.006 C 
BRANCH   5   6
ATOM      6  C   UNL     1      19.515  53.613 160.037  1.00  0.00     0.053 C 
BRANCH   6   7
ATOM      7  C   UNL     1      20.762  53.982 160.781  1.00  0.00     0.041 C 
ATOM      8  O   UNL     1      21.891  53.809 160.253  1.00  0.00    -0.550 OA
ATOM      9  O   UNL     1      20.677  54.486 162.073  1.00  0.00    -0.550 OA
ENDBRANCH   6   7
ENDBRANCH   5   6
ENDBRANCH   4   5
ENDBRANCH   3   4
ENDBRANCH   2   3
ENDBRANCH   1   2
BRANCH   1  10
ATOM     10  C   UNL     1      13.747  52.627 158.689  1.00  0.00     0.000 C 
BRANCH  10  11
ATOM     11  C   UNL     1      14.218  52.757 157.233  1.00  0.00    -0.000 C 
BRANCH  11  12
ATOM     12  C   UNL     1      13.725  54.050 156.557  1.00  0.00    -0.000 C 
BRANCH  12  13
ATOM     13  C   UNL     1      14.837  55.041 156.161  1.00  0.00    -0.000 C 
BRANCH  13  14
ATOM     14  C   UNL     1      16.274  54.508 156.315  1.00  0.00    -0.000 C 
BRANCH  14  15
ATOM     15  C   UNL     1      17.263  55.543 156.892  1.00  0.00    -0.003 C 
ATOM     16  C   UNL     1      16.672  56.341 158.053  1.00  0.00     0.004 C 
ENDBRANCH  14  15
ENDBRANCH  13  14
ENDBRANCH  12  13
ENDBRANCH  11  12
ENDBRANCH  10  11
ENDBRANCH   1  10
TORSDOF 12
ENDMDL
MODEL 3
REMARK VINA RESULT:    -4.251      1.538      2.020
REMARK INTER + INTRA:          -8.909
REMARK INTER:                  -7.011
REMARK INTRA:                  -1.898
REMARK UNBOUND:                -1.676
REMARK SMILES CCCCCCCCCCCCCC(=O)[O-]
REMARK SMILES IDX 8 1 9 2 10 3 11 4 12 5 13 6 14 7 15 8 16 9 7 10 6 11 5 12
REMARK SMILES IDX 4 13 3 14 2 15 1 16
REMARK H PARENT
REMARK Flexibility Score: inf
ROOT
ATOM      1  C   UNL     1      16.390  55.816 157.723  1.00  0.00     0.000 C 
ENDROOT
BRANCH   1   2
ATOM      2  C   UNL     1      17.802  56.272 157.325  1.00  0.00     0.000 C 
BRANCH   2   3
ATOM      3  C   UNL     1      18.740  55.090 157.021  1.00  0.00     0.000 C 
BRANCH   3   4
ATOM      4  C   UNL     1      18.372  53.826 157.815  1.00  0.00     0.000 C 
BRANCH   4   5
ATOM      5  C   UNL     1      19.099  53.745 159.168  1.00  0.00     0.006 C 
BRANCH   5   6
ATOM      6  C   UNL     1      18.130  53.847 160.353  1.00  0.00     0.053 C 
BRANCH   6   7
ATOM      7  C   UNL     1      18.392  55.069 161.180  1.00  0.00     0.041 C 
ATOM      8  O   UNL     1      17.813  56.153 160.910  1.00  0.00    -0.550 OA
ATOM      9  O   UNL     1      19.303  55.016 162.227  1.00  0.00    -0.550 OA
ENDBRANCH   6   7
ENDBRANCH   5   6
ENDBRANCH   4   5
ENDBRANCH   3   4
ENDBRANCH   2   3
ENDBRANCH   1   2
BRANCH   1  10
ATOM     10  C   UNL     1      15.381  55.940 156.572  1.00  0.00     0.000 C 
BRANCH  10  11
ATOM     11  C   UNL     1      14.469  54.706 156.507  1.00  0.00    -0.000 C 
BRANCH  11  12
ATOM     12  C   UNL     1      15.218  53.426 156.092  1.00  0.00    -0.000 C 
BRANCH  12  13
ATOM     13  C   UNL     1      15.088  52.248 157.076  1.00  0.00    -0.000 C 
BRANCH  13  14
ATOM     14  C   UNL     1      14.703  52.638 158.516  1.00  0.00    -0.000 C 
BRANCH  14  15
ATOM     15  C   UNL     1      15.096  51.584 159.572  1.00  0.00    -0.003 C 
ATOM     16  C   UNL     1      16.363  50.815 159.197  1.00  0.00     0.004 C 
ENDBRANCH  14  15
ENDBRANCH  13  14
ENDBRANCH  12  13
ENDBRANCH  11  12
ENDBRANCH  10  11
ENDBRANCH   1  10
TORSDOF 12
ENDMDL
MODEL 4
REMARK VINA RESULT:    -4.188      3.570      5.329
REMARK INTER + INTRA:          -8.802
REMARK INTER:                  -6.946
REMARK INTRA:                  -1.856
REMARK UNBOUND:                -1.676
REMARK SMILES CCCCCCCCCCCCCC(=O)[O-]
REMARK SMILES IDX 8 1 9 2 10 3 11 4 12 5 13 6 14 7 15 8 16 9 7 10 6 11 5 12
REMARK SMILES IDX 4 13 3 14 2 15 1 16
REMARK H PARENT
REMARK Flexibility Score: inf
ROOT
ATOM      1  C   UNL     1      18.272  53.535 156.994  1.00  0.00     0.000 C 
ENDROOT
BRANCH   1   2
ATOM      2  C   UNL     1      19.225  53.907 158.142  1.00  0.00     0.000 C 
BRANCH   2   3
ATOM      3  C   UNL     1      18.738  53.386 159.506  1.00  0.00     0.000 C 
BRANCH   3   4
ATOM      4  C   UNL     1      17.244  53.659 159.742  1.00  0.00     0.000 C 
BRANCH   4   5
ATOM      5  C   UNL     1      16.452  52.378 160.057  1.00  0.00     0.006 C 
BRANCH   5   6
ATOM      6  C   UNL     1      15.639  51.889 158.852  1.00  0.00     0.053 C 
BRANCH   6   7
ATOM      7  C   UNL     1      14.202  52.303 158.948  1.00  0.00     0.041 C 
ATOM      8  O   UNL     1      13.701  53.063 158.078  1.00  0.00    -0.550 OA
ATOM      9  O   UNL     1      13.427  51.877 160.018  1.00  0.00    -0.550 OA
ENDBRANCH   6   7
ENDBRANCH   5   6
ENDBRANCH   4   5
ENDBRANCH   3   4
ENDBRANCH   2   3
ENDBRANCH   1   2
BRANCH   1  10
ATOM     10  C   UNL     1      17.775  54.763 156.217  1.00  0.00     0.000 C 
BRANCH  10  11
ATOM     11  C   UNL     1      16.246  54.884 156.302  1.00  0.00    -0.000 C 
BRANCH  11  12
ATOM     12  C   UNL     1      15.784  56.005 157.251  1.00  0.00    -0.000 C 
BRANCH  12  13
ATOM     13  C   UNL     1      16.487  57.361 157.047  1.00  0.00    -0.000 C 
BRANCH  13  14
ATOM     14  C   UNL     1      16.954  58.056 158.340  1.00  0.00    -0.000 C 
BRANCH  14  15
ATOM     15  C   UNL     1      18.003  57.250 159.135  1.00  0.00    -0.003 C 
ATOM     16  C   UNL     1      17.876  57.444 160.646  1.00  0.00     0.004 C 
ENDBRANCH  14  15
ENDBRANCH  13  14
ENDBRANCH  12  13
ENDBRANCH  11  12
ENDBRANCH  10  11
ENDBRANCH   1  10
TORSDOF 12
ENDMDL
MODEL 5
REMARK VINA RESULT:    -4.172      1.075      3.041
REMARK INTER + INTRA:          -8.775
REMARK INTER:                  -7.210
REMARK INTRA:                  -1.565
REMARK UNBOUND:                -1.676
REMARK SMILES CCCCCCCCCCCCCC(=O)[O-]
REMARK SMILES IDX 8 1 9 2 10 3 11 4 12 5 13 6 14 7 15 8 16 9 7 10 6 11 5 12
REMARK SMILES IDX 4 13 3 14 2 15 1 16
REMARK H PARENT
REMARK Flexibility Score: inf
ROOT
ATOM      1  C   UNL     1      17.336  52.181 158.943  1.00  0.00     0.000 C 
ENDROOT
BRANCH   1   2
ATOM      2  C   UNL     1      17.134  53.093 160.163  1.00  0.00     0.000 C 
BRANCH   2   3
ATOM      3  C   UNL     1      18.004  54.362 160.102  1.00  0.00     0.000 C 
BRANCH   3   4
ATOM      4  C   UNL     1      19.364  54.113 159.431  1.00  0.00     0.000 C 
BRANCH   4   5
ATOM      5  C   UNL     1      20.445  53.670 160.432  1.00  0.00     0.006 C 
BRANCH   5   6
ATOM      6  C   UNL     1      20.337  54.415 161.768  1.00  0.00     0.053 C 
BRANCH   6   7
ATOM      7  C   UNL     1      21.263  55.592 161.824  1.00  0.00     0.041 C 
ATOM      8  O   UNL     1      22.377  55.496 162.401  1.00  0.00    -0.550 OA
ATOM      9  O   UNL     1      20.879  56.804 161.266  1.00  0.00    -0.550 OA
ENDBRANCH   6   7
ENDBRANCH   5   6
ENDBRANCH   4   5
ENDBRANCH   3   4
ENDBRANCH   2   3
ENDBRANCH   1   2
BRANCH   1  10
ATOM     10  C   UNL     1      16.042  51.476 158.511  1.00  0.00     0.000 C 
BRANCH  10  11
ATOM     11  C   UNL     1      14.850  51.953 159.355  1.00  0.00    -0.000 C 
BRANCH  11  12
ATOM     12  C   UNL     1      13.803  52.726 158.533  1.00  0.00    -0.000 C 
BRANCH  12  13
ATOM     13  C   UNL     1      14.235  53.080 157.097  1.00  0.00    -0.000 C 
BRANCH  13  14
ATOM     14  C   UNL     1      14.517  54.574 156.848  1.00  0.00    -0.000 C 
BRANCH  14  15
ATOM     15  C   UNL     1      16.016  54.940 156.900  1.00  0.00    -0.003 C 
ATOM     16  C   UNL     1      16.263  56.346 157.446  1.00  0.00     0.004 C 
ENDBRANCH  14  15
ENDBRANCH  13  14
ENDBRANCH  12  13
ENDBRANCH  11  12
ENDBRANCH  10  11
ENDBRANCH   1  10
TORSDOF 12
ENDMDL
MODEL 6
REMARK VINA RESULT:    -4.154      2.225      4.221
REMARK INTER + INTRA:          -8.745
REMARK INTER:                  -7.361
REMARK INTRA:                  -1.384
REMARK UNBOUND:                -1.676
REMARK SMILES CCCCCCCCCCCCCC(=O)[O-]
REMARK SMILES IDX 8 1 9 2 10 3 11 4 12 5 13 6 14 7 15 8 16 9 7 10 6 11 5 12
REMARK SMILES IDX 4 13 3 14 2 15 1 16
REMARK H PARENT
REMARK Flexibility Score: inf
ROOT
ATOM      1  C   UNL     1      13.400  53.659 156.844  1.00  0.00     0.000 C 
ENDROOT
BRANCH   1   2
ATOM      2  C   UNL     1      14.120  54.790 156.093  1.00  0.00     0.000 C 
BRANCH   2   3
ATOM      3  C   UNL     1      15.505  55.105 156.686  1.00  0.00     0.000 C 
BRANCH   3   4
ATOM      4  C   UNL     1      15.693  56.601 156.986  1.00  0.00     0.000 C 
BRANCH   4   5
ATOM      5  C   UNL     1      17.034  56.902 157.677  1.00  0.00     0.006 C 
BRANCH   5   6
ATOM      6  C   UNL     1      16.985  58.197 158.497  1.00  0.00     0.053 C 
BRANCH   6   7
ATOM      7  C   UNL     1      17.762  58.074 159.773  1.00  0.00     0.041 C 
ATOM      8  O   UNL     1      17.668  57.033 160.475  1.00  0.00    -0.550 OA
ATOM      9  O   UNL     1      18.563  59.124 160.202  1.00  0.00    -0.550 OA
ENDBRANCH   6   7
ENDBRANCH   5   6
ENDBRANCH   4   5
ENDBRANCH   3   4
ENDBRANCH   2   3
ENDBRANCH   1   2
BRANCH   1  10
ATOM     10  C   UNL     1      14.374  52.630 157.437  1.00  0.00     0.000 C 
BRANCH  10  11
ATOM     11  C   UNL     1      14.090  52.404 158.930  1.00  0.00    -0.000 C 
BRANCH  11  12
ATOM     12  C   UNL     1      15.165  51.545 159.621  1.00  0.00    -0.000 C 
BRANCH  12  13
ATOM     13  C   UNL     1      16.619  51.904 159.258  1.00  0.00    -0.000 C 
BRANCH  13  14
ATOM     14  C   UNL     1      17.126  53.238 159.838  1.00  0.00    -0.000 C 
BRANCH  14  15
ATOM     15  C   UNL     1      18.423  53.751 159.175  1.00  0.00    -0.003 C 
ATOM     16  C   UNL     1      18.514  53.383 157.694  1.00  0.00     0.004 C 
ENDBRANCH  14  15
ENDBRANCH  13  14
ENDBRANCH  12  13
ENDBRANCH  11  12
ENDBRANCH  10  11
ENDBRANCH   1  10
TORSDOF 12
ENDMDL
MODEL 7
REMARK VINA RESULT:    -4.140      1.443      3.755
REMARK INTER + INTRA:          -8.720
REMARK INTER:                  -7.004
REMARK INTRA:                  -1.717
REMARK UNBOUND:                -1.676
REMARK SMILES CCCCCCCCCCCCCC(=O)[O-]
REMARK SMILES IDX 8 1 9 2 10 3 11 4 12 5 13 6 14 7 15 8 16 9 7 10 6 11 5 12
REMARK SMILES IDX 4 13 3 14 2 15 1 16
REMARK H PARENT
REMARK Flexibility Score: inf
ROOT
ATOM      1  C   UNL     1      14.358  52.681 158.129  1.00  0.00     0.000 C 
ENDROOT
BRANCH   1   2
ATOM      2  C   UNL     1      14.796  51.833 159.334  1.00  0.00     0.000 C 
BRANCH   2   3
ATOM      3  C   UNL     1      16.327  51.720 159.451  1.00  0.00     0.000 C 
BRANCH   3   4
ATOM      4  C   UNL     1      16.967  52.982 160.050  1.00  0.00     0.000 C 
BRANCH   4   5
ATOM      5  C   UNL     1      18.168  53.482 159.228  1.00  0.00     0.006 C 
BRANCH   5   6
ATOM      6  C   UNL     1      19.447  53.575 160.070  1.00  0.00     0.053 C 
BRANCH   6   7
ATOM      7  C   UNL     1      19.317  54.590 161.165  1.00  0.00     0.041 C 
ATOM      8  O   UNL     1      19.615  54.286 162.350  1.00  0.00    -0.550 OA
ATOM      9  O   UNL     1      18.833  55.860 160.882  1.00  0.00    -0.550 OA
ENDBRANCH   6   7
ENDBRANCH   5   6
ENDBRANCH   4   5
ENDBRANCH   3   4
ENDBRANCH   2   3
ENDBRANCH   1   2
BRANCH   1  10
ATOM     10  C   UNL     1      15.180  52.384 156.867  1.00  0.00     0.000 C 
BRANCH  10  11
ATOM     11  C   UNL     1      15.614  53.686 156.177  1.00  0.00    -0.000 C 
BRANCH  11  12
ATOM     12  C   UNL     1      14.955  54.937 156.787  1.00  0.00    -0.000 C 
BRANCH  12  13
ATOM     13  C   UNL     1      15.787  56.229 156.679  1.00  0.00    -0.000 C 
BRANCH  13  14
ATOM     14  C   UNL     1      16.656  56.551 157.909  1.00  0.00    -0.000 C 
BRANCH  14  15
ATOM     15  C   UNL     1      18.139  56.814 157.571  1.00  0.00    -0.003 C 
ATOM     16  C   UNL     1      18.639  55.963 156.404  1.00  0.00     0.004 C 
ENDBRANCH  14  15
ENDBRANCH  13  14
ENDBRANCH  12  13
ENDBRANCH  11  12
ENDBRANCH  10  11
ENDBRANCH   1  10
TORSDOF 12
ENDMDL
MODEL 8
REMARK VINA RESULT:    -4.137      1.518      1.966
REMARK INTER + INTRA:          -8.715
REMARK INTER:                  -6.957
REMARK INTRA:                  -1.757
REMARK UNBOUND:                -1.676
REMARK SMILES CCCCCCCCCCCCCC(=O)[O-]
REMARK SMILES IDX 8 1 9 2 10 3 11 4 12 5 13 6 14 7 15 8 16 9 7 10 6 11 5 12
REMARK SMILES IDX 4 13 3 14 2 15 1 16
REMARK H PARENT
REMARK Flexibility Score: inf
ROOT
ATOM      1  C   UNL     1      18.049  54.988 156.136  1.00  0.00     0.000 C 
ENDROOT
BRANCH   1   2
ATOM      2  C   UNL     1      18.712  55.081 157.519  1.00  0.00     0.000 C 
BRANCH   2   3
ATOM      3  C   UNL     1      19.171  53.711 158.048  1.00  0.00     0.000 C 
BRANCH   3   4
ATOM      4  C   UNL     1      19.422  53.718 159.565  1.00  0.00     0.000 C 
BRANCH   4   5
ATOM      5  C   UNL     1      18.183  54.150 160.367  1.00  0.00     0.006 C 
BRANCH   5   6
ATOM      6  C   UNL     1      18.551  54.997 161.591  1.00  0.00     0.053 C 
BRANCH   6   7
ATOM      7  C   UNL     1      18.435  56.464 161.305  1.00  0.00     0.041 C 
ATOM      8  O   UNL     1      17.453  57.120 161.741  1.00  0.00    -0.550 OA
ATOM      9  O   UNL     1      19.395  57.097 160.527  1.00  0.00    -0.550 OA
ENDBRANCH   6   7
ENDBRANCH   5   6
ENDBRANCH   4   5
ENDBRANCH   3   4
ENDBRANCH   2   3
ENDBRANCH   1   2
BRANCH   1  10
ATOM     10  C   UNL     1      16.668  55.657 156.095  1.00  0.00     0.000 C 
BRANCH  10  11
ATOM     11  C   UNL     1      15.878  55.363 157.379  1.00  0.00    -0.000 C 
BRANCH  11  12
ATOM     12  C   UNL     1      14.992  54.109 157.266  1.00  0.00    -0.000 C 
BRANCH  12  13
ATOM     13  C   UNL     1      15.291  53.005 158.297  1.00  0.00    -0.000 C 
BRANCH  13  14
ATOM     14  C   UNL     1      16.150  51.838 157.775  1.00  0.00    -0.000 C 
BRANCH  14  15
ATOM     15  C   UNL     1      16.549  50.823 158.868  1.00  0.00    -0.003 C 
ATOM     16  C   UNL     1      15.547  50.769 160.020  1.00  0.00     0.004 C 
ENDBRANCH  14  15
ENDBRANCH  13  14
ENDBRANCH  12  13
ENDBRANCH  11  12
ENDBRANCH  10  11
ENDBRANCH   1  10
TORSDOF 12
ENDMDL
MODEL 9
REMARK VINA RESULT:    -4.135      2.018      3.544
REMARK INTER + INTRA:          -8.712
REMARK INTER:                  -6.964
REMARK INTRA:                  -1.747
REMARK UNBOUND:                -1.676
REMARK SMILES CCCCCCCCCCCCCC(=O)[O-]
REMARK SMILES IDX 8 1 9 2 10 3 11 4 12 5 13 6 14 7 15 8 16 9 7 10 6 11 5 12
REMARK SMILES IDX 4 13 3 14 2 15 1 16
REMARK H PARENT
REMARK Flexibility Score: inf
ROOT
ATOM      1  C   UNL     1      15.550  51.581 159.688  1.00  0.00     0.000 C 
ENDROOT
BRANCH   1   2
ATOM      2  C   UNL     1      16.885  52.274 159.371  1.00  0.00     0.000 C 
BRANCH   2   3
ATOM      3  C   UNL     1      17.224  53.390 160.376  1.00  0.00     0.000 C 
BRANCH   3   4
ATOM      4  C   UNL     1      18.657  53.919 160.208  1.00  0.00     0.000 C 
BRANCH   4   5
ATOM      5  C   UNL     1      18.876  55.268 160.915  1.00  0.00     0.006 C 
BRANCH   5   6
ATOM      6  C   UNL     1      17.759  56.273 160.603  1.00  0.00     0.053 C 
BRANCH   6   7
ATOM      7  C   UNL     1      17.901  57.527 161.411  1.00  0.00     0.041 C 
ATOM      8  O   UNL     1      18.135  58.625 160.842  1.00  0.00    -0.550 OA
ATOM      9  O   UNL     1      17.809  57.475 162.796  1.00  0.00    -0.550 OA
ENDBRANCH   6   7
ENDBRANCH   5   6
ENDBRANCH   4   5
ENDBRANCH   3   4
ENDBRANCH   2   3
ENDBRANCH   1   2
BRANCH   1  10
ATOM     10  C   UNL     1      14.359  52.236 158.974  1.00  0.00     0.000 C 
BRANCH  10  11
ATOM     11  C   UNL     1      14.692  52.522 157.502  1.00  0.00    -0.000 C 
BRANCH  11  12
ATOM     12  C   UNL     1      14.066  53.832 156.989  1.00  0.00    -0.000 C 
BRANCH  12  13
ATOM     13  C   UNL     1      15.067  54.847 156.405  1.00  0.00    -0.000 C 
BRANCH  13  14
ATOM     14  C   UNL     1      16.085  55.414 157.413  1.00  0.00    -0.000 C 
BRANCH  14  15
ATOM     15  C   UNL     1      17.550  55.318 156.936  1.00  0.00    -0.003 C 
ATOM     16  C   UNL     1      17.857  53.998 156.230  1.00  0.00     0.004 C 
ENDBRANCH  14  15
ENDBRANCH  13  14
ENDBRANCH  12  13
ENDBRANCH  11  12
ENDBRANCH  10  11
ENDBRANCH   1  10
TORSDOF 12
ENDMDL
