MODEL 1
REMARK VINA RESULT:    -3.778      0.000      0.000
REMARK INTER + INTRA:          -3.778
REMARK INTER:                  -3.778
REMARK INTRA:                   0.000
REMARK UNBOUND:                 0.000
REMARK SMILES C=C1CC[C@@H]2C[C@H]1C2(C)C
REMARK SMILES IDX 9 1 8 2 5 3 4 4 3 5 2 6 1 7 7 8 6 9 10 10
REMARK H PARENT
REMARK Flexibility Score: inf
ROOT
ATOM      1  C   UNL     1     139.579 133.567 135.693  1.00  0.00     0.012 C 
ATOM      2  C   UNL     1     139.485 134.598 134.540  1.00  0.00    -0.026 C 
ATOM      3  C   UNL     1     139.106 136.010 135.055  1.00  0.00    -0.004 C 
ATOM      4  C   UNL     1     138.624 136.923 133.883  1.00  0.00     0.008 C 
ATOM      5  C   UNL     1     139.636 136.942 132.674  1.00  0.00     0.031 C 
ATOM      6  C   UNL     1     140.776 135.928 132.853  1.00  0.00    -0.074 C 
ATOM      7  C   UNL     1     141.657 135.692 131.875  1.00  0.00     0.008 C 
ATOM      8  C   UNL     1     140.863 135.209 134.195  1.00  0.00     0.021 C 
ATOM      9  C   UNL     1     140.604 136.299 135.248  1.00  0.00     0.012 C 
ATOM     10  C   UNL     1     138.646 133.973 133.391  1.00  0.00     0.012 C 
ENDROOT
TORSDOF 0
ENDMDL
MODEL 2
REMARK VINA RESULT:    -3.771      3.802      5.341
REMARK INTER + INTRA:          -3.771
REMARK INTER:                  -3.771
REMARK INTRA:                   0.000
REMARK UNBOUND:                 0.000
REMARK SMILES C=C1CC[C@@H]2C[C@H]1C2(C)C
REMARK SMILES IDX 9 1 8 2 5 3 4 4 3 5 2 6 1 7 7 8 6 9 10 10
REMARK H PARENT
REMARK Flexibility Score: inf
ROOT
ATOM      1  C   UNL     1     135.650 131.243 132.124  1.00  0.00     0.012 C 
ATOM      2  C   UNL     1     136.266 132.207 133.169  1.00  0.00    -0.026 C 
ATOM      3  C   UNL     1     135.313 133.381 133.507  1.00  0.00    -0.004 C 
ATOM      4  C   UNL     1     136.079 134.536 134.227  1.00  0.00     0.008 C 
ATOM      5  C   UNL     1     136.920 134.029 135.460  1.00  0.00     0.031 C 
ATOM      6  C   UNL     1     136.930 132.497 135.568  1.00  0.00    -0.074 C 
ATOM      7  C   UNL     1     137.699 131.867 136.463  1.00  0.00     0.008 C 
ATOM      8  C   UNL     1     136.019 131.727 134.618  1.00  0.00     0.021 C 
ATOM      9  C   UNL     1     134.695 132.509 134.614  1.00  0.00     0.012 C 
ATOM     10  C   UNL     1     137.723 132.531 132.737  1.00  0.00     0.012 C 
ENDROOT
TORSDOF 0
ENDMDL
MODEL 3
REMARK VINA RESULT:    -3.769      4.686      6.706
REMARK INTER + INTRA:          -3.769
REMARK INTER:                  -3.769
REMARK INTRA:                   0.000
REMARK UNBOUND:                 0.000
REMARK SMILES C=C1CC[C@@H]2C[C@H]1C2(C)C
REMARK SMILES IDX 9 1 8 2 5 3 4 4 3 5 2 6 1 7 7 8 6 9 10 10
REMARK H PARENT
REMARK Flexibility Score: inf
ROOT
ATOM      1  C   UNL     1     137.000 141.337 132.052  1.00  0.00     0.012 C 
ATOM      2  C   UNL     1     136.311 140.425 133.098  1.00  0.00    -0.026 C 
ATOM      3  C   UNL     1     137.191 139.205 133.472  1.00  0.00    -0.004 C 
ATOM      4  C   UNL     1     136.347 138.105 134.193  1.00  0.00     0.008 C 
ATOM      5  C   UNL     1     135.513 138.677 135.402  1.00  0.00     0.031 C 
ATOM      6  C   UNL     1     135.586 140.209 135.488  1.00  0.00    -0.074 C 
ATOM      7  C   UNL     1     134.836 140.894 136.357  1.00  0.00     0.008 C 
ATOM      8  C   UNL     1     136.557 140.913 134.545  1.00  0.00     0.021 C 
ATOM      9  C   UNL     1     137.834 140.058 134.579  1.00  0.00     0.012 C 
ATOM     10  C   UNL     1     134.847 140.176 132.641  1.00  0.00     0.012 C 
ENDROOT
TORSDOF 0
ENDMDL
MODEL 4
REMARK VINA RESULT:    -3.764      6.243      7.943
REMARK INTER + INTRA:          -3.764
REMARK INTER:                  -3.764
REMARK INTRA:                   0.000
REMARK UNBOUND:                 0.000
REMARK SMILES C=C1CC[C@@H]2C[C@H]1C2(C)C
REMARK SMILES IDX 9 1 8 2 5 3 4 4 3 5 2 6 1 7 7 8 6 9 10 10
REMARK H PARENT
REMARK Flexibility Score: inf
ROOT
ATOM      1  C   UNL     1     131.358 137.047 132.091  1.00  0.00     0.012 C 
ATOM      2  C   UNL     1     132.287 136.440 133.172  1.00  0.00    -0.026 C 
ATOM      3  C   UNL     1     133.409 137.423 133.590  1.00  0.00    -0.004 C 
ATOM      4  C   UNL     1     134.551 136.679 134.354  1.00  0.00     0.008 C 
ATOM      5  C   UNL     1     134.009 135.796 135.543  1.00  0.00     0.031 C 
ATOM      6  C   UNL     1     132.474 135.734 135.570  1.00  0.00    -0.074 C 
ATOM      7  C   UNL     1     131.826 134.925 136.415  1.00  0.00     0.008 C 
ATOM      8  C   UNL     1     131.724 136.640 134.599  1.00  0.00     0.021 C 
ATOM      9  C   UNL     1     132.461 137.988 134.662  1.00  0.00     0.012 C 
ATOM     10  C   UNL     1     132.681 135.004 132.729  1.00  0.00     0.012 C 
ENDROOT
TORSDOF 0
ENDMDL
MODEL 5
REMARK VINA RESULT:    -3.757      1.045      3.051
REMARK INTER + INTRA:          -3.757
REMARK INTER:                  -3.757
REMARK INTRA:                   0.000
REMARK UNBOUND:                 0.000
REMARK SMILES C=C1CC[C@@H]2C[C@H]1C2(C)C
REMARK SMILES IDX 9 1 8 2 5 3 4 4 3 5 2 6 1 7 7 8 6 9 10 10
REMARK H PARENT
REMARK Flexibility Score: inf
ROOT
ATOM      1  C   UNL     1     141.240 135.633 132.094  1.00  0.00     0.012 C 
ATOM      2  C   UNL     1     140.342 136.282 133.176  1.00  0.00    -0.026 C 
ATOM      3  C   UNL     1     139.182 135.347 133.603  1.00  0.00    -0.004 C 
ATOM      4  C   UNL     1     138.076 136.141 134.369  1.00  0.00     0.008 C 
ATOM      5  C   UNL     1     138.659 137.005 135.552  1.00  0.00     0.031 C 
ATOM      6  C   UNL     1     140.195 137.003 135.572  1.00  0.00    -0.074 C 
ATOM      7  C   UNL     1     140.881 137.787 136.411  1.00  0.00     0.008 C 
ATOM      8  C   UNL     1     140.902 136.063 134.601  1.00  0.00     0.021 C 
ATOM      9  C   UNL     1     140.110 134.747 134.672  1.00  0.00     0.012 C 
ATOM     10  C   UNL     1     140.007 137.731 132.729  1.00  0.00     0.012 C 
ENDROOT
TORSDOF 0
ENDMDL
MODEL 6
REMARK VINA RESULT:    -3.757      3.967      5.618
REMARK INTER + INTRA:          -3.757
REMARK INTER:                  -3.757
REMARK INTRA:                   0.000
REMARK UNBOUND:                 0.000
REMARK SMILES C=C1CC[C@@H]2C[C@H]1C2(C)C
REMARK SMILES IDX 9 1 8 2 5 3 4 4 3 5 2 6 1 7 7 8 6 9 10 10
REMARK H PARENT
REMARK Flexibility Score: inf
ROOT
ATOM      1  C   UNL     1     133.488 132.945 135.765  1.00  0.00     0.012 C 
ATOM      2  C   UNL     1     134.484 133.125 134.592  1.00  0.00    -0.026 C 
ATOM      3  C   UNL     1     135.877 133.596 135.082  1.00  0.00    -0.004 C 
ATOM      4  C   UNL     1     136.728 134.155 133.897  1.00  0.00     0.008 C 
ATOM      5  C   UNL     1     136.791 133.162 132.675  1.00  0.00     0.031 C 
ATOM      6  C   UNL     1     135.864 131.951 132.860  1.00  0.00    -0.074 C 
ATOM      7  C   UNL     1     135.669 131.067 131.875  1.00  0.00     0.008 C 
ATOM      8  C   UNL     1     135.183 131.797 134.216  1.00  0.00     0.021 C 
ATOM      9  C   UNL     1     136.274 132.120 135.249  1.00  0.00     0.012 C 
ATOM     10  C   UNL     1     133.777 133.931 133.468  1.00  0.00     0.012 C 
ENDROOT
TORSDOF 0
ENDMDL
MODEL 7
REMARK VINA RESULT:    -3.687      3.167      4.854
REMARK INTER + INTRA:          -3.687
REMARK INTER:                  -3.687
REMARK INTRA:                   0.000
REMARK UNBOUND:                 0.000
REMARK SMILES C=C1CC[C@@H]2C[C@H]1C2(C)C
REMARK SMILES IDX 9 1 8 2 5 3 4 4 3 5 2 6 1 7 7 8 6 9 10 10
REMARK H PARENT
REMARK Flexibility Score: inf
ROOT
ATOM      1  C   UNL     1     136.578 139.524 135.786  1.00  0.00     0.012 C 
ATOM      2  C   UNL     1     137.833 138.630 135.938  1.00  0.00    -0.026 C 
ATOM      3  C   UNL     1     139.030 139.167 135.113  1.00  0.00    -0.004 C 
ATOM      4  C   UNL     1     140.133 138.073 134.947  1.00  0.00     0.008 C 
ATOM      5  C   UNL     1     140.552 137.422 136.320  1.00  0.00     0.031 C 
ATOM      6  C   UNL     1     139.663 137.889 137.482  1.00  0.00    -0.074 C 
ATOM      7  C   UNL     1     139.768 137.346 138.700  1.00  0.00     0.008 C 
ATOM      8  C   UNL     1     138.663 139.002 137.189  1.00  0.00     0.021 C 
ATOM      9  C   UNL     1     139.436 140.016 136.330  1.00  0.00     0.012 C 
ATOM     10  C   UNL     1     137.404 137.148 135.750  1.00  0.00     0.012 C 
ENDROOT
TORSDOF 0
ENDMDL
MODEL 8
REMARK VINA RESULT:    -3.678      5.760      7.491
REMARK INTER + INTRA:          -3.678
REMARK INTER:                  -3.678
REMARK INTRA:                   0.000
REMARK UNBOUND:                 0.000
REMARK SMILES C=C1CC[C@@H]2C[C@H]1C2(C)C
REMARK SMILES IDX 9 1 8 2 5 3 4 4 3 5 2 6 1 7 7 8 6 9 10 10
REMARK H PARENT
REMARK Flexibility Score: inf
ROOT
ATOM      1  C   UNL     1     133.136 136.571 135.818  1.00  0.00     0.012 C 
ATOM      2  C   UNL     1     134.016 137.838 135.966  1.00  0.00    -0.026 C 
ATOM      3  C   UNL     1     133.468 139.024 135.132  1.00  0.00    -0.004 C 
ATOM      4  C   UNL     1     134.551 140.137 134.964  1.00  0.00     0.008 C 
ATOM      5  C   UNL     1     135.191 140.573 136.337  1.00  0.00     0.031 C 
ATOM      6  C   UNL     1     134.730 139.685 137.503  1.00  0.00    -0.074 C 
ATOM      7  C   UNL     1     135.266 139.803 138.722  1.00  0.00     0.008 C 
ATOM      8  C   UNL     1     133.629 138.670 137.210  1.00  0.00     0.021 C 
ATOM      9  C   UNL     1     132.610 139.428 136.343  1.00  0.00     0.012 C 
ATOM     10  C   UNL     1     135.503 137.424 135.788  1.00  0.00     0.012 C 
ENDROOT
TORSDOF 0
ENDMDL
MODEL 9
REMARK VINA RESULT:    -3.672      5.862      7.427
REMARK INTER + INTRA:          -3.672
REMARK INTER:                  -3.672
REMARK INTRA:                   0.000
REMARK UNBOUND:                 0.000
REMARK SMILES C=C1CC[C@@H]2C[C@H]1C2(C)C
REMARK SMILES IDX 9 1 8 2 5 3 4 4 3 5 2 6 1 7 7 8 6 9 10 10
REMARK H PARENT
REMARK Flexibility Score: inf
ROOT
ATOM      1  C   UNL     1     134.543 133.675 133.729  1.00  0.00     0.012 C 
ATOM      2  C   UNL     1     133.963 134.309 135.018  1.00  0.00    -0.026 C 
ATOM      3  C   UNL     1     132.481 133.916 135.241  1.00  0.00    -0.004 C 
ATOM      4  C   UNL     1     131.802 134.859 136.285  1.00  0.00     0.008 C 
ATOM      5  C   UNL     1     132.630 134.980 137.621  1.00  0.00     0.031 C 
ATOM      6  C   UNL     1     133.996 134.283 137.524  1.00  0.00    -0.074 C 
ATOM      7  C   UNL     1     134.903 134.391 138.501  1.00  0.00     0.008 C 
ATOM      8  C   UNL     1     134.268 133.456 136.272  1.00  0.00     0.021 C 
ATOM      9  C   UNL     1     132.966 132.680 136.017  1.00  0.00     0.012 C 
ATOM     10  C   UNL     1     134.347 135.814 135.038  1.00  0.00     0.012 C 
ENDROOT
TORSDOF 0
ENDMDL
