MODEL 1
REMARK VINA RESULT:    -5.696      0.000      0.000
REMARK INTER + INTRA:         -15.808
REMARK INTER:                 -13.022
REMARK INTRA:                  -2.787
REMARK UNBOUND:                -2.787
REMARK SMILES CCCCCCCCCCCCCCCCCCCCCCCC(=O)[O-]
REMARK SMILES IDX 13 1 14 2 15 3 16 4 17 5 18 6 19 7 20 8 21 9 22 10 23 11
REMARK SMILES IDX 24 12 25 13 26 14 12 15 11 16 10 17 9 18 8 19 7 20 6 21 5 22
REMARK SMILES IDX 4 23 3 24 2 25 1 26
REMARK H PARENT
REMARK Flexibility Score: inf
ROOT
ATOM      1  C   UNL     1     160.736 158.985 152.054  1.00  0.00     0.000 C 
ENDROOT
BRANCH   1   2
ATOM      2  C   UNL     1     160.492 157.525 151.643  1.00  0.00     0.000 C 
BRANCH   2   3
ATOM      3  C   UNL     1     161.069 157.199 150.256  1.00  0.00     0.000 C 
BRANCH   3   4
ATOM      4  C   UNL     1     160.760 158.322 149.256  1.00  0.00     0.000 C 
BRANCH   4   5
ATOM      5  C   UNL     1     159.354 158.211 148.642  1.00  0.00     0.000 C 
BRANCH   5   6
ATOM      6  C   UNL     1     158.877 156.774 148.347  1.00  0.00     0.000 C 
BRANCH   6   7
ATOM      7  C   UNL     1     157.803 156.230 149.306  1.00  0.00     0.000 C 
BRANCH   7   8
ATOM      8  C   UNL     1     156.958 157.342 149.950  1.00  0.00     0.000 C 
BRANCH   8   9
ATOM      9  C   UNL     1     155.680 156.792 150.621  1.00  0.00     0.000 C 
BRANCH   9  10
ATOM     10  C   UNL     1     154.794 155.960 149.674  1.00  0.00     0.006 C 
BRANCH  10  11
ATOM     11  C   UNL     1     154.094 154.773 150.352  1.00  0.00     0.053 C 
BRANCH  11  12
ATOM     12  C   UNL     1     155.073 153.822 150.973  1.00  0.00     0.041 C 
ATOM     13  O   UNL     1     155.894 153.199 150.251  1.00  0.00    -0.550 OA
ATOM     14  O   UNL     1     155.086 153.635 152.349  1.00  0.00    -0.550 OA
ENDBRANCH  11  12
ENDBRANCH  10  11
ENDBRANCH   9  10
ENDBRANCH   8   9
ENDBRANCH   7   8
ENDBRANCH   6   7
ENDBRANCH   5   6
ENDBRANCH   4   5
ENDBRANCH   3   4
ENDBRANCH   2   3
ENDBRANCH   1   2
BRANCH   1  15
ATOM     15  C   UNL     1     160.442 159.239 153.543  1.00  0.00     0.000 C 
BRANCH  15  16
ATOM     16  C   UNL     1     159.347 160.294 153.755  1.00  0.00     0.000 C 
BRANCH  16  17
ATOM     17  C   UNL     1     158.631 160.672 152.446  1.00  0.00     0.000 C 
BRANCH  17  18
ATOM     18  C   UNL     1     158.648 162.186 152.178  1.00  0.00    -0.000 C 
BRANCH  18  19
ATOM     19  C   UNL     1     158.537 162.523 150.684  1.00  0.00    -0.000 C 
BRANCH  19  20
ATOM     20  C   UNL     1     159.552 161.713 149.863  1.00  0.00    -0.000 C 
BRANCH  20  21
ATOM     21  C   UNL     1     160.223 162.550 148.762  1.00  0.00    -0.000 C 
BRANCH  21  22
ATOM     22  C   UNL     1     161.592 163.105 149.193  1.00  0.00    -0.000 C 
BRANCH  22  23
ATOM     23  C   UNL     1     162.412 162.088 150.003  1.00  0.00    -0.000 C 
BRANCH  23  24
ATOM     24  C   UNL     1     163.866 162.538 150.213  1.00  0.00    -0.000 C 
BRANCH  24  25
ATOM     25  C   UNL     1     164.012 164.046 149.985  1.00  0.00    -0.003 C 
ATOM     26  C   UNL     1     165.289 164.581 150.627  1.00  0.00     0.004 C 
ENDBRANCH  24  25
ENDBRANCH  23  24
ENDBRANCH  22  23
ENDBRANCH  21  22
ENDBRANCH  20  21
ENDBRANCH  19  20
ENDBRANCH  18  19
ENDBRANCH  17  18
ENDBRANCH  16  17
ENDBRANCH  15  16
ENDBRANCH   1  15
TORSDOF 22
ENDMDL
MODEL 2
REMARK VINA RESULT:    -5.532      4.093      8.968
REMARK INTER + INTRA:         -15.433
REMARK INTER:                 -12.662
REMARK INTRA:                  -2.771
REMARK UNBOUND:                -2.787
REMARK SMILES CCCCCCCCCCCCCCCCCCCCCCCC(=O)[O-]
REMARK SMILES IDX 13 1 14 2 15 3 16 4 17 5 18 6 19 7 20 8 21 9 22 10 23 11
REMARK SMILES IDX 24 12 25 13 26 14 12 15 11 16 10 17 9 18 8 19 7 20 6 21 5 22
REMARK SMILES IDX 4 23 3 24 2 25 1 26
REMARK H PARENT
REMARK Flexibility Score: inf
ROOT
ATOM      1  C   UNL     1     160.416 158.898 152.160  1.00  0.00     0.000 C 
ENDROOT
BRANCH   1   2
ATOM      2  C   UNL     1     160.134 159.333 153.607  1.00  0.00     0.000 C 
BRANCH   2   3
ATOM      3  C   UNL     1     159.302 160.622 153.684  1.00  0.00     0.000 C 
BRANCH   3   4
ATOM      4  C   UNL     1     158.571 160.883 152.360  1.00  0.00     0.000 C 
BRANCH   4   5
ATOM      5  C   UNL     1     158.902 162.257 151.751  1.00  0.00     0.000 C 
BRANCH   5   6
ATOM      6  C   UNL     1     158.530 162.424 150.263  1.00  0.00     0.000 C 
BRANCH   6   7
ATOM      7  C   UNL     1     158.995 161.284 149.340  1.00  0.00     0.000 C 
BRANCH   7   8
ATOM      8  C   UNL     1     160.236 161.655 148.510  1.00  0.00     0.000 C 
BRANCH   8   9
ATOM      9  C   UNL     1     161.549 161.451 149.297  1.00  0.00     0.000 C 
BRANCH   9  10
ATOM     10  C   UNL     1     162.256 162.768 149.672  1.00  0.00     0.006 C 
BRANCH  10  11
ATOM     11  C   UNL     1     163.684 162.583 150.205  1.00  0.00     0.053 C 
BRANCH  11  12
ATOM     12  C   UNL     1     164.540 163.787 149.950  1.00  0.00     0.041 C 
ATOM     13  O   UNL     1     164.137 164.932 150.283  1.00  0.00    -0.550 OA
ATOM     14  O   UNL     1     165.788 163.643 149.357  1.00  0.00    -0.550 OA
ENDBRANCH  11  12
ENDBRANCH  10  11
ENDBRANCH   9  10
ENDBRANCH   8   9
ENDBRANCH   7   8
ENDBRANCH   6   7
ENDBRANCH   5   6
ENDBRANCH   4   5
ENDBRANCH   3   4
ENDBRANCH   2   3
ENDBRANCH   1   2
BRANCH   1  15
ATOM     15  C   UNL     1     160.903 157.442 152.063  1.00  0.00     0.000 C 
BRANCH  15  16
ATOM     16  C   UNL     1     160.810 156.884 150.635  1.00  0.00     0.000 C 
BRANCH  16  17
ATOM     17  C   UNL     1     160.457 157.968 149.601  1.00  0.00     0.000 C 
BRANCH  17  18
ATOM     18  C   UNL     1     159.161 157.656 148.836  1.00  0.00    -0.000 C 
BRANCH  18  19
ATOM     19  C   UNL     1     157.913 157.742 149.727  1.00  0.00    -0.000 C 
BRANCH  19  20
ATOM     20  C   UNL     1     157.088 156.450 149.642  1.00  0.00    -0.000 C 
BRANCH  20  21
ATOM     21  C   UNL     1     155.629 156.650 150.082  1.00  0.00    -0.000 C 
BRANCH  21  22
ATOM     22  C   UNL     1     154.843 155.329 150.139  1.00  0.00    -0.000 C 
BRANCH  22  23
ATOM     23  C   UNL     1     154.982 154.617 151.495  1.00  0.00    -0.000 C 
BRANCH  23  24
ATOM     24  C   UNL     1     155.471 153.169 151.353  1.00  0.00    -0.000 C 
BRANCH  24  25
ATOM     25  C   UNL     1     155.915 152.878 149.915  1.00  0.00    -0.003 C 
ATOM     26  C   UNL     1     157.279 152.194 149.886  1.00  0.00     0.004 C 
ENDBRANCH  24  25
ENDBRANCH  23  24
ENDBRANCH  22  23
ENDBRANCH  21  22
ENDBRANCH  20  21
ENDBRANCH  19  20
ENDBRANCH  18  19
ENDBRANCH  17  18
ENDBRANCH  16  17
ENDBRANCH  15  16
ENDBRANCH   1  15
TORSDOF 22
ENDMDL
MODEL 3
REMARK VINA RESULT:    -5.492      4.225      9.063
REMARK INTER + INTRA:         -15.341
REMARK INTER:                 -12.491
REMARK INTRA:                  -2.850
REMARK UNBOUND:                -2.787
REMARK SMILES CCCCCCCCCCCCCCCCCCCCCCCC(=O)[O-]
REMARK SMILES IDX 13 1 14 2 15 3 16 4 17 5 18 6 19 7 20 8 21 9 22 10 23 11
REMARK SMILES IDX 24 12 25 13 26 14 12 15 11 16 10 17 9 18 8 19 7 20 6 21 5 22
REMARK SMILES IDX 4 23 3 24 2 25 1 26
REMARK H PARENT
REMARK Flexibility Score: inf
ROOT
ATOM      1  C   UNL     1     160.651 159.625 153.357  1.00  0.00     0.000 C 
ENDROOT
BRANCH   1   2
ATOM      2  C   UNL     1     159.296 160.320 153.563  1.00  0.00     0.000 C 
BRANCH   2   3
ATOM      3  C   UNL     1     158.604 160.669 152.236  1.00  0.00     0.000 C 
BRANCH   3   4
ATOM      4  C   UNL     1     158.853 162.136 151.857  1.00  0.00     0.000 C 
BRANCH   4   5
ATOM      5  C   UNL     1     158.513 162.443 150.388  1.00  0.00     0.000 C 
BRANCH   5   6
ATOM      6  C   UNL     1     158.864 161.325 149.384  1.00  0.00     0.000 C 
BRANCH   6   7
ATOM      7  C   UNL     1     160.068 161.618 148.471  1.00  0.00     0.000 C 
BRANCH   7   8
ATOM      8  C   UNL     1     161.418 161.419 149.179  1.00  0.00     0.000 C 
BRANCH   8   9
ATOM      9  C   UNL     1     162.082 162.760 149.562  1.00  0.00     0.000 C 
BRANCH   9  10
ATOM     10  C   UNL     1     163.453 162.597 150.248  1.00  0.00     0.006 C 
BRANCH  10  11
ATOM     11  C   UNL     1     164.504 163.622 149.798  1.00  0.00     0.053 C 
BRANCH  11  12
ATOM     12  C   UNL     1     164.372 164.923 150.529  1.00  0.00     0.041 C 
ATOM     13  O   UNL     1     164.609 164.981 151.764  1.00  0.00    -0.550 OA
ATOM     14  O   UNL     1     163.999 166.073 149.845  1.00  0.00    -0.550 OA
ENDBRANCH  11  12
ENDBRANCH  10  11
ENDBRANCH   9  10
ENDBRANCH   8   9
ENDBRANCH   7   8
ENDBRANCH   6   7
ENDBRANCH   5   6
ENDBRANCH   4   5
ENDBRANCH   3   4
ENDBRANCH   2   3
ENDBRANCH   1   2
BRANCH   1  15
ATOM     15  C   UNL     1     160.812 159.050 151.939  1.00  0.00     0.000 C 
BRANCH  15  16
ATOM     16  C   UNL     1     160.559 157.536 151.885  1.00  0.00     0.000 C 
BRANCH  16  17
ATOM     17  C   UNL     1     160.752 156.956 150.473  1.00  0.00     0.000 C 
BRANCH  17  18
ATOM     18  C   UNL     1     160.410 157.968 149.366  1.00  0.00    -0.000 C 
BRANCH  18  19
ATOM     19  C   UNL     1     159.204 157.533 148.520  1.00  0.00    -0.000 C 
BRANCH  19  20
ATOM     20  C   UNL     1     157.891 157.748 149.286  1.00  0.00    -0.000 C 
BRANCH  20  21
ATOM     21  C   UNL     1     157.192 156.426 149.644  1.00  0.00    -0.000 C 
BRANCH  21  22
ATOM     22  C   UNL     1     155.878 156.643 150.414  1.00  0.00    -0.000 C 
BRANCH  22  23
ATOM     23  C   UNL     1     155.040 155.359 150.525  1.00  0.00    -0.000 C 
BRANCH  23  24
ATOM     24  C   UNL     1     155.756 154.135 149.936  1.00  0.00    -0.000 C 
BRANCH  24  25
ATOM     25  C   UNL     1     155.774 152.974 150.937  1.00  0.00    -0.003 C 
ATOM     26  C   UNL     1     154.828 153.238 152.105  1.00  0.00     0.004 C 
ENDBRANCH  24  25
ENDBRANCH  23  24
ENDBRANCH  22  23
ENDBRANCH  21  22
ENDBRANCH  20  21
ENDBRANCH  19  20
ENDBRANCH  18  19
ENDBRANCH  17  18
ENDBRANCH  16  17
ENDBRANCH  15  16
ENDBRANCH   1  15
TORSDOF 22
ENDMDL
MODEL 4
REMARK VINA RESULT:    -5.382      2.757      8.119
REMARK INTER + INTRA:         -15.090
REMARK INTER:                 -12.399
REMARK INTRA:                  -2.692
REMARK UNBOUND:                -2.787
REMARK SMILES CCCCCCCCCCCCCCCCCCCCCCCC(=O)[O-]
REMARK SMILES IDX 13 1 14 2 15 3 16 4 17 5 18 6 19 7 20 8 21 9 22 10 23 11
REMARK SMILES IDX 24 12 25 13 26 14 12 15 11 16 10 17 9 18 8 19 7 20 6 21 5 22
REMARK SMILES IDX 4 23 3 24 2 25 1 26
REMARK H PARENT
REMARK Flexibility Score: inf
ROOT
ATOM      1  C   UNL     1     160.867 158.819 148.967  1.00  0.00     0.000 C 
ENDROOT
BRANCH   1   2
ATOM      2  C   UNL     1     160.307 159.381 147.652  1.00  0.00     0.000 C 
BRANCH   2   3
ATOM      3  C   UNL     1     159.588 160.726 147.844  1.00  0.00     0.000 C 
BRANCH   3   4
ATOM      4  C   UNL     1     160.578 161.822 148.265  1.00  0.00     0.000 C 
BRANCH   4   5
ATOM      5  C   UNL     1     160.219 162.471 149.613  1.00  0.00     0.000 C 
BRANCH   5   6
ATOM      6  C   UNL     1     159.179 161.704 150.456  1.00  0.00     0.000 C 
BRANCH   6   7
ATOM      7  C   UNL     1     158.507 162.524 151.572  1.00  0.00     0.000 C 
BRANCH   7   8
ATOM      8  C   UNL     1     158.554 161.822 152.940  1.00  0.00     0.000 C 
BRANCH   8   9
ATOM      9  C   UNL     1     158.662 160.286 152.806  1.00  0.00     0.000 C 
BRANCH   9  10
ATOM     10  C   UNL     1     159.696 159.654 153.759  1.00  0.00     0.006 C 
BRANCH  10  11
ATOM     11  C   UNL     1     161.056 159.366 153.106  1.00  0.00     0.053 C 
BRANCH  11  12
ATOM     12  C   UNL     1     161.705 158.141 153.676  1.00  0.00     0.041 C 
ATOM     13  O   UNL     1     162.244 158.182 154.812  1.00  0.00    -0.550 OA
ATOM     14  O   UNL     1     161.703 156.952 152.958  1.00  0.00    -0.550 OA
ENDBRANCH  11  12
ENDBRANCH  10  11
ENDBRANCH   9  10
ENDBRANCH   8   9
ENDBRANCH   7   8
ENDBRANCH   6   7
ENDBRANCH   5   6
ENDBRANCH   4   5
ENDBRANCH   3   4
ENDBRANCH   2   3
ENDBRANCH   1   2
BRANCH   1  15
ATOM     15  C   UNL     1     160.244 157.463 149.345  1.00  0.00     0.000 C 
BRANCH  15  16
ATOM     16  C   UNL     1     159.188 157.589 150.454  1.00  0.00     0.000 C 
BRANCH  16  17
ATOM     17  C   UNL     1     157.776 157.843 149.898  1.00  0.00     0.000 C 
BRANCH  17  18
ATOM     18  C   UNL     1     157.009 156.542 149.615  1.00  0.00    -0.000 C 
BRANCH  18  19
ATOM     19  C   UNL     1     155.809 156.347 150.553  1.00  0.00    -0.000 C 
BRANCH  19  20
ATOM     20  C   UNL     1     154.590 155.822 149.781  1.00  0.00    -0.000 C 
BRANCH  20  21
ATOM     21  C   UNL     1     154.173 154.410 150.223  1.00  0.00    -0.000 C 
BRANCH  21  22
ATOM     22  C   UNL     1     154.871 153.967 151.521  1.00  0.00    -0.000 C 
BRANCH  22  23
ATOM     23  C   UNL     1     155.729 152.706 151.330  1.00  0.00    -0.000 C 
BRANCH  23  24
ATOM     24  C   UNL     1     156.348 152.621 149.927  1.00  0.00    -0.000 C 
BRANCH  24  25
ATOM     25  C   UNL     1     157.615 151.760 149.937  1.00  0.00    -0.003 C 
ATOM     26  C   UNL     1     157.848 151.136 151.310  1.00  0.00     0.004 C 
ENDBRANCH  24  25
ENDBRANCH  23  24
ENDBRANCH  22  23
ENDBRANCH  21  22
ENDBRANCH  20  21
ENDBRANCH  19  20
ENDBRANCH  18  19
ENDBRANCH  17  18
ENDBRANCH  16  17
ENDBRANCH  15  16
ENDBRANCH   1  15
TORSDOF 22
ENDMDL
MODEL 5
REMARK VINA RESULT:    -5.352      1.317      3.121
REMARK INTER + INTRA:         -15.022
REMARK INTER:                 -12.582
REMARK INTRA:                  -2.440
REMARK UNBOUND:                -2.787
REMARK SMILES CCCCCCCCCCCCCCCCCCCCCCCC(=O)[O-]
REMARK SMILES IDX 13 1 14 2 15 3 16 4 17 5 18 6 19 7 20 8 21 9 22 10 23 11
REMARK SMILES IDX 24 12 25 13 26 14 12 15 11 16 10 17 9 18 8 19 7 20 6 21 5 22
REMARK SMILES IDX 4 23 3 24 2 25 1 26
REMARK H PARENT
REMARK Flexibility Score: inf
ROOT
ATOM      1  C   UNL     1     158.750 160.701 152.377  1.00  0.00     0.000 C 
ENDROOT
BRANCH   1   2
ATOM      2  C   UNL     1     159.521 160.405 153.671  1.00  0.00     0.000 C 
BRANCH   2   3
ATOM      3  C   UNL     1     160.531 159.258 153.507  1.00  0.00     0.000 C 
BRANCH   3   4
ATOM      4  C   UNL     1     160.766 158.943 152.022  1.00  0.00     0.000 C 
BRANCH   4   5
ATOM      5  C   UNL     1     160.546 157.458 151.681  1.00  0.00     0.000 C 
BRANCH   5   6
ATOM      6  C   UNL     1     160.894 157.059 150.232  1.00  0.00     0.000 C 
BRANCH   6   7
ATOM      7  C   UNL     1     160.335 157.991 149.143  1.00  0.00     0.000 C 
BRANCH   7   8
ATOM      8  C   UNL     1     159.009 157.487 148.549  1.00  0.00     0.000 C 
BRANCH   8   9
ATOM      9  C   UNL     1     157.839 157.597 149.552  1.00  0.00     0.000 C 
BRANCH   9  10
ATOM     10  C   UNL     1     156.931 156.352 149.580  1.00  0.00     0.006 C 
BRANCH  10  11
ATOM     11  C   UNL     1     155.547 156.599 150.197  1.00  0.00     0.053 C 
BRANCH  11  12
ATOM     12  C   UNL     1     154.844 155.319 150.535  1.00  0.00     0.041 C 
ATOM     13  O   UNL     1     155.121 154.708 151.600  1.00  0.00    -0.550 OA
ATOM     14  O   UNL     1     153.874 154.809 149.682  1.00  0.00    -0.550 OA
ENDBRANCH  11  12
ENDBRANCH  10  11
ENDBRANCH   9  10
ENDBRANCH   8   9
ENDBRANCH   7   8
ENDBRANCH   6   7
ENDBRANCH   5   6
ENDBRANCH   4   5
ENDBRANCH   3   4
ENDBRANCH   2   3
ENDBRANCH   1   2
BRANCH   1  15
ATOM     15  C   UNL     1     158.544 162.208 152.141  1.00  0.00     0.000 C 
BRANCH  15  16
ATOM     16  C   UNL     1     158.613 162.586 150.654  1.00  0.00     0.000 C 
BRANCH  16  17
ATOM     17  C   UNL     1     158.913 161.376 149.751  1.00  0.00     0.000 C 
BRANCH  17  18
ATOM     18  C   UNL     1     159.968 161.686 148.677  1.00  0.00    -0.000 C 
BRANCH  18  19
ATOM     19  C   UNL     1     161.398 161.387 149.149  1.00  0.00    -0.000 C 
BRANCH  19  20
ATOM     20  C   UNL     1     162.063 162.650 149.716  1.00  0.00    -0.000 C 
BRANCH  20  21
ATOM     21  C   UNL     1     163.448 162.367 150.323  1.00  0.00    -0.000 C 
BRANCH  21  22
ATOM     22  C   UNL     1     164.537 163.302 149.769  1.00  0.00    -0.000 C 
BRANCH  22  23
ATOM     23  C   UNL     1     164.800 164.509 150.684  1.00  0.00    -0.000 C 
BRANCH  23  24
ATOM     24  C   UNL     1     164.026 165.761 150.246  1.00  0.00    -0.000 C 
BRANCH  24  25
ATOM     25  C   UNL     1     163.889 166.755 151.404  1.00  0.00    -0.003 C 
ATOM     26  C   UNL     1     162.991 167.928 151.022  1.00  0.00     0.004 C 
ENDBRANCH  24  25
ENDBRANCH  23  24
ENDBRANCH  22  23
ENDBRANCH  21  22
ENDBRANCH  20  21
ENDBRANCH  19  20
ENDBRANCH  18  19
ENDBRANCH  17  18
ENDBRANCH  16  17
ENDBRANCH  15  16
ENDBRANCH   1  15
TORSDOF 22
ENDMDL
MODEL 6
REMARK VINA RESULT:    -5.289      1.279      2.006
REMARK INTER + INTRA:         -14.878
REMARK INTER:                 -12.271
REMARK INTRA:                  -2.607
REMARK UNBOUND:                -2.787
REMARK SMILES CCCCCCCCCCCCCCCCCCCCCCCC(=O)[O-]
REMARK SMILES IDX 13 1 14 2 15 3 16 4 17 5 18 6 19 7 20 8 21 9 22 10 23 11
REMARK SMILES IDX 24 12 25 13 26 14 12 15 11 16 10 17 9 18 8 19 7 20 6 21 5 22
REMARK SMILES IDX 4 23 3 24 2 25 1 26
REMARK H PARENT
REMARK Flexibility Score: inf
ROOT
ATOM      1  C   UNL     1     161.114 157.283 152.405  1.00  0.00     0.000 C 
ENDROOT
BRANCH   1   2
ATOM      2  C   UNL     1     161.105 156.665 150.999  1.00  0.00     0.000 C 
BRANCH   2   3
ATOM      3  C   UNL     1     160.722 157.679 149.911  1.00  0.00     0.000 C 
BRANCH   3   4
ATOM      4  C   UNL     1     159.633 157.110 148.990  1.00  0.00     0.000 C 
BRANCH   4   5
ATOM      5  C   UNL     1     158.348 157.957 148.984  1.00  0.00     0.000 C 
BRANCH   5   6
ATOM      6  C   UNL     1     157.290 157.553 150.032  1.00  0.00     0.000 C 
BRANCH   6   7
ATOM      7  C   UNL     1     156.577 156.216 149.762  1.00  0.00     0.000 C 
BRANCH   7   8
ATOM      8  C   UNL     1     155.431 155.940 150.749  1.00  0.00     0.000 C 
BRANCH   8   9
ATOM      9  C   UNL     1     154.663 154.644 150.407  1.00  0.00     0.000 C 
BRANCH   9  10
ATOM     10  C   UNL     1     155.217 153.392 151.114  1.00  0.00     0.006 C 
BRANCH  10  11
ATOM     11  C   UNL     1     156.165 152.550 150.248  1.00  0.00     0.053 C 
BRANCH  11  12
ATOM     12  C   UNL     1     156.774 151.417 151.018  1.00  0.00     0.041 C 
ATOM     13  O   UNL     1     156.042 150.508 151.490  1.00  0.00    -0.550 OA
ATOM     14  O   UNL     1     158.149 151.358 151.202  1.00  0.00    -0.550 OA
ENDBRANCH  11  12
ENDBRANCH  10  11
ENDBRANCH   9  10
ENDBRANCH   8   9
ENDBRANCH   7   8
ENDBRANCH   6   7
ENDBRANCH   5   6
ENDBRANCH   4   5
ENDBRANCH   3   4
ENDBRANCH   2   3
ENDBRANCH   1   2
BRANCH   1  15
ATOM     15  C   UNL     1     160.730 158.774 152.400  1.00  0.00     0.000 C 
BRANCH  15  16
ATOM     16  C   UNL     1     160.183 159.246 153.755  1.00  0.00     0.000 C 
BRANCH  16  17
ATOM     17  C   UNL     1     159.172 160.397 153.614  1.00  0.00     0.000 C 
BRANCH  17  18
ATOM     18  C   UNL     1     158.840 160.717 152.147  1.00  0.00    -0.000 C 
BRANCH  18  19
ATOM     19  C   UNL     1     158.668 162.222 151.895  1.00  0.00    -0.000 C 
BRANCH  19  20
ATOM     20  C   UNL     1     158.822 162.549 150.403  1.00  0.00    -0.000 C 
BRANCH  20  21
ATOM     21  C   UNL     1     159.070 161.297 149.546  1.00  0.00    -0.000 C 
BRANCH  21  22
ATOM     22  C   UNL     1     160.415 161.349 148.800  1.00  0.00    -0.000 C 
BRANCH  22  23
ATOM     23  C   UNL     1     161.617 161.445 149.754  1.00  0.00    -0.000 C 
BRANCH  23  24
ATOM     24  C   UNL     1     162.327 162.804 149.671  1.00  0.00    -0.000 C 
BRANCH  24  25
ATOM     25  C   UNL     1     163.773 162.699 150.169  1.00  0.00    -0.003 C 
ATOM     26  C   UNL     1     164.527 164.008 149.956  1.00  0.00     0.004 C 
ENDBRANCH  24  25
ENDBRANCH  23  24
ENDBRANCH  22  23
ENDBRANCH  21  22
ENDBRANCH  20  21
ENDBRANCH  19  20
ENDBRANCH  18  19
ENDBRANCH  17  18
ENDBRANCH  16  17
ENDBRANCH  15  16
ENDBRANCH   1  15
TORSDOF 22
ENDMDL
MODEL 7
REMARK VINA RESULT:    -5.288      3.448      5.745
REMARK INTER + INTRA:         -14.875
REMARK INTER:                 -12.295
REMARK INTRA:                  -2.580
REMARK UNBOUND:                -2.787
REMARK SMILES CCCCCCCCCCCCCCCCCCCCCCCC(=O)[O-]
REMARK SMILES IDX 13 1 14 2 15 3 16 4 17 5 18 6 19 7 20 8 21 9 22 10 23 11
REMARK SMILES IDX 24 12 25 13 26 14 12 15 11 16 10 17 9 18 8 19 7 20 6 21 5 22
REMARK SMILES IDX 4 23 3 24 2 25 1 26
REMARK H PARENT
REMARK Flexibility Score: inf
ROOT
ATOM      1  C   UNL     1     159.322 161.952 149.380  1.00  0.00     0.000 C 
ENDROOT
BRANCH   1   2
ATOM      2  C   UNL     1     158.663 160.686 148.814  1.00  0.00     0.000 C 
BRANCH   2   3
ATOM      3  C   UNL     1     159.237 160.282 147.447  1.00  0.00     0.000 C 
BRANCH   3   4
ATOM      4  C   UNL     1     160.000 158.953 147.543  1.00  0.00     0.000 C 
BRANCH   4   5
ATOM      5  C   UNL     1     159.114 157.784 148.006  1.00  0.00     0.000 C 
BRANCH   5   6
ATOM      6  C   UNL     1     159.540 157.120 149.332  1.00  0.00     0.000 C 
BRANCH   6   7
ATOM      7  C   UNL     1     160.688 157.824 150.077  1.00  0.00     0.000 C 
BRANCH   7   8
ATOM      8  C   UNL     1     160.505 157.813 151.604  1.00  0.00     0.000 C 
BRANCH   8   9
ATOM      9  C   UNL     1     160.393 159.238 152.190  1.00  0.00     0.000 C 
BRANCH   9  10
ATOM     10  C   UNL     1     158.946 159.762 152.266  1.00  0.00     0.006 C 
BRANCH  10  11
ATOM     11  C   UNL     1     158.499 160.165 153.679  1.00  0.00     0.053 C 
BRANCH  11  12
ATOM     12  C   UNL     1     157.897 161.537 153.709  1.00  0.00     0.041 C 
ATOM     13  O   UNL     1     158.134 162.352 152.780  1.00  0.00    -0.550 OA
ATOM     14  O   UNL     1     157.064 161.911 154.756  1.00  0.00    -0.550 OA
ENDBRANCH  11  12
ENDBRANCH  10  11
ENDBRANCH   9  10
ENDBRANCH   8   9
ENDBRANCH   7   8
ENDBRANCH   6   7
ENDBRANCH   5   6
ENDBRANCH   4   5
ENDBRANCH   3   4
ENDBRANCH   2   3
ENDBRANCH   1   2
BRANCH   1  15
ATOM     15  C   UNL     1     160.461 162.477 148.488  1.00  0.00     0.000 C 
BRANCH  15  16
ATOM     16  C   UNL     1     161.651 163.005 149.302  1.00  0.00     0.000 C 
BRANCH  16  17
ATOM     17  C   UNL     1     162.396 161.885 150.050  1.00  0.00     0.000 C 
BRANCH  17  18
ATOM     18  C   UNL     1     163.854 162.255 150.369  1.00  0.00    -0.000 C 
BRANCH  18  19
ATOM     19  C   UNL     1     164.212 163.682 149.928  1.00  0.00    -0.000 C 
BRANCH  19  20
ATOM     20  C   UNL     1     164.735 164.506 151.113  1.00  0.00    -0.000 C 
BRANCH  20  21
ATOM     21  C   UNL     1     164.345 165.990 151.020  1.00  0.00    -0.000 C 
BRANCH  21  22
ATOM     22  C   UNL     1     163.257 166.250 149.964  1.00  0.00    -0.000 C 
BRANCH  22  23
ATOM     23  C   UNL     1     163.111 167.741 149.620  1.00  0.00    -0.000 C 
BRANCH  23  24
ATOM     24  C   UNL     1     162.965 168.622 150.869  1.00  0.00    -0.000 C 
BRANCH  24  25
ATOM     25  C   UNL     1     161.895 169.700 150.659  1.00  0.00    -0.003 C 
ATOM     26  C   UNL     1     160.925 169.306 149.550  1.00  0.00     0.004 C 
ENDBRANCH  24  25
ENDBRANCH  23  24
ENDBRANCH  22  23
ENDBRANCH  21  22
ENDBRANCH  20  21
ENDBRANCH  19  20
ENDBRANCH  18  19
ENDBRANCH  17  18
ENDBRANCH  16  17
ENDBRANCH  15  16
ENDBRANCH   1  15
TORSDOF 22
ENDMDL
MODEL 8
REMARK VINA RESULT:    -5.255      5.054      9.457
REMARK INTER + INTRA:         -14.800
REMARK INTER:                 -12.162
REMARK INTRA:                  -2.638
REMARK UNBOUND:                -2.787
REMARK SMILES CCCCCCCCCCCCCCCCCCCCCCCC(=O)[O-]
REMARK SMILES IDX 13 1 14 2 15 3 16 4 17 5 18 6 19 7 20 8 21 9 22 10 23 11
REMARK SMILES IDX 24 12 25 13 26 14 12 15 11 16 10 17 9 18 8 19 7 20 6 21 5 22
REMARK SMILES IDX 4 23 3 24 2 25 1 26
REMARK H PARENT
REMARK Flexibility Score: inf
ROOT
ATOM      1  C   UNL     1     159.808 160.690 147.524  1.00  0.00     0.000 C 
ENDROOT
BRANCH   1   2
ATOM      2  C   UNL     1     159.378 161.281 148.875  1.00  0.00     0.000 C 
BRANCH   2   3
ATOM      3  C   UNL     1     160.225 162.497 149.283  1.00  0.00     0.000 C 
BRANCH   3   4
ATOM      4  C   UNL     1     161.554 162.053 149.911  1.00  0.00     0.000 C 
BRANCH   4   5
ATOM      5  C   UNL     1     162.696 163.057 149.674  1.00  0.00     0.000 C 
BRANCH   5   6
ATOM      6  C   UNL     1     164.107 162.543 150.027  1.00  0.00     0.000 C 
BRANCH   6   7
ATOM      7  C   UNL     1     165.255 163.524 149.729  1.00  0.00     0.000 C 
BRANCH   7   8
ATOM      8  C   UNL     1     164.863 164.992 149.966  1.00  0.00     0.000 C 
BRANCH   8   9
ATOM      9  C   UNL     1     164.912 165.376 151.462  1.00  0.00     0.000 C 
BRANCH   9  10
ATOM     10  C   UNL     1     164.194 166.702 151.784  1.00  0.00     0.006 C 
BRANCH  10  11
ATOM     11  C   UNL     1     163.366 167.265 150.620  1.00  0.00     0.053 C 
BRANCH  11  12
ATOM     12  C   UNL     1     162.649 168.526 150.997  1.00  0.00     0.041 C 
ATOM     13  O   UNL     1     161.395 168.593 150.902  1.00  0.00    -0.550 OA
ATOM     14  O   UNL     1     163.362 169.620 151.467  1.00  0.00    -0.550 OA
ENDBRANCH  11  12
ENDBRANCH  10  11
ENDBRANCH   9  10
ENDBRANCH   8   9
ENDBRANCH   7   8
ENDBRANCH   6   7
ENDBRANCH   5   6
ENDBRANCH   4   5
ENDBRANCH   3   4
ENDBRANCH   2   3
ENDBRANCH   1   2
BRANCH   1  15
ATOM     15  C   UNL     1     160.353 159.256 147.651  1.00  0.00     0.000 C 
BRANCH  15  16
ATOM     16  C   UNL     1     159.274 158.192 147.401  1.00  0.00     0.000 C 
BRANCH  16  17
ATOM     17  C   UNL     1     159.211 157.141 148.523  1.00  0.00     0.000 C 
BRANCH  17  18
ATOM     18  C   UNL     1     158.045 157.383 149.495  1.00  0.00    -0.000 C 
BRANCH  18  19
ATOM     19  C   UNL     1     158.457 158.219 150.715  1.00  0.00    -0.000 C 
BRANCH  19  20
ATOM     20  C   UNL     1     159.938 158.001 151.055  1.00  0.00    -0.000 C 
BRANCH  20  21
ATOM     21  C   UNL     1     160.557 159.195 151.799  1.00  0.00    -0.000 C 
BRANCH  21  22
ATOM     22  C   UNL     1     160.289 159.152 153.313  1.00  0.00    -0.000 C 
BRANCH  22  23
ATOM     23  C   UNL     1     159.170 160.114 153.742  1.00  0.00    -0.000 C 
BRANCH  23  24
ATOM     24  C   UNL     1     158.930 161.234 152.719  1.00  0.00    -0.000 C 
BRANCH  24  25
ATOM     25  C   UNL     1     157.837 162.193 153.202  1.00  0.00    -0.003 C 
ATOM     26  C   UNL     1     157.225 161.718 154.516  1.00  0.00     0.004 C 
ENDBRANCH  24  25
ENDBRANCH  23  24
ENDBRANCH  22  23
ENDBRANCH  21  22
ENDBRANCH  20  21
ENDBRANCH  19  20
ENDBRANCH  18  19
ENDBRANCH  17  18
ENDBRANCH  16  17
ENDBRANCH  15  16
ENDBRANCH   1  15
TORSDOF 22
ENDMDL
MODEL 9
REMARK VINA RESULT:    -5.163      1.999      4.760
REMARK INTER + INTRA:         -14.591
REMARK INTER:                 -11.914
REMARK INTRA:                  -2.676
REMARK UNBOUND:                -2.787
REMARK SMILES CCCCCCCCCCCCCCCCCCCCCCCC(=O)[O-]
REMARK SMILES IDX 13 1 14 2 15 3 16 4 17 5 18 6 19 7 20 8 21 9 22 10 23 11
REMARK SMILES IDX 24 12 25 13 26 14 12 15 11 16 10 17 9 18 8 19 7 20 6 21 5 22
REMARK SMILES IDX 4 23 3 24 2 25 1 26
REMARK H PARENT
REMARK Flexibility Score: inf
ROOT
ATOM      1  C   UNL     1     158.712 162.642 150.733  1.00  0.00     0.000 C 
ENDROOT
BRANCH   1   2
ATOM      2  C   UNL     1     158.605 162.103 152.167  1.00  0.00     0.000 C 
BRANCH   2   3
ATOM      3  C   UNL     1     158.736 160.573 152.233  1.00  0.00     0.000 C 
BRANCH   3   4
ATOM      4  C   UNL     1     159.264 160.127 153.605  1.00  0.00     0.000 C 
BRANCH   4   5
ATOM      5  C   UNL     1     160.502 159.220 153.506  1.00  0.00     0.000 C 
BRANCH   5   6
ATOM      6  C   UNL     1     160.901 158.804 152.075  1.00  0.00     0.000 C 
BRANCH   6   7
ATOM      7  C   UNL     1     160.829 157.294 151.788  1.00  0.00     0.000 C 
BRANCH   7   8
ATOM      8  C   UNL     1     160.976 156.962 150.293  1.00  0.00     0.000 C 
BRANCH   8   9
ATOM      9  C   UNL     1     160.487 158.114 149.387  1.00  0.00     0.000 C 
BRANCH   9  10
ATOM     10  C   UNL     1     159.340 157.711 148.439  1.00  0.00     0.006 C 
BRANCH  10  11
ATOM     11  C   UNL     1     158.606 156.428 148.853  1.00  0.00     0.053 C 
BRANCH  11  12
ATOM     12  C   UNL     1     157.387 156.718 149.677  1.00  0.00     0.041 C 
ATOM     13  O   UNL     1     157.314 157.782 150.345  1.00  0.00    -0.550 OA
ATOM     14  O   UNL     1     156.328 155.820 149.696  1.00  0.00    -0.550 OA
ENDBRANCH  11  12
ENDBRANCH  10  11
ENDBRANCH   9  10
ENDBRANCH   8   9
ENDBRANCH   7   8
ENDBRANCH   6   7
ENDBRANCH   5   6
ENDBRANCH   4   5
ENDBRANCH   3   4
ENDBRANCH   2   3
ENDBRANCH   1   2
BRANCH   1  15
ATOM     15  C   UNL     1     158.977 161.532 149.700  1.00  0.00     0.000 C 
BRANCH  15  16
ATOM     16  C   UNL     1     160.270 161.766 148.904  1.00  0.00     0.000 C 
BRANCH  16  17
ATOM     17  C   UNL     1     161.529 161.663 149.782  1.00  0.00     0.000 C 
BRANCH  17  18
ATOM     18  C   UNL     1     162.455 162.882 149.633  1.00  0.00    -0.000 C 
BRANCH  18  19
ATOM     19  C   UNL     1     163.778 162.715 150.395  1.00  0.00    -0.000 C 
BRANCH  19  20
ATOM     20  C   UNL     1     164.926 163.422 149.661  1.00  0.00    -0.000 C 
BRANCH  20  21
ATOM     21  C   UNL     1     164.870 164.951 149.809  1.00  0.00    -0.000 C 
BRANCH  21  22
ATOM     22  C   UNL     1     164.508 165.393 151.238  1.00  0.00    -0.000 C 
BRANCH  22  23
ATOM     23  C   UNL     1     163.991 166.840 151.296  1.00  0.00    -0.000 C 
BRANCH  23  24
ATOM     24  C   UNL     1     163.383 167.302 149.963  1.00  0.00    -0.000 C 
BRANCH  24  25
ATOM     25  C   UNL     1     161.923 167.731 150.146  1.00  0.00    -0.003 C 
ATOM     26  C   UNL     1     161.778 168.718 151.300  1.00  0.00     0.004 C 
ENDBRANCH  24  25
ENDBRANCH  23  24
ENDBRANCH  22  23
ENDBRANCH  21  22
ENDBRANCH  20  21
ENDBRANCH  19  20
ENDBRANCH  18  19
ENDBRANCH  17  18
ENDBRANCH  16  17
ENDBRANCH  15  16
ENDBRANCH   1  15
TORSDOF 22
ENDMDL
