MODEL 1
REMARK VINA RESULT:    -4.540      0.000      0.000
REMARK INTER + INTRA:          -5.654
REMARK INTER:                  -5.336
REMARK INTRA:                  -0.318
REMARK UNBOUND:                -0.318
REMARK SMILES O=c1cc(-c2ccc(O)c(O)c2)oc2cc(O)cc(O)c12
REMARK SMILES IDX 4 1 3 2 2 3 1 4 21 5 19 6 18 7 16 8 15 9 14 10 13 11 5 12
REMARK SMILES IDX 6 13 7 14 8 15 12 16 10 17 9 18 11 20 20 22 17 24
REMARK H PARENT 9 19 11 21 20 23 17 25
REMARK Flexibility Score: inf
ROOT
ATOM      1  C   UNL     1      -9.978   6.190  -4.122  1.00  0.00     0.138 A 
ATOM      2  C   UNL     1      -9.858   6.946  -5.297  1.00  0.00     0.100 A 
ATOM      3  C   UNL     1      -9.820   6.298  -6.532  1.00  0.00     0.197 A 
ATOM      4  O   UNL     1      -9.656   7.000  -7.563  1.00  0.00    -0.289 OA
ATOM      5  C   UNL     1      -9.941   4.889  -6.593  1.00  0.00     0.107 A 
ATOM      6  C   UNL     1      -9.951   4.124  -7.798  1.00  0.00     0.134 A 
ATOM      7  C   UNL     1      -9.977   2.726  -7.727  1.00  0.00     0.093 A 
ATOM      8  C   UNL     1     -10.051   2.067  -6.501  1.00  0.00     0.123 A 
ATOM      9  C   UNL     1     -10.093   2.806  -5.318  1.00  0.00     0.094 A 
ATOM     10  C   UNL     1     -10.034   4.201  -5.353  1.00  0.00     0.146 A 
ATOM     11  O   UNL     1     -10.058   4.867  -4.203  1.00  0.00    -0.456 OA
ENDROOT
BRANCH   1  12
ATOM     12  C   UNL     1     -10.026   6.827  -2.781  1.00  0.00     0.021 A 
ATOM     13  C   UNL     1     -10.023   8.226  -2.625  1.00  0.00     0.016 A 
ATOM     14  C   UNL     1     -10.058   8.796  -1.349  1.00  0.00     0.051 A 
ATOM     15  C   UNL     1     -10.089   7.983  -0.210  1.00  0.00     0.157 A 
ATOM     16  C   UNL     1     -10.042   6.017  -1.631  1.00  0.00     0.062 A 
ATOM     17  C   UNL     1     -10.078   6.586  -0.353  1.00  0.00     0.158 A 
BRANCH  15  18
ATOM     18  O   UNL     1     -10.125   8.555   1.061  1.00  0.00    -0.504 OA
ATOM     19  H   UNL     1     -10.061   9.558   1.192  1.00  0.00     0.293 HD
ENDBRANCH  15  18
BRANCH  17  20
ATOM     20  O   UNL     1     -10.103   5.747   0.761  1.00  0.00    -0.504 OA
ATOM     21  H   UNL     1      -9.261   5.498   1.266  1.00  0.00     0.293 HD
ENDBRANCH  17  20
ENDBRANCH   1  12
BRANCH   6  22
ATOM     22  O   UNL     1      -9.959   4.681  -9.080  1.00  0.00    -0.507 OA
ATOM     23  H   UNL     1      -9.932   4.157  -9.940  1.00  0.00     0.293 HD
ENDBRANCH   6  22
BRANCH   8  24
ATOM     24  O   UNL     1     -10.090   0.674  -6.469  1.00  0.00    -0.508 OA
ATOM     25  H   UNL     1     -10.611   0.143  -7.157  1.00  0.00     0.293 HD
ENDBRANCH   8  24
TORSDOF 5
ENDMDL
MODEL 2
REMARK VINA RESULT:    -4.525     18.504     20.240
REMARK INTER + INTRA:          -5.637
REMARK INTER:                  -5.359
REMARK INTRA:                  -0.278
REMARK UNBOUND:                -0.318
REMARK SMILES O=c1cc(-c2ccc(O)c(O)c2)oc2cc(O)cc(O)c12
REMARK SMILES IDX 4 1 3 2 2 3 1 4 21 5 19 6 18 7 16 8 15 9 14 10 13 11 5 12
REMARK SMILES IDX 6 13 7 14 8 15 12 16 10 17 9 18 11 20 20 22 17 24
REMARK H PARENT 9 19 11 21 20 23 17 25
REMARK Flexibility Score: inf
ROOT
ATOM      1  C   UNL     1      -4.529  -7.880   8.630  1.00  0.00     0.138 A 
ATOM      2  C   UNL     1      -4.031  -8.944   7.864  1.00  0.00     0.100 A 
ATOM      3  C   UNL     1      -2.654  -9.086   7.694  1.00  0.00     0.197 A 
ATOM      4  O   UNL     1      -2.242 -10.018   6.956  1.00  0.00    -0.289 OA
ATOM      5  C   UNL     1      -1.769  -8.179   8.325  1.00  0.00     0.107 A 
ATOM      6  C   UNL     1      -0.345  -8.247   8.251  1.00  0.00     0.134 A 
ATOM      7  C   UNL     1       0.425  -7.234   8.837  1.00  0.00     0.093 A 
ATOM      8  C   UNL     1      -0.172  -6.190   9.542  1.00  0.00     0.123 A 
ATOM      9  C   UNL     1      -1.561  -6.141   9.664  1.00  0.00     0.094 A 
ATOM     10  C   UNL     1      -2.359  -7.117   9.061  1.00  0.00     0.146 A 
ATOM     11  O   UNL     1      -3.679  -7.024   9.186  1.00  0.00    -0.456 OA
ENDROOT
BRANCH   1  12
ATOM     12  C   UNL     1      -5.985  -7.682   8.846  1.00  0.00     0.021 A 
ATOM     13  C   UNL     1      -6.573  -6.404   8.803  1.00  0.00     0.016 A 
ATOM     14  C   UNL     1      -7.945  -6.248   9.021  1.00  0.00     0.051 A 
ATOM     15  C   UNL     1      -8.750  -7.361   9.293  1.00  0.00     0.157 A 
ATOM     16  C   UNL     1      -6.798  -8.793   9.135  1.00  0.00     0.062 A 
ATOM     17  C   UNL     1      -8.172  -8.639   9.353  1.00  0.00     0.158 A 
BRANCH  15  18
ATOM     18  O   UNL     1     -10.118  -7.202   9.509  1.00  0.00    -0.504 OA
ATOM     19  H   UNL     1     -10.597  -6.342   9.264  1.00  0.00     0.293 HD
ENDBRANCH  15  18
BRANCH  17  20
ATOM     20  O   UNL     1      -8.945  -9.768   9.626  1.00  0.00    -0.504 OA
ATOM     21  H   UNL     1      -8.617 -10.706   9.427  1.00  0.00     0.293 HD
ENDBRANCH  17  20
ENDBRANCH   1  12
BRANCH   6  22
ATOM     22  O   UNL     1       0.360  -9.288   7.640  1.00  0.00    -0.507 OA
ATOM     23  H   UNL     1       1.123  -9.795   8.059  1.00  0.00     0.293 HD
ENDBRANCH   6  22
BRANCH   8  24
ATOM     24  O   UNL     1       0.627  -5.208  10.125  1.00  0.00    -0.508 OA
ATOM     25  H   UNL     1       1.218  -4.604   9.566  1.00  0.00     0.293 HD
ENDBRANCH   8  24
TORSDOF 5
ENDMDL
MODEL 3
REMARK VINA RESULT:    -4.438     18.212     20.158
REMARK INTER + INTRA:          -5.534
REMARK INTER:                  -5.271
REMARK INTRA:                  -0.263
REMARK UNBOUND:                -0.318
REMARK SMILES O=c1cc(-c2ccc(O)c(O)c2)oc2cc(O)cc(O)c12
REMARK SMILES IDX 4 1 3 2 2 3 1 4 21 5 19 6 18 7 16 8 15 9 14 10 13 11 5 12
REMARK SMILES IDX 6 13 7 14 8 15 12 16 10 17 9 18 11 20 20 22 17 24
REMARK H PARENT 9 19 11 21 20 23 17 25
REMARK Flexibility Score: inf
ROOT
ATOM      1  C   UNL     1      -5.017  -7.864   8.521  1.00  0.00     0.138 A 
ATOM      2  C   UNL     1      -4.876  -6.553   8.997  1.00  0.00     0.100 A 
ATOM      3  C   UNL     1      -3.602  -6.048   9.261  1.00  0.00     0.197 A 
ATOM      4  O   UNL     1      -3.513  -4.888   9.740  1.00  0.00    -0.289 OA
ATOM      5  C   UNL     1      -2.462  -6.848   9.011  1.00  0.00     0.107 A 
ATOM      6  C   UNL     1      -1.112  -6.427   9.209  1.00  0.00     0.134 A 
ATOM      7  C   UNL     1      -0.069  -7.343   9.021  1.00  0.00     0.093 A 
ATOM      8  C   UNL     1      -0.320  -8.643   8.587  1.00  0.00     0.123 A 
ATOM      9  C   UNL     1      -1.632  -9.051   8.341  1.00  0.00     0.094 A 
ATOM     10  C   UNL     1      -2.697  -8.172   8.553  1.00  0.00     0.146 A 
ATOM     11  O   UNL     1      -3.933  -8.606   8.325  1.00  0.00    -0.456 OA
ENDROOT
BRANCH   1  12
ATOM     12  C   UNL     1      -6.347  -8.451   8.221  1.00  0.00     0.021 A 
ATOM     13  C   UNL     1      -7.102  -9.117   9.206  1.00  0.00     0.016 A 
ATOM     14  C   UNL     1      -8.347  -9.669   8.891  1.00  0.00     0.051 A 
ATOM     15  C   UNL     1      -8.856  -9.573   7.590  1.00  0.00     0.157 A 
ATOM     16  C   UNL     1      -6.860  -8.373   6.914  1.00  0.00     0.062 A 
ATOM     17  C   UNL     1      -8.106  -8.923   6.597  1.00  0.00     0.158 A 
BRANCH  15  18
ATOM     18  O   UNL     1     -10.098 -10.124   7.280  1.00  0.00    -0.504 OA
ATOM     19  H   UNL     1     -10.202 -11.107   7.056  1.00  0.00     0.293 HD
ENDBRANCH  15  18
BRANCH  17  20
ATOM     20  O   UNL     1      -8.582  -8.815   5.290  1.00  0.00    -0.504 OA
ATOM     21  H   UNL     1      -8.381  -9.514   4.584  1.00  0.00     0.293 HD
ENDBRANCH  17  20
ENDBRANCH   1  12
BRANCH   6  22
ATOM     22  O   UNL     1      -0.741  -5.128   9.566  1.00  0.00    -0.507 OA
ATOM     23  H   UNL     1      -1.034  -4.289   9.088  1.00  0.00     0.293 HD
ENDBRANCH   6  22
BRANCH   8  24
ATOM     24  O   UNL     1       0.744  -9.522   8.396  1.00  0.00    -0.508 OA
ATOM     25  H   UNL     1       1.691  -9.272   8.652  1.00  0.00     0.293 HD
ENDBRANCH   8  24
TORSDOF 5
ENDMDL
MODEL 4
REMARK VINA RESULT:    -4.407      7.909      9.988
REMARK INTER + INTRA:          -5.498
REMARK INTER:                  -5.180
REMARK INTRA:                  -0.318
REMARK UNBOUND:                -0.318
REMARK SMILES O=c1cc(-c2ccc(O)c(O)c2)oc2cc(O)cc(O)c12
REMARK SMILES IDX 4 1 3 2 2 3 1 4 21 5 19 6 18 7 16 8 15 9 14 10 13 11 5 12
REMARK SMILES IDX 6 13 7 14 8 15 12 16 10 17 9 18 11 20 20 22 17 24
REMARK H PARENT 9 19 11 21 20 23 17 25
REMARK Flexibility Score: inf
ROOT
ATOM      1  C   UNL     1      -3.786   7.274  -9.680  1.00  0.00     0.138 A 
ATOM      2  C   UNL     1      -3.184   8.528  -9.504  1.00  0.00     0.100 A 
ATOM      3  C   UNL     1      -1.792   8.630  -9.499  1.00  0.00     0.197 A 
ATOM      4  O   UNL     1      -1.283   9.760  -9.284  1.00  0.00    -0.289 OA
ATOM      5  C   UNL     1      -1.001   7.476  -9.709  1.00  0.00     0.107 A 
ATOM      6  C   UNL     1       0.426   7.465  -9.759  1.00  0.00     0.134 A 
ATOM      7  C   UNL     1       1.103   6.244  -9.874  1.00  0.00     0.093 A 
ATOM      8  C   UNL     1       0.408   5.043  -9.997  1.00  0.00     0.123 A 
ATOM      9  C   UNL     1      -0.988   5.046 -10.000  1.00  0.00     0.094 A 
ATOM     10  C   UNL     1      -1.692   6.243  -9.853  1.00  0.00     0.146 A 
ATOM     11  O   UNL     1      -3.021   6.201  -9.843  1.00  0.00    -0.456 OA
ENDROOT
BRANCH   1  12
ATOM     12  C   UNL     1      -5.261   7.108  -9.696  1.00  0.00     0.021 A 
ATOM     13  C   UNL     1      -6.133   8.198  -9.509  1.00  0.00     0.016 A 
ATOM     14  C   UNL     1      -7.517   8.008  -9.519  1.00  0.00     0.051 A 
ATOM     15  C   UNL     1      -8.055   6.730  -9.708  1.00  0.00     0.157 A 
ATOM     16  C   UNL     1      -5.811   5.825  -9.871  1.00  0.00     0.062 A 
ATOM     17  C   UNL     1      -7.197   5.632  -9.882  1.00  0.00     0.158 A 
BRANCH  15  18
ATOM     18  O   UNL     1      -9.437   6.545  -9.718  1.00  0.00    -0.504 OA
ATOM     19  H   UNL     1      -9.990   6.719 -10.550  1.00  0.00     0.293 HD
ENDBRANCH  15  18
BRANCH  17  20
ATOM     20  O   UNL     1      -7.701   4.345 -10.068  1.00  0.00    -0.504 OA
ATOM     21  H   UNL     1      -8.385   3.939  -9.440  1.00  0.00     0.293 HD
ENDBRANCH  17  20
ENDBRANCH   1  12
BRANCH   6  22
ATOM     22  O   UNL     1       1.220   8.615  -9.724  1.00  0.00    -0.507 OA
ATOM     23  H   UNL     1       1.153   9.345  -9.032  1.00  0.00     0.293 HD
ENDBRANCH   6  22
BRANCH   8  24
ATOM     24  O   UNL     1       1.115   3.849 -10.125  1.00  0.00    -0.508 OA
ATOM     25  H   UNL     1       0.721   3.048 -10.603  1.00  0.00     0.293 HD
ENDBRANCH   8  24
TORSDOF 5
ENDMDL
MODEL 5
REMARK VINA RESULT:    -4.362     17.087     19.965
REMARK INTER + INTRA:          -5.445
REMARK INTER:                  -5.151
REMARK INTRA:                  -0.295
REMARK UNBOUND:                -0.318
REMARK SMILES O=c1cc(-c2ccc(O)c(O)c2)oc2cc(O)cc(O)c12
REMARK SMILES IDX 4 1 3 2 2 3 1 4 21 5 19 6 18 7 16 8 15 9 14 10 13 11 5 12
REMARK SMILES IDX 6 13 7 14 8 15 12 16 10 17 9 18 11 20 20 22 17 24
REMARK H PARENT 9 19 11 21 20 23 17 25
REMARK Flexibility Score: inf
ROOT
ATOM      1  C   UNL     1       4.327   7.752   9.162  1.00  0.00     0.138 A 
ATOM      2  C   UNL     1       3.651   8.835   8.583  1.00  0.00     0.100 A 
ATOM      3  C   UNL     1       2.273   8.758   8.378  1.00  0.00     0.197 A 
ATOM      4  O   UNL     1       1.705   9.725   7.806  1.00  0.00    -0.289 OA
ATOM      5  C   UNL     1       1.563   7.605   8.789  1.00  0.00     0.107 A 
ATOM      6  C   UNL     1       0.152   7.430   8.663  1.00  0.00     0.134 A 
ATOM      7  C   UNL     1      -0.425   6.203   9.016  1.00  0.00     0.093 A 
ATOM      8  C   UNL     1       0.346   5.168   9.542  1.00  0.00     0.123 A 
ATOM      9  C   UNL     1       1.719   5.346   9.718  1.00  0.00     0.094 A 
ATOM     10  C   UNL     1       2.330   6.546   9.344  1.00  0.00     0.146 A 
ATOM     11  O   UNL     1       3.643   6.668   9.510  1.00  0.00    -0.456 OA
ENDROOT
BRANCH   1  12
ATOM     12  C   UNL     1       5.791   7.780   9.406  1.00  0.00     0.021 A 
ATOM     13  C   UNL     1       6.436   8.923   9.916  1.00  0.00     0.016 A 
ATOM     14  C   UNL     1       7.818   8.924  10.125  1.00  0.00     0.051 A 
ATOM     15  C   UNL     1       8.580   7.789   9.822  1.00  0.00     0.157 A 
ATOM     16  C   UNL     1       6.567   6.650   9.090  1.00  0.00     0.062 A 
ATOM     17  C   UNL     1       7.951   6.648   9.300  1.00  0.00     0.158 A 
BRANCH  15  18
ATOM     18  O   UNL     1       9.958   7.793  10.033  1.00  0.00    -0.504 OA
ATOM     19  H   UNL     1      10.613   7.767   9.259  1.00  0.00     0.293 HD
ENDBRANCH  15  18
BRANCH  17  20
ATOM     20  O   UNL     1       8.682   5.503   8.983  1.00  0.00    -0.504 OA
ATOM     21  H   UNL     1       8.610   5.052   8.078  1.00  0.00     0.293 HD
ENDBRANCH  17  20
ENDBRANCH   1  12
BRANCH   6  22
ATOM     22  O   UNL     1      -0.725   8.425   8.222  1.00  0.00    -0.507 OA
ATOM     23  H   UNL     1      -1.695   8.501   8.484  1.00  0.00     0.293 HD
ENDBRANCH   6  22
BRANCH   8  24
ATOM     24  O   UNL     1      -0.265   3.967   9.897  1.00  0.00    -0.508 OA
ATOM     25  H   UNL     1      -0.529   3.281   9.200  1.00  0.00     0.293 HD
ENDBRANCH   8  24
TORSDOF 5
ENDMDL
MODEL 6
REMARK VINA RESULT:    -4.350     14.424     16.862
REMARK INTER + INTRA:          -5.431
REMARK INTER:                  -5.143
REMARK INTRA:                  -0.288
REMARK UNBOUND:                -0.318
REMARK SMILES O=c1cc(-c2ccc(O)c(O)c2)oc2cc(O)cc(O)c12
REMARK SMILES IDX 4 1 3 2 2 3 1 4 21 5 19 6 18 7 16 8 15 9 14 10 13 11 5 12
REMARK SMILES IDX 6 13 7 14 8 15 12 16 10 17 9 18 11 20 20 22 17 24
REMARK H PARENT 9 19 11 21 20 23 17 25
REMARK Flexibility Score: inf
ROOT
ATOM      1  C   UNL     1      -7.590  -3.842   8.954  1.00  0.00     0.138 A 
ATOM      2  C   UNL     1      -6.417  -4.326   9.549  1.00  0.00     0.100 A 
ATOM      3  C   UNL     1      -6.146  -5.695   9.527  1.00  0.00     0.197 A 
ATOM      4  O   UNL     1      -5.113  -6.103  10.118  1.00  0.00    -0.289 OA
ATOM      5  C   UNL     1      -7.038  -6.578   8.873  1.00  0.00     0.107 A 
ATOM      6  C   UNL     1      -6.848  -7.989   8.758  1.00  0.00     0.134 A 
ATOM      7  C   UNL     1      -7.850  -8.773   8.173  1.00  0.00     0.093 A 
ATOM      8  C   UNL     1      -9.006  -8.196   7.650  1.00  0.00     0.123 A 
ATOM      9  C   UNL     1      -9.180  -6.813   7.712  1.00  0.00     0.094 A 
ATOM     10  C   UNL     1      -8.215  -6.006   8.320  1.00  0.00     0.146 A 
ATOM     11  O   UNL     1      -8.427  -4.695   8.374  1.00  0.00    -0.456 OA
ENDROOT
BRANCH   1  12
ATOM     12  C   UNL     1      -7.926  -2.395   8.945  1.00  0.00     0.021 A 
ATOM     13  C   UNL     1      -7.918  -1.625  10.124  1.00  0.00     0.016 A 
ATOM     14  C   UNL     1      -8.249  -0.268  10.086  1.00  0.00     0.051 A 
ATOM     15  C   UNL     1      -8.602   0.341   8.876  1.00  0.00     0.157 A 
ATOM     16  C   UNL     1      -8.296  -1.778   7.737  1.00  0.00     0.062 A 
ATOM     17  C   UNL     1      -8.628  -0.420   7.696  1.00  0.00     0.158 A 
BRANCH  15  18
ATOM     18  O   UNL     1      -8.931   1.696   8.842  1.00  0.00    -0.504 OA
ATOM     19  H   UNL     1      -9.377   2.153   9.629  1.00  0.00     0.293 HD
ENDBRANCH  15  18
BRANCH  17  20
ATOM     20  O   UNL     1      -8.979   0.156   6.475  1.00  0.00    -0.504 OA
ATOM     21  H   UNL     1      -9.189   1.143   6.386  1.00  0.00     0.293 HD
ENDBRANCH  17  20
ENDBRANCH   1  12
BRANCH   6  22
ATOM     22  O   UNL     1      -5.696  -8.661   9.175  1.00  0.00    -0.507 OA
ATOM     23  H   UNL     1      -5.413  -8.786  10.134  1.00  0.00     0.293 HD
ENDBRANCH   6  22
BRANCH   8  24
ATOM     24  O   UNL     1      -9.974  -9.008   7.062  1.00  0.00    -0.508 OA
ATOM     25  H   UNL     1      -9.846  -9.400   6.137  1.00  0.00     0.293 HD
ENDBRANCH   8  24
TORSDOF 5
ENDMDL
MODEL 7
REMARK VINA RESULT:    -4.349     14.983     17.864
REMARK INTER + INTRA:          -5.429
REMARK INTER:                  -5.137
REMARK INTRA:                  -0.293
REMARK UNBOUND:                -0.318
REMARK SMILES O=c1cc(-c2ccc(O)c(O)c2)oc2cc(O)cc(O)c12
REMARK SMILES IDX 4 1 3 2 2 3 1 4 21 5 19 6 18 7 16 8 15 9 14 10 13 11 5 12
REMARK SMILES IDX 6 13 7 14 8 15 12 16 10 17 9 18 11 20 20 22 17 24
REMARK H PARENT 9 19 11 21 20 23 17 25
REMARK Flexibility Score: inf
ROOT
ATOM      1  C   UNL     1      -8.322  -8.371   4.050  1.00  0.00     0.138 A 
ATOM      2  C   UNL     1      -7.186  -9.146   4.322  1.00  0.00     0.100 A 
ATOM      3  C   UNL     1      -6.819  -9.392   5.646  1.00  0.00     0.197 A 
ATOM      4  O   UNL     1      -5.763 -10.044   5.856  1.00  0.00    -0.289 OA
ATOM      5  C   UNL     1      -7.615  -8.889   6.702  1.00  0.00     0.107 A 
ATOM      6  C   UNL     1      -7.358  -9.105   8.090  1.00  0.00     0.134 A 
ATOM      7  C   UNL     1      -8.163  -8.474   9.047  1.00  0.00     0.093 A 
ATOM      8  C   UNL     1      -9.247  -7.683   8.670  1.00  0.00     0.123 A 
ATOM      9  C   UNL     1      -9.538  -7.505   7.317  1.00  0.00     0.094 A 
ATOM     10  C   UNL     1      -8.734  -8.094   6.337  1.00  0.00     0.146 A 
ATOM     11  O   UNL     1      -9.035  -7.885   5.059  1.00  0.00    -0.456 OA
ENDROOT
BRANCH   1  12
ATOM     12  C   UNL     1      -8.760  -8.081   2.661  1.00  0.00     0.021 A 
ATOM     13  C   UNL     1      -9.724  -7.094   2.379  1.00  0.00     0.016 A 
ATOM     14  C   UNL     1     -10.125  -6.851   1.062  1.00  0.00     0.051 A 
ATOM     15  C   UNL     1      -9.578  -7.592   0.008  1.00  0.00     0.157 A 
ATOM     16  C   UNL     1      -8.227  -8.830   1.597  1.00  0.00     0.062 A 
ATOM     17  C   UNL     1      -8.626  -8.588   0.278  1.00  0.00     0.158 A 
BRANCH  15  18
ATOM     18  O   UNL     1      -9.979  -7.345  -1.305  1.00  0.00    -0.504 OA
ATOM     19  H   UNL     1     -10.941  -7.472  -1.598  1.00  0.00     0.293 HD
ENDBRANCH  15  18
BRANCH  17  20
ATOM     20  O   UNL     1      -8.065  -9.347  -0.750  1.00  0.00    -0.504 OA
ATOM     21  H   UNL     1      -7.501 -10.168  -0.566  1.00  0.00     0.293 HD
ENDBRANCH  17  20
ENDBRANCH   1  12
BRANCH   6  22
ATOM     22  O   UNL     1      -6.350  -9.941   8.579  1.00  0.00    -0.507 OA
ATOM     23  H   UNL     1      -6.029 -10.785   8.132  1.00  0.00     0.293 HD
ENDBRANCH   6  22
BRANCH   8  24
ATOM     24  O   UNL     1     -10.034  -7.083   9.650  1.00  0.00    -0.508 OA
ATOM     25  H   UNL     1     -10.843  -7.551  10.041  1.00  0.00     0.293 HD
ENDBRANCH   8  24
TORSDOF 5
ENDMDL
MODEL 8
REMARK VINA RESULT:    -4.336     13.342     16.418
REMARK INTER + INTRA:          -5.414
REMARK INTER:                  -5.131
REMARK INTRA:                  -0.283
REMARK UNBOUND:                -0.318
REMARK SMILES O=c1cc(-c2ccc(O)c(O)c2)oc2cc(O)cc(O)c12
REMARK SMILES IDX 4 1 3 2 2 3 1 4 21 5 19 6 18 7 16 8 15 9 14 10 13 11 5 12
REMARK SMILES IDX 6 13 7 14 8 15 12 16 10 17 9 18 11 20 20 22 17 24
REMARK H PARENT 9 19 11 21 20 23 17 25
REMARK Flexibility Score: inf
ROOT
ATOM      1  C   UNL     1      -8.695  -4.554   7.728  1.00  0.00     0.138 A 
ATOM      2  C   UNL     1      -7.899  -4.052   8.767  1.00  0.00     0.100 A 
ATOM      3  C   UNL     1      -7.662  -2.679   8.852  1.00  0.00     0.197 A 
ATOM      4  O   UNL     1      -6.898  -2.267   9.764  1.00  0.00    -0.289 OA
ATOM      5  C   UNL     1      -8.254  -1.802   7.913  1.00  0.00     0.107 A 
ATOM      6  C   UNL     1      -8.111  -0.382   7.922  1.00  0.00     0.134 A 
ATOM      7  C   UNL     1      -8.665   0.374   6.881  1.00  0.00     0.093 A 
ATOM      8  C   UNL     1      -9.404  -0.230   5.865  1.00  0.00     0.123 A 
ATOM      9  C   UNL     1      -9.594  -1.612   5.873  1.00  0.00     0.094 A 
ATOM     10  C   UNL     1      -9.025  -2.398   6.879  1.00  0.00     0.146 A 
ATOM     11  O   UNL     1      -9.214  -3.713   6.841  1.00  0.00    -0.456 OA
ENDROOT
BRANCH   1  12
ATOM     12  C   UNL     1      -8.983  -6.004   7.591  1.00  0.00     0.021 A 
ATOM     13  C   UNL     1      -9.536  -6.753   8.647  1.00  0.00     0.016 A 
ATOM     14  C   UNL     1      -9.786  -8.119   8.492  1.00  0.00     0.051 A 
ATOM     15  C   UNL     1      -9.483  -8.762   7.286  1.00  0.00     0.157 A 
ATOM     16  C   UNL     1      -8.668  -6.661   6.388  1.00  0.00     0.062 A 
ATOM     17  C   UNL     1      -8.919  -8.029   6.230  1.00  0.00     0.158 A 
BRANCH  15  18
ATOM     18  O   UNL     1      -9.735 -10.125   7.134  1.00  0.00    -0.504 OA
ATOM     19  H   UNL     1     -10.233 -10.486   6.328  1.00  0.00     0.293 HD
ENDBRANCH  15  18
BRANCH  17  20
ATOM     20  O   UNL     1      -8.600  -8.640   5.017  1.00  0.00    -0.504 OA
ATOM     21  H   UNL     1      -7.642  -8.758   4.709  1.00  0.00     0.293 HD
ENDBRANCH  17  20
ENDBRANCH   1  12
BRANCH   6  22
ATOM     22  O   UNL     1      -7.460   0.333   8.931  1.00  0.00    -0.507 OA
ATOM     23  H   UNL     1      -7.412   1.338   8.991  1.00  0.00     0.293 HD
ENDBRANCH   6  22
BRANCH   8  24
ATOM     24  O   UNL     1      -9.954   0.556   4.854  1.00  0.00    -0.508 OA
ATOM     25  H   UNL     1      -9.525   0.617   3.938  1.00  0.00     0.293 HD
ENDBRANCH   8  24
TORSDOF 5
ENDMDL
MODEL 9
REMARK VINA RESULT:    -4.320      7.508      9.126
REMARK INTER + INTRA:          -5.396
REMARK INTER:                  -5.134
REMARK INTRA:                  -0.262
REMARK UNBOUND:                -0.318
REMARK SMILES O=c1cc(-c2ccc(O)c(O)c2)oc2cc(O)cc(O)c12
REMARK SMILES IDX 4 1 3 2 2 3 1 4 21 5 19 6 18 7 16 8 15 9 14 10 13 11 5 12
REMARK SMILES IDX 6 13 7 14 8 15 12 16 10 17 9 18 11 20 20 22 17 24
REMARK H PARENT 9 19 11 21 20 23 17 25
REMARK Flexibility Score: inf
ROOT
ATOM      1  C   UNL     1      -4.097   8.337  -9.025  1.00  0.00     0.138 A 
ATOM      2  C   UNL     1      -3.168   9.387  -9.042  1.00  0.00     0.100 A 
ATOM      3  C   UNL     1      -1.815   9.107  -9.239  1.00  0.00     0.197 A 
ATOM      4  O   UNL     1      -1.000  10.065  -9.194  1.00  0.00    -0.289 OA
ATOM      5  C   UNL     1      -1.396   7.772  -9.456  1.00  0.00     0.107 A 
ATOM      6  C   UNL     1      -0.048   7.372  -9.702  1.00  0.00     0.134 A 
ATOM      7  C   UNL     1       0.259   6.009  -9.803  1.00  0.00     0.093 A 
ATOM      8  C   UNL     1      -0.737   5.038  -9.726  1.00  0.00     0.123 A 
ATOM      9  C   UNL     1      -2.066   5.420  -9.536  1.00  0.00     0.094 A 
ATOM     10  C   UNL     1      -2.400   6.769  -9.396  1.00  0.00     0.146 A 
ATOM     11  O   UNL     1      -3.675   7.090  -9.199  1.00  0.00    -0.456 OA
ENDROOT
BRANCH   1  12
ATOM     12  C   UNL     1      -5.548   8.577  -8.822  1.00  0.00     0.021 A 
ATOM     13  C   UNL     1      -6.439   8.693  -9.907  1.00  0.00     0.016 A 
ATOM     14  C   UNL     1      -7.798   8.930  -9.686  1.00  0.00     0.051 A 
ATOM     15  C   UNL     1      -8.290   9.063  -8.382  1.00  0.00     0.157 A 
ATOM     16  C   UNL     1      -6.049   8.727  -7.517  1.00  0.00     0.062 A 
ATOM     17  C   UNL     1      -7.410   8.964  -7.293  1.00  0.00     0.158 A 
BRANCH  15  18
ATOM     18  O   UNL     1      -9.648   9.298  -8.165  1.00  0.00    -0.504 OA
ATOM     19  H   UNL     1     -10.118   8.962  -7.332  1.00  0.00     0.293 HD
ENDBRANCH  15  18
BRANCH  17  20
ATOM     20  O   UNL     1      -7.868   9.096  -5.981  1.00  0.00    -0.504 OA
ATOM     21  H   UNL     1      -7.252   9.360  -5.221  1.00  0.00     0.293 HD
ENDBRANCH  17  20
ENDBRANCH   1  12
BRANCH   6  22
ATOM     22  O   UNL     1       1.015   8.263  -9.876  1.00  0.00    -0.507 OA
ATOM     23  H   UNL     1       1.826   8.094 -10.450  1.00  0.00     0.293 HD
ENDBRANCH   6  22
BRANCH   8  24
ATOM     24  O   UNL     1      -0.396   3.692  -9.847  1.00  0.00    -0.508 OA
ATOM     25  H   UNL     1      -0.427   3.215 -10.740  1.00  0.00     0.293 HD
ENDBRANCH   8  24
TORSDOF 5
ENDMDL
