MODEL 1
REMARK VINA RESULT:    -8.153      0.000      0.000
REMARK INTER + INTRA:          -9.152
REMARK INTER:                  -8.868
REMARK INTRA:                  -0.285
REMARK UNBOUND:                -0.285
REMARK SMILES C[C@H]1[C@@H](C)CC[C@@]2(C(=O)[O-])CC[C@@]3(C)C(=CC[C@@H]4[C@]5(C)CC[C@H](O)C(C)(C)[C@@H]5CC[C@@]43C)[C@@H]12
REMARK SMILES IDX 7 1 6 2 11 3 33 4 5 5 12 6 15 7 2 8 3 9 13 10 16 11 1 12
REMARK SMILES IDX 4 13 14 14 31 15 17 16 18 17 30 18 32 19 19 20 29 21 28 22
REMARK SMILES IDX 21 23 20 24 25 25 22 26 23 27 26 28 27 29 8 30 9 31 10 32
REMARK SMILES IDX 24 33
REMARK H PARENT 24 34
REMARK Flexibility Score: inf
ROOT
ATOM      1  C   UNL     1      22.210  38.441  35.393  1.00  0.00     0.017 C 
ATOM      2  C   UNL     1      22.403  39.882  35.965  1.00  0.00     0.014 C 
ATOM      3  C   UNL     1      23.154  37.491  36.153  1.00  0.00     0.014 C 
ATOM      4  C   UNL     1      20.702  37.998  35.523  1.00  0.00     0.030 C 
ATOM      5  C   UNL     1      21.269  40.820  35.550  1.00  0.00     0.004 C 
ATOM      6  C   UNL     1      22.910  36.006  35.831  1.00  0.00     0.013 C 
ATOM      7  C   UNL     1      20.469  36.465  35.561  1.00  0.00    -0.063 C 
ATOM      8  C   UNL     1      19.806  38.847  36.483  1.00  0.00    -0.003 C 
ATOM      9  C   UNL     1      19.882  40.367  36.082  1.00  0.00    -0.011 C 
ATOM     10  C   UNL     1      21.482  35.468  36.196  1.00  0.00    -0.006 C 
ATOM     11  C   UNL     1      19.464  36.034  34.776  1.00  0.00    -0.027 C 
ATOM     12  C   UNL     1      20.032  38.560  37.979  1.00  0.00     0.008 C 
ATOM     13  C   UNL     1      19.355  41.335  37.154  1.00  0.00     0.008 C 
ATOM     14  C   UNL     1      21.349  35.505  37.749  1.00  0.00     0.017 C 
ATOM     15  C   UNL     1      21.280  33.920  35.690  1.00  0.00    -0.020 C 
ATOM     16  C   UNL     1      19.362  34.660  34.220  1.00  0.00     0.032 C 
ATOM     17  C   UNL     1      20.722  33.892  34.218  1.00  0.00     0.006 C 
ATOM     18  C   UNL     1      20.252  33.117  36.564  1.00  0.00     0.008 C 
ATOM     19  C   UNL     1      22.646  33.176  35.838  1.00  0.00     0.012 C 
ATOM     20  C   UNL     1      20.628  32.428  33.548  1.00  0.00    -0.025 C 
ATOM     21  C   UNL     1      19.575  31.886  35.898  1.00  0.00     0.005 C 
ATOM     22  C   UNL     1      20.232  31.302  34.608  1.00  0.00     0.003 C 
ATOM     23  C   UNL     1      19.647  32.415  32.315  1.00  0.00     0.010 C 
ATOM     24  C   UNL     1      22.030  32.095  32.929  1.00  0.00     0.012 C 
ATOM     25  C   UNL     1      19.391  30.088  34.008  1.00  0.00    -0.006 C 
ATOM     26  C   UNL     1      18.214  32.002  32.659  1.00  0.00     0.033 C 
ATOM     27  C   UNL     1      18.104  30.576  33.242  1.00  0.00     0.120 C 
ATOM     28  C   UNL     1      20.275  29.245  33.040  1.00  0.00     0.014 C 
ATOM     29  C   UNL     1      18.995  29.082  35.132  1.00  0.00     0.014 C 
ENDROOT
BRANCH   1  30
ATOM     30  C   UNL     1      22.647  38.425  33.922  1.00  0.00     0.048 C 
ATOM     31  O   UNL     1      23.786  38.846  33.584  1.00  0.00    -0.550 OA
ATOM     32  O   UNL     1      21.761  38.039  32.922  1.00  0.00    -0.550 OA
ENDBRANCH   1  30
BRANCH  27  33
ATOM     33  O   UNL     1      16.970  30.529  34.074  1.00  0.00    -0.393 OA
ATOM     34  H   UNL     1      17.142  31.135  34.841  1.00  0.00     0.210 HD
ENDBRANCH  27  33
TORSDOF 2
ENDMDL
MODEL 2
REMARK VINA RESULT:    -8.018      2.322      7.784
REMARK INTER + INTRA:          -9.006
REMARK INTER:                  -8.710
REMARK INTRA:                  -0.296
REMARK UNBOUND:                -0.285
REMARK SMILES C[C@H]1[C@@H](C)CC[C@@]2(C(=O)[O-])CC[C@@]3(C)C(=CC[C@@H]4[C@]5(C)CC[C@H](O)C(C)(C)[C@@H]5CC[C@@]43C)[C@@H]12
REMARK SMILES IDX 7 1 6 2 11 3 33 4 5 5 12 6 15 7 2 8 3 9 13 10 16 11 1 12
REMARK SMILES IDX 4 13 14 14 31 15 17 16 18 17 30 18 32 19 19 20 29 21 28 22
REMARK SMILES IDX 21 23 20 24 25 25 22 26 23 27 26 28 27 29 8 30 9 31 10 32
REMARK SMILES IDX 24 33
REMARK H PARENT 24 34
REMARK Flexibility Score: inf
ROOT
ATOM      1  C   UNL     1      21.105  31.800  34.006  1.00  0.00     0.017 C 
ATOM      2  C   UNL     1      20.877  30.429  33.294  1.00  0.00     0.014 C 
ATOM      3  C   UNL     1      21.874  32.722  33.040  1.00  0.00     0.014 C 
ATOM      4  C   UNL     1      19.724  32.427  34.441  1.00  0.00     0.030 C 
ATOM      5  C   UNL     1      19.819  29.584  34.004  1.00  0.00     0.004 C 
ATOM      6  C   UNL     1      21.978  34.174  33.539  1.00  0.00     0.013 C 
ATOM      7  C   UNL     1      19.725  33.970  34.604  1.00  0.00    -0.063 C 
ATOM      8  C   UNL     1      18.443  31.812  33.789  1.00  0.00    -0.003 C 
ATOM      9  C   UNL     1      18.418  30.256  34.022  1.00  0.00    -0.011 C 
ATOM     10  C   UNL     1      20.608  34.914  33.735  1.00  0.00    -0.006 C 
ATOM     11  C   UNL     1      19.116  34.414  35.719  1.00  0.00    -0.027 C 
ATOM     12  C   UNL     1      18.199  32.253  32.334  1.00  0.00     0.008 C 
ATOM     13  C   UNL     1      17.425  29.495  33.129  1.00  0.00     0.008 C 
ATOM     14  C   UNL     1      19.961  35.084  32.326  1.00  0.00     0.017 C 
ATOM     15  C   UNL     1      20.821  36.400  34.395  1.00  0.00    -0.020 C 
ATOM     16  C   UNL     1      19.414  35.711  36.378  1.00  0.00     0.032 C 
ATOM     17  C   UNL     1      20.796  36.311  35.968  1.00  0.00     0.006 C 
ATOM     18  C   UNL     1      19.694  37.418  33.996  1.00  0.00     0.008 C 
ATOM     19  C   UNL     1      22.155  36.994  33.840  1.00  0.00     0.012 C 
ATOM     20  C   UNL     1      21.152  37.682  36.738  1.00  0.00    -0.025 C 
ATOM     21  C   UNL     1      19.471  38.628  34.948  1.00  0.00     0.005 C 
ATOM     22  C   UNL     1      20.600  38.969  35.970  1.00  0.00     0.003 C 
ATOM     23  C   UNL     1      20.651  37.656  38.231  1.00  0.00     0.010 C 
ATOM     24  C   UNL     1      22.714  37.773  36.855  1.00  0.00     0.012 C 
ATOM     25  C   UNL     1      20.200  40.188  36.915  1.00  0.00    -0.006 C 
ATOM     26  C   UNL     1      19.265  38.271  38.439  1.00  0.00     0.033 C 
ATOM     27  C   UNL     1      19.184  39.761  38.041  1.00  0.00     0.120 C 
ATOM     28  C   UNL     1      21.472  40.798  37.578  1.00  0.00     0.014 C 
ATOM     29  C   UNL     1      19.608  41.364  36.079  1.00  0.00     0.014 C 
ENDROOT
BRANCH   1  30
ATOM     30  C   UNL     1      22.003  31.585  35.231  1.00  0.00     0.048 C 
ATOM     31  O   UNL     1      21.571  31.808  36.394  1.00  0.00    -0.550 OA
ATOM     32  O   UNL     1      23.341  31.235  35.078  1.00  0.00    -0.550 OA
ENDBRANCH   1  30
BRANCH  27  33
ATOM     33  O   UNL     1      17.857  40.041  37.659  1.00  0.00    -0.393 OA
ATOM     34  H   UNL     1      17.635  39.438  36.902  1.00  0.00     0.210 HD
ENDBRANCH  27  33
TORSDOF 2
ENDMDL
MODEL 3
REMARK VINA RESULT:    -7.655      3.885      7.741
REMARK INTER + INTRA:          -8.611
REMARK INTER:                  -8.287
REMARK INTRA:                  -0.324
REMARK UNBOUND:                -0.285
REMARK SMILES C[C@H]1[C@@H](C)CC[C@@]2(C(=O)[O-])CC[C@@]3(C)C(=CC[C@@H]4[C@]5(C)CC[C@H](O)C(C)(C)[C@@H]5CC[C@@]43C)[C@@H]12
REMARK SMILES IDX 7 1 6 2 11 3 33 4 5 5 12 6 15 7 2 8 3 9 13 10 16 11 1 12
REMARK SMILES IDX 4 13 14 14 31 15 17 16 18 17 30 18 32 19 19 20 29 21 28 22
REMARK SMILES IDX 21 23 20 24 25 25 22 26 23 27 26 28 27 29 8 30 9 31 10 32
REMARK SMILES IDX 24 33
REMARK H PARENT 24 34
REMARK Flexibility Score: inf
ROOT
ATOM      1  C   UNL     1      19.720  32.199  35.146  1.00  0.00     0.017 C 
ATOM      2  C   UNL     1      18.283  31.615  35.336  1.00  0.00     0.014 C 
ATOM      3  C   UNL     1      20.421  32.210  36.517  1.00  0.00     0.014 C 
ATOM      4  C   UNL     1      20.519  31.348  34.085  1.00  0.00     0.030 C 
ATOM      5  C   UNL     1      17.645  31.218  34.006  1.00  0.00     0.004 C 
ATOM      6  C   UNL     1      21.916  32.564  36.433  1.00  0.00     0.013 C 
ATOM      7  C   UNL     1      22.063  31.416  34.218  1.00  0.00    -0.063 C 
ATOM      8  C   UNL     1      19.927  29.946  33.726  1.00  0.00    -0.003 C 
ATOM      9  C   UNL     1      18.430  30.099  33.267  1.00  0.00    -0.011 C 
ATOM     10  C   UNL     1      22.791  31.575  35.585  1.00  0.00    -0.006 C 
ATOM     11  C   UNL     1      22.716  31.595  33.054  1.00  0.00    -0.027 C 
ATOM     12  C   UNL     1      20.170  28.864  34.794  1.00  0.00     0.008 C 
ATOM     13  C   UNL     1      17.634  28.784  33.245  1.00  0.00     0.008 C 
ATOM     14  C   UNL     1      22.809  30.206  36.331  1.00  0.00     0.017 C 
ATOM     15  C   UNL     1      24.335  32.113  35.445  1.00  0.00    -0.020 C 
ATOM     16  C   UNL     1      24.066  32.203  32.933  1.00  0.00     0.032 C 
ATOM     17  C   UNL     1      24.479  33.045  34.182  1.00  0.00     0.006 C 
ATOM     18  C   UNL     1      25.375  30.954  35.255  1.00  0.00     0.008 C 
ATOM     19  C   UNL     1      24.724  32.830  36.777  1.00  0.00     0.012 C 
ATOM     20  C   UNL     1      25.912  33.766  34.023  1.00  0.00    -0.025 C 
ATOM     21  C   UNL     1      26.726  31.326  34.579  1.00  0.00     0.005 C 
ATOM     22  C   UNL     1      27.115  32.836  34.510  1.00  0.00     0.003 C 
ATOM     23  C   UNL     1      26.148  34.268  32.548  1.00  0.00     0.010 C 
ATOM     24  C   UNL     1      25.885  35.079  34.879  1.00  0.00     0.012 C 
ATOM     25  C   UNL     1      28.489  33.063  33.736  1.00  0.00    -0.006 C 
ATOM     26  C   UNL     1      26.903  33.276  31.660  1.00  0.00     0.033 C 
ATOM     27  C   UNL     1      28.320  32.941  32.174  1.00  0.00     0.120 C 
ATOM     28  C   UNL     1      29.078  34.464  34.079  1.00  0.00     0.014 C 
ATOM     29  C   UNL     1      29.577  32.062  34.235  1.00  0.00     0.014 C 
ENDROOT
BRANCH   1  30
ATOM     30  C   UNL     1      19.610  33.659  34.687  1.00  0.00     0.048 C 
ATOM     31  O   UNL     1      19.137  34.541  35.454  1.00  0.00    -0.550 OA
ATOM     32  O   UNL     1      19.935  34.021  33.384  1.00  0.00    -0.550 OA
ENDBRANCH   1  30
BRANCH  27  33
ATOM     33  O   UNL     1      28.654  31.648  31.727  1.00  0.00    -0.393 OA
ATOM     34  H   UNL     1      28.739  31.691  30.739  1.00  0.00     0.210 HD
ENDBRANCH  27  33
TORSDOF 2
ENDMDL
MODEL 4
REMARK VINA RESULT:    -7.492      4.365      8.017
REMARK INTER + INTRA:          -8.433
REMARK INTER:                  -8.118
REMARK INTRA:                  -0.315
REMARK UNBOUND:                -0.285
REMARK SMILES C[C@H]1[C@@H](C)CC[C@@]2(C(=O)[O-])CC[C@@]3(C)C(=CC[C@@H]4[C@]5(C)CC[C@H](O)C(C)(C)[C@@H]5CC[C@@]43C)[C@@H]12
REMARK SMILES IDX 7 1 6 2 11 3 33 4 5 5 12 6 15 7 2 8 3 9 13 10 16 11 1 12
REMARK SMILES IDX 4 13 14 14 31 15 17 16 18 17 30 18 32 19 19 20 29 21 28 22
REMARK SMILES IDX 21 23 20 24 25 25 22 26 23 27 26 28 27 29 8 30 9 31 10 32
REMARK SMILES IDX 24 33
REMARK H PARENT 24 34
REMARK Flexibility Score: inf
ROOT
ATOM      1  C   UNL     1      18.625  32.822  35.359  1.00  0.00     0.017 C 
ATOM      2  C   UNL     1      19.391  31.766  36.217  1.00  0.00     0.014 C 
ATOM      3  C   UNL     1      19.433  34.134  35.374  1.00  0.00     0.014 C 
ATOM      4  C   UNL     1      18.408  32.283  33.893  1.00  0.00     0.030 C 
ATOM      5  C   UNL     1      18.882  30.347  35.969  1.00  0.00     0.004 C 
ATOM      6  C   UNL     1      18.895  35.191  34.394  1.00  0.00     0.013 C 
ATOM      7  C   UNL     1      18.216  33.379  32.812  1.00  0.00    -0.063 C 
ATOM      8  C   UNL     1      19.272  31.051  33.468  1.00  0.00    -0.003 C 
ATOM      9  C   UNL     1      19.078  29.880  34.500  1.00  0.00    -0.011 C 
ATOM     10  C   UNL     1      18.910  34.771  32.882  1.00  0.00    -0.006 C 
ATOM     11  C   UNL     1      17.207  33.145  31.953  1.00  0.00    -0.027 C 
ATOM     12  C   UNL     1      20.739  31.389  33.141  1.00  0.00     0.008 C 
ATOM     13  C   UNL     1      20.136  28.768  34.408  1.00  0.00     0.008 C 
ATOM     14  C   UNL     1      20.402  34.635  32.449  1.00  0.00     0.017 C 
ATOM     15  C   UNL     1      18.194  35.907  31.940  1.00  0.00    -0.020 C 
ATOM     16  C   UNL     1      16.481  34.201  31.201  1.00  0.00     0.032 C 
ATOM     17  C   UNL     1      16.649  35.625  31.819  1.00  0.00     0.006 C 
ATOM     18  C   UNL     1      18.751  35.929  30.472  1.00  0.00     0.008 C 
ATOM     19  C   UNL     1      18.512  37.313  32.543  1.00  0.00     0.012 C 
ATOM     20  C   UNL     1      15.803  36.761  31.048  1.00  0.00    -0.025 C 
ATOM     21  C   UNL     1      17.824  36.532  29.378  1.00  0.00     0.005 C 
ATOM     22  C   UNL     1      16.624  37.415  29.844  1.00  0.00     0.003 C 
ATOM     23  C   UNL     1      14.412  36.213  30.551  1.00  0.00     0.010 C 
ATOM     24  C   UNL     1      15.430  37.872  32.091  1.00  0.00     0.012 C 
ATOM     25  C   UNL     1      15.733  37.905  28.618  1.00  0.00    -0.006 C 
ATOM     26  C   UNL     1      14.421  35.690  29.113  1.00  0.00     0.033 C 
ATOM     27  C   UNL     1      14.797  36.763  28.067  1.00  0.00     0.120 C 
ATOM     28  C   UNL     1      14.859  39.125  29.038  1.00  0.00     0.014 C 
ATOM     29  C   UNL     1      16.631  38.460  27.469  1.00  0.00     0.014 C 
ENDROOT
BRANCH   1  30
ATOM     30  C   UNL     1      17.274  33.121  36.024  1.00  0.00     0.048 C 
ATOM     31  O   UNL     1      17.222  33.613  37.183  1.00  0.00    -0.550 OA
ATOM     32  O   UNL     1      16.082  32.764  35.403  1.00  0.00    -0.550 OA
ENDBRANCH   1  30
BRANCH  27  33
ATOM     33  O   UNL     1      15.384  36.113  26.964  1.00  0.00    -0.393 OA
ATOM     34  H   UNL     1      14.702  35.498  26.588  1.00  0.00     0.210 HD
ENDBRANCH  27  33
TORSDOF 2
ENDMDL
MODEL 5
REMARK VINA RESULT:    -7.453      4.088      7.749
REMARK INTER + INTRA:          -8.391
REMARK INTER:                  -8.067
REMARK INTRA:                  -0.324
REMARK UNBOUND:                -0.285
REMARK SMILES C[C@H]1[C@@H](C)CC[C@@]2(C(=O)[O-])CC[C@@]3(C)C(=CC[C@@H]4[C@]5(C)CC[C@H](O)C(C)(C)[C@@H]5CC[C@@]43C)[C@@H]12
REMARK SMILES IDX 7 1 6 2 11 3 33 4 5 5 12 6 15 7 2 8 3 9 13 10 16 11 1 12
REMARK SMILES IDX 4 13 14 14 31 15 17 16 18 17 30 18 32 19 19 20 29 21 28 22
REMARK SMILES IDX 21 23 20 24 25 25 22 26 23 27 26 28 27 29 8 30 9 31 10 32
REMARK SMILES IDX 24 33
REMARK H PARENT 24 34
REMARK Flexibility Score: inf
ROOT
ATOM      1  C   UNL     1      20.244  37.954  35.717  1.00  0.00     0.017 C 
ATOM      2  C   UNL     1      18.759  38.404  35.899  1.00  0.00     0.014 C 
ATOM      3  C   UNL     1      20.598  38.056  34.221  1.00  0.00     0.014 C 
ATOM      4  C   UNL     1      21.198  38.841  36.607  1.00  0.00     0.030 C 
ATOM      5  C   UNL     1      18.423  38.694  37.361  1.00  0.00     0.004 C 
ATOM      6  C   UNL     1      22.095  37.844  33.935  1.00  0.00     0.013 C 
ATOM      7  C   UNL     1      22.666  38.925  36.115  1.00  0.00    -0.063 C 
ATOM      8  C   UNL     1      20.591  40.167  37.171  1.00  0.00    -0.003 C 
ATOM      9  C   UNL     1      19.263  39.857  37.958  1.00  0.00    -0.011 C 
ATOM     10  C   UNL     1      23.059  38.882  34.609  1.00  0.00    -0.006 C 
ATOM     11  C   UNL     1      23.589  38.771  37.083  1.00  0.00    -0.027 C 
ATOM     12  C   UNL     1      20.480  41.303  36.137  1.00  0.00     0.008 C 
ATOM     13  C   UNL     1      18.387  41.089  38.237  1.00  0.00     0.008 C 
ATOM     14  C   UNL     1      22.783  40.271  33.956  1.00  0.00     0.017 C 
ATOM     15  C   UNL     1      24.632  38.489  34.356  1.00  0.00    -0.020 C 
ATOM     16  C   UNL     1      24.975  38.290  36.852  1.00  0.00     0.032 C 
ATOM     17  C   UNL     1      25.150  37.534  35.496  1.00  0.00     0.006 C 
ATOM     18  C   UNL     1      25.586  39.736  34.361  1.00  0.00     0.008 C 
ATOM     19  C   UNL     1      24.754  37.858  32.931  1.00  0.00     0.012 C 
ATOM     20  C   UNL     1      26.636  36.948  35.277  1.00  0.00    -0.025 C 
ATOM     21  C   UNL     1      27.085  39.471  34.682  1.00  0.00     0.005 C 
ATOM     22  C   UNL     1      27.606  38.004  34.575  1.00  0.00     0.003 C 
ATOM     23  C   UNL     1      27.257  36.421  36.626  1.00  0.00     0.010 C 
ATOM     24  C   UNL     1      26.518  35.667  34.380  1.00  0.00     0.012 C 
ATOM     25  C   UNL     1      29.139  37.883  34.994  1.00  0.00    -0.006 C 
ATOM     26  C   UNL     1      28.114  37.450  37.367  1.00  0.00     0.033 C 
ATOM     27  C   UNL     1      29.335  37.936  36.556  1.00  0.00     0.120 C 
ATOM     28  C   UNL     1      29.746  36.557  34.446  1.00  0.00     0.014 C 
ATOM     29  C   UNL     1      29.988  38.999  34.311  1.00  0.00     0.014 C 
ENDROOT
BRANCH   1  30
ATOM     30  C   UNL     1      20.370  36.476  36.107  1.00  0.00     0.048 C 
ATOM     31  O   UNL     1      19.815  35.578  35.418  1.00  0.00    -0.550 OA
ATOM     32  O   UNL     1      21.014  36.103  37.282  1.00  0.00    -0.550 OA
ENDBRANCH   1  30
BRANCH  27  33
ATOM     33  O   UNL     1      29.654  39.239  36.984  1.00  0.00    -0.393 OA
ATOM     34  H   UNL     1      30.026  39.723  36.201  1.00  0.00     0.210 HD
ENDBRANCH  27  33
TORSDOF 2
ENDMDL
MODEL 6
REMARK VINA RESULT:    -7.450      3.278      8.042
REMARK INTER + INTRA:          -8.388
REMARK INTER:                  -8.199
REMARK INTRA:                  -0.189
REMARK UNBOUND:                -0.285
REMARK SMILES C[C@H]1[C@@H](C)CC[C@@]2(C(=O)[O-])CC[C@@]3(C)C(=CC[C@@H]4[C@]5(C)CC[C@H](O)C(C)(C)[C@@H]5CC[C@@]43C)[C@@H]12
REMARK SMILES IDX 7 1 6 2 11 3 33 4 5 5 12 6 15 7 2 8 3 9 13 10 16 11 1 12
REMARK SMILES IDX 4 13 14 14 31 15 17 16 18 17 30 18 32 19 19 20 29 21 28 22
REMARK SMILES IDX 21 23 20 24 25 25 22 26 23 27 26 28 27 29 8 30 9 31 10 32
REMARK SMILES IDX 24 33
REMARK H PARENT 24 34
REMARK Flexibility Score: inf
ROOT
ATOM      1  C   UNL     1      20.651  31.168  34.419  1.00  0.00     0.017 C 
ATOM      2  C   UNL     1      20.876  29.983  33.427  1.00  0.00     0.014 C 
ATOM      3  C   UNL     1      20.394  32.444  33.595  1.00  0.00     0.014 C 
ATOM      4  C   UNL     1      19.452  30.846  35.393  1.00  0.00     0.030 C 
ATOM      5  C   UNL     1      20.770  28.625  34.121  1.00  0.00     0.004 C 
ATOM      6  C   UNL     1      19.948  33.641  34.453  1.00  0.00     0.013 C 
ATOM      7  C   UNL     1      18.748  32.088  35.999  1.00  0.00    -0.063 C 
ATOM      8  C   UNL     1      18.514  29.666  34.977  1.00  0.00    -0.003 C 
ATOM      9  C   UNL     1      19.366  28.365  34.734  1.00  0.00    -0.011 C 
ATOM     10  C   UNL     1      18.605  33.439  35.238  1.00  0.00    -0.006 C 
ATOM     11  C   UNL     1      18.505  32.002  37.320  1.00  0.00    -0.027 C 
ATOM     12  C   UNL     1      17.523  30.011  33.851  1.00  0.00     0.008 C 
ATOM     13  C   UNL     1      18.625  27.253  33.974  1.00  0.00     0.008 C 
ATOM     14  C   UNL     1      17.459  33.329  34.187  1.00  0.00     0.017 C 
ATOM     15  C   UNL     1      18.291  34.713  36.223  1.00  0.00    -0.020 C 
ATOM     16  C   UNL     1      18.350  33.171  38.224  1.00  0.00     0.032 C 
ATOM     17  C   UNL     1      18.947  34.489  37.637  1.00  0.00     0.006 C 
ATOM     18  C   UNL     1      16.757  34.929  36.480  1.00  0.00     0.008 C 
ATOM     19  C   UNL     1      18.797  36.012  35.516  1.00  0.00     0.012 C 
ATOM     20  C   UNL     1      18.845  35.743  38.647  1.00  0.00    -0.025 C 
ATOM     21  C   UNL     1      16.363  35.702  37.771  1.00  0.00     0.005 C 
ATOM     22  C   UNL     1      17.470  36.539  38.485  1.00  0.00     0.003 C 
ATOM     23  C   UNL     1      19.071  35.303  40.142  1.00  0.00     0.010 C 
ATOM     24  C   UNL     1      20.045  36.703  38.340  1.00  0.00     0.012 C 
ATOM     25  C   UNL     1      16.933  37.219  39.823  1.00  0.00    -0.006 C 
ATOM     26  C   UNL     1      17.783  34.989  40.906  1.00  0.00     0.033 C 
ATOM     27  C   UNL     1      16.816  36.189  41.009  1.00  0.00     0.120 C 
ATOM     28  C   UNL     1      17.871  38.388  40.249  1.00  0.00     0.014 C 
ATOM     29  C   UNL     1      15.555  37.909  39.577  1.00  0.00     0.014 C 
ENDROOT
BRANCH   1  30
ATOM     30  C   UNL     1      21.940  31.402  35.218  1.00  0.00     0.048 C 
ATOM     31  O   UNL     1      21.897  31.625  36.458  1.00  0.00    -0.550 OA
ATOM     32  O   UNL     1      23.171  31.472  34.576  1.00  0.00    -0.550 OA
ENDBRANCH   1  30
BRANCH  27  33
ATOM     33  O   UNL     1      15.505  35.688  41.120  1.00  0.00    -0.393 OA
ATOM     34  H   UNL     1      14.943  36.191  40.475  1.00  0.00     0.210 HD
ENDBRANCH  27  33
TORSDOF 2
ENDMDL
MODEL 7
REMARK VINA RESULT:    -7.431      4.709      7.595
REMARK INTER + INTRA:          -8.367
REMARK INTER:                  -8.065
REMARK INTRA:                  -0.302
REMARK UNBOUND:                -0.285
REMARK SMILES C[C@H]1[C@@H](C)CC[C@@]2(C(=O)[O-])CC[C@@]3(C)C(=CC[C@@H]4[C@]5(C)CC[C@H](O)C(C)(C)[C@@H]5CC[C@@]43C)[C@@H]12
REMARK SMILES IDX 7 1 6 2 11 3 33 4 5 5 12 6 15 7 2 8 3 9 13 10 16 11 1 12
REMARK SMILES IDX 4 13 14 14 31 15 17 16 18 17 30 18 32 19 19 20 29 21 28 22
REMARK SMILES IDX 21 23 20 24 25 25 22 26 23 27 26 28 27 29 8 30 9 31 10 32
REMARK SMILES IDX 24 33
REMARK H PARENT 24 34
REMARK Flexibility Score: inf
ROOT
ATOM      1  C   UNL     1      20.175  38.620  36.900  1.00  0.00     0.017 C 
ATOM      2  C   UNL     1      18.943  39.474  36.464  1.00  0.00     0.014 C 
ATOM      3  C   UNL     1      20.722  37.891  35.658  1.00  0.00     0.014 C 
ATOM      4  C   UNL     1      21.269  39.540  37.569  1.00  0.00     0.030 C 
ATOM      5  C   UNL     1      18.559  40.509  37.521  1.00  0.00     0.004 C 
ATOM      6  C   UNL     1      22.064  37.182  35.909  1.00  0.00     0.013 C 
ATOM      7  C   UNL     1      22.717  38.987  37.511  1.00  0.00    -0.063 C 
ATOM      8  C   UNL     1      21.118  41.079  37.343  1.00  0.00    -0.003 C 
ATOM      9  C   UNL     1      19.683  41.548  37.788  1.00  0.00    -0.011 C 
ATOM     10  C   UNL     1      23.248  38.122  36.330  1.00  0.00    -0.006 C 
ATOM     11  C   UNL     1      23.397  39.081  38.668  1.00  0.00    -0.027 C 
ATOM     12  C   UNL     1      21.551  41.559  35.945  1.00  0.00     0.008 C 
ATOM     13  C   UNL     1      19.283  42.943  37.280  1.00  0.00     0.008 C 
ATOM     14  C   UNL     1      23.573  39.041  35.113  1.00  0.00     0.017 C 
ATOM     15  C   UNL     1      24.592  37.258  36.705  1.00  0.00    -0.020 C 
ATOM     16  C   UNL     1      24.534  38.203  39.048  1.00  0.00     0.032 C 
ATOM     17  C   UNL     1      24.587  36.873  38.233  1.00  0.00     0.006 C 
ATOM     18  C   UNL     1      25.923  38.052  36.457  1.00  0.00     0.008 C 
ATOM     19  C   UNL     1      24.649  36.012  35.764  1.00  0.00     0.012 C 
ATOM     20  C   UNL     1      25.777  35.887  38.694  1.00  0.00    -0.025 C 
ATOM     21  C   UNL     1      27.175  37.591  37.257  1.00  0.00     0.005 C 
ATOM     22  C   UNL     1      27.140  36.176  37.914  1.00  0.00     0.003 C 
ATOM     23  C   UNL     1      25.997  35.933  40.254  1.00  0.00     0.010 C 
ATOM     24  C   UNL     1      25.315  34.415  38.412  1.00  0.00     0.012 C 
ATOM     25  C   UNL     1      28.463  35.874  38.750  1.00  0.00    -0.006 C 
ATOM     26  C   UNL     1      27.071  36.925  40.707  1.00  0.00     0.033 C 
ATOM     27  C   UNL     1      28.474  36.619  40.138  1.00  0.00     0.120 C 
ATOM     28  C   UNL     1      28.612  34.342  38.990  1.00  0.00     0.014 C 
ATOM     29  C   UNL     1      29.734  36.255  37.929  1.00  0.00     0.014 C 
ENDROOT
BRANCH   1  30
ATOM     30  C   UNL     1      19.711  37.539  37.886  1.00  0.00     0.048 C 
ATOM     31  O   UNL     1      20.048  37.587  39.100  1.00  0.00    -0.550 OA
ATOM     32  O   UNL     1      18.994  36.433  37.442  1.00  0.00    -0.550 OA
ENDBRANCH   1  30
BRANCH  27  33
ATOM     33  O   UNL     1      29.187  37.831  40.058  1.00  0.00    -0.393 OA
ATOM     34  H   UNL     1      30.056  37.692  40.519  1.00  0.00     0.210 HD
ENDBRANCH  27  33
TORSDOF 2
ENDMDL
MODEL 8
REMARK VINA RESULT:    -7.362      1.583      2.181
REMARK INTER + INTRA:          -8.292
REMARK INTER:                  -7.992
REMARK INTRA:                  -0.300
REMARK UNBOUND:                -0.285
REMARK SMILES C[C@H]1[C@@H](C)CC[C@@]2(C(=O)[O-])CC[C@@]3(C)C(=CC[C@@H]4[C@]5(C)CC[C@H](O)C(C)(C)[C@@H]5CC[C@@]43C)[C@@H]12
REMARK SMILES IDX 7 1 6 2 11 3 33 4 5 5 12 6 15 7 2 8 3 9 13 10 16 11 1 12
REMARK SMILES IDX 4 13 14 14 31 15 17 16 18 17 30 18 32 19 19 20 29 21 28 22
REMARK SMILES IDX 21 23 20 24 25 25 22 26 23 27 26 28 27 29 8 30 9 31 10 32
REMARK SMILES IDX 24 33
REMARK H PARENT 24 34
REMARK Flexibility Score: inf
ROOT
ATOM      1  C   UNL     1      21.953  38.258  37.549  1.00  0.00     0.017 C 
ATOM      2  C   UNL     1      21.881  39.754  37.992  1.00  0.00     0.014 C 
ATOM      3  C   UNL     1      21.668  37.377  38.781  1.00  0.00     0.014 C 
ATOM      4  C   UNL     1      20.929  37.983  36.381  1.00  0.00     0.030 C 
ATOM      5  C   UNL     1      21.779  40.701  36.796  1.00  0.00     0.004 C 
ATOM      6  C   UNL     1      21.500  35.887  38.436  1.00  0.00     0.013 C 
ATOM      7  C   UNL     1      20.466  36.509  36.247  1.00  0.00    -0.063 C 
ATOM      8  C   UNL     1      19.826  39.067  36.151  1.00  0.00    -0.003 C 
ATOM      9  C   UNL     1      20.494  40.477  35.952  1.00  0.00    -0.011 C 
ATOM     10  C   UNL     1      20.311  35.554  37.468  1.00  0.00    -0.006 C 
ATOM     11  C   UNL     1      20.464  36.037  34.987  1.00  0.00    -0.027 C 
ATOM     12  C   UNL     1      18.680  39.032  37.180  1.00  0.00     0.008 C 
ATOM     13  C   UNL     1      19.527  41.665  36.088  1.00  0.00     0.008 C 
ATOM     14  C   UNL     1      18.986  35.879  38.222  1.00  0.00     0.017 C 
ATOM     15  C   UNL     1      20.303  33.965  37.057  1.00  0.00    -0.020 C 
ATOM     16  C   UNL     1      20.586  34.600  34.627  1.00  0.00     0.032 C 
ATOM     17  C   UNL     1      21.184  33.725  35.774  1.00  0.00     0.006 C 
ATOM     18  C   UNL     1      18.869  33.427  36.711  1.00  0.00     0.008 C 
ATOM     19  C   UNL     1      20.788  33.139  38.292  1.00  0.00     0.012 C 
ATOM     20  C   UNL     1      21.386  32.179  35.360  1.00  0.00    -0.025 C 
ATOM     21  C   UNL     1      18.793  32.162  35.809  1.00  0.00     0.005 C 
ATOM     22  C   UNL     1      20.085  31.300  35.650  1.00  0.00     0.003 C 
ATOM     23  C   UNL     1      21.842  32.035  33.859  1.00  0.00     0.010 C 
ATOM     24  C   UNL     1      22.593  31.616  36.187  1.00  0.00     0.012 C 
ATOM     25  C   UNL     1      19.867  30.080  34.649  1.00  0.00    -0.006 C 
ATOM     26  C   UNL     1      20.692  31.821  32.871  1.00  0.00     0.033 C 
ATOM     27  C   UNL     1      19.877  30.537  33.141  1.00  0.00     0.120 C 
ATOM     28  C   UNL     1      20.972  29.002  34.864  1.00  0.00     0.014 C 
ATOM     29  C   UNL     1      18.538  29.330  34.972  1.00  0.00     0.014 C 
ENDROOT
BRANCH   1  30
ATOM     30  C   UNL     1      23.383  37.940  37.092  1.00  0.00     0.048 C 
ATOM     31  O   UNL     1      23.625  37.650  35.889  1.00  0.00    -0.550 OA
ATOM     32  O   UNL     1      24.423  37.868  38.012  1.00  0.00    -0.550 OA
ENDBRANCH   1  30
BRANCH  27  33
ATOM     33  O   UNL     1      18.567  30.742  32.665  1.00  0.00    -0.393 OA
ATOM     34  H   UNL     1      18.452  30.165  31.865  1.00  0.00     0.210 HD
ENDBRANCH  27  33
TORSDOF 2
ENDMDL
MODEL 9
REMARK VINA RESULT:    -7.305      2.215      7.948
REMARK INTER + INTRA:          -8.230
REMARK INTER:                  -7.954
REMARK INTRA:                  -0.277
REMARK UNBOUND:                -0.285
REMARK SMILES C[C@H]1[C@@H](C)CC[C@@]2(C(=O)[O-])CC[C@@]3(C)C(=CC[C@@H]4[C@]5(C)CC[C@H](O)C(C)(C)[C@@H]5CC[C@@]43C)[C@@H]12
REMARK SMILES IDX 7 1 6 2 11 3 33 4 5 5 12 6 15 7 2 8 3 9 13 10 16 11 1 12
REMARK SMILES IDX 4 13 14 14 31 15 17 16 18 17 30 18 32 19 19 20 29 21 28 22
REMARK SMILES IDX 21 23 20 24 25 25 22 26 23 27 26 28 27 29 8 30 9 31 10 32
REMARK SMILES IDX 24 33
REMARK H PARENT 24 34
REMARK Flexibility Score: inf
ROOT
ATOM      1  C   UNL     1      18.313  31.603  33.614  1.00  0.00     0.017 C 
ATOM      2  C   UNL     1      17.596  30.469  32.815  1.00  0.00     0.014 C 
ATOM      3  C   UNL     1      19.584  32.007  32.843  1.00  0.00     0.014 C 
ATOM      4  C   UNL     1      17.338  32.827  33.820  1.00  0.00     0.030 C 
ATOM      5  C   UNL     1      16.157  30.257  33.286  1.00  0.00     0.004 C 
ATOM      6  C   UNL     1      20.269  33.261  33.413  1.00  0.00     0.013 C 
ATOM      7  C   UNL     1      18.038  34.193  34.046  1.00  0.00    -0.063 C 
ATOM      8  C   UNL     1      16.058  32.857  32.923  1.00  0.00    -0.003 C 
ATOM      9  C   UNL     1      15.261  31.509  33.081  1.00  0.00    -0.011 C 
ATOM     10  C   UNL     1      19.400  34.567  33.391  1.00  0.00    -0.006 C 
ATOM     11  C   UNL     1      17.522  34.924  35.051  1.00  0.00    -0.027 C 
ATOM     12  C   UNL     1      16.315  33.291  31.468  1.00  0.00     0.008 C 
ATOM     13  C   UNL     1      14.204  31.264  31.992  1.00  0.00     0.008 C 
ATOM     14  C   UNL     1      19.174  34.954  31.898  1.00  0.00     0.017 C 
ATOM     15  C   UNL     1      20.167  35.808  34.142  1.00  0.00    -0.020 C 
ATOM     16  C   UNL     1      18.273  35.959  35.808  1.00  0.00     0.032 C 
ATOM     17  C   UNL     1      19.822  35.816  35.679  1.00  0.00     0.006 C 
ATOM     18  C   UNL     1      19.745  37.216  33.590  1.00  0.00     0.008 C 
ATOM     19  C   UNL     1      21.699  35.676  33.862  1.00  0.00     0.012 C 
ATOM     20  C   UNL     1      20.639  36.893  36.559  1.00  0.00    -0.025 C 
ATOM     21  C   UNL     1      19.953  38.432  34.537  1.00  0.00     0.005 C 
ATOM     22  C   UNL     1      20.907  38.250  35.760  1.00  0.00     0.003 C 
ATOM     23  C   UNL     1      19.928  37.178  37.935  1.00  0.00     0.010 C 
ATOM     24  C   UNL     1      22.009  36.243  36.959  1.00  0.00     0.012 C 
ATOM     25  C   UNL     1      20.967  39.557  36.668  1.00  0.00    -0.006 C 
ATOM     26  C   UNL     1      18.983  38.383  37.916  1.00  0.00     0.033 C 
ATOM     27  C   UNL     1      19.687  39.714  37.573  1.00  0.00     0.120 C 
ATOM     28  C   UNL     1      22.235  39.527  37.575  1.00  0.00     0.014 C 
ATOM     29  C   UNL     1      21.160  40.832  35.790  1.00  0.00     0.014 C 
ENDROOT
BRANCH   1  30
ATOM     30  C   UNL     1      18.768  31.049  34.970  1.00  0.00     0.048 C 
ATOM     31  O   UNL     1      19.444  29.987  35.038  1.00  0.00    -0.550 OA
ATOM     32  O   UNL     1      18.363  31.651  36.157  1.00  0.00    -0.550 OA
ENDBRANCH   1  30
BRANCH  27  33
ATOM     33  O   UNL     1      18.742  40.567  36.972  1.00  0.00    -0.393 OA
ATOM     34  H   UNL     1      17.992  39.999  36.655  1.00  0.00     0.210 HD
ENDBRANCH  27  33
TORSDOF 2
ENDMDL
