MODEL 1
REMARK VINA RESULT:    -4.368      0.000      0.000
REMARK INTER + INTRA:         -15.055
REMARK INTER:                 -11.006
REMARK INTRA:                  -4.049
REMARK UNBOUND:                -4.049
REMARK SMILES CCCCCCCCCCCCCCCCCCCCCCCCCCCC(=O)[O-]
REMARK SMILES IDX 15 1 16 2 17 3 18 4 19 5 20 6 21 7 22 8 23 9 24 10 25 11
REMARK SMILES IDX 26 12 27 13 28 14 29 15 30 16 14 17 13 18 12 19 11 20 10 21
REMARK SMILES IDX 9 22 8 23 7 24 6 25 5 26 4 27 3 28 2 29 1 30
REMARK H PARENT
REMARK Flexibility Score: inf
ROOT
ATOM      1  C   UNL     1       2.578  -2.521   5.240  1.00  0.00     0.000 C 
ENDROOT
BRANCH   1   2
ATOM      2  C   UNL     1       3.982  -1.892   5.240  1.00  0.00     0.000 C 
BRANCH   2   3
ATOM      3  C   UNL     1       4.626  -1.749   6.634  1.00  0.00     0.000 C 
BRANCH   3   4
ATOM      4  C   UNL     1       4.139  -2.763   7.687  1.00  0.00     0.000 C 
BRANCH   4   5
ATOM      5  C   UNL     1       3.510  -2.093   8.917  1.00  0.00     0.000 C 
BRANCH   5   6
ATOM      6  C   UNL     1       3.335  -0.583   8.702  1.00  0.00     0.000 C 
BRANCH   6   7
ATOM      7  C   UNL     1       2.063  -0.037   9.384  1.00  0.00     0.000 C 
BRANCH   7   8
ATOM      8  C   UNL     1       1.247   0.920   8.498  1.00  0.00     0.000 C 
BRANCH   8   9
ATOM      9  C   UNL     1       2.029   1.415   7.268  1.00  0.00     0.000 C 
BRANCH   9  10
ATOM     10  C   UNL     1       2.265   2.941   7.295  1.00  0.00     0.000 C 
BRANCH  10  11
ATOM     11  C   UNL     1       0.968   3.769   7.307  1.00  0.00     0.000 C 
BRANCH  11  12
ATOM     12  C   UNL     1       0.727   4.520   5.988  1.00  0.00     0.006 C 
BRANCH  12  13
ATOM     13  C   UNL     1      -0.216   5.718   6.168  1.00  0.00     0.053 C 
BRANCH  13  14
ATOM     14  C   UNL     1      -0.266   6.576   4.940  1.00  0.00     0.041 C 
ATOM     15  O   UNL     1      -1.355   7.086   4.566  1.00  0.00    -0.550 OA
ATOM     16  O   UNL     1       0.896   6.836   4.223  1.00  0.00    -0.550 OA
ENDBRANCH  13  14
ENDBRANCH  12  13
ENDBRANCH  11  12
ENDBRANCH  10  11
ENDBRANCH   9  10
ENDBRANCH   8   9
ENDBRANCH   7   8
ENDBRANCH   6   7
ENDBRANCH   5   6
ENDBRANCH   4   5
ENDBRANCH   3   4
ENDBRANCH   2   3
ENDBRANCH   1   2
BRANCH   1  17
ATOM     17  C   UNL     1       1.460  -1.473   5.361  1.00  0.00     0.000 C 
BRANCH  17  18
ATOM     18  C   UNL     1       0.149  -2.065   5.908  1.00  0.00     0.000 C 
BRANCH  18  19
ATOM     19  C   UNL     1       0.189  -2.469   7.398  1.00  0.00     0.000 C 
BRANCH  19  20
ATOM     20  C   UNL     1      -1.167  -2.877   8.001  1.00  0.00     0.000 C 
BRANCH  20  21
ATOM     21  C   UNL     1      -2.344  -2.877   7.005  1.00  0.00     0.000 C 
BRANCH  21  22
ATOM     22  C   UNL     1      -2.790  -4.292   6.567  1.00  0.00    -0.000 C 
BRANCH  22  23
ATOM     23  C   UNL     1      -2.305  -4.699   5.163  1.00  0.00    -0.000 C 
BRANCH  23  24
ATOM     24  C   UNL     1      -3.325  -4.358   4.062  1.00  0.00    -0.000 C 
BRANCH  24  25
ATOM     25  C   UNL     1      -2.800  -3.300   3.078  1.00  0.00    -0.000 C 
BRANCH  25  26
ATOM     26  C   UNL     1      -2.859  -1.876   3.650  1.00  0.00    -0.000 C 
BRANCH  26  27
ATOM     27  C   UNL     1      -4.312  -1.441   3.892  1.00  0.00    -0.000 C 
BRANCH  27  28
ATOM     28  C   UNL     1      -4.479  -0.585   5.161  1.00  0.00    -0.000 C 
BRANCH  28  29
ATOM     29  C   UNL     1      -5.625  -1.021   6.091  1.00  0.00    -0.003 C 
ATOM     30  C   UNL     1      -6.048  -2.475   5.878  1.00  0.00     0.004 C 
ENDBRANCH  28  29
ENDBRANCH  27  28
ENDBRANCH  26  27
ENDBRANCH  25  26
ENDBRANCH  24  25
ENDBRANCH  23  24
ENDBRANCH  22  23
ENDBRANCH  21  22
ENDBRANCH  20  21
ENDBRANCH  19  20
ENDBRANCH  18  19
ENDBRANCH  17  18
ENDBRANCH   1  17
TORSDOF 26
ENDMDL
MODEL 2
REMARK VINA RESULT:    -4.192      1.863      3.711
REMARK INTER + INTRA:         -14.613
REMARK INTER:                 -11.916
REMARK INTRA:                  -2.697
REMARK UNBOUND:                -4.049
REMARK SMILES CCCCCCCCCCCCCCCCCCCCCCCCCCCC(=O)[O-]
REMARK SMILES IDX 15 1 16 2 17 3 18 4 19 5 20 6 21 7 22 8 23 9 24 10 25 11
REMARK SMILES IDX 26 12 27 13 28 14 29 15 30 16 14 17 13 18 12 19 11 20 10 21
REMARK SMILES IDX 9 22 8 23 7 24 6 25 5 26 4 27 3 28 2 29 1 30
REMARK H PARENT
REMARK Flexibility Score: inf
ROOT
ATOM      1  C   UNL     1       3.587  -1.026   7.702  1.00  0.00     0.000 C 
ENDROOT
BRANCH   1   2
ATOM      2  C   UNL     1       2.510  -0.701   8.750  1.00  0.00     0.000 C 
BRANCH   2   3
ATOM      3  C   UNL     1       1.483   0.364   8.312  1.00  0.00     0.000 C 
BRANCH   3   4
ATOM      4  C   UNL     1       1.921   1.248   7.129  1.00  0.00     0.000 C 
BRANCH   4   5
ATOM      5  C   UNL     1       1.375   2.681   7.218  1.00  0.00     0.000 C 
BRANCH   5   6
ATOM      6  C   UNL     1       0.617   2.908   8.535  1.00  0.00     0.000 C 
BRANCH   6   7
ATOM      7  C   UNL     1      -0.058   4.295   8.589  1.00  0.00     0.000 C 
BRANCH   7   8
ATOM      8  C   UNL     1       0.364   5.234   7.447  1.00  0.00     0.000 C 
BRANCH   8   9
ATOM      9  C   UNL     1      -0.834   5.873   6.721  1.00  0.00     0.000 C 
BRANCH   9  10
ATOM     10  C   UNL     1      -0.597   6.008   5.201  1.00  0.00     0.000 C 
BRANCH  10  11
ATOM     11  C   UNL     1       0.495   5.071   4.657  1.00  0.00     0.000 C 
BRANCH  11  12
ATOM     12  C   UNL     1       1.708   5.828   4.095  1.00  0.00     0.006 C 
BRANCH  12  13
ATOM     13  C   UNL     1       2.797   4.877   3.578  1.00  0.00     0.053 C 
BRANCH  13  14
ATOM     14  C   UNL     1       3.096   5.108   2.127  1.00  0.00     0.041 C 
ATOM     15  O   UNL     1       2.157   5.220   1.296  1.00  0.00    -0.550 OA
ATOM     16  O   UNL     1       4.412   5.227   1.697  1.00  0.00    -0.550 OA
ENDBRANCH  13  14
ENDBRANCH  12  13
ENDBRANCH  11  12
ENDBRANCH  10  11
ENDBRANCH   9  10
ENDBRANCH   8   9
ENDBRANCH   7   8
ENDBRANCH   6   7
ENDBRANCH   5   6
ENDBRANCH   4   5
ENDBRANCH   3   4
ENDBRANCH   2   3
ENDBRANCH   1   2
BRANCH   1  17
ATOM     17  C   UNL     1       3.799  -2.537   7.520  1.00  0.00     0.000 C 
BRANCH  17  18
ATOM     18  C   UNL     1       2.988  -3.113   6.347  1.00  0.00     0.000 C 
BRANCH  18  19
ATOM     19  C   UNL     1       2.635  -2.097   5.239  1.00  0.00     0.000 C 
BRANCH  19  20
ATOM     20  C   UNL     1       1.157  -1.669   5.192  1.00  0.00     0.000 C 
BRANCH  20  21
ATOM     21  C   UNL     1       0.195  -2.578   5.982  1.00  0.00     0.000 C 
BRANCH  21  22
ATOM     22  C   UNL     1      -1.300  -2.312   5.686  1.00  0.00    -0.000 C 
BRANCH  22  23
ATOM     23  C   UNL     1      -1.911  -3.258   4.635  1.00  0.00    -0.000 C 
BRANCH  23  24
ATOM     24  C   UNL     1      -2.612  -2.501   3.493  1.00  0.00    -0.000 C 
BRANCH  24  25
ATOM     25  C   UNL     1      -3.568  -1.412   4.007  1.00  0.00    -0.000 C 
BRANCH  25  26
ATOM     26  C   UNL     1      -5.013  -1.911   4.153  1.00  0.00    -0.000 C 
BRANCH  26  27
ATOM     27  C   UNL     1      -5.370  -2.136   5.630  1.00  0.00    -0.000 C 
BRANCH  27  28
ATOM     28  C   UNL     1      -6.396  -1.119   6.161  1.00  0.00    -0.000 C 
BRANCH  28  29
ATOM     29  C   UNL     1      -5.801   0.225   6.619  1.00  0.00    -0.003 C 
ATOM     30  C   UNL     1      -6.635   0.912   7.699  1.00  0.00     0.004 C 
ENDBRANCH  28  29
ENDBRANCH  27  28
ENDBRANCH  26  27
ENDBRANCH  25  26
ENDBRANCH  24  25
ENDBRANCH  23  24
ENDBRANCH  22  23
ENDBRANCH  21  22
ENDBRANCH  20  21
ENDBRANCH  19  20
ENDBRANCH  18  19
ENDBRANCH  17  18
ENDBRANCH   1  17
TORSDOF 26
ENDMDL
MODEL 3
REMARK VINA RESULT:    -4.169      2.286      4.820
REMARK INTER + INTRA:         -14.555
REMARK INTER:                 -11.798
REMARK INTRA:                  -2.757
REMARK UNBOUND:                -4.049
REMARK SMILES CCCCCCCCCCCCCCCCCCCCCCCCCCCC(=O)[O-]
REMARK SMILES IDX 15 1 16 2 17 3 18 4 19 5 20 6 21 7 22 8 23 9 24 10 25 11
REMARK SMILES IDX 26 12 27 13 28 14 29 15 30 16 14 17 13 18 12 19 11 20 10 21
REMARK SMILES IDX 9 22 8 23 7 24 6 25 5 26 4 27 3 28 2 29 1 30
REMARK H PARENT
REMARK Flexibility Score: inf
ROOT
ATOM      1  C   UNL     1      -2.910  -1.685   3.818  1.00  0.00     0.000 C 
ENDROOT
BRANCH   1   2
ATOM      2  C   UNL     1      -2.403  -2.276   5.145  1.00  0.00     0.000 C 
BRANCH   2   3
ATOM      3  C   UNL     1      -0.921  -2.704   5.136  1.00  0.00     0.000 C 
BRANCH   3   4
ATOM      4  C   UNL     1       0.087  -1.579   5.437  1.00  0.00     0.000 C 
BRANCH   4   5
ATOM      5  C   UNL     1       1.548  -2.027   5.279  1.00  0.00     0.000 C 
BRANCH   5   6
ATOM      6  C   UNL     1       2.509  -1.041   5.959  1.00  0.00     0.000 C 
BRANCH   6   7
ATOM      7  C   UNL     1       1.762   0.064   6.735  1.00  0.00     0.000 C 
BRANCH   7   8
ATOM      8  C   UNL     1       2.508   0.553   7.989  1.00  0.00     0.000 C 
BRANCH   8   9
ATOM      9  C   UNL     1       1.809   1.739   8.679  1.00  0.00     0.000 C 
BRANCH   9  10
ATOM     10  C   UNL     1       1.196   2.731   7.667  1.00  0.00     0.000 C 
BRANCH  10  11
ATOM     11  C   UNL     1       0.209   3.729   8.297  1.00  0.00     0.000 C 
BRANCH  11  12
ATOM     12  C   UNL     1       0.093   5.038   7.500  1.00  0.00     0.006 C 
BRANCH  12  13
ATOM     13  C   UNL     1       0.832   4.967   6.156  1.00  0.00     0.053 C 
BRANCH  13  14
ATOM     14  C   UNL     1      -0.054   5.360   5.012  1.00  0.00     0.041 C 
ATOM     15  O   UNL     1       0.299   5.123   3.826  1.00  0.00    -0.550 OA
ATOM     16  O   UNL     1      -1.282   5.963   5.256  1.00  0.00    -0.550 OA
ENDBRANCH  13  14
ENDBRANCH  12  13
ENDBRANCH  11  12
ENDBRANCH  10  11
ENDBRANCH   9  10
ENDBRANCH   8   9
ENDBRANCH   7   8
ENDBRANCH   6   7
ENDBRANCH   5   6
ENDBRANCH   4   5
ENDBRANCH   3   4
ENDBRANCH   2   3
ENDBRANCH   1   2
BRANCH   1  17
ATOM     17  C   UNL     1      -4.308  -1.057   3.946  1.00  0.00     0.000 C 
BRANCH  17  18
ATOM     18  C   UNL     1      -4.817  -1.034   5.398  1.00  0.00     0.000 C 
BRANCH  18  19
ATOM     19  C   UNL     1      -6.087  -1.873   5.656  1.00  0.00     0.000 C 
BRANCH  19  20
ATOM     20  C   UNL     1      -5.839  -3.262   6.273  1.00  0.00     0.000 C 
BRANCH  20  21
ATOM     21  C   UNL     1      -6.068  -4.446   5.313  1.00  0.00     0.000 C 
BRANCH  21  22
ATOM     22  C   UNL     1      -6.487  -4.021   3.887  1.00  0.00    -0.000 C 
BRANCH  22  23
ATOM     23  C   UNL     1      -5.395  -4.228   2.822  1.00  0.00    -0.000 C 
BRANCH  23  24
ATOM     24  C   UNL     1      -4.340  -5.264   3.248  1.00  0.00    -0.000 C 
BRANCH  24  25
ATOM     25  C   UNL     1      -3.025  -5.126   2.463  1.00  0.00    -0.000 C 
BRANCH  25  26
ATOM     26  C   UNL     1      -3.248  -4.708   1.001  1.00  0.00    -0.000 C 
BRANCH  26  27
ATOM     27  C   UNL     1      -2.204  -5.358   0.080  1.00  0.00    -0.000 C 
BRANCH  27  28
ATOM     28  C   UNL     1      -2.290  -4.853  -1.372  1.00  0.00    -0.000 C 
BRANCH  28  29
ATOM     29  C   UNL     1      -1.093  -4.003  -1.834  1.00  0.00    -0.003 C 
ATOM     30  C   UNL     1       0.142  -4.840  -2.169  1.00  0.00     0.004 C 
ENDBRANCH  28  29
ENDBRANCH  27  28
ENDBRANCH  26  27
ENDBRANCH  25  26
ENDBRANCH  24  25
ENDBRANCH  23  24
ENDBRANCH  22  23
ENDBRANCH  21  22
ENDBRANCH  20  21
ENDBRANCH  19  20
ENDBRANCH  18  19
ENDBRANCH  17  18
ENDBRANCH   1  17
TORSDOF 26
ENDMDL
MODEL 4
REMARK VINA RESULT:    -4.141      1.294      2.409
REMARK INTER + INTRA:         -14.485
REMARK INTER:                  -9.851
REMARK INTRA:                  -4.634
REMARK UNBOUND:                -4.049
REMARK SMILES CCCCCCCCCCCCCCCCCCCCCCCCCCCC(=O)[O-]
REMARK SMILES IDX 15 1 16 2 17 3 18 4 19 5 20 6 21 7 22 8 23 9 24 10 25 11
REMARK SMILES IDX 26 12 27 13 28 14 29 15 30 16 14 17 13 18 12 19 11 20 10 21
REMARK SMILES IDX 9 22 8 23 7 24 6 25 5 26 4 27 3 28 2 29 1 30
REMARK H PARENT
REMARK Flexibility Score: inf
ROOT
ATOM      1  C   UNL     1       2.115  -2.214   5.214  1.00  0.00     0.000 C 
ENDROOT
BRANCH   1   2
ATOM      2  C   UNL     1       3.515  -1.704   5.593  1.00  0.00     0.000 C 
BRANCH   2   3
ATOM      3  C   UNL     1       3.964  -2.054   7.027  1.00  0.00     0.000 C 
BRANCH   3   4
ATOM      4  C   UNL     1       3.189  -3.207   7.692  1.00  0.00     0.000 C 
BRANCH   4   5
ATOM      5  C   UNL     1       2.379  -2.756   8.917  1.00  0.00     0.000 C 
BRANCH   5   6
ATOM      6  C   UNL     1       2.447  -1.233   9.101  1.00  0.00     0.000 C 
BRANCH   6   7
ATOM      7  C   UNL     1       1.048  -0.580   9.098  1.00  0.00     0.000 C 
BRANCH   7   8
ATOM      8  C   UNL     1       1.074   0.938   8.848  1.00  0.00     0.000 C 
BRANCH   8   9
ATOM      9  C   UNL     1       2.159   1.364   7.843  1.00  0.00     0.000 C 
BRANCH   9  10
ATOM     10  C   UNL     1       1.589   2.217   6.689  1.00  0.00     0.000 C 
BRANCH  10  11
ATOM     11  C   UNL     1       0.948   3.537   7.150  1.00  0.00     0.000 C 
BRANCH  11  12
ATOM     12  C   UNL     1       0.713   4.524   5.996  1.00  0.00     0.006 C 
BRANCH  12  13
ATOM     13  C   UNL     1       1.849   5.549   5.871  1.00  0.00     0.053 C 
BRANCH  13  14
ATOM     14  C   UNL     1       2.484   5.513   4.513  1.00  0.00     0.041 C 
ATOM     15  O   UNL     1       3.650   5.058   4.370  1.00  0.00    -0.550 OA
ATOM     16  O   UNL     1       1.779   5.957   3.402  1.00  0.00    -0.550 OA
ENDBRANCH  13  14
ENDBRANCH  12  13
ENDBRANCH  11  12
ENDBRANCH  10  11
ENDBRANCH   9  10
ENDBRANCH   8   9
ENDBRANCH   7   8
ENDBRANCH   6   7
ENDBRANCH   5   6
ENDBRANCH   4   5
ENDBRANCH   3   4
ENDBRANCH   2   3
ENDBRANCH   1   2
BRANCH   1  17
ATOM     17  C   UNL     1       1.036  -1.124   5.333  1.00  0.00     0.000 C 
BRANCH  17  18
ATOM     18  C   UNL     1      -0.387  -1.705   5.414  1.00  0.00     0.000 C 
BRANCH  18  19
ATOM     19  C   UNL     1      -0.481  -3.112   6.040  1.00  0.00     0.000 C 
BRANCH  19  20
ATOM     20  C   UNL     1      -0.968  -3.147   7.501  1.00  0.00     0.000 C 
BRANCH  20  21
ATOM     21  C   UNL     1      -2.425  -3.617   7.685  1.00  0.00     0.000 C 
BRANCH  21  22
ATOM     22  C   UNL     1      -3.302  -2.627   8.487  1.00  0.00    -0.000 C 
BRANCH  22  23
ATOM     23  C   UNL     1      -4.491  -2.055   7.694  1.00  0.00    -0.000 C 
BRANCH  23  24
ATOM     24  C   UNL     1      -4.409  -2.373   6.191  1.00  0.00    -0.000 C 
BRANCH  24  25
ATOM     25  C   UNL     1      -4.441  -1.109   5.317  1.00  0.00    -0.000 C 
BRANCH  25  26
ATOM     26  C   UNL     1      -3.777  -1.316   3.947  1.00  0.00    -0.000 C 
BRANCH  26  27
ATOM     27  C   UNL     1      -3.965  -2.760   3.459  1.00  0.00    -0.000 C 
BRANCH  27  28
ATOM     28  C   UNL     1      -2.641  -3.437   3.062  1.00  0.00    -0.000 C 
BRANCH  28  29
ATOM     29  C   UNL     1      -2.579  -4.951   3.337  1.00  0.00    -0.003 C 
ATOM     30  C   UNL     1      -3.520  -5.394   4.457  1.00  0.00     0.004 C 
ENDBRANCH  28  29
ENDBRANCH  27  28
ENDBRANCH  26  27
ENDBRANCH  25  26
ENDBRANCH  24  25
ENDBRANCH  23  24
ENDBRANCH  22  23
ENDBRANCH  21  22
ENDBRANCH  20  21
ENDBRANCH  19  20
ENDBRANCH  18  19
ENDBRANCH  17  18
ENDBRANCH   1  17
TORSDOF 26
ENDMDL
MODEL 5
REMARK VINA RESULT:    -4.116      1.184      1.975
REMARK INTER + INTRA:         -14.420
REMARK INTER:                 -10.957
REMARK INTRA:                  -3.464
REMARK UNBOUND:                -4.049
REMARK SMILES CCCCCCCCCCCCCCCCCCCCCCCCCCCC(=O)[O-]
REMARK SMILES IDX 15 1 16 2 17 3 18 4 19 5 20 6 21 7 22 8 23 9 24 10 25 11
REMARK SMILES IDX 26 12 27 13 28 14 29 15 30 16 14 17 13 18 12 19 11 20 10 21
REMARK SMILES IDX 9 22 8 23 7 24 6 25 5 26 4 27 3 28 2 29 1 30
REMARK H PARENT
REMARK Flexibility Score: inf
ROOT
ATOM      1  C   UNL     1       3.983  -1.827   5.312  1.00  0.00     0.000 C 
ENDROOT
BRANCH   1   2
ATOM      2  C   UNL     1       4.822  -1.805   6.601  1.00  0.00     0.000 C 
BRANCH   2   3
ATOM      3  C   UNL     1       4.001  -1.855   7.906  1.00  0.00     0.000 C 
BRANCH   3   4
ATOM      4  C   UNL     1       4.384  -0.801   8.962  1.00  0.00     0.000 C 
BRANCH   4   5
ATOM      5  C   UNL     1       3.225  -0.450   9.907  1.00  0.00     0.000 C 
BRANCH   5   6
ATOM      6  C   UNL     1       1.893  -1.013   9.388  1.00  0.00     0.000 C 
BRANCH   6   7
ATOM      7  C   UNL     1       0.844   0.093   9.148  1.00  0.00     0.000 C 
BRANCH   7   8
ATOM      8  C   UNL     1       1.450   1.437   8.708  1.00  0.00     0.000 C 
BRANCH   8   9
ATOM      9  C   UNL     1       1.667   1.529   7.187  1.00  0.00     0.000 C 
BRANCH   9  10
ATOM     10  C   UNL     1       1.358   2.936   6.633  1.00  0.00     0.000 C 
BRANCH  10  11
ATOM     11  C   UNL     1       0.950   3.953   7.713  1.00  0.00     0.000 C 
BRANCH  11  12
ATOM     12  C   UNL     1      -0.149   4.918   7.242  1.00  0.00     0.006 C 
BRANCH  12  13
ATOM     13  C   UNL     1       0.394   5.995   6.291  1.00  0.00     0.053 C 
BRANCH  13  14
ATOM     14  C   UNL     1      -0.299   5.964   4.962  1.00  0.00     0.041 C 
ATOM     15  O   UNL     1      -0.035   5.056   4.130  1.00  0.00    -0.550 OA
ATOM     16  O   UNL     1      -1.256   6.922   4.652  1.00  0.00    -0.550 OA
ENDBRANCH  13  14
ENDBRANCH  12  13
ENDBRANCH  11  12
ENDBRANCH  10  11
ENDBRANCH   9  10
ENDBRANCH   8   9
ENDBRANCH   7   8
ENDBRANCH   6   7
ENDBRANCH   5   6
ENDBRANCH   4   5
ENDBRANCH   3   4
ENDBRANCH   2   3
ENDBRANCH   1   2
BRANCH   1  17
ATOM     17  C   UNL     1       2.697  -2.657   5.457  1.00  0.00     0.000 C 
BRANCH  17  18
ATOM     18  C   UNL     1       1.424  -1.797   5.368  1.00  0.00     0.000 C 
BRANCH  18  19
ATOM     19  C   UNL     1       0.266  -2.253   6.281  1.00  0.00     0.000 C 
BRANCH  19  20
ATOM     20  C   UNL     1      -1.011  -2.699   5.545  1.00  0.00     0.000 C 
BRANCH  20  21
ATOM     21  C   UNL     1      -1.565  -1.676   4.533  1.00  0.00     0.000 C 
BRANCH  21  22
ATOM     22  C   UNL     1      -2.555  -2.283   3.512  1.00  0.00    -0.000 C 
BRANCH  22  23
ATOM     23  C   UNL     1      -2.968  -3.734   3.821  1.00  0.00    -0.000 C 
BRANCH  23  24
ATOM     24  C   UNL     1      -4.488  -3.952   3.715  1.00  0.00    -0.000 C 
BRANCH  24  25
ATOM     25  C   UNL     1      -5.275  -3.141   4.757  1.00  0.00    -0.000 C 
BRANCH  25  26
ATOM     26  C   UNL     1      -4.716  -3.300   6.179  1.00  0.00    -0.000 C 
BRANCH  26  27
ATOM     27  C   UNL     1      -4.551  -1.933   6.860  1.00  0.00    -0.000 C 
BRANCH  27  28
ATOM     28  C   UNL     1      -4.965  -0.758   5.956  1.00  0.00    -0.000 C 
BRANCH  28  29
ATOM     29  C   UNL     1      -5.852   0.301   6.635  1.00  0.00    -0.003 C 
ATOM     30  C   UNL     1      -6.792  -0.290   7.686  1.00  0.00     0.004 C 
ENDBRANCH  28  29
ENDBRANCH  27  28
ENDBRANCH  26  27
ENDBRANCH  25  26
ENDBRANCH  24  25
ENDBRANCH  23  24
ENDBRANCH  22  23
ENDBRANCH  21  22
ENDBRANCH  20  21
ENDBRANCH  19  20
ENDBRANCH  18  19
ENDBRANCH  17  18
ENDBRANCH   1  17
TORSDOF 26
ENDMDL
MODEL 6
REMARK VINA RESULT:    -4.094      1.012      2.092
REMARK INTER + INTRA:         -14.365
REMARK INTER:                 -10.376
REMARK INTRA:                  -3.989
REMARK UNBOUND:                -4.049
REMARK SMILES CCCCCCCCCCCCCCCCCCCCCCCCCCCC(=O)[O-]
REMARK SMILES IDX 15 1 16 2 17 3 18 4 19 5 20 6 21 7 22 8 23 9 24 10 25 11
REMARK SMILES IDX 26 12 27 13 28 14 29 15 30 16 14 17 13 18 12 19 11 20 10 21
REMARK SMILES IDX 9 22 8 23 7 24 6 25 5 26 4 27 3 28 2 29 1 30
REMARK H PARENT
REMARK Flexibility Score: inf
ROOT
ATOM      1  C   UNL     1       2.390  -2.612   5.323  1.00  0.00     0.000 C 
ENDROOT
BRANCH   1   2
ATOM      2  C   UNL     1       3.693  -1.796   5.327  1.00  0.00     0.000 C 
BRANCH   2   3
ATOM      3  C   UNL     1       4.492  -1.862   6.645  1.00  0.00     0.000 C 
BRANCH   3   4
ATOM      4  C   UNL     1       3.821  -2.659   7.779  1.00  0.00     0.000 C 
BRANCH   4   5
ATOM      5  C   UNL     1       3.518  -1.801   9.017  1.00  0.00     0.000 C 
BRANCH   5   6
ATOM      6  C   UNL     1       2.007  -1.701   9.271  1.00  0.00     0.000 C 
BRANCH   6   7
ATOM      7  C   UNL     1       1.410  -0.383   8.735  1.00  0.00     0.000 C 
BRANCH   7   8
ATOM      8  C   UNL     1       2.379   0.809   8.803  1.00  0.00     0.000 C 
BRANCH   8   9
ATOM      9  C   UNL     1       1.763   2.116   8.272  1.00  0.00     0.000 C 
BRANCH   9  10
ATOM     10  C   UNL     1       1.550   2.087   6.743  1.00  0.00     0.000 C 
BRANCH  10  11
ATOM     11  C   UNL     1       1.404   3.481   6.109  1.00  0.00     0.000 C 
BRANCH  11  12
ATOM     12  C   UNL     1       0.479   4.409   6.913  1.00  0.00     0.006 C 
BRANCH  12  13
ATOM     13  C   UNL     1       0.560   5.865   6.432  1.00  0.00     0.053 C 
BRANCH  13  14
ATOM     14  C   UNL     1      -0.684   6.281   5.706  1.00  0.00     0.041 C 
ATOM     15  O   UNL     1      -0.917   5.847   4.547  1.00  0.00    -0.550 OA
ATOM     16  O   UNL     1      -1.599   7.127   6.319  1.00  0.00    -0.550 OA
ENDBRANCH  13  14
ENDBRANCH  12  13
ENDBRANCH  11  12
ENDBRANCH  10  11
ENDBRANCH   9  10
ENDBRANCH   8   9
ENDBRANCH   7   8
ENDBRANCH   6   7
ENDBRANCH   5   6
ENDBRANCH   4   5
ENDBRANCH   3   4
ENDBRANCH   2   3
ENDBRANCH   1   2
BRANCH   1  17
ATOM     17  C   UNL     1       1.136  -1.723   5.323  1.00  0.00     0.000 C 
BRANCH  17  18
ATOM     18  C   UNL     1      -0.041  -2.358   6.086  1.00  0.00     0.000 C 
BRANCH  18  19
ATOM     19  C   UNL     1       0.311  -3.636   6.878  1.00  0.00     0.000 C 
BRANCH  19  20
ATOM     20  C   UNL     1      -0.898  -4.429   7.408  1.00  0.00     0.000 C 
BRANCH  20  21
ATOM     21  C   UNL     1      -1.662  -3.749   8.562  1.00  0.00     0.000 C 
BRANCH  21  22
ATOM     22  C   UNL     1      -3.184  -3.632   8.319  1.00  0.00    -0.000 C 
BRANCH  22  23
ATOM     23  C   UNL     1      -3.572  -2.599   7.244  1.00  0.00    -0.000 C 
BRANCH  23  24
ATOM     24  C   UNL     1      -4.865  -2.978   6.499  1.00  0.00    -0.000 C 
BRANCH  24  25
ATOM     25  C   UNL     1      -5.543  -1.765   5.840  1.00  0.00    -0.000 C 
BRANCH  25  26
ATOM     26  C   UNL     1      -4.533  -0.759   5.267  1.00  0.00    -0.000 C 
BRANCH  26  27
ATOM     27  C   UNL     1      -4.135  -1.137   3.833  1.00  0.00    -0.000 C 
BRANCH  27  28
ATOM     28  C   UNL     1      -2.768  -1.841   3.755  1.00  0.00    -0.000 C 
BRANCH  28  29
ATOM     29  C   UNL     1      -2.792  -3.232   3.096  1.00  0.00    -0.003 C 
ATOM     30  C   UNL     1      -2.397  -4.355   4.054  1.00  0.00     0.004 C 
ENDBRANCH  28  29
ENDBRANCH  27  28
ENDBRANCH  26  27
ENDBRANCH  25  26
ENDBRANCH  24  25
ENDBRANCH  23  24
ENDBRANCH  22  23
ENDBRANCH  21  22
ENDBRANCH  20  21
ENDBRANCH  19  20
ENDBRANCH  18  19
ENDBRANCH  17  18
ENDBRANCH   1  17
TORSDOF 26
ENDMDL
MODEL 7
REMARK VINA RESULT:    -4.090      1.413      2.196
REMARK INTER + INTRA:         -14.355
REMARK INTER:                 -10.246
REMARK INTRA:                  -4.109
REMARK UNBOUND:                -4.049
REMARK SMILES CCCCCCCCCCCCCCCCCCCCCCCCCCCC(=O)[O-]
REMARK SMILES IDX 15 1 16 2 17 3 18 4 19 5 20 6 21 7 22 8 23 9 24 10 25 11
REMARK SMILES IDX 26 12 27 13 28 14 29 15 30 16 14 17 13 18 12 19 11 20 10 21
REMARK SMILES IDX 9 22 8 23 7 24 6 25 5 26 4 27 3 28 2 29 1 30
REMARK H PARENT
REMARK Flexibility Score: inf
ROOT
ATOM      1  C   UNL     1       1.971  -1.918   5.246  1.00  0.00     0.000 C 
ENDROOT
BRANCH   1   2
ATOM      2  C   UNL     1       1.207  -0.661   5.695  1.00  0.00     0.000 C 
BRANCH   2   3
ATOM      3  C   UNL     1       1.941   0.200   6.744  1.00  0.00     0.000 C 
BRANCH   3   4
ATOM      4  C   UNL     1       1.289   0.230   8.139  1.00  0.00     0.000 C 
BRANCH   4   5
ATOM      5  C   UNL     1       2.316   0.221   9.281  1.00  0.00     0.000 C 
BRANCH   5   6
ATOM      6  C   UNL     1       3.753   0.248   8.738  1.00  0.00     0.000 C 
BRANCH   6   7
ATOM      7  C   UNL     1       4.572   1.425   9.309  1.00  0.00     0.000 C 
BRANCH   7   8
ATOM      8  C   UNL     1       3.813   2.762   9.317  1.00  0.00     0.000 C 
BRANCH   8   9
ATOM      9  C   UNL     1       4.417   3.802   8.357  1.00  0.00     0.000 C 
BRANCH   9  10
ATOM     10  C   UNL     1       3.387   4.328   7.334  1.00  0.00     0.000 C 
BRANCH  10  11
ATOM     11  C   UNL     1       1.968   3.771   7.540  1.00  0.00     0.000 C 
BRANCH  11  12
ATOM     12  C   UNL     1       1.095   3.878   6.280  1.00  0.00     0.006 C 
BRANCH  12  13
ATOM     13  C   UNL     1       0.229   5.146   6.282  1.00  0.00     0.053 C 
BRANCH  13  14
ATOM     14  C   UNL     1      -0.016   5.654   4.892  1.00  0.00     0.041 C 
ATOM     15  O   UNL     1       0.259   4.934   3.896  1.00  0.00    -0.550 OA
ATOM     16  O   UNL     1      -0.571   6.913   4.698  1.00  0.00    -0.550 OA
ENDBRANCH  13  14
ENDBRANCH  12  13
ENDBRANCH  11  12
ENDBRANCH  10  11
ENDBRANCH   9  10
ENDBRANCH   8   9
ENDBRANCH   7   8
ENDBRANCH   6   7
ENDBRANCH   5   6
ENDBRANCH   4   5
ENDBRANCH   3   4
ENDBRANCH   2   3
ENDBRANCH   1   2
BRANCH   1  17
ATOM     17  C   UNL     1       2.916  -2.456   6.333  1.00  0.00     0.000 C 
BRANCH  17  18
ATOM     18  C   UNL     1       2.568  -3.892   6.763  1.00  0.00     0.000 C 
BRANCH  18  19
ATOM     19  C   UNL     1       1.826  -4.006   8.112  1.00  0.00     0.000 C 
BRANCH  19  20
ATOM     20  C   UNL     1       0.296  -4.141   8.006  1.00  0.00     0.000 C 
BRANCH  20  21
ATOM     21  C   UNL     1      -0.483  -2.819   8.165  1.00  0.00     0.000 C 
BRANCH  21  22
ATOM     22  C   UNL     1      -1.744  -2.729   7.275  1.00  0.00    -0.000 C 
BRANCH  22  23
ATOM     23  C   UNL     1      -1.751  -3.713   6.090  1.00  0.00    -0.000 C 
BRANCH  23  24
ATOM     24  C   UNL     1      -1.396  -3.035   4.755  1.00  0.00    -0.000 C 
BRANCH  24  25
ATOM     25  C   UNL     1      -2.263  -3.537   3.589  1.00  0.00    -0.000 C 
BRANCH  25  26
ATOM     26  C   UNL     1      -3.673  -2.926   3.590  1.00  0.00    -0.000 C 
BRANCH  26  27
ATOM     27  C   UNL     1      -3.610  -1.404   3.794  1.00  0.00    -0.000 C 
BRANCH  27  28
ATOM     28  C   UNL     1      -4.841  -0.847   4.532  1.00  0.00    -0.000 C 
BRANCH  28  29
ATOM     29  C   UNL     1      -4.831  -1.054   6.057  1.00  0.00    -0.003 C 
ATOM     30  C   UNL     1      -5.855  -0.184   6.786  1.00  0.00     0.004 C 
ENDBRANCH  28  29
ENDBRANCH  27  28
ENDBRANCH  26  27
ENDBRANCH  25  26
ENDBRANCH  24  25
ENDBRANCH  23  24
ENDBRANCH  22  23
ENDBRANCH  21  22
ENDBRANCH  20  21
ENDBRANCH  19  20
ENDBRANCH  18  19
ENDBRANCH  17  18
ENDBRANCH   1  17
TORSDOF 26
ENDMDL
MODEL 8
REMARK VINA RESULT:    -4.040      1.337      3.040
REMARK INTER + INTRA:         -14.229
REMARK INTER:                 -10.230
REMARK INTRA:                  -3.999
REMARK UNBOUND:                -4.049
REMARK SMILES CCCCCCCCCCCCCCCCCCCCCCCCCCCC(=O)[O-]
REMARK SMILES IDX 15 1 16 2 17 3 18 4 19 5 20 6 21 7 22 8 23 9 24 10 25 11
REMARK SMILES IDX 26 12 27 13 28 14 29 15 30 16 14 17 13 18 12 19 11 20 10 21
REMARK SMILES IDX 9 22 8 23 7 24 6 25 5 26 4 27 3 28 2 29 1 30
REMARK H PARENT
REMARK Flexibility Score: inf
ROOT
ATOM      1  C   UNL     1       1.931  -3.397   8.670  1.00  0.00     0.000 C 
ENDROOT
BRANCH   1   2
ATOM      2  C   UNL     1       3.194  -3.564   7.808  1.00  0.00     0.000 C 
BRANCH   2   3
ATOM      3  C   UNL     1       2.941  -3.575   6.286  1.00  0.00     0.000 C 
BRANCH   3   4
ATOM      4  C   UNL     1       2.823  -2.186   5.632  1.00  0.00     0.000 C 
BRANCH   4   5
ATOM      5  C   UNL     1       1.381  -1.829   5.242  1.00  0.00     0.000 C 
BRANCH   5   6
ATOM      6  C   UNL     1       1.043  -0.380   5.621  1.00  0.00     0.000 C 
BRANCH   6   7
ATOM      7  C   UNL     1       1.902   0.133   6.796  1.00  0.00     0.000 C 
BRANCH   7   8
ATOM      8  C   UNL     1       1.188   0.075   8.157  1.00  0.00     0.000 C 
BRANCH   8   9
ATOM      9  C   UNL     1       1.185   1.427   8.893  1.00  0.00     0.000 C 
BRANCH   9  10
ATOM     10  C   UNL     1       1.461   2.614   7.943  1.00  0.00     0.000 C 
BRANCH  10  11
ATOM     11  C   UNL     1       0.351   3.679   7.942  1.00  0.00     0.000 C 
BRANCH  11  12
ATOM     12  C   UNL     1       0.608   4.810   6.935  1.00  0.00     0.006 C 
BRANCH  12  13
ATOM     13  C   UNL     1       1.033   4.275   5.559  1.00  0.00     0.053 C 
BRANCH  13  14
ATOM     14  C   UNL     1       0.636   5.207   4.453  1.00  0.00     0.041 C 
ATOM     15  O   UNL     1       1.308   5.251   3.389  1.00  0.00    -0.550 OA
ATOM     16  O   UNL     1      -0.492   6.006   4.587  1.00  0.00    -0.550 OA
ENDBRANCH  13  14
ENDBRANCH  12  13
ENDBRANCH  11  12
ENDBRANCH  10  11
ENDBRANCH   9  10
ENDBRANCH   8   9
ENDBRANCH   7   8
ENDBRANCH   6   7
ENDBRANCH   5   6
ENDBRANCH   4   5
ENDBRANCH   3   4
ENDBRANCH   2   3
ENDBRANCH   1   2
BRANCH   1  17
ATOM     17  C   UNL     1       0.693  -4.051   8.036  1.00  0.00     0.000 C 
BRANCH  17  18
ATOM     18  C   UNL     1      -0.559  -3.161   8.125  1.00  0.00     0.000 C 
BRANCH  18  19
ATOM     19  C   UNL     1      -1.541  -3.298   6.941  1.00  0.00     0.000 C 
BRANCH  19  20
ATOM     20  C   UNL     1      -3.027  -3.125   7.301  1.00  0.00     0.000 C 
BRANCH  20  21
ATOM     21  C   UNL     1      -3.767  -2.042   6.490  1.00  0.00     0.000 C 
BRANCH  21  22
ATOM     22  C   UNL     1      -4.811  -2.609   5.500  1.00  0.00    -0.000 C 
BRANCH  22  23
ATOM     23  C   UNL     1      -4.617  -2.142   4.045  1.00  0.00    -0.000 C 
BRANCH  23  24
ATOM     24  C   UNL     1      -3.170  -1.709   3.750  1.00  0.00    -0.000 C 
BRANCH  24  25
ATOM     25  C   UNL     1      -2.222  -2.905   3.564  1.00  0.00    -0.000 C 
BRANCH  25  26
ATOM     26  C   UNL     1      -2.638  -3.817   2.399  1.00  0.00    -0.000 C 
BRANCH  26  27
ATOM     27  C   UNL     1      -2.956  -5.235   2.898  1.00  0.00    -0.000 C 
BRANCH  27  28
ATOM     28  C   UNL     1      -2.542  -5.462   4.364  1.00  0.00    -0.000 C 
BRANCH  28  29
ATOM     29  C   UNL     1      -3.613  -6.130   5.244  1.00  0.00    -0.003 C 
ATOM     30  C   UNL     1      -3.028  -7.124   6.247  1.00  0.00     0.004 C 
ENDBRANCH  28  29
ENDBRANCH  27  28
ENDBRANCH  26  27
ENDBRANCH  25  26
ENDBRANCH  24  25
ENDBRANCH  23  24
ENDBRANCH  22  23
ENDBRANCH  21  22
ENDBRANCH  20  21
ENDBRANCH  19  20
ENDBRANCH  18  19
ENDBRANCH  17  18
ENDBRANCH   1  17
TORSDOF 26
ENDMDL
MODEL 9
REMARK VINA RESULT:    -4.013      1.636      3.020
REMARK INTER + INTRA:         -14.162
REMARK INTER:                  -9.905
REMARK INTRA:                  -4.257
REMARK UNBOUND:                -4.049
REMARK SMILES CCCCCCCCCCCCCCCCCCCCCCCCCCCC(=O)[O-]
REMARK SMILES IDX 15 1 16 2 17 3 18 4 19 5 20 6 21 7 22 8 23 9 24 10 25 11
REMARK SMILES IDX 26 12 27 13 28 14 29 15 30 16 14 17 13 18 12 19 11 20 10 21
REMARK SMILES IDX 9 22 8 23 7 24 6 25 5 26 4 27 3 28 2 29 1 30
REMARK H PARENT
REMARK Flexibility Score: inf
ROOT
ATOM      1  C   UNL     1      -0.234  -1.915   5.482  1.00  0.00     0.000 C 
ENDROOT
BRANCH   1   2
ATOM      2  C   UNL     1       1.149  -1.282   5.251  1.00  0.00     0.000 C 
BRANCH   2   3
ATOM      3  C   UNL     1       2.334  -2.266   5.349  1.00  0.00     0.000 C 
BRANCH   3   4
ATOM      4  C   UNL     1       3.657  -1.650   5.842  1.00  0.00     0.000 C 
BRANCH   4   5
ATOM      5  C   UNL     1       4.210  -2.344   7.095  1.00  0.00     0.000 C 
BRANCH   5   6
ATOM      6  C   UNL     1       3.099  -2.611   8.121  1.00  0.00     0.000 C 
BRANCH   6   7
ATOM      7  C   UNL     1       2.812  -1.379   9.006  1.00  0.00     0.000 C 
BRANCH   7   8
ATOM      8  C   UNL     1       1.334  -0.949   9.010  1.00  0.00     0.000 C 
BRANCH   8   9
ATOM      9  C   UNL     1       1.152   0.577   8.933  1.00  0.00     0.000 C 
BRANCH   9  10
ATOM     10  C   UNL     1       2.158   1.242   7.969  1.00  0.00     0.000 C 
BRANCH  10  11
ATOM     11  C   UNL     1       1.506   1.849   6.714  1.00  0.00     0.000 C 
BRANCH  11  12
ATOM     12  C   UNL     1       1.356   3.376   6.798  1.00  0.00     0.006 C 
BRANCH  12  13
ATOM     13  C   UNL     1       2.574   4.044   7.451  1.00  0.00     0.053 C 
BRANCH  13  14
ATOM     14  C   UNL     1       3.521   4.597   6.428  1.00  0.00     0.041 C 
ATOM     15  O   UNL     1       4.739   4.749   6.708  1.00  0.00    -0.550 OA
ATOM     16  O   UNL     1       3.062   4.920   5.157  1.00  0.00    -0.550 OA
ENDBRANCH  13  14
ENDBRANCH  12  13
ENDBRANCH  11  12
ENDBRANCH  10  11
ENDBRANCH   9  10
ENDBRANCH   8   9
ENDBRANCH   7   8
ENDBRANCH   6   7
ENDBRANCH   5   6
ENDBRANCH   4   5
ENDBRANCH   3   4
ENDBRANCH   2   3
ENDBRANCH   1   2
BRANCH   1  17
ATOM     17  C   UNL     1      -0.193  -3.073   6.492  1.00  0.00     0.000 C 
BRANCH  17  18
ATOM     18  C   UNL     1      -1.482  -3.179   7.325  1.00  0.00     0.000 C 
BRANCH  18  19
ATOM     19  C   UNL     1      -2.211  -4.537   7.227  1.00  0.00     0.000 C 
BRANCH  19  20
ATOM     20  C   UNL     1      -3.141  -4.693   6.009  1.00  0.00     0.000 C 
BRANCH  20  21
ATOM     21  C   UNL     1      -2.452  -5.215   4.732  1.00  0.00     0.000 C 
BRANCH  21  22
ATOM     22  C   UNL     1      -2.569  -4.258   3.524  1.00  0.00    -0.000 C 
BRANCH  22  23
ATOM     23  C   UNL     1      -3.766  -3.292   3.601  1.00  0.00    -0.000 C 
BRANCH  23  24
ATOM     24  C   UNL     1      -3.343  -1.815   3.498  1.00  0.00    -0.000 C 
BRANCH  24  25
ATOM     25  C   UNL     1      -3.978  -0.942   4.593  1.00  0.00    -0.000 C 
BRANCH  25  26
ATOM     26  C   UNL     1      -5.126  -1.652   5.328  1.00  0.00    -0.000 C 
BRANCH  26  27
ATOM     27  C   UNL     1      -4.891  -1.647   6.846  1.00  0.00    -0.000 C 
BRANCH  27  28
ATOM     28  C   UNL     1      -5.952  -0.838   7.614  1.00  0.00    -0.000 C 
BRANCH  28  29
ATOM     29  C   UNL     1      -6.198   0.583   7.078  1.00  0.00    -0.003 C 
ATOM     30  C   UNL     1      -6.884   1.496   8.094  1.00  0.00     0.004 C 
ENDBRANCH  28  29
ENDBRANCH  27  28
ENDBRANCH  26  27
ENDBRANCH  25  26
ENDBRANCH  24  25
ENDBRANCH  23  24
ENDBRANCH  22  23
ENDBRANCH  21  22
ENDBRANCH  20  21
ENDBRANCH  19  20
ENDBRANCH  18  19
ENDBRANCH  17  18
ENDBRANCH   1  17
TORSDOF 26
ENDMDL
