MODEL 1
REMARK VINA RESULT:    -6.101      0.000      0.000
REMARK INTER + INTRA:          -7.772
REMARK INTER:                  -7.349
REMARK INTRA:                  -0.423
REMARK UNBOUND:                -0.423
REMARK SMILES O=c1c(O)c(-c2ccc(O)cc2O)oc2cc(O)cc(O)c12
REMARK SMILES IDX 5 1 3 2 2 3 1 4 22 5 20 6 19 7 17 8 16 9 15 10 14 11 6 12
REMARK SMILES IDX 8 13 7 14 9 15 11 16 12 17 10 18 13 20 4 22 21 24 18 26
REMARK H PARENT 10 19 13 21 4 23 21 25 18 27
REMARK Flexibility Score: inf
ROOT
ATOM      1  C   UNL     1      -3.268   3.884  -0.513  1.00  0.00     0.184 A 
ATOM      2  C   UNL     1      -3.881   4.542   0.567  1.00  0.00     0.208 A 
ATOM      3  C   UNL     1      -3.195   4.633   1.788  1.00  0.00     0.238 A 
ATOM      4  O   UNL     1      -3.772   5.174   2.767  1.00  0.00    -0.285 OA
ATOM      5  C   UNL     1      -1.895   4.084   1.908  1.00  0.00     0.111 A 
ATOM      6  C   UNL     1      -1.091   4.155   3.085  1.00  0.00     0.134 A 
ATOM      7  C   UNL     1       0.127   3.464   3.131  1.00  0.00     0.093 A 
ATOM      8  C   UNL     1       0.600   2.762   2.019  1.00  0.00     0.123 A 
ATOM      9  C   UNL     1      -0.150   2.738   0.847  1.00  0.00     0.094 A 
ATOM     10  C   UNL     1      -1.386   3.385   0.782  1.00  0.00     0.146 A 
ATOM     11  O   UNL     1      -2.074   3.326  -0.352  1.00  0.00    -0.451 OA
ENDROOT
BRANCH   1  12
ATOM     12  C   UNL     1      -3.926   3.772  -1.835  1.00  0.00     0.063 A 
ATOM     13  C   UNL     1      -5.595   2.745  -3.281  1.00  0.00     0.047 A 
ATOM     14  C   UNL     1      -4.953   2.832  -2.043  1.00  0.00     0.020 A 
ATOM     15  C   UNL     1      -5.227   3.601  -4.326  1.00  0.00     0.119 A 
ATOM     16  C   UNL     1      -4.218   4.546  -4.125  1.00  0.00     0.093 A 
ATOM     17  C   UNL     1      -3.567   4.640  -2.886  1.00  0.00     0.130 A 
BRANCH  15  18
ATOM     18  O   UNL     1      -5.860   3.522  -5.563  1.00  0.00    -0.508 OA
ATOM     19  H   UNL     1      -6.085   4.353  -6.099  1.00  0.00     0.293 HD
ENDBRANCH  15  18
BRANCH  17  20
ATOM     20  O   UNL     1      -2.556   5.585  -2.703  1.00  0.00    -0.507 OA
ATOM     21  H   UNL     1      -1.577   5.331  -2.746  1.00  0.00     0.293 HD
ENDBRANCH  17  20
ENDBRANCH   1  12
BRANCH   2  22
ATOM     22  O   UNL     1      -5.170   5.064   0.428  1.00  0.00    -0.502 OA
ATOM     23  H   UNL     1      -5.543   5.362  -0.465  1.00  0.00     0.293 HD
ENDBRANCH   2  22
BRANCH   6  24
ATOM     24  O   UNL     1      -1.427   4.903   4.217  1.00  0.00    -0.507 OA
ATOM     25  H   UNL     1      -0.782   5.478   4.737  1.00  0.00     0.293 HD
ENDBRANCH   6  24
BRANCH   8  26
ATOM     26  O   UNL     1       1.820   2.092   2.069  1.00  0.00    -0.508 OA
ATOM     27  H   UNL     1       2.673   2.563   2.350  1.00  0.00     0.293 HD
ENDBRANCH   8  26
TORSDOF 6
ENDMDL
MODEL 2
REMARK VINA RESULT:    -6.060      5.058      7.984
REMARK INTER + INTRA:          -7.722
REMARK INTER:                  -7.476
REMARK INTRA:                  -0.247
REMARK UNBOUND:                -0.423
REMARK SMILES O=c1c(O)c(-c2ccc(O)cc2O)oc2cc(O)cc(O)c12
REMARK SMILES IDX 5 1 3 2 2 3 1 4 22 5 20 6 19 7 17 8 16 9 15 10 14 11 6 12
REMARK SMILES IDX 8 13 7 14 9 15 11 16 12 17 10 18 13 20 4 22 21 24 18 26
REMARK H PARENT 10 19 13 21 4 23 21 25 18 27
REMARK Flexibility Score: inf
ROOT
ATOM      1  C   UNL     1      -4.023   4.644  -5.062  1.00  0.00     0.184 A 
ATOM      2  C   UNL     1      -2.724   5.138  -4.853  1.00  0.00     0.208 A 
ATOM      3  C   UNL     1      -1.830   5.183  -5.934  1.00  0.00     0.238 A 
ATOM      4  O   UNL     1      -0.652   5.572  -5.729  1.00  0.00    -0.285 OA
ATOM      5  C   UNL     1      -2.253   4.753  -7.215  1.00  0.00     0.111 A 
ATOM      6  C   UNL     1      -1.445   4.793  -8.391  1.00  0.00     0.134 A 
ATOM      7  C   UNL     1      -1.924   4.222  -9.577  1.00  0.00     0.093 A 
ATOM      8  C   UNL     1      -3.207   3.674  -9.647  1.00  0.00     0.123 A 
ATOM      9  C   UNL     1      -4.025   3.684  -8.520  1.00  0.00     0.094 A 
ATOM     10  C   UNL     1      -3.563   4.212  -7.313  1.00  0.00     0.146 A 
ATOM     11  O   UNL     1      -4.372   4.191  -6.260  1.00  0.00    -0.451 OA
ENDROOT
BRANCH   1  12
ATOM     12  C   UNL     1      -5.024   4.591  -3.970  1.00  0.00     0.063 A 
ATOM     13  C   UNL     1      -6.395   3.300  -2.427  1.00  0.00     0.047 A 
ATOM     14  C   UNL     1      -5.474   3.352  -3.475  1.00  0.00     0.020 A 
ATOM     15  C   UNL     1      -6.873   4.484  -1.850  1.00  0.00     0.119 A 
ATOM     16  C   UNL     1      -6.421   5.717  -2.326  1.00  0.00     0.093 A 
ATOM     17  C   UNL     1      -5.498   5.779  -3.379  1.00  0.00     0.130 A 
BRANCH  15  18
ATOM     18  O   UNL     1      -7.792   4.442  -0.805  1.00  0.00    -0.508 OA
ATOM     19  H   UNL     1      -8.409   3.650  -0.672  1.00  0.00     0.293 HD
ENDBRANCH  15  18
BRANCH  17  20
ATOM     20  O   UNL     1      -5.061   7.019  -3.847  1.00  0.00    -0.507 OA
ATOM     21  H   UNL     1      -5.493   7.884  -3.545  1.00  0.00     0.293 HD
ENDBRANCH  17  20
ENDBRANCH   1  12
BRANCH   2  22
ATOM     22  O   UNL     1      -2.326   5.543  -3.577  1.00  0.00    -0.502 OA
ATOM     23  H   UNL     1      -2.812   5.252  -2.737  1.00  0.00     0.293 HD
ENDBRANCH   2  22
BRANCH   6  24
ATOM     24  O   UNL     1      -0.186   5.398  -8.454  1.00  0.00    -0.507 OA
ATOM     25  H   UNL     1       0.138   6.116  -7.824  1.00  0.00     0.293 HD
ENDBRANCH   6  24
BRANCH   8  26
ATOM     26  O   UNL     1      -3.681   3.123 -10.835  1.00  0.00    -0.508 OA
ATOM     27  H   UNL     1      -3.078   3.002 -11.641  1.00  0.00     0.293 HD
ENDBRANCH   8  26
TORSDOF 6
ENDMDL
MODEL 3
REMARK VINA RESULT:    -5.963      4.579      5.818
REMARK INTER + INTRA:          -7.606
REMARK INTER:                  -7.141
REMARK INTRA:                  -0.466
REMARK UNBOUND:                -0.423
REMARK SMILES O=c1c(O)c(-c2ccc(O)cc2O)oc2cc(O)cc(O)c12
REMARK SMILES IDX 5 1 3 2 2 3 1 4 22 5 20 6 19 7 17 8 16 9 15 10 14 11 6 12
REMARK SMILES IDX 8 13 7 14 9 15 11 16 12 17 10 18 13 20 4 22 21 24 18 26
REMARK H PARENT 10 19 13 21 4 23 21 25 18 27
REMARK Flexibility Score: inf
ROOT
ATOM      1  C   UNL     1      -4.046   5.188  -4.317  1.00  0.00     0.184 A 
ATOM      2  C   UNL     1      -4.584   6.438  -3.967  1.00  0.00     0.208 A 
ATOM      3  C   UNL     1      -5.414   6.531  -2.839  1.00  0.00     0.238 A 
ATOM      4  O   UNL     1      -5.939   7.641  -2.565  1.00  0.00    -0.285 OA
ATOM      5  C   UNL     1      -5.679   5.377  -2.063  1.00  0.00     0.111 A 
ATOM      6  C   UNL     1      -6.473   5.363  -0.877  1.00  0.00     0.134 A 
ATOM      7  C   UNL     1      -6.774   4.141  -0.263  1.00  0.00     0.093 A 
ATOM      8  C   UNL     1      -6.253   2.940  -0.753  1.00  0.00     0.123 A 
ATOM      9  C   UNL     1      -5.429   2.951  -1.875  1.00  0.00     0.094 A 
ATOM     10  C   UNL     1      -5.141   4.149  -2.532  1.00  0.00     0.146 A 
ATOM     11  O   UNL     1      -4.361   4.112  -3.605  1.00  0.00    -0.451 OA
ENDROOT
BRANCH   1  12
ATOM     12  C   UNL     1      -3.144   5.023  -5.481  1.00  0.00     0.063 A 
ATOM     13  C   UNL     1      -0.975   5.364  -6.533  1.00  0.00     0.047 A 
ATOM     14  C   UNL     1      -1.836   5.543  -5.449  1.00  0.00     0.020 A 
ATOM     15  C   UNL     1      -1.403   4.654  -7.662  1.00  0.00     0.119 A 
ATOM     16  C   UNL     1      -2.694   4.123  -7.697  1.00  0.00     0.093 A 
ATOM     17  C   UNL     1      -3.567   4.299  -6.614  1.00  0.00     0.130 A 
BRANCH  15  18
ATOM     18  O   UNL     1      -0.552   4.471  -8.749  1.00  0.00    -0.508 OA
ATOM     19  H   UNL     1       0.454   4.425  -8.634  1.00  0.00     0.293 HD
ENDBRANCH  15  18
BRANCH  17  20
ATOM     20  O   UNL     1      -4.856   3.768  -6.667  1.00  0.00    -0.507 OA
ATOM     21  H   UNL     1      -5.044   2.871  -7.097  1.00  0.00     0.293 HD
ENDBRANCH  17  20
ENDBRANCH   1  12
BRANCH   2  22
ATOM     22  O   UNL     1      -4.319   7.560  -4.757  1.00  0.00    -0.502 OA
ATOM     23  H   UNL     1      -3.391   7.775  -5.103  1.00  0.00     0.293 HD
ENDBRANCH   2  22
BRANCH   6  24
ATOM     24  O   UNL     1      -6.965   6.513  -0.253  1.00  0.00    -0.507 OA
ATOM     25  H   UNL     1      -6.668   7.453  -0.464  1.00  0.00     0.293 HD
ENDBRANCH   6  24
BRANCH   8  26
ATOM     26  O   UNL     1      -6.545   1.731  -0.125  1.00  0.00    -0.508 OA
ATOM     27  H   UNL     1      -6.841   0.917  -0.653  1.00  0.00     0.293 HD
ENDBRANCH   8  26
TORSDOF 6
ENDMDL
MODEL 4
REMARK VINA RESULT:    -5.946      1.683      6.543
REMARK INTER + INTRA:          -7.586
REMARK INTER:                  -7.186
REMARK INTRA:                  -0.400
REMARK UNBOUND:                -0.423
REMARK SMILES O=c1c(O)c(-c2ccc(O)cc2O)oc2cc(O)cc(O)c12
REMARK SMILES IDX 5 1 3 2 2 3 1 4 22 5 20 6 19 7 17 8 16 9 15 10 14 11 6 12
REMARK SMILES IDX 8 13 7 14 9 15 11 16 12 17 10 18 13 20 4 22 21 24 18 26
REMARK H PARENT 10 19 13 21 4 23 21 25 18 27
REMARK Flexibility Score: inf
ROOT
ATOM      1  C   UNL     1      -2.503   3.903   0.736  1.00  0.00     0.184 A 
ATOM      2  C   UNL     1      -2.819   5.257   0.946  1.00  0.00     0.208 A 
ATOM      3  C   UNL     1      -3.793   5.862   0.137  1.00  0.00     0.238 A 
ATOM      4  O   UNL     1      -4.030   7.088   0.291  1.00  0.00    -0.285 OA
ATOM      5  C   UNL     1      -4.455   5.102  -0.857  1.00  0.00     0.111 A 
ATOM      6  C   UNL     1      -5.488   5.601  -1.706  1.00  0.00     0.134 A 
ATOM      7  C   UNL     1      -5.982   4.795  -2.740  1.00  0.00     0.093 A 
ATOM      8  C   UNL     1      -5.528   3.485  -2.912  1.00  0.00     0.123 A 
ATOM      9  C   UNL     1      -4.563   2.969  -2.051  1.00  0.00     0.094 A 
ATOM     10  C   UNL     1      -4.024   3.760  -1.034  1.00  0.00     0.146 A 
ATOM     11  O   UNL     1      -3.097   3.232  -0.243  1.00  0.00    -0.451 OA
ENDROOT
BRANCH   1  12
ATOM     12  C   UNL     1      -1.502   3.196   1.569  1.00  0.00     0.063 A 
ATOM     13  C   UNL     1       0.799   2.514   1.976  1.00  0.00     0.047 A 
ATOM     14  C   UNL     1      -0.151   3.155   1.177  1.00  0.00     0.020 A 
ATOM     15  C   UNL     1       0.416   1.914   3.181  1.00  0.00     0.119 A 
ATOM     16  C   UNL     1      -0.921   1.961   3.584  1.00  0.00     0.093 A 
ATOM     17  C   UNL     1      -1.882   2.601   2.788  1.00  0.00     0.130 A 
BRANCH  15  18
ATOM     18  O   UNL     1       1.355   1.272   3.984  1.00  0.00    -0.508 OA
ATOM     19  H   UNL     1       2.319   1.581   4.024  1.00  0.00     0.293 HD
ENDBRANCH  15  18
BRANCH  17  20
ATOM     20  O   UNL     1      -3.215   2.634   3.202  1.00  0.00    -0.507 OA
ATOM     21  H   UNL     1      -3.978   2.528   2.545  1.00  0.00     0.293 HD
ENDBRANCH  17  20
ENDBRANCH   1  12
BRANCH   2  22
ATOM     22  O   UNL     1      -2.142   5.990   1.923  1.00  0.00    -0.502 OA
ATOM     23  H   UNL     1      -1.239   5.709   2.286  1.00  0.00     0.293 HD
ENDBRANCH   2  22
BRANCH   6  24
ATOM     24  O   UNL     1      -6.076   6.861  -1.563  1.00  0.00    -0.507 OA
ATOM     25  H   UNL     1      -6.693   7.287  -2.237  1.00  0.00     0.293 HD
ENDBRANCH   6  24
BRANCH   8  26
ATOM     26  O   UNL     1      -6.036   2.685  -3.933  1.00  0.00    -0.508 OA
ATOM     27  H   UNL     1      -5.490   2.469  -4.759  1.00  0.00     0.293 HD
ENDBRANCH   8  26
TORSDOF 6
ENDMDL
MODEL 5
REMARK VINA RESULT:    -5.933      4.382      6.523
REMARK INTER + INTRA:          -7.570
REMARK INTER:                  -7.122
REMARK INTRA:                  -0.448
REMARK UNBOUND:                -0.423
REMARK SMILES O=c1c(O)c(-c2ccc(O)cc2O)oc2cc(O)cc(O)c12
REMARK SMILES IDX 5 1 3 2 2 3 1 4 22 5 20 6 19 7 17 8 16 9 15 10 14 11 6 12
REMARK SMILES IDX 8 13 7 14 9 15 11 16 12 17 10 18 13 20 4 22 21 24 18 26
REMARK H PARENT 10 19 13 21 4 23 21 25 18 27
REMARK Flexibility Score: inf
ROOT
ATOM      1  C   UNL     1      -5.224   4.300  -2.432  1.00  0.00     0.184 A 
ATOM      2  C   UNL     1      -5.568   3.746  -3.677  1.00  0.00     0.208 A 
ATOM      3  C   UNL     1      -4.818   4.098  -4.810  1.00  0.00     0.238 A 
ATOM      4  O   UNL     1      -5.166   3.644  -5.930  1.00  0.00    -0.285 OA
ATOM      5  C   UNL     1      -3.720   4.983  -4.680  1.00  0.00     0.111 A 
ATOM      6  C   UNL     1      -2.865   5.377  -5.753  1.00  0.00     0.134 A 
ATOM      7  C   UNL     1      -1.889   6.357  -5.533  1.00  0.00     0.093 A 
ATOM      8  C   UNL     1      -1.694   6.909  -4.264  1.00  0.00     0.123 A 
ATOM      9  C   UNL     1      -2.484   6.487  -3.199  1.00  0.00     0.094 A 
ATOM     10  C   UNL     1      -3.490   5.538  -3.393  1.00  0.00     0.146 A 
ATOM     11  O   UNL     1      -4.228   5.173  -2.351  1.00  0.00    -0.451 OA
ENDROOT
BRANCH   1  12
ATOM     12  C   UNL     1      -5.959   3.953  -1.193  1.00  0.00     0.063 A 
ATOM     13  C   UNL     1      -6.551   2.333   0.525  1.00  0.00     0.047 A 
ATOM     14  C   UNL     1      -5.882   2.653  -0.658  1.00  0.00     0.020 A 
ATOM     15  C   UNL     1      -7.299   3.307   1.197  1.00  0.00     0.119 A 
ATOM     16  C   UNL     1      -7.370   4.603   0.681  1.00  0.00     0.093 A 
ATOM     17  C   UNL     1      -6.703   4.934  -0.507  1.00  0.00     0.130 A 
BRANCH  15  18
ATOM     18  O   UNL     1      -7.970   2.997   2.377  1.00  0.00    -0.508 OA
ATOM     19  H   UNL     1      -7.579   2.355   3.057  1.00  0.00     0.293 HD
ENDBRANCH  15  18
BRANCH  17  20
ATOM     20  O   UNL     1      -6.789   6.232  -1.013  1.00  0.00    -0.507 OA
ATOM     21  H   UNL     1      -7.558   6.846  -0.774  1.00  0.00     0.293 HD
ENDBRANCH  17  20
ENDBRANCH   1  12
BRANCH   2  22
ATOM     22  O   UNL     1      -6.664   2.886  -3.782  1.00  0.00    -0.502 OA
ATOM     23  H   UNL     1      -6.819   2.298  -4.593  1.00  0.00     0.293 HD
ENDBRANCH   2  22
BRANCH   6  24
ATOM     24  O   UNL     1      -2.915   4.823  -7.035  1.00  0.00    -0.507 OA
ATOM     25  H   UNL     1      -2.217   4.206  -7.422  1.00  0.00     0.293 HD
ENDBRANCH   6  24
BRANCH   8  26
ATOM     26  O   UNL     1      -0.710   7.871  -4.052  1.00  0.00    -0.508 OA
ATOM     27  H   UNL     1       0.231   7.616  -3.774  1.00  0.00     0.293 HD
ENDBRANCH   8  26
TORSDOF 6
ENDMDL
MODEL 6
REMARK VINA RESULT:    -5.887      2.115      6.296
REMARK INTER + INTRA:          -7.514
REMARK INTER:                  -7.032
REMARK INTRA:                  -0.482
REMARK UNBOUND:                -0.423
REMARK SMILES O=c1c(O)c(-c2ccc(O)cc2O)oc2cc(O)cc(O)c12
REMARK SMILES IDX 5 1 3 2 2 3 1 4 22 5 20 6 19 7 17 8 16 9 15 10 14 11 6 12
REMARK SMILES IDX 8 13 7 14 9 15 11 16 12 17 10 18 13 20 4 22 21 24 18 26
REMARK H PARENT 10 19 13 21 4 23 21 25 18 27
REMARK Flexibility Score: inf
ROOT
ATOM      1  C   UNL     1      -1.919   3.449   1.861  1.00  0.00     0.184 A 
ATOM      2  C   UNL     1      -1.980   4.709   2.482  1.00  0.00     0.208 A 
ATOM      3  C   UNL     1      -2.566   5.781   1.792  1.00  0.00     0.238 A 
ATOM      4  O   UNL     1      -2.565   6.919   2.329  1.00  0.00    -0.285 OA
ATOM      5  C   UNL     1      -3.103   5.576   0.498  1.00  0.00     0.111 A 
ATOM      6  C   UNL     1      -3.756   6.581  -0.277  1.00  0.00     0.134 A 
ATOM      7  C   UNL     1      -4.134   6.299  -1.596  1.00  0.00     0.093 A 
ATOM      8  C   UNL     1      -3.943   5.028  -2.144  1.00  0.00     0.123 A 
ATOM      9  C   UNL     1      -3.360   4.024  -1.376  1.00  0.00     0.094 A 
ATOM     10  C   UNL     1      -2.938   4.285  -0.070  1.00  0.00     0.146 A 
ATOM     11  O   UNL     1      -2.377   3.302   0.624  1.00  0.00    -0.451 OA
ENDROOT
BRANCH   1  12
ATOM     12  C   UNL     1      -1.336   2.270   2.541  1.00  0.00     0.063 A 
ATOM     13  C   UNL     1      -1.519   0.468   4.169  1.00  0.00     0.047 A 
ATOM     14  C   UNL     1      -2.056   1.598   3.547  1.00  0.00     0.020 A 
ATOM     15  C   UNL     1      -0.260  -0.012   3.790  1.00  0.00     0.119 A 
ATOM     16  C   UNL     1       0.457   0.640   2.784  1.00  0.00     0.093 A 
ATOM     17  C   UNL     1      -0.074   1.776   2.154  1.00  0.00     0.130 A 
BRANCH  15  18
ATOM     18  O   UNL     1       0.284  -1.137   4.405  1.00  0.00    -0.508 OA
ATOM     19  H   UNL     1      -0.228  -2.010   4.464  1.00  0.00     0.293 HD
ENDBRANCH  15  18
BRANCH  17  20
ATOM     20  O   UNL     1       0.657   2.420   1.155  1.00  0.00    -0.507 OA
ATOM     21  H   UNL     1       0.208   3.001   0.458  1.00  0.00     0.293 HD
ENDBRANCH  17  20
ENDBRANCH   1  12
BRANCH   2  22
ATOM     22  O   UNL     1      -1.430   4.889   3.754  1.00  0.00    -0.502 OA
ATOM     23  H   UNL     1      -0.435   4.820   3.931  1.00  0.00     0.293 HD
ENDBRANCH   2  22
BRANCH   6  24
ATOM     24  O   UNL     1      -4.078   7.853   0.205  1.00  0.00    -0.507 OA
ATOM     25  H   UNL     1      -4.903   8.072   0.743  1.00  0.00     0.293 HD
ENDBRANCH   6  24
BRANCH   8  26
ATOM     26  O   UNL     1      -4.336   4.752  -3.452  1.00  0.00    -0.508 OA
ATOM     27  H   UNL     1      -5.046   4.057  -3.657  1.00  0.00     0.293 HD
ENDBRANCH   8  26
TORSDOF 6
ENDMDL
MODEL 7
REMARK VINA RESULT:    -5.834      1.546      2.111
REMARK INTER + INTRA:          -7.450
REMARK INTER:                  -7.120
REMARK INTRA:                  -0.330
REMARK UNBOUND:                -0.423
REMARK SMILES O=c1c(O)c(-c2ccc(O)cc2O)oc2cc(O)cc(O)c12
REMARK SMILES IDX 5 1 3 2 2 3 1 4 22 5 20 6 19 7 17 8 16 9 15 10 14 11 6 12
REMARK SMILES IDX 8 13 7 14 9 15 11 16 12 17 10 18 13 20 4 22 21 24 18 26
REMARK H PARENT 10 19 13 21 4 23 21 25 18 27
REMARK Flexibility Score: inf
ROOT
ATOM      1  C   UNL     1      -2.916   3.739   1.196  1.00  0.00     0.184 A 
ATOM      2  C   UNL     1      -2.927   4.548   2.346  1.00  0.00     0.208 A 
ATOM      3  C   UNL     1      -1.814   4.531   3.201  1.00  0.00     0.238 A 
ATOM      4  O   UNL     1      -1.853   5.213   4.257  1.00  0.00    -0.285 OA
ATOM      5  C   UNL     1      -0.695   3.723   2.884  1.00  0.00     0.111 A 
ATOM      6  C   UNL     1       0.503   3.660   3.657  1.00  0.00     0.134 A 
ATOM      7  C   UNL     1       1.494   2.729   3.319  1.00  0.00     0.093 A 
ATOM      8  C   UNL     1       1.358   1.907   2.198  1.00  0.00     0.123 A 
ATOM      9  C   UNL     1       0.218   2.003   1.404  1.00  0.00     0.094 A 
ATOM     10  C   UNL     1      -0.804   2.895   1.736  1.00  0.00     0.146 A 
ATOM     11  O   UNL     1      -1.879   2.946   0.958  1.00  0.00    -0.451 OA
ENDROOT
BRANCH   1  12
ATOM     12  C   UNL     1      -4.048   3.726   0.240  1.00  0.00     0.063 A 
ATOM     13  C   UNL     1      -6.412   3.381  -0.226  1.00  0.00     0.047 A 
ATOM     14  C   UNL     1      -5.339   3.366   0.668  1.00  0.00     0.020 A 
ATOM     15  C   UNL     1      -6.214   3.764  -1.558  1.00  0.00     0.119 A 
ATOM     16  C   UNL     1      -4.938   4.135  -1.989  1.00  0.00     0.093 A 
ATOM     17  C   UNL     1      -3.854   4.123  -1.099  1.00  0.00     0.130 A 
BRANCH  15  18
ATOM     18  O   UNL     1      -7.277   3.782  -2.457  1.00  0.00    -0.508 OA
ATOM     19  H   UNL     1      -7.688   2.925  -2.809  1.00  0.00     0.293 HD
ENDBRANCH  15  18
BRANCH  17  20
ATOM     20  O   UNL     1      -2.584   4.490  -1.546  1.00  0.00    -0.507 OA
ATOM     21  H   UNL     1      -2.457   5.178  -2.278  1.00  0.00     0.293 HD
ENDBRANCH  17  20
ENDBRANCH   1  12
BRANCH   2  22
ATOM     22  O   UNL     1      -4.048   5.326   2.644  1.00  0.00    -0.502 OA
ATOM     23  H   UNL     1      -4.168   6.267   2.288  1.00  0.00     0.293 HD
ENDBRANCH   2  22
BRANCH   6  24
ATOM     24  O   UNL     1       0.779   4.499   4.740  1.00  0.00    -0.507 OA
ATOM     25  H   UNL     1       1.377   5.311   4.700  1.00  0.00     0.293 HD
ENDBRANCH   6  24
BRANCH   8  26
ATOM     26  O   UNL     1       2.356   0.995   1.860  1.00  0.00    -0.508 OA
ATOM     27  H   UNL     1       2.868   0.483   2.570  1.00  0.00     0.293 HD
ENDBRANCH   8  26
TORSDOF 6
ENDMDL
MODEL 8
REMARK VINA RESULT:    -5.809      2.968      5.906
REMARK INTER + INTRA:          -7.421
REMARK INTER:                  -7.043
REMARK INTRA:                  -0.378
REMARK UNBOUND:                -0.423
REMARK SMILES O=c1c(O)c(-c2ccc(O)cc2O)oc2cc(O)cc(O)c12
REMARK SMILES IDX 5 1 3 2 2 3 1 4 22 5 20 6 19 7 17 8 16 9 15 10 14 11 6 12
REMARK SMILES IDX 8 13 7 14 9 15 11 16 12 17 10 18 13 20 4 22 21 24 18 26
REMARK H PARENT 10 19 13 21 4 23 21 25 18 27
REMARK Flexibility Score: inf
ROOT
ATOM      1  C   UNL     1      -3.281   5.216  -4.340  1.00  0.00     0.184 A 
ATOM      2  C   UNL     1      -4.293   4.428  -4.916  1.00  0.00     0.208 A 
ATOM      3  C   UNL     1      -5.126   3.671  -4.077  1.00  0.00     0.238 A 
ATOM      4  O   UNL     1      -5.992   2.923  -4.601  1.00  0.00    -0.285 OA
ATOM      5  C   UNL     1      -4.952   3.728  -2.674  1.00  0.00     0.111 A 
ATOM      6  C   UNL     1      -5.766   3.036  -1.727  1.00  0.00     0.134 A 
ATOM      7  C   UNL     1      -5.421   3.064  -0.370  1.00  0.00     0.093 A 
ATOM      8  C   UNL     1      -4.333   3.815   0.082  1.00  0.00     0.123 A 
ATOM      9  C   UNL     1      -3.570   4.542  -0.827  1.00  0.00     0.094 A 
ATOM     10  C   UNL     1      -3.865   4.504  -2.191  1.00  0.00     0.146 A 
ATOM     11  O   UNL     1      -3.103   5.203  -3.025  1.00  0.00    -0.451 OA
ENDROOT
BRANCH   1  12
ATOM     12  C   UNL     1      -2.382   6.057  -5.164  1.00  0.00     0.063 A 
ATOM     13  C   UNL     1      -0.284   6.353  -6.364  1.00  0.00     0.047 A 
ATOM     14  C   UNL     1      -1.121   5.574  -5.563  1.00  0.00     0.020 A 
ATOM     15  C   UNL     1      -0.697   7.623  -6.787  1.00  0.00     0.119 A 
ATOM     16  C   UNL     1      -1.952   8.105  -6.408  1.00  0.00     0.093 A 
ATOM     17  C   UNL     1      -2.799   7.330  -5.602  1.00  0.00     0.130 A 
BRANCH  15  18
ATOM     18  O   UNL     1       0.131   8.408  -7.585  1.00  0.00    -0.508 OA
ATOM     19  H   UNL     1       0.605   8.026  -8.396  1.00  0.00     0.293 HD
ENDBRANCH  15  18
BRANCH  17  20
ATOM     20  O   UNL     1      -4.047   7.828  -5.226  1.00  0.00    -0.507 OA
ATOM     21  H   UNL     1      -4.611   8.382  -5.859  1.00  0.00     0.293 HD
ENDBRANCH  17  20
ENDBRANCH   1  12
BRANCH   2  22
ATOM     22  O   UNL     1      -4.435   4.377  -6.304  1.00  0.00    -0.502 OA
ATOM     23  H   UNL     1      -3.761   3.917  -6.904  1.00  0.00     0.293 HD
ENDBRANCH   2  22
BRANCH   6  24
ATOM     24  O   UNL     1      -6.927   2.332  -2.062  1.00  0.00    -0.507 OA
ATOM     25  H   UNL     1      -7.830   2.480  -1.638  1.00  0.00     0.293 HD
ENDBRANCH   6  24
BRANCH   8  26
ATOM     26  O   UNL     1      -4.008   3.850   1.436  1.00  0.00    -0.508 OA
ATOM     27  H   UNL     1      -4.464   4.492   2.075  1.00  0.00     0.293 HD
ENDBRANCH   8  26
TORSDOF 6
ENDMDL
MODEL 9
REMARK VINA RESULT:    -5.807      3.172      6.448
REMARK INTER + INTRA:          -7.419
REMARK INTER:                  -7.091
REMARK INTRA:                  -0.328
REMARK UNBOUND:                -0.423
REMARK SMILES O=c1c(O)c(-c2ccc(O)cc2O)oc2cc(O)cc(O)c12
REMARK SMILES IDX 5 1 3 2 2 3 1 4 22 5 20 6 19 7 17 8 16 9 15 10 14 11 6 12
REMARK SMILES IDX 8 13 7 14 9 15 11 16 12 17 10 18 13 20 4 22 21 24 18 26
REMARK H PARENT 10 19 13 21 4 23 21 25 18 27
REMARK Flexibility Score: inf
ROOT
ATOM      1  C   UNL     1      -1.136   2.867   2.840  1.00  0.00     0.184 A 
ATOM      2  C   UNL     1      -0.972   3.851   3.831  1.00  0.00     0.208 A 
ATOM      3  C   UNL     1      -1.966   4.830   3.990  1.00  0.00     0.238 A 
ATOM      4  O   UNL     1      -1.787   5.741   4.839  1.00  0.00    -0.285 OA
ATOM      5  C   UNL     1      -3.121   4.800   3.171  1.00  0.00     0.111 A 
ATOM      6  C   UNL     1      -4.210   5.717   3.273  1.00  0.00     0.134 A 
ATOM      7  C   UNL     1      -5.241   5.671   2.326  1.00  0.00     0.093 A 
ATOM      8  C   UNL     1      -5.256   4.698   1.323  1.00  0.00     0.123 A 
ATOM      9  C   UNL     1      -4.227   3.762   1.253  1.00  0.00     0.094 A 
ATOM     10  C   UNL     1      -3.166   3.805   2.159  1.00  0.00     0.146 A 
ATOM     11  O   UNL     1      -2.200   2.901   2.048  1.00  0.00    -0.451 OA
ENDROOT
BRANCH   1  12
ATOM     12  C   UNL     1      -0.138   1.792   2.635  1.00  0.00     0.063 A 
ATOM     13  C   UNL     1       0.486  -0.559   2.752  1.00  0.00     0.047 A 
ATOM     14  C   UNL     1      -0.444   0.460   2.972  1.00  0.00     0.020 A 
ATOM     15  C   UNL     1       1.731  -0.265   2.182  1.00  0.00     0.119 A 
ATOM     16  C   UNL     1       2.038   1.052   1.832  1.00  0.00     0.093 A 
ATOM     17  C   UNL     1       1.112   2.082   2.051  1.00  0.00     0.130 A 
BRANCH  15  18
ATOM     18  O   UNL     1       2.664  -1.273   1.959  1.00  0.00    -0.508 OA
ATOM     19  H   UNL     1       3.504  -1.353   2.522  1.00  0.00     0.293 HD
ENDBRANCH  15  18
BRANCH  17  20
ATOM     20  O   UNL     1       1.437   3.394   1.701  1.00  0.00    -0.507 OA
ATOM     21  H   UNL     1       2.285   3.614   1.193  1.00  0.00     0.293 HD
ENDBRANCH  17  20
ENDBRANCH   1  12
BRANCH   2  22
ATOM     22  O   UNL     1       0.183   3.868   4.617  1.00  0.00    -0.502 OA
ATOM     23  H   UNL     1       0.163   4.073   5.609  1.00  0.00     0.293 HD
ENDBRANCH   2  22
BRANCH   6  24
ATOM     24  O   UNL     1      -4.339   6.667   4.290  1.00  0.00    -0.507 OA
ATOM     25  H   UNL     1      -4.495   7.652   4.139  1.00  0.00     0.293 HD
ENDBRANCH   6  24
BRANCH   8  26
ATOM     26  O   UNL     1      -6.294   4.650   0.395  1.00  0.00    -0.508 OA
ATOM     27  H   UNL     1      -6.648   3.769   0.040  1.00  0.00     0.293 HD
ENDBRANCH   8  26
TORSDOF 6
ENDMDL
