MODEL 1
REMARK VINA RESULT:    -5.654      0.000      0.000
REMARK INTER + INTRA:          -5.984
REMARK INTER:                  -5.984
REMARK INTRA:                   0.000
REMARK UNBOUND:                 0.000
REMARK SMILES O=c1ccc2cc(O)c(O)cc2o1
REMARK SMILES IDX 4 1 3 2 2 3 1 4 13 5 12 6 11 7 9 8 7 9 6 10 5 11 8 12 10 14
REMARK H PARENT 8 13 10 15
REMARK Flexibility Score: inf
ROOT
ATOM      1  C   UNL     1     -41.809   1.879 -14.007  1.00  0.00     0.019 A 
ATOM      2  C   UNL     1     -42.802   2.544 -14.727  1.00  0.00     0.094 A 
ATOM      3  C   UNL     1     -42.708   3.931 -14.889  1.00  0.00     0.336 A 
ATOM      4  O   UNL     1     -43.594   4.549 -15.534  1.00  0.00    -0.246 OA
ATOM      5  O   UNL     1     -41.686   4.602 -14.365  1.00  0.00    -0.423 OA
ATOM      6  C   UNL     1     -40.718   4.007 -13.672  1.00  0.00     0.142 A 
ATOM      7  C   UNL     1     -39.668   4.765 -13.145  1.00  0.00     0.098 A 
ATOM      8  C   UNL     1     -38.645   4.142 -12.414  1.00  0.00     0.161 A 
ATOM      9  C   UNL     1     -38.674   2.755 -12.210  1.00  0.00     0.158 A 
ATOM     10  C   UNL     1     -39.724   1.989 -12.737  1.00  0.00     0.062 A 
ATOM     11  C   UNL     1     -40.747   2.610 -13.468  1.00  0.00     0.022 A 
ENDROOT
BRANCH   9  12
ATOM     12  O   UNL     1     -37.653   2.144 -11.483  1.00  0.00    -0.504 OA
ATOM     13  H   UNL     1     -36.721   2.541 -11.441  1.00  0.00     0.293 HD
ENDBRANCH   9  12
BRANCH   8  14
ATOM     14  O   UNL     1     -37.597   4.895 -11.887  1.00  0.00    -0.504 OA
ATOM     15  H   UNL     1     -37.466   5.868 -12.138  1.00  0.00     0.293 HD
ENDBRANCH   8  14
TORSDOF 2
ENDMDL
MODEL 2
REMARK VINA RESULT:    -5.435      1.144      2.249
REMARK INTER + INTRA:          -5.753
REMARK INTER:                  -5.753
REMARK INTRA:                   0.000
REMARK UNBOUND:                 0.000
REMARK SMILES O=c1ccc2cc(O)c(O)cc2o1
REMARK SMILES IDX 4 1 3 2 2 3 1 4 13 5 12 6 11 7 9 8 7 9 6 10 5 11 8 12 10 14
REMARK H PARENT 8 13 10 15
REMARK Flexibility Score: inf
ROOT
ATOM      1  C   UNL     1     -41.573   4.613 -14.442  1.00  0.00     0.019 A 
ATOM      2  C   UNL     1     -42.683   3.903 -14.900  1.00  0.00     0.094 A 
ATOM      3  C   UNL     1     -42.793   2.542 -14.590  1.00  0.00     0.336 A 
ATOM      4  O   UNL     1     -43.787   1.885 -14.994  1.00  0.00    -0.246 OA
ATOM      5  O   UNL     1     -41.852   1.938 -13.869  1.00  0.00    -0.423 OA
ATOM      6  C   UNL     1     -40.777   2.577 -13.414  1.00  0.00     0.142 A 
ATOM      7  C   UNL     1     -39.821   1.890 -12.662  1.00  0.00     0.098 A 
ATOM      8  C   UNL     1     -38.687   2.560 -12.179  1.00  0.00     0.161 A 
ATOM      9  C   UNL     1     -38.509   3.924 -12.451  1.00  0.00     0.158 A 
ATOM     10  C   UNL     1     -39.466   4.620 -13.205  1.00  0.00     0.062 A 
ATOM     11  C   UNL     1     -40.600   3.952 -13.688  1.00  0.00     0.022 A 
ENDROOT
BRANCH   9  12
ATOM     12  O   UNL     1     -37.380   4.583 -11.967  1.00  0.00    -0.504 OA
ATOM     13  H   UNL     1     -37.167   5.537 -12.233  1.00  0.00     0.293 HD
ENDBRANCH   9  12
BRANCH   8  14
ATOM     14  O   UNL     1     -37.732   1.876 -11.428  1.00  0.00    -0.504 OA
ATOM     15  H   UNL     1     -37.299   2.295 -10.614  1.00  0.00     0.293 HD
ENDBRANCH   8  14
TORSDOF 2
ENDMDL
MODEL 3
REMARK VINA RESULT:    -4.789     12.592     14.329
REMARK INTER + INTRA:          -5.069
REMARK INTER:                  -5.069
REMARK INTRA:                   0.000
REMARK UNBOUND:                 0.000
REMARK SMILES O=c1ccc2cc(O)c(O)cc2o1
REMARK SMILES IDX 4 1 3 2 2 3 1 4 13 5 12 6 11 7 9 8 7 9 6 10 5 11 8 12 10 14
REMARK H PARENT 8 13 10 15
REMARK Flexibility Score: inf
ROOT
ATOM      1  C   UNL     1     -40.602  18.285 -16.772  1.00  0.00     0.019 A 
ATOM      2  C   UNL     1     -39.429  17.856 -17.394  1.00  0.00     0.094 A 
ATOM      3  C   UNL     1     -39.340  16.529 -17.830  1.00  0.00     0.336 A 
ATOM      4  O   UNL     1     -38.289  16.123 -18.393  1.00  0.00    -0.246 OA
ATOM      5  O   UNL     1     -40.358  15.692 -17.653  1.00  0.00    -0.423 OA
ATOM      6  C   UNL     1     -41.494  16.060 -17.064  1.00  0.00     0.142 A 
ATOM      7  C   UNL     1     -42.530  15.136 -16.905  1.00  0.00     0.098 A 
ATOM      8  C   UNL     1     -43.729  15.518 -16.286  1.00  0.00     0.161 A 
ATOM      9  C   UNL     1     -43.891  16.833 -15.824  1.00  0.00     0.158 A 
ATOM     10  C   UNL     1     -42.854  17.765 -15.980  1.00  0.00     0.062 A 
ATOM     11  C   UNL     1     -41.656  17.383 -16.599  1.00  0.00     0.022 A 
ENDROOT
BRANCH   9  12
ATOM     12  O   UNL     1     -45.086  17.205 -15.209  1.00  0.00    -0.504 OA
ATOM     13  H   UNL     1     -45.844  17.624 -15.735  1.00  0.00     0.293 HD
ENDBRANCH   9  12
BRANCH   8  14
ATOM     14  O   UNL     1     -44.764  14.599 -16.127  1.00  0.00    -0.504 OA
ATOM     15  H   UNL     1     -45.680  14.756 -16.531  1.00  0.00     0.293 HD
ENDBRANCH   8  14
TORSDOF 2
ENDMDL
MODEL 4
REMARK VINA RESULT:    -4.783     12.659     13.993
REMARK INTER + INTRA:          -5.062
REMARK INTER:                  -5.062
REMARK INTRA:                   0.000
REMARK UNBOUND:                 0.000
REMARK SMILES O=c1ccc2cc(O)c(O)cc2o1
REMARK SMILES IDX 4 1 3 2 2 3 1 4 13 5 12 6 11 7 9 8 7 9 6 10 5 11 8 12 10 14
REMARK H PARENT 8 13 10 15
REMARK Flexibility Score: inf
ROOT
ATOM      1  C   UNL     1     -43.764  17.522 -18.976  1.00  0.00     0.019 A 
ATOM      2  C   UNL     1     -44.887  17.320 -18.174  1.00  0.00     0.094 A 
ATOM      3  C   UNL     1     -44.812  16.399 -17.123  1.00  0.00     0.336 A 
ATOM      4  O   UNL     1     -45.815  16.202 -16.388  1.00  0.00    -0.246 OA
ATOM      5  O   UNL     1     -43.686  15.728 -16.895  1.00  0.00    -0.423 OA
ATOM      6  C   UNL     1     -42.593  15.890 -17.636  1.00  0.00     0.142 A 
ATOM      7  C   UNL     1     -41.438  15.157 -17.349  1.00  0.00     0.098 A 
ATOM      8  C   UNL     1     -40.283  15.326 -18.126  1.00  0.00     0.161 A 
ATOM      9  C   UNL     1     -40.284  16.232 -19.197  1.00  0.00     0.158 A 
ATOM     10  C   UNL     1     -41.440  16.971 -19.491  1.00  0.00     0.062 A 
ATOM     11  C   UNL     1     -42.595  16.803 -18.713  1.00  0.00     0.022 A 
ENDROOT
BRANCH   9  12
ATOM     12  O   UNL     1     -39.132  16.393 -19.965  1.00  0.00    -0.504 OA
ATOM     13  H   UNL     1     -39.150  16.303 -20.974  1.00  0.00     0.293 HD
ENDBRANCH   9  12
BRANCH   8  14
ATOM     14  O   UNL     1     -39.130  14.596 -17.842  1.00  0.00    -0.504 OA
ATOM     15  H   UNL     1     -39.058  14.022 -17.010  1.00  0.00     0.293 HD
ENDBRANCH   8  14
TORSDOF 2
ENDMDL
MODEL 5
REMARK VINA RESULT:    -4.751     17.921     19.389
REMARK INTER + INTRA:          -5.029
REMARK INTER:                  -5.029
REMARK INTRA:                   0.000
REMARK UNBOUND:                 0.000
REMARK SMILES O=c1ccc2cc(O)c(O)cc2o1
REMARK SMILES IDX 4 1 3 2 2 3 1 4 13 5 12 6 11 7 9 8 7 9 6 10 5 11 8 12 10 14
REMARK H PARENT 8 13 10 15
REMARK Flexibility Score: inf
ROOT
ATOM      1  C   UNL     1     -30.983  19.231 -23.505  1.00  0.00     0.019 A 
ATOM      2  C   UNL     1     -30.929  20.378 -22.712  1.00  0.00     0.094 A 
ATOM      3  C   UNL     1     -31.762  20.466 -21.590  1.00  0.00     0.336 A 
ATOM      4  O   UNL     1     -31.728  21.492 -20.863  1.00  0.00    -0.246 OA
ATOM      5  O   UNL     1     -32.589  19.469 -21.286  1.00  0.00    -0.423 OA
ATOM      6  C   UNL     1     -32.672  18.359 -22.015  1.00  0.00     0.142 A 
ATOM      7  C   UNL     1     -33.561  17.345 -21.648  1.00  0.00     0.098 A 
ATOM      8  C   UNL     1     -33.651  16.173 -22.412  1.00  0.00     0.161 A 
ATOM      9  C   UNL     1     -32.848  16.015 -23.551  1.00  0.00     0.158 A 
ATOM     10  C   UNL     1     -31.954  17.029 -23.926  1.00  0.00     0.062 A 
ATOM     11  C   UNL     1     -31.862  18.200 -23.162  1.00  0.00     0.022 A 
ENDROOT
BRANCH   9  12
ATOM     12  O   UNL     1     -32.944  14.846 -24.306  1.00  0.00    -0.504 OA
ATOM     13  H   UNL     1     -33.113  14.873 -25.304  1.00  0.00     0.293 HD
ENDBRANCH   9  12
BRANCH   8  14
ATOM     14  O   UNL     1     -34.537  15.160 -22.047  1.00  0.00    -0.504 OA
ATOM     15  H   UNL     1     -34.207  14.260 -21.722  1.00  0.00     0.293 HD
ENDBRANCH   8  14
TORSDOF 2
ENDMDL
MODEL 6
REMARK VINA RESULT:    -4.679     12.489     13.712
REMARK INTER + INTRA:          -4.952
REMARK INTER:                  -4.952
REMARK INTRA:                   0.000
REMARK UNBOUND:                 0.000
REMARK SMILES O=c1ccc2cc(O)c(O)cc2o1
REMARK SMILES IDX 4 1 3 2 2 3 1 4 13 5 12 6 11 7 9 8 7 9 6 10 5 11 8 12 10 14
REMARK H PARENT 8 13 10 15
REMARK Flexibility Score: inf
ROOT
ATOM      1  C   UNL     1     -43.689  15.383 -16.335  1.00  0.00     0.019 A 
ATOM      2  C   UNL     1     -44.874  16.098 -16.512  1.00  0.00     0.094 A 
ATOM      3  C   UNL     1     -44.956  17.024 -17.558  1.00  0.00     0.336 A 
ATOM      4  O   UNL     1     -46.016  17.680 -17.733  1.00  0.00    -0.246 OA
ATOM      5  O   UNL     1     -43.920  17.217 -18.369  1.00  0.00    -0.423 OA
ATOM      6  C   UNL     1     -42.772  16.558 -18.235  1.00  0.00     0.142 A 
ATOM      7  C   UNL     1     -41.717  16.803 -19.118  1.00  0.00     0.098 A 
ATOM      8  C   UNL     1     -40.506  16.109 -18.982  1.00  0.00     0.161 A 
ATOM      9  C   UNL     1     -40.350  15.165 -17.956  1.00  0.00     0.158 A 
ATOM     10  C   UNL     1     -41.405  14.914 -17.066  1.00  0.00     0.062 A 
ATOM     11  C   UNL     1     -42.616  15.607 -17.202  1.00  0.00     0.022 A 
ENDROOT
BRANCH   9  12
ATOM     12  O   UNL     1     -39.143  14.479 -17.827  1.00  0.00    -0.504 OA
ATOM     13  H   UNL     1     -39.113  13.506 -17.548  1.00  0.00     0.293 HD
ENDBRANCH   9  12
BRANCH   8  14
ATOM     14  O   UNL     1     -39.452  16.352 -19.861  1.00  0.00    -0.504 OA
ATOM     15  H   UNL     1     -39.414  15.917 -20.775  1.00  0.00     0.293 HD
ENDBRANCH   8  14
TORSDOF 2
ENDMDL
MODEL 7
REMARK VINA RESULT:    -4.575     16.452     17.771
REMARK INTER + INTRA:          -4.843
REMARK INTER:                  -4.843
REMARK INTRA:                   0.000
REMARK UNBOUND:                 0.000
REMARK SMILES O=c1ccc2cc(O)c(O)cc2o1
REMARK SMILES IDX 4 1 3 2 2 3 1 4 13 5 12 6 11 7 9 8 7 9 6 10 5 11 8 12 10 14
REMARK H PARENT 8 13 10 15
REMARK Flexibility Score: inf
ROOT
ATOM      1  C   UNL     1     -35.255  16.621 -20.228  1.00  0.00     0.019 A 
ATOM      2  C   UNL     1     -35.409  17.667 -19.318  1.00  0.00     0.094 A 
ATOM      3  C   UNL     1     -34.638  18.824 -19.479  1.00  0.00     0.336 A 
ATOM      4  O   UNL     1     -34.761  19.778 -18.668  1.00  0.00    -0.246 OA
ATOM      5  O   UNL     1     -33.773  18.922 -20.485  1.00  0.00    -0.423 OA
ATOM      6  C   UNL     1     -33.595  17.948 -21.375  1.00  0.00     0.142 A 
ATOM      7  C   UNL     1     -32.671  18.108 -22.412  1.00  0.00     0.098 A 
ATOM      8  C   UNL     1     -32.481  17.085 -23.352  1.00  0.00     0.161 A 
ATOM      9  C   UNL     1     -33.219  15.896 -23.254  1.00  0.00     0.158 A 
ATOM     10  C   UNL     1     -34.147  15.729 -22.216  1.00  0.00     0.062 A 
ATOM     11  C   UNL     1     -34.339  16.752 -21.276  1.00  0.00     0.022 A 
ENDROOT
BRANCH   9  12
ATOM     12  O   UNL     1     -33.024  14.884 -24.193  1.00  0.00    -0.504 OA
ATOM     13  H   UNL     1     -33.778  14.268 -24.473  1.00  0.00     0.293 HD
ENDBRANCH   9  12
BRANCH   8  14
ATOM     14  O   UNL     1     -31.561  17.242 -24.387  1.00  0.00    -0.504 OA
ATOM     15  H   UNL     1     -30.726  16.671 -24.445  1.00  0.00     0.293 HD
ENDBRANCH   8  14
TORSDOF 2
ENDMDL
MODEL 8
REMARK VINA RESULT:    -4.512     13.629     14.889
REMARK INTER + INTRA:          -4.776
REMARK INTER:                  -4.776
REMARK INTRA:                   0.000
REMARK UNBOUND:                 0.000
REMARK SMILES O=c1ccc2cc(O)c(O)cc2o1
REMARK SMILES IDX 4 1 3 2 2 3 1 4 13 5 12 6 11 7 9 8 7 9 6 10 5 11 8 12 10 14
REMARK H PARENT 8 13 10 15
REMARK Flexibility Score: inf
ROOT
ATOM      1  C   UNL     1     -40.929  18.082 -20.809  1.00  0.00     0.019 A 
ATOM      2  C   UNL     1     -42.015  18.861 -21.210  1.00  0.00     0.094 A 
ATOM      3  C   UNL     1     -43.241  18.703 -20.553  1.00  0.00     0.336 A 
ATOM      4  O   UNL     1     -44.232  19.396 -20.901  1.00  0.00    -0.246 OA
ATOM      5  O   UNL     1     -43.365  17.825 -19.562  1.00  0.00    -0.423 OA
ATOM      6  C   UNL     1     -42.356  17.062 -19.148  1.00  0.00     0.142 A 
ATOM      7  C   UNL     1     -42.546  16.156 -18.102  1.00  0.00     0.098 A 
ATOM      8  C   UNL     1     -41.485  15.352 -17.662  1.00  0.00     0.161 A 
ATOM      9  C   UNL     1     -40.227  15.454 -18.274  1.00  0.00     0.158 A 
ATOM     10  C   UNL     1     -40.029  16.362 -19.325  1.00  0.00     0.062 A 
ATOM     11  C   UNL     1     -41.089  17.167 -19.764  1.00  0.00     0.022 A 
ENDROOT
BRANCH   9  12
ATOM     12  O   UNL     1     -39.178  14.650 -17.830  1.00  0.00    -0.504 OA
ATOM     13  H   UNL     1     -38.742  13.965 -18.437  1.00  0.00     0.293 HD
ENDBRANCH   9  12
BRANCH   8  14
ATOM     14  O   UNL     1     -41.673  14.447 -16.618  1.00  0.00    -0.504 OA
ATOM     15  H   UNL     1     -41.800  14.760 -15.663  1.00  0.00     0.293 HD
ENDBRANCH   8  14
TORSDOF 2
ENDMDL
MODEL 9
REMARK VINA RESULT:    -4.482     12.925     14.559
REMARK INTER + INTRA:          -4.744
REMARK INTER:                  -4.744
REMARK INTRA:                   0.000
REMARK UNBOUND:                 0.000
REMARK SMILES O=c1ccc2cc(O)c(O)cc2o1
REMARK SMILES IDX 4 1 3 2 2 3 1 4 13 5 12 6 11 7 9 8 7 9 6 10 5 11 8 12 10 14
REMARK H PARENT 8 13 10 15
REMARK Flexibility Score: inf
ROOT
ATOM      1  C   UNL     1     -41.344  17.344 -19.916  1.00  0.00     0.019 A 
ATOM      2  C   UNL     1     -39.971  17.122 -19.803  1.00  0.00     0.094 A 
ATOM      3  C   UNL     1     -39.494  16.357 -18.732  1.00  0.00     0.336 A 
ATOM      4  O   UNL     1     -38.259  16.147 -18.613  1.00  0.00    -0.246 OA
ATOM      5  O   UNL     1     -40.339  15.850 -17.838  1.00  0.00    -0.423 OA
ATOM      6  C   UNL     1     -41.654  16.037 -17.908  1.00  0.00     0.142 A 
ATOM      7  C   UNL     1     -42.493  15.480 -16.939  1.00  0.00     0.098 A 
ATOM      8  C   UNL     1     -43.880  15.674 -17.010  1.00  0.00     0.161 A 
ATOM      9  C   UNL     1     -44.430  16.430 -18.055  1.00  0.00     0.158 A 
ATOM     10  C   UNL     1     -43.594  16.993 -19.031  1.00  0.00     0.062 A 
ATOM     11  C   UNL     1     -42.207  16.799 -18.961  1.00  0.00     0.022 A 
ENDROOT
BRANCH   9  12
ATOM     12  O   UNL     1     -45.810  16.618 -18.117  1.00  0.00    -0.504 OA
ATOM     13  H   UNL     1     -46.376  16.161 -18.822  1.00  0.00     0.293 HD
ENDBRANCH   9  12
BRANCH   8  14
ATOM     14  O   UNL     1     -44.719  15.118 -16.044  1.00  0.00    -0.504 OA
ATOM     15  H   UNL     1     -45.361  14.368 -16.269  1.00  0.00     0.293 HD
ENDBRANCH   8  14
TORSDOF 2
ENDMDL
