MODEL 1
REMARK VINA RESULT:    -7.586      0.000      0.000
REMARK INTER + INTRA:          -9.512
REMARK INTER:                  -9.138
REMARK INTRA:                  -0.374
REMARK UNBOUND:                -0.374
REMARK SMILES O=c1c(O)c(-c2ccc(O)cc2O)oc2cc(O)cc(O)c12
REMARK SMILES IDX 5 1 3 2 2 3 1 4 22 5 20 6 19 7 17 8 16 9 15 10 14 11 6 12
REMARK SMILES IDX 8 13 7 14 9 15 11 16 12 17 10 18 13 20 4 22 21 24 18 26
REMARK H PARENT 10 19 13 21 4 23 21 25 18 27
REMARK Flexibility Score: inf
ROOT
ATOM      1  C   UNL     1      -9.460 -35.487  41.127  1.00  0.00     0.184 A 
ATOM      2  C   UNL     1      -8.721 -36.573  40.637  1.00  0.00     0.208 A 
ATOM      3  C   UNL     1      -9.405 -37.668  40.085  1.00  0.00     0.238 A 
ATOM      4  O   UNL     1      -8.739 -38.670  39.715  1.00  0.00    -0.285 OA
ATOM      5  C   UNL     1     -10.817 -37.637  39.981  1.00  0.00     0.111 A 
ATOM      6  C   UNL     1     -11.612 -38.671  39.400  1.00  0.00     0.134 A 
ATOM      7  C   UNL     1     -13.009 -38.577  39.448  1.00  0.00     0.093 A 
ATOM      8  C   UNL     1     -13.638 -37.462  39.997  1.00  0.00     0.123 A 
ATOM      9  C   UNL     1     -12.871 -36.419  40.519  1.00  0.00     0.094 A 
ATOM     10  C   UNL     1     -11.476 -36.500  40.520  1.00  0.00     0.146 A 
ATOM     11  O   UNL     1     -10.785 -35.495  41.046  1.00  0.00    -0.451 OA
ENDROOT
BRANCH   1  12
ATOM     12  C   UNL     1      -8.803 -34.306  41.727  1.00  0.00     0.063 A 
ATOM     13  C   UNL     1      -7.442 -33.369  43.510  1.00  0.00     0.047 A 
ATOM     14  C   UNL     1      -8.080 -34.463  42.920  1.00  0.00     0.020 A 
ATOM     15  C   UNL     1      -7.505 -32.108  42.907  1.00  0.00     0.119 A 
ATOM     16  C   UNL     1      -8.203 -31.948  41.705  1.00  0.00     0.093 A 
ATOM     17  C   UNL     1      -8.843 -33.042  41.104  1.00  0.00     0.130 A 
BRANCH  15  18
ATOM     18  O   UNL     1      -6.875 -31.010  43.488  1.00  0.00    -0.508 OA
ATOM     19  H   UNL     1      -6.671 -30.981  44.480  1.00  0.00     0.293 HD
ENDBRANCH  15  18
BRANCH  17  20
ATOM     20  O   UNL     1      -9.493 -32.879  39.880  1.00  0.00    -0.507 OA
ATOM     21  H   UNL     1     -10.491 -33.026  39.786  1.00  0.00     0.293 HD
ENDBRANCH  17  20
ENDBRANCH   1  12
BRANCH   2  22
ATOM     22  O   UNL     1      -7.325 -36.547  40.686  1.00  0.00    -0.502 OA
ATOM     23  H   UNL     1      -6.759 -37.365  40.490  1.00  0.00     0.293 HD
ENDBRANCH   2  22
BRANCH   6  24
ATOM     24  O   UNL     1     -11.086 -39.789  38.746  1.00  0.00    -0.507 OA
ATOM     25  H   UNL     1     -10.258 -39.786  38.171  1.00  0.00     0.293 HD
ENDBRANCH   6  24
BRANCH   8  26
ATOM     26  O   UNL     1     -15.030 -37.395  40.011  1.00  0.00    -0.508 OA
ATOM     27  H   UNL     1     -15.518 -36.600  40.405  1.00  0.00     0.293 HD
ENDBRANCH   8  26
TORSDOF 6
ENDMDL
MODEL 2
REMARK VINA RESULT:    -7.269      1.202      1.360
REMARK INTER + INTRA:          -9.130
REMARK INTER:                  -8.836
REMARK INTRA:                  -0.294
REMARK UNBOUND:                -0.374
REMARK SMILES O=c1c(O)c(-c2ccc(O)cc2O)oc2cc(O)cc(O)c12
REMARK SMILES IDX 5 1 3 2 2 3 1 4 22 5 20 6 19 7 17 8 16 9 15 10 14 11 6 12
REMARK SMILES IDX 8 13 7 14 9 15 11 16 12 17 10 18 13 20 4 22 21 24 18 26
REMARK H PARENT 10 19 13 21 4 23 21 25 18 27
REMARK Flexibility Score: inf
ROOT
ATOM      1  C   UNL     1      -9.851 -36.312  40.459  1.00  0.00     0.184 A 
ATOM      2  C   UNL     1      -9.188 -37.506  40.141  1.00  0.00     0.208 A 
ATOM      3  C   UNL     1      -9.946 -38.625  39.759  1.00  0.00     0.238 A 
ATOM      4  O   UNL     1      -9.351 -39.713  39.547  1.00  0.00    -0.285 OA
ATOM      5  C   UNL     1     -11.354 -38.516  39.646  1.00  0.00     0.111 A 
ATOM      6  C   UNL     1     -12.219 -39.571  39.225  1.00  0.00     0.134 A 
ATOM      7  C   UNL     1     -13.607 -39.379  39.254  1.00  0.00     0.093 A 
ATOM      8  C   UNL     1     -14.158 -38.154  39.626  1.00  0.00     0.123 A 
ATOM      9  C   UNL     1     -13.320 -37.098  39.987  1.00  0.00     0.094 A 
ATOM     10  C   UNL     1     -11.933 -37.270  40.005  1.00  0.00     0.146 A 
ATOM     11  O   UNL     1     -11.174 -36.245  40.376  1.00  0.00    -0.451 OA
ENDROOT
BRANCH   1  12
ATOM     12  C   UNL     1      -9.113 -35.101  40.875  1.00  0.00     0.063 A 
ATOM     13  C   UNL     1      -8.531 -33.525  42.632  1.00  0.00     0.047 A 
ATOM     14  C   UNL     1      -9.220 -34.662  42.204  1.00  0.00     0.020 A 
ATOM     15  C   UNL     1      -7.715 -32.820  41.740  1.00  0.00     0.119 A 
ATOM     16  C   UNL     1      -7.584 -33.263  40.420  1.00  0.00     0.093 A 
ATOM     17  C   UNL     1      -8.269 -34.407  39.984  1.00  0.00     0.130 A 
BRANCH  15  18
ATOM     18  O   UNL     1      -7.026 -31.682  42.155  1.00  0.00    -0.508 OA
ATOM     19  H   UNL     1      -6.890 -31.474  43.138  1.00  0.00     0.293 HD
ENDBRANCH  15  18
BRANCH  17  20
ATOM     20  O   UNL     1      -8.091 -34.866  38.678  1.00  0.00    -0.507 OA
ATOM     21  H   UNL     1      -7.187 -34.835  38.223  1.00  0.00     0.293 HD
ENDBRANCH  17  20
ENDBRANCH   1  12
BRANCH   2  22
ATOM     22  O   UNL     1      -7.793 -37.566  40.190  1.00  0.00    -0.502 OA
ATOM     23  H   UNL     1      -7.285 -38.443  40.156  1.00  0.00     0.293 HD
ENDBRANCH   2  22
BRANCH   6  24
ATOM     24  O   UNL     1     -11.772 -40.807  38.750  1.00  0.00    -0.507 OA
ATOM     25  H   UNL     1     -10.936 -40.950  38.206  1.00  0.00     0.293 HD
ENDBRANCH   6  24
BRANCH   8  26
ATOM     26  O   UNL     1     -15.542 -37.995  39.625  1.00  0.00    -0.508 OA
ATOM     27  H   UNL     1     -15.970 -37.086  39.494  1.00  0.00     0.293 HD
ENDBRANCH   8  26
TORSDOF 6
ENDMDL
MODEL 3
REMARK VINA RESULT:    -7.183      1.719      3.655
REMARK INTER + INTRA:          -9.026
REMARK INTER:                  -9.122
REMARK INTRA:                   0.095
REMARK UNBOUND:                -0.374
REMARK SMILES O=c1c(O)c(-c2ccc(O)cc2O)oc2cc(O)cc(O)c12
REMARK SMILES IDX 5 1 3 2 2 3 1 4 22 5 20 6 19 7 17 8 16 9 15 10 14 11 6 12
REMARK SMILES IDX 8 13 7 14 9 15 11 16 12 17 10 18 13 20 4 22 21 24 18 26
REMARK H PARENT 10 19 13 21 4 23 21 25 18 27
REMARK Flexibility Score: inf
ROOT
ATOM      1  C   UNL     1     -10.947 -36.731  40.490  1.00  0.00     0.184 A 
ATOM      2  C   UNL     1     -12.294 -36.420  40.731  1.00  0.00     0.208 A 
ATOM      3  C   UNL     1     -13.263 -37.425  40.574  1.00  0.00     0.238 A 
ATOM      4  O   UNL     1     -14.475 -37.120  40.719  1.00  0.00    -0.285 OA
ATOM      5  C   UNL     1     -12.864 -38.740  40.232  1.00  0.00     0.111 A 
ATOM      6  C   UNL     1     -13.755 -39.847  40.089  1.00  0.00     0.134 A 
ATOM      7  C   UNL     1     -13.259 -41.080  39.644  1.00  0.00     0.093 A 
ATOM      8  C   UNL     1     -11.899 -41.263  39.398  1.00  0.00     0.123 A 
ATOM      9  C   UNL     1     -11.011 -40.203  39.587  1.00  0.00     0.094 A 
ATOM     10  C   UNL     1     -11.480 -38.951  39.993  1.00  0.00     0.146 A 
ATOM     11  O   UNL     1     -10.604 -37.964  40.140  1.00  0.00    -0.451 OA
ENDROOT
BRANCH   1  12
ATOM     12  C   UNL     1      -9.879 -35.719  40.630  1.00  0.00     0.063 A 
ATOM     13  C   UNL     1      -9.000 -33.776  41.796  1.00  0.00     0.047 A 
ATOM     14  C   UNL     1      -9.994 -34.743  41.632  1.00  0.00     0.020 A 
ATOM     15  C   UNL     1      -7.871 -33.780  40.968  1.00  0.00     0.119 A 
ATOM     16  C   UNL     1      -7.737 -34.763  39.982  1.00  0.00     0.093 A 
ATOM     17  C   UNL     1      -8.729 -35.741  39.815  1.00  0.00     0.130 A 
BRANCH  15  18
ATOM     18  O   UNL     1      -6.875 -32.818  41.120  1.00  0.00    -0.508 OA
ATOM     19  H   UNL     1      -6.751 -32.073  40.444  1.00  0.00     0.293 HD
ENDBRANCH  15  18
BRANCH  17  20
ATOM     20  O   UNL     1      -8.559 -36.745  38.860  1.00  0.00    -0.507 OA
ATOM     21  H   UNL     1      -8.728 -36.575  37.876  1.00  0.00     0.293 HD
ENDBRANCH  17  20
ENDBRANCH   1  12
BRANCH   2  22
ATOM     22  O   UNL     1     -12.652 -35.133  41.137  1.00  0.00    -0.502 OA
ATOM     23  H   UNL     1     -12.194 -34.658  41.907  1.00  0.00     0.293 HD
ENDBRANCH   2  22
BRANCH   6  24
ATOM     24  O   UNL     1     -15.118 -39.799  40.393  1.00  0.00    -0.507 OA
ATOM     25  H   UNL     1     -15.561 -39.089  40.954  1.00  0.00     0.293 HD
ENDBRANCH   6  24
BRANCH   8  26
ATOM     26  O   UNL     1     -11.440 -42.508  38.973  1.00  0.00    -0.508 OA
ATOM     27  H   UNL     1     -11.791 -43.368  39.377  1.00  0.00     0.293 HD
ENDBRANCH   8  26
TORSDOF 6
ENDMDL
MODEL 4
REMARK VINA RESULT:    -6.864      1.807      3.396
REMARK INTER + INTRA:          -8.642
REMARK INTER:                  -8.291
REMARK INTRA:                  -0.351
REMARK UNBOUND:                -0.374
REMARK SMILES O=c1c(O)c(-c2ccc(O)cc2O)oc2cc(O)cc(O)c12
REMARK SMILES IDX 5 1 3 2 2 3 1 4 22 5 20 6 19 7 17 8 16 9 15 10 14 11 6 12
REMARK SMILES IDX 8 13 7 14 9 15 11 16 12 17 10 18 13 20 4 22 21 24 18 26
REMARK H PARENT 10 19 13 21 4 23 21 25 18 27
REMARK Flexibility Score: inf
ROOT
ATOM      1  C   UNL     1     -10.098 -36.566  40.353  1.00  0.00     0.184 A 
ATOM      2  C   UNL     1     -11.500 -36.595  40.395  1.00  0.00     0.208 A 
ATOM      3  C   UNL     1     -12.166 -37.776  40.027  1.00  0.00     0.238 A 
ATOM      4  O   UNL     1     -13.424 -37.772  39.995  1.00  0.00    -0.285 OA
ATOM      5  C   UNL     1     -11.419 -38.927  39.676  1.00  0.00     0.111 A 
ATOM      6  C   UNL     1     -11.988 -40.190  39.329  1.00  0.00     0.134 A 
ATOM      7  C   UNL     1     -11.152 -41.228  38.898  1.00  0.00     0.093 A 
ATOM      8  C   UNL     1      -9.768 -41.071  38.860  1.00  0.00     0.123 A 
ATOM      9  C   UNL     1      -9.197 -39.859  39.250  1.00  0.00     0.094 A 
ATOM     10  C   UNL     1     -10.006 -38.792  39.649  1.00  0.00     0.146 A 
ATOM     11  O   UNL     1      -9.422 -37.648  39.991  1.00  0.00    -0.451 OA
ENDROOT
BRANCH   1  12
ATOM     12  C   UNL     1      -9.335 -35.354  40.719  1.00  0.00     0.063 A 
ATOM     13  C   UNL     1      -8.712 -33.726  42.414  1.00  0.00     0.047 A 
ATOM     14  C   UNL     1      -9.425 -34.865  42.033  1.00  0.00     0.020 A 
ATOM     15  C   UNL     1      -7.891 -33.068  41.492  1.00  0.00     0.119 A 
ATOM     16  C   UNL     1      -7.778 -33.561  40.188  1.00  0.00     0.093 A 
ATOM     17  C   UNL     1      -8.485 -34.708  39.798  1.00  0.00     0.130 A 
BRANCH  15  18
ATOM     18  O   UNL     1      -7.179 -31.928  41.861  1.00  0.00    -0.508 OA
ATOM     19  H   UNL     1      -7.087 -31.653  42.831  1.00  0.00     0.293 HD
ENDBRANCH  15  18
BRANCH  17  20
ATOM     20  O   UNL     1      -8.325 -35.217  38.509  1.00  0.00    -0.507 OA
ATOM     21  H   UNL     1      -8.873 -36.002  38.176  1.00  0.00     0.293 HD
ENDBRANCH  17  20
ENDBRANCH   1  12
BRANCH   2  22
ATOM     22  O   UNL     1     -12.211 -35.468  40.813  1.00  0.00    -0.502 OA
ATOM     23  H   UNL     1     -12.510 -34.745  40.170  1.00  0.00     0.293 HD
ENDBRANCH   2  22
BRANCH   6  24
ATOM     24  O   UNL     1     -13.351 -40.484  39.414  1.00  0.00    -0.507 OA
ATOM     25  H   UNL     1     -13.755 -41.398  39.280  1.00  0.00     0.293 HD
ENDBRANCH   6  24
BRANCH   8  26
ATOM     26  O   UNL     1      -8.967 -42.132  38.442  1.00  0.00    -0.508 OA
ATOM     27  H   UNL     1      -9.294 -42.804  37.758  1.00  0.00     0.293 HD
ENDBRANCH   8  26
TORSDOF 6
ENDMDL
MODEL 5
REMARK VINA RESULT:    -6.192      2.372      8.025
REMARK INTER + INTRA:          -7.832
REMARK INTER:                  -7.425
REMARK INTRA:                  -0.407
REMARK UNBOUND:                -0.374
REMARK SMILES O=c1c(O)c(-c2ccc(O)cc2O)oc2cc(O)cc(O)c12
REMARK SMILES IDX 5 1 3 2 2 3 1 4 22 5 20 6 19 7 17 8 16 9 15 10 14 11 6 12
REMARK SMILES IDX 8 13 7 14 9 15 11 16 12 17 10 18 13 20 4 22 21 24 18 26
REMARK H PARENT 10 19 13 21 4 23 21 25 18 27
REMARK Flexibility Score: inf
ROOT
ATOM      1  C   UNL     1     -12.677 -38.782  39.455  1.00  0.00     0.184 A 
ATOM      2  C   UNL     1     -13.263 -37.633  40.006  1.00  0.00     0.208 A 
ATOM      3  C   UNL     1     -12.431 -36.630  40.530  1.00  0.00     0.238 A 
ATOM      4  O   UNL     1     -12.964 -35.637  41.090  1.00  0.00    -0.285 OA
ATOM      5  C   UNL     1     -11.023 -36.766  40.445  1.00  0.00     0.111 A 
ATOM      6  C   UNL     1     -10.084 -35.794  40.903  1.00  0.00     0.134 A 
ATOM      7  C   UNL     1      -8.714 -36.084  40.862  1.00  0.00     0.093 A 
ATOM      8  C   UNL     1      -8.247 -37.282  40.324  1.00  0.00     0.123 A 
ATOM      9  C   UNL     1      -9.153 -38.217  39.823  1.00  0.00     0.094 A 
ATOM     10  C   UNL     1     -10.528 -37.973  39.884  1.00  0.00     0.146 A 
ATOM     11  O   UNL     1     -11.356 -38.899  39.415  1.00  0.00    -0.451 OA
ENDROOT
BRANCH   1  12
ATOM     12  C   UNL     1     -13.495 -39.877  38.893  1.00  0.00     0.063 A 
ATOM     13  C   UNL     1     -14.636 -40.845  36.977  1.00  0.00     0.047 A 
ATOM     14  C   UNL     1     -13.868 -39.824  37.541  1.00  0.00     0.020 A 
ATOM     15  C   UNL     1     -15.029 -41.941  37.754  1.00  0.00     0.119 A 
ATOM     16  C   UNL     1     -14.642 -42.014  39.096  1.00  0.00     0.093 A 
ATOM     17  C   UNL     1     -13.867 -40.995  39.669  1.00  0.00     0.130 A 
BRANCH  15  18
ATOM     18  O   UNL     1     -15.798 -42.963  37.203  1.00  0.00    -0.508 OA
ATOM     19  H   UNL     1     -16.687 -43.235  37.608  1.00  0.00     0.293 HD
ENDBRANCH  15  18
BRANCH  17  20
ATOM     20  O   UNL     1     -13.447 -41.105  40.995  1.00  0.00    -0.507 OA
ATOM     21  H   UNL     1     -13.961 -41.657  41.671  1.00  0.00     0.293 HD
ENDBRANCH  17  20
ENDBRANCH   1  12
BRANCH   2  22
ATOM     22  O   UNL     1     -14.653 -37.491  40.013  1.00  0.00    -0.502 OA
ATOM     23  H   UNL     1     -15.191 -37.457  40.871  1.00  0.00     0.293 HD
ENDBRANCH   2  22
BRANCH   6  24
ATOM     24  O   UNL     1     -10.437 -34.528  41.380  1.00  0.00    -0.507 OA
ATOM     25  H   UNL     1     -10.849 -34.344  42.281  1.00  0.00     0.293 HD
ENDBRANCH   6  24
BRANCH   8  26
ATOM     26  O   UNL     1      -6.876 -37.529  40.284  1.00  0.00    -0.508 OA
ATOM     27  H   UNL     1      -6.499 -38.344  39.817  1.00  0.00     0.293 HD
ENDBRANCH   8  26
TORSDOF 6
ENDMDL
MODEL 6
REMARK VINA RESULT:    -6.039      4.639      7.413
REMARK INTER + INTRA:          -7.648
REMARK INTER:                  -7.383
REMARK INTRA:                  -0.264
REMARK UNBOUND:                -0.374
REMARK SMILES O=c1c(O)c(-c2ccc(O)cc2O)oc2cc(O)cc(O)c12
REMARK SMILES IDX 5 1 3 2 2 3 1 4 22 5 20 6 19 7 17 8 16 9 15 10 14 11 6 12
REMARK SMILES IDX 8 13 7 14 9 15 11 16 12 17 10 18 13 20 4 22 21 24 18 26
REMARK H PARENT 10 19 13 21 4 23 21 25 18 27
REMARK Flexibility Score: inf
ROOT
ATOM      1  C   UNL     1     -11.404 -40.209  37.686  1.00  0.00     0.184 A 
ATOM      2  C   UNL     1     -12.510 -40.157  36.825  1.00  0.00     0.208 A 
ATOM      3  C   UNL     1     -13.617 -39.372  37.187  1.00  0.00     0.238 A 
ATOM      4  O   UNL     1     -14.635 -39.389  36.448  1.00  0.00    -0.285 OA
ATOM      5  C   UNL     1     -13.578 -38.606  38.378  1.00  0.00     0.111 A 
ATOM      6  C   UNL     1     -14.624 -37.741  38.822  1.00  0.00     0.134 A 
ATOM      7  C   UNL     1     -14.518 -37.114  40.071  1.00  0.00     0.093 A 
ATOM      8  C   UNL     1     -13.381 -37.269  40.861  1.00  0.00     0.123 A 
ATOM      9  C   UNL     1     -12.329 -38.069  40.413  1.00  0.00     0.094 A 
ATOM     10  C   UNL     1     -12.420 -38.738  39.190  1.00  0.00     0.146 A 
ATOM     11  O   UNL     1     -11.405 -39.506  38.811  1.00  0.00    -0.451 OA
ENDROOT
BRANCH   1  12
ATOM     12  C   UNL     1     -10.210 -41.021  37.368  1.00  0.00     0.063 A 
ATOM     13  C   UNL     1      -9.265 -43.183  36.783  1.00  0.00     0.047 A 
ATOM     14  C   UNL     1     -10.371 -42.388  37.093  1.00  0.00     0.020 A 
ATOM     15  C   UNL     1      -7.986 -42.618  36.729  1.00  0.00     0.119 A 
ATOM     16  C   UNL     1      -7.819 -41.252  36.979  1.00  0.00     0.093 A 
ATOM     17  C   UNL     1      -8.926 -40.446  37.286  1.00  0.00     0.130 A 
BRANCH  15  18
ATOM     18  O   UNL     1      -6.875 -43.403  36.425  1.00  0.00    -0.508 OA
ATOM     19  H   UNL     1      -5.941 -43.011  36.401  1.00  0.00     0.293 HD
ENDBRANCH  15  18
BRANCH  17  20
ATOM     20  O   UNL     1      -8.752 -39.076  37.484  1.00  0.00    -0.507 OA
ATOM     21  H   UNL     1      -9.540 -38.453  37.612  1.00  0.00     0.293 HD
ENDBRANCH  17  20
ENDBRANCH   1  12
BRANCH   2  22
ATOM     22  O   UNL     1     -12.494 -40.866  35.622  1.00  0.00    -0.502 OA
ATOM     23  H   UNL     1     -11.756 -41.518  35.385  1.00  0.00     0.293 HD
ENDBRANCH   2  22
BRANCH   6  24
ATOM     24  O   UNL     1     -15.766 -37.444  38.073  1.00  0.00    -0.507 OA
ATOM     25  H   UNL     1     -16.532 -36.870  38.389  1.00  0.00     0.293 HD
ENDBRANCH   6  24
BRANCH   8  26
ATOM     26  O   UNL     1     -13.303 -36.616  42.090  1.00  0.00    -0.508 OA
ATOM     27  H   UNL     1     -13.529 -37.090  42.956  1.00  0.00     0.293 HD
ENDBRANCH   8  26
TORSDOF 6
ENDMDL
MODEL 7
REMARK VINA RESULT:    -5.994      2.348      4.101
REMARK INTER + INTRA:          -7.594
REMARK INTER:                  -7.383
REMARK INTRA:                  -0.211
REMARK UNBOUND:                -0.374
REMARK SMILES O=c1c(O)c(-c2ccc(O)cc2O)oc2cc(O)cc(O)c12
REMARK SMILES IDX 5 1 3 2 2 3 1 4 22 5 20 6 19 7 17 8 16 9 15 10 14 11 6 12
REMARK SMILES IDX 8 13 7 14 9 15 11 16 12 17 10 18 13 20 4 22 21 24 18 26
REMARK H PARENT 10 19 13 21 4 23 21 25 18 27
REMARK Flexibility Score: inf
ROOT
ATOM      1  C   UNL     1     -10.759 -37.667  40.197  1.00  0.00     0.184 A 
ATOM      2  C   UNL     1     -12.022 -37.486  39.615  1.00  0.00     0.208 A 
ATOM      3  C   UNL     1     -12.917 -38.568  39.581  1.00  0.00     0.238 A 
ATOM      4  O   UNL     1     -14.019 -38.421  38.992  1.00  0.00    -0.285 OA
ATOM      5  C   UNL     1     -12.555 -39.801  40.179  1.00  0.00     0.111 A 
ATOM      6  C   UNL     1     -13.398 -40.951  40.243  1.00  0.00     0.134 A 
ATOM      7  C   UNL     1     -12.893 -42.149  40.767  1.00  0.00     0.093 A 
ATOM      8  C   UNL     1     -11.602 -42.221  41.285  1.00  0.00     0.123 A 
ATOM      9  C   UNL     1     -10.787 -41.088  41.278  1.00  0.00     0.094 A 
ATOM     10  C   UNL     1     -11.248 -39.889  40.728  1.00  0.00     0.146 A 
ATOM     11  O   UNL     1     -10.432 -38.841  40.723  1.00  0.00    -0.451 OA
ENDROOT
BRANCH   1  12
ATOM     12  C   UNL     1      -9.768 -36.572  40.259  1.00  0.00     0.063 A 
ATOM     13  C   UNL     1      -7.609 -35.683  39.581  1.00  0.00     0.047 A 
ATOM     14  C   UNL     1      -8.564 -36.702  39.549  1.00  0.00     0.020 A 
ATOM     15  C   UNL     1      -7.852 -34.514  40.312  1.00  0.00     0.119 A 
ATOM     16  C   UNL     1      -9.059 -34.366  41.003  1.00  0.00     0.093 A 
ATOM     17  C   UNL     1     -10.025 -35.383  40.971  1.00  0.00     0.130 A 
BRANCH  15  18
ATOM     18  O   UNL     1      -6.905 -33.493  40.354  1.00  0.00    -0.508 OA
ATOM     19  H   UNL     1      -7.033 -32.676  40.939  1.00  0.00     0.293 HD
ENDBRANCH  15  18
BRANCH  17  20
ATOM     20  O   UNL     1     -11.245 -35.201  41.625  1.00  0.00    -0.507 OA
ATOM     21  H   UNL     1     -11.677 -34.288  41.698  1.00  0.00     0.293 HD
ENDBRANCH  17  20
ENDBRANCH   1  12
BRANCH   2  22
ATOM     22  O   UNL     1     -12.381 -36.240  39.096  1.00  0.00    -0.502 OA
ATOM     23  H   UNL     1     -11.801 -35.417  39.208  1.00  0.00     0.293 HD
ENDBRANCH   2  22
BRANCH   6  24
ATOM     24  O   UNL     1     -14.734 -40.966  39.834  1.00  0.00    -0.507 OA
ATOM     25  H   UNL     1     -15.451 -41.561  40.220  1.00  0.00     0.293 HD
ENDBRANCH   6  24
BRANCH   8  26
ATOM     26  O   UNL     1     -11.140 -43.425  41.814  1.00  0.00    -0.508 OA
ATOM     27  H   UNL     1     -11.722 -44.254  41.830  1.00  0.00     0.293 HD
ENDBRANCH   8  26
TORSDOF 6
ENDMDL
MODEL 8
REMARK VINA RESULT:    -5.979      2.946      4.325
REMARK INTER + INTRA:          -7.576
REMARK INTER:                  -7.193
REMARK INTRA:                  -0.383
REMARK UNBOUND:                -0.374
REMARK SMILES O=c1c(O)c(-c2ccc(O)cc2O)oc2cc(O)cc(O)c12
REMARK SMILES IDX 5 1 3 2 2 3 1 4 22 5 20 6 19 7 17 8 16 9 15 10 14 11 6 12
REMARK SMILES IDX 8 13 7 14 9 15 11 16 12 17 10 18 13 20 4 22 21 24 18 26
REMARK H PARENT 10 19 13 21 4 23 21 25 18 27
REMARK Flexibility Score: inf
ROOT
ATOM      1  C   UNL     1      -8.132 -37.972  39.748  1.00  0.00     0.184 A 
ATOM      2  C   UNL     1      -7.600 -38.918  40.637  1.00  0.00     0.208 A 
ATOM      3  C   UNL     1      -7.633 -40.277  40.285  1.00  0.00     0.238 A 
ATOM      4  O   UNL     1      -7.223 -41.125  41.118  1.00  0.00    -0.285 OA
ATOM      5  C   UNL     1      -8.149 -40.665  39.023  1.00  0.00     0.111 A 
ATOM      6  C   UNL     1      -8.192 -42.009  38.543  1.00  0.00     0.134 A 
ATOM      7  C   UNL     1      -8.821 -42.285  37.322  1.00  0.00     0.093 A 
ATOM      8  C   UNL     1      -9.351 -41.264  36.536  1.00  0.00     0.123 A 
ATOM      9  C   UNL     1      -9.266 -39.940  36.970  1.00  0.00     0.094 A 
ATOM     10  C   UNL     1      -8.678 -39.636  38.201  1.00  0.00     0.146 A 
ATOM     11  O   UNL     1      -8.637 -38.365  38.586  1.00  0.00    -0.451 OA
ENDROOT
BRANCH   1  12
ATOM     12  C   UNL     1      -8.134 -36.528  40.061  1.00  0.00     0.063 A 
ATOM     13  C   UNL     1      -6.876 -34.483  40.440  1.00  0.00     0.047 A 
ATOM     14  C   UNL     1      -6.909 -35.849  40.152  1.00  0.00     0.020 A 
ATOM     15  C   UNL     1      -8.067 -33.774  40.626  1.00  0.00     0.119 A 
ATOM     16  C   UNL     1      -9.294 -34.437  40.514  1.00  0.00     0.093 A 
ATOM     17  C   UNL     1      -9.336 -35.808  40.220  1.00  0.00     0.130 A 
BRANCH  15  18
ATOM     18  O   UNL     1      -8.046 -32.411  40.918  1.00  0.00    -0.508 OA
ATOM     19  H   UNL     1      -8.901 -31.876  41.008  1.00  0.00     0.293 HD
ENDBRANCH  15  18
BRANCH  17  20
ATOM     20  O   UNL     1     -10.567 -36.446  40.062  1.00  0.00    -0.507 OA
ATOM     21  H   UNL     1     -11.308 -36.348  40.746  1.00  0.00     0.293 HD
ENDBRANCH  17  20
ENDBRANCH   1  12
BRANCH   2  22
ATOM     22  O   UNL     1      -7.032 -38.502  41.844  1.00  0.00    -0.502 OA
ATOM     23  H   UNL     1      -6.735 -37.546  42.003  1.00  0.00     0.293 HD
ENDBRANCH   2  22
BRANCH   6  24
ATOM     24  O   UNL     1      -7.616 -43.097  39.205  1.00  0.00    -0.507 OA
ATOM     25  H   UNL     1      -7.740 -43.310  40.183  1.00  0.00     0.293 HD
ENDBRANCH   6  24
BRANCH   8  26
ATOM     26  O   UNL     1      -9.954 -41.575  35.319  1.00  0.00    -0.508 OA
ATOM     27  H   UNL     1     -10.718 -42.238  35.261  1.00  0.00     0.293 HD
ENDBRANCH   8  26
TORSDOF 6
ENDMDL
MODEL 9
REMARK VINA RESULT:    -5.785      3.058      6.683
REMARK INTER + INTRA:          -7.342
REMARK INTER:                  -6.936
REMARK INTRA:                  -0.406
REMARK UNBOUND:                -0.374
REMARK SMILES O=c1c(O)c(-c2ccc(O)cc2O)oc2cc(O)cc(O)c12
REMARK SMILES IDX 5 1 3 2 2 3 1 4 22 5 20 6 19 7 17 8 16 9 15 10 14 11 6 12
REMARK SMILES IDX 8 13 7 14 9 15 11 16 12 17 10 18 13 20 4 22 21 24 18 26
REMARK H PARENT 10 19 13 21 4 23 21 25 18 27
REMARK Flexibility Score: inf
ROOT
ATOM      1  C   UNL     1      -9.446 -39.477  39.306  1.00  0.00     0.184 A 
ATOM      2  C   UNL     1      -8.709 -38.397  39.814  1.00  0.00     0.208 A 
ATOM      3  C   UNL     1      -9.396 -37.264  40.279  1.00  0.00     0.238 A 
ATOM      4  O   UNL     1      -8.727 -36.270  40.663  1.00  0.00    -0.285 OA
ATOM      5  C   UNL     1     -10.812 -37.250  40.281  1.00  0.00     0.111 A 
ATOM      6  C   UNL     1     -11.613 -36.174  40.770  1.00  0.00     0.134 A 
ATOM      7  C   UNL     1     -13.006 -36.229  40.624  1.00  0.00     0.093 A 
ATOM      8  C   UNL     1     -13.629 -37.343  40.067  1.00  0.00     0.123 A 
ATOM      9  C   UNL     1     -12.860 -38.425  39.636  1.00  0.00     0.094 A 
ATOM     10  C   UNL     1     -11.467 -38.385  39.732  1.00  0.00     0.146 A 
ATOM     11  O   UNL     1     -10.771 -39.427  39.290  1.00  0.00    -0.451 OA
ENDROOT
BRANCH   1  12
ATOM     12  C   UNL     1      -8.785 -40.696  38.794  1.00  0.00     0.063 A 
ATOM     13  C   UNL     1      -7.811 -41.899  36.919  1.00  0.00     0.047 A 
ATOM     14  C   UNL     1      -8.442 -40.765  37.434  1.00  0.00     0.020 A 
ATOM     15  C   UNL     1      -7.501 -42.974  37.759  1.00  0.00     0.119 A 
ATOM     16  C   UNL     1      -7.818 -42.905  39.120  1.00  0.00     0.093 A 
ATOM     17  C   UNL     1      -8.447 -41.767  39.646  1.00  0.00     0.130 A 
BRANCH  15  18
ATOM     18  O   UNL     1      -6.875 -44.113  37.256  1.00  0.00    -0.508 OA
ATOM     19  H   UNL     1      -5.992 -44.057  36.762  1.00  0.00     0.293 HD
ENDBRANCH  15  18
BRANCH  17  20
ATOM     20  O   UNL     1      -8.713 -41.692  41.014  1.00  0.00    -0.507 OA
ATOM     21  H   UNL     1      -9.656 -41.576  41.366  1.00  0.00     0.293 HD
ENDBRANCH  17  20
ENDBRANCH   1  12
BRANCH   2  22
ATOM     22  O   UNL     1      -7.315 -38.465  39.866  1.00  0.00    -0.502 OA
ATOM     23  H   UNL     1      -6.825 -39.103  40.482  1.00  0.00     0.293 HD
ENDBRANCH   2  22
BRANCH   6  24
ATOM     24  O   UNL     1     -11.100 -35.050  41.424  1.00  0.00    -0.507 OA
ATOM     25  H   UNL     1     -11.632 -34.229  41.665  1.00  0.00     0.293 HD
ENDBRANCH   6  24
BRANCH   8  26
ATOM     26  O   UNL     1     -15.018 -37.369  39.954  1.00  0.00    -0.508 OA
ATOM     27  H   UNL     1     -15.553 -36.522  39.809  1.00  0.00     0.293 HD
ENDBRANCH   8  26
TORSDOF 6
ENDMDL
