MODEL 1
REMARK VINA RESULT:    -4.447      0.000      0.000
REMARK INTER + INTRA:         -10.851
REMARK INTER:                  -8.606
REMARK INTRA:                  -2.245
REMARK UNBOUND:                -2.245
REMARK SMILES CCCCCCCCCCCCCCCCCC(=O)[O-]
REMARK SMILES IDX 10 1 11 2 12 3 13 4 14 5 15 6 16 7 17 8 18 9 19 10 20 11
REMARK SMILES IDX 9 12 8 13 7 14 6 15 5 16 4 17 3 18 2 19 1 20
REMARK H PARENT
REMARK Flexibility Score: inf
ROOT
ATOM      1  C   UNL     1     -35.749  16.486 -30.080  1.00  0.00     0.000 C 
ENDROOT
BRANCH   1   2
ATOM      2  C   UNL     1     -37.039  17.112 -29.513  1.00  0.00     0.000 C 
BRANCH   2   3
ATOM      3  C   UNL     1     -38.145  17.380 -30.550  1.00  0.00     0.000 C 
BRANCH   3   4
ATOM      4  C   UNL     1     -39.154  18.478 -30.161  1.00  0.00     0.000 C 
BRANCH   4   5
ATOM      5  C   UNL     1     -38.831  19.133 -28.807  1.00  0.00     0.000 C 
BRANCH   5   6
ATOM      6  C   UNL     1     -39.771  20.304 -28.481  1.00  0.00     0.000 C 
BRANCH   6   7
ATOM      7  C   UNL     1     -39.779  21.383 -29.579  1.00  0.00     0.006 C 
BRANCH   7   8
ATOM      8  C   UNL     1     -40.293  22.733 -29.059  1.00  0.00     0.053 C 
BRANCH   8   9
ATOM      9  C   UNL     1     -41.527  23.174 -29.785  1.00  0.00     0.041 C 
ATOM     10  O   UNL     1     -41.742  22.785 -30.963  1.00  0.00    -0.550 OA
ATOM     11  O   UNL     1     -42.422  24.043 -29.173  1.00  0.00    -0.550 OA
ENDBRANCH   8   9
ENDBRANCH   7   8
ENDBRANCH   6   7
ENDBRANCH   5   6
ENDBRANCH   4   5
ENDBRANCH   3   4
ENDBRANCH   2   3
ENDBRANCH   1   2
BRANCH   1  12
ATOM     12  C   UNL     1     -34.634  17.514 -30.370  1.00  0.00     0.000 C 
BRANCH  12  13
ATOM     13  C   UNL     1     -34.765  18.783 -29.509  1.00  0.00    -0.000 C 
BRANCH  13  14
ATOM     14  C   UNL     1     -34.771  20.069 -30.350  1.00  0.00    -0.000 C 
BRANCH  14  15
ATOM     15  C   UNL     1     -36.154  20.746 -30.380  1.00  0.00    -0.000 C 
BRANCH  15  16
ATOM     16  C   UNL     1     -36.095  22.230 -29.986  1.00  0.00    -0.000 C 
BRANCH  16  17
ATOM     17  C   UNL     1     -36.405  22.458 -28.496  1.00  0.00    -0.000 C 
BRANCH  17  18
ATOM     18  C   UNL     1     -35.526  23.554 -27.872  1.00  0.00    -0.000 C 
BRANCH  18  19
ATOM     19  C   UNL     1     -34.598  23.015 -26.773  1.00  0.00    -0.003 C 
ATOM     20  C   UNL     1     -34.339  21.523 -26.956  1.00  0.00     0.004 C 
ENDBRANCH  18  19
ENDBRANCH  17  18
ENDBRANCH  16  17
ENDBRANCH  15  16
ENDBRANCH  14  15
ENDBRANCH  13  14
ENDBRANCH  12  13
ENDBRANCH   1  12
TORSDOF 16
ENDMDL
MODEL 2
REMARK VINA RESULT:    -4.413      3.366      5.912
REMARK INTER + INTRA:         -10.786
REMARK INTER:                  -8.277
REMARK INTRA:                  -2.510
REMARK UNBOUND:                -2.245
REMARK SMILES CCCCCCCCCCCCCCCCCC(=O)[O-]
REMARK SMILES IDX 10 1 11 2 12 3 13 4 14 5 15 6 16 7 17 8 18 9 19 10 20 11
REMARK SMILES IDX 9 12 8 13 7 14 6 15 5 16 4 17 3 18 2 19 1 20
REMARK H PARENT
REMARK Flexibility Score: inf
ROOT
ATOM      1  C   UNL     1     -34.939  23.298 -27.444  1.00  0.00     0.000 C 
ENDROOT
BRANCH   1   2
ATOM      2  C   UNL     1     -33.914  22.245 -26.978  1.00  0.00     0.000 C 
BRANCH   2   3
ATOM      3  C   UNL     1     -34.491  20.839 -26.728  1.00  0.00     0.000 C 
BRANCH   3   4
ATOM      4  C   UNL     1     -33.876  19.718 -27.587  1.00  0.00     0.000 C 
BRANCH   4   5
ATOM      5  C   UNL     1     -34.933  18.769 -28.177  1.00  0.00     0.000 C 
BRANCH   5   6
ATOM      6  C   UNL     1     -36.327  18.989 -27.568  1.00  0.00     0.000 C 
BRANCH   6   7
ATOM      7  C   UNL     1     -37.266  17.789 -27.783  1.00  0.00     0.006 C 
BRANCH   7   8
ATOM      8  C   UNL     1     -37.483  17.484 -29.272  1.00  0.00     0.053 C 
BRANCH   8   9
ATOM      9  C   UNL     1     -36.829  16.199 -29.677  1.00  0.00     0.041 C 
ATOM     10  O   UNL     1     -37.293  15.098 -29.278  1.00  0.00    -0.550 OA
ATOM     11  O   UNL     1     -35.687  16.218 -30.467  1.00  0.00    -0.550 OA
ENDBRANCH   8   9
ENDBRANCH   7   8
ENDBRANCH   6   7
ENDBRANCH   5   6
ENDBRANCH   4   5
ENDBRANCH   3   4
ENDBRANCH   2   3
ENDBRANCH   1   2
BRANCH   1  12
ATOM     12  C   UNL     1     -35.969  22.758 -28.458  1.00  0.00     0.000 C 
BRANCH  12  13
ATOM     13  C   UNL     1     -35.527  22.971 -29.917  1.00  0.00    -0.000 C 
BRANCH  13  14
ATOM     14  C   UNL     1     -35.130  21.660 -30.612  1.00  0.00    -0.000 C 
BRANCH  14  15
ATOM     15  C   UNL     1     -36.141  21.236 -31.693  1.00  0.00    -0.000 C 
BRANCH  15  16
ATOM     16  C   UNL     1     -37.167  20.215 -31.176  1.00  0.00    -0.000 C 
BRANCH  16  17
ATOM     17  C   UNL     1     -38.526  20.857 -30.850  1.00  0.00    -0.000 C 
BRANCH  17  18
ATOM     18  C   UNL     1     -38.753  21.025 -29.339  1.00  0.00    -0.000 C 
BRANCH  18  19
ATOM     19  C   UNL     1     -40.231  20.895 -28.943  1.00  0.00    -0.003 C 
ATOM     20  C   UNL     1     -40.478  19.614 -28.151  1.00  0.00     0.004 C 
ENDBRANCH  18  19
ENDBRANCH  17  18
ENDBRANCH  16  17
ENDBRANCH  15  16
ENDBRANCH  14  15
ENDBRANCH  13  14
ENDBRANCH  12  13
ENDBRANCH   1  12
TORSDOF 16
ENDMDL
MODEL 3
REMARK VINA RESULT:    -4.395      2.569      5.071
REMARK INTER + INTRA:         -10.751
REMARK INTER:                  -7.976
REMARK INTRA:                  -2.775
REMARK UNBOUND:                -2.245
REMARK SMILES CCCCCCCCCCCCCCCCCC(=O)[O-]
REMARK SMILES IDX 10 1 11 2 12 3 13 4 14 5 15 6 16 7 17 8 18 9 19 10 20 11
REMARK SMILES IDX 9 12 8 13 7 14 6 15 5 16 4 17 3 18 2 19 1 20
REMARK H PARENT
REMARK Flexibility Score: inf
ROOT
ATOM      1  C   UNL     1     -37.154  18.160 -27.689  1.00  0.00     0.000 C 
ENDROOT
BRANCH   1   2
ATOM      2  C   UNL     1     -36.050  19.234 -27.636  1.00  0.00     0.000 C 
BRANCH   2   3
ATOM      3  C   UNL     1     -34.626  18.722 -27.923  1.00  0.00     0.000 C 
BRANCH   3   4
ATOM      4  C   UNL     1     -33.876  19.468 -29.042  1.00  0.00     0.000 C 
BRANCH   4   5
ATOM      5  C   UNL     1     -34.611  19.418 -30.392  1.00  0.00     0.000 C 
BRANCH   5   6
ATOM      6  C   UNL     1     -34.864  20.816 -30.978  1.00  0.00     0.000 C 
BRANCH   6   7
ATOM      7  C   UNL     1     -34.424  21.946 -30.030  1.00  0.00     0.006 C 
BRANCH   7   8
ATOM      8  C   UNL     1     -35.610  22.801 -29.561  1.00  0.00     0.053 C 
BRANCH   8   9
ATOM      9  C   UNL     1     -35.601  22.995 -28.075  1.00  0.00     0.041 C 
ATOM     10  O   UNL     1     -36.597  23.505 -27.497  1.00  0.00    -0.550 OA
ATOM     11  O   UNL     1     -34.481  22.644 -27.334  1.00  0.00    -0.550 OA
ENDBRANCH   8   9
ENDBRANCH   7   8
ENDBRANCH   6   7
ENDBRANCH   5   6
ENDBRANCH   4   5
ENDBRANCH   3   4
ENDBRANCH   2   3
ENDBRANCH   1   2
BRANCH   1  12
ATOM     12  C   UNL     1     -36.872  17.026 -28.699  1.00  0.00     0.000 C 
BRANCH  12  13
ATOM     13  C   UNL     1     -37.654  17.199 -30.013  1.00  0.00    -0.000 C 
BRANCH  13  14
ATOM     14  C   UNL     1     -38.554  18.444 -30.005  1.00  0.00    -0.000 C 
BRANCH  14  15
ATOM     15  C   UNL     1     -38.211  19.426 -31.141  1.00  0.00    -0.000 C 
BRANCH  15  16
ATOM     16  C   UNL     1     -38.726  20.848 -30.870  1.00  0.00    -0.000 C 
BRANCH  16  17
ATOM     17  C   UNL     1     -38.719  21.203 -29.373  1.00  0.00    -0.000 C 
BRANCH  17  18
ATOM     18  C   UNL     1     -40.097  21.659 -28.868  1.00  0.00    -0.000 C 
BRANCH  18  19
ATOM     19  C   UNL     1     -40.496  23.043 -29.402  1.00  0.00    -0.003 C 
ATOM     20  C   UNL     1     -41.875  23.003 -30.056  1.00  0.00     0.004 C 
ENDBRANCH  18  19
ENDBRANCH  17  18
ENDBRANCH  16  17
ENDBRANCH  15  16
ENDBRANCH  14  15
ENDBRANCH  13  14
ENDBRANCH  12  13
ENDBRANCH   1  12
TORSDOF 16
ENDMDL
MODEL 4
REMARK VINA RESULT:    -4.389      2.779      5.883
REMARK INTER + INTRA:         -10.741
REMARK INTER:                  -8.428
REMARK INTRA:                  -2.313
REMARK UNBOUND:                -2.245
REMARK SMILES CCCCCCCCCCCCCCCCCC(=O)[O-]
REMARK SMILES IDX 10 1 11 2 12 3 13 4 14 5 15 6 16 7 17 8 18 9 19 10 20 11
REMARK SMILES IDX 9 12 8 13 7 14 6 15 5 16 4 17 3 18 2 19 1 20
REMARK H PARENT
REMARK Flexibility Score: inf
ROOT
ATOM      1  C   UNL     1     -34.708  23.069 -29.689  1.00  0.00     0.000 C 
ENDROOT
BRANCH   1   2
ATOM      2  C   UNL     1     -35.573  22.836 -28.434  1.00  0.00     0.000 C 
BRANCH   2   3
ATOM      3  C   UNL     1     -34.963  21.886 -27.387  1.00  0.00     0.000 C 
BRANCH   3   4
ATOM      4  C   UNL     1     -33.959  20.859 -27.942  1.00  0.00     0.000 C 
BRANCH   4   5
ATOM      5  C   UNL     1     -34.497  19.418 -27.909  1.00  0.00     0.000 C 
BRANCH   5   6
ATOM      6  C   UNL     1     -35.852  19.313 -27.192  1.00  0.00     0.000 C 
BRANCH   6   7
ATOM      7  C   UNL     1     -36.715  18.152 -27.719  1.00  0.00     0.006 C 
BRANCH   7   8
ATOM      8  C   UNL     1     -36.449  17.861 -29.203  1.00  0.00     0.053 C 
BRANCH   8   9
ATOM      9  C   UNL     1     -37.354  16.790 -29.730  1.00  0.00     0.041 C 
ATOM     10  O   UNL     1     -37.248  15.607 -29.310  1.00  0.00    -0.550 OA
ATOM     11  O   UNL     1     -38.292  17.091 -30.709  1.00  0.00    -0.550 OA
ENDBRANCH   8   9
ENDBRANCH   7   8
ENDBRANCH   6   7
ENDBRANCH   5   6
ENDBRANCH   4   5
ENDBRANCH   3   4
ENDBRANCH   2   3
ENDBRANCH   1   2
BRANCH   1  12
ATOM     12  C   UNL     1     -35.363  22.573 -30.996  1.00  0.00     0.000 C 
BRANCH  12  13
ATOM     13  C   UNL     1     -35.951  21.158 -30.861  1.00  0.00    -0.000 C 
BRANCH  13  14
ATOM     14  C   UNL     1     -37.099  20.899 -31.848  1.00  0.00    -0.000 C 
BRANCH  14  15
ATOM     15  C   UNL     1     -38.424  20.567 -31.136  1.00  0.00    -0.000 C 
BRANCH  15  16
ATOM     16  C   UNL     1     -38.398  20.920 -29.641  1.00  0.00    -0.000 C 
BRANCH  16  17
ATOM     17  C   UNL     1     -39.799  21.217 -29.080  1.00  0.00    -0.000 C 
BRANCH  17  18
ATOM     18  C   UNL     1     -40.246  22.664 -29.342  1.00  0.00    -0.000 C 
BRANCH  18  19
ATOM     19  C   UNL     1     -41.521  22.746 -30.195  1.00  0.00    -0.003 C 
ATOM     20  C   UNL     1     -42.507  23.754 -29.613  1.00  0.00     0.004 C 
ENDBRANCH  18  19
ENDBRANCH  17  18
ENDBRANCH  16  17
ENDBRANCH  15  16
ENDBRANCH  14  15
ENDBRANCH  13  14
ENDBRANCH  12  13
ENDBRANCH   1  12
TORSDOF 16
ENDMDL
MODEL 5
REMARK VINA RESULT:    -4.380     14.789     16.787
REMARK INTER + INTRA:         -10.722
REMARK INTER:                  -7.928
REMARK INTRA:                  -2.794
REMARK UNBOUND:                -2.245
REMARK SMILES CCCCCCCCCCCCCCCCCC(=O)[O-]
REMARK SMILES IDX 10 1 11 2 12 3 13 4 14 5 15 6 16 7 17 8 18 9 19 10 20 11
REMARK SMILES IDX 9 12 8 13 7 14 6 15 5 16 4 17 3 18 2 19 1 20
REMARK H PARENT
REMARK Flexibility Score: inf
ROOT
ATOM      1  C   UNL     1     -49.547   9.194 -32.805  1.00  0.00     0.000 C 
ENDROOT
BRANCH   1   2
ATOM      2  C   UNL     1     -50.828   8.337 -32.828  1.00  0.00     0.000 C 
BRANCH   2   3
ATOM      3  C   UNL     1     -51.619   8.309 -31.507  1.00  0.00     0.000 C 
BRANCH   3   4
ATOM      4  C   UNL     1     -52.667   9.428 -31.349  1.00  0.00     0.000 C 
BRANCH   4   5
ATOM      5  C   UNL     1     -52.834   9.887 -29.890  1.00  0.00     0.000 C 
BRANCH   5   6
ATOM      6  C   UNL     1     -52.225  11.275 -29.637  1.00  0.00     0.000 C 
BRANCH   6   7
ATOM      7  C   UNL     1     -51.523  11.852 -30.879  1.00  0.00     0.006 C 
BRANCH   7   8
ATOM      8  C   UNL     1     -52.116  13.204 -31.303  1.00  0.00     0.053 C 
BRANCH   8   9
ATOM      9  C   UNL     1     -51.140  14.324 -31.105  1.00  0.00     0.041 C 
ATOM     10  O   UNL     1     -49.908  14.081 -31.010  1.00  0.00    -0.550 OA
ATOM     11  O   UNL     1     -51.595  15.631 -30.991  1.00  0.00    -0.550 OA
ENDBRANCH   8   9
ENDBRANCH   7   8
ENDBRANCH   6   7
ENDBRANCH   5   6
ENDBRANCH   4   5
ENDBRANCH   3   4
ENDBRANCH   2   3
ENDBRANCH   1   2
BRANCH   1  12
ATOM     12  C   UNL     1     -48.272   8.417 -33.200  1.00  0.00     0.000 C 
BRANCH  12  13
ATOM     13  C   UNL     1     -48.460   6.892 -33.109  1.00  0.00    -0.000 C 
BRANCH  13  14
ATOM     14  C   UNL     1     -47.769   6.285 -31.878  1.00  0.00    -0.000 C 
BRANCH  14  15
ATOM     15  C   UNL     1     -48.746   6.046 -30.712  1.00  0.00    -0.000 C 
BRANCH  15  16
ATOM     16  C   UNL     1     -48.639   7.122 -29.620  1.00  0.00    -0.000 C 
BRANCH  16  17
ATOM     17  C   UNL     1     -47.275   7.834 -29.624  1.00  0.00    -0.000 C 
BRANCH  17  18
ATOM     18  C   UNL     1     -47.408   9.364 -29.688  1.00  0.00    -0.000 C 
BRANCH  18  19
ATOM     19  C   UNL     1     -48.803   9.855 -29.274  1.00  0.00    -0.003 C 
ATOM     20  C   UNL     1     -48.724  11.212 -28.579  1.00  0.00     0.004 C 
ENDBRANCH  18  19
ENDBRANCH  17  18
ENDBRANCH  16  17
ENDBRANCH  15  16
ENDBRANCH  14  15
ENDBRANCH  13  14
ENDBRANCH  12  13
ENDBRANCH   1  12
TORSDOF 16
ENDMDL
MODEL 6
REMARK VINA RESULT:    -4.368     14.428     16.273
REMARK INTER + INTRA:         -10.699
REMARK INTER:                  -8.260
REMARK INTRA:                  -2.439
REMARK UNBOUND:                -2.245
REMARK SMILES CCCCCCCCCCCCCCCCCC(=O)[O-]
REMARK SMILES IDX 10 1 11 2 12 3 13 4 14 5 15 6 16 7 17 8 18 9 19 10 20 11
REMARK SMILES IDX 9 12 8 13 7 14 6 15 5 16 4 17 3 18 2 19 1 20
REMARK H PARENT
REMARK Flexibility Score: inf
ROOT
ATOM      1  C   UNL     1     -48.527   9.351 -29.259  1.00  0.00     0.000 C 
ENDROOT
BRANCH   1   2
ATOM      2  C   UNL     1     -48.473  10.886 -29.126  1.00  0.00     0.000 C 
BRANCH   2   3
ATOM      3  C   UNL     1     -49.844  11.584 -29.058  1.00  0.00     0.000 C 
BRANCH   3   4
ATOM      4  C   UNL     1     -49.930  12.930 -29.803  1.00  0.00     0.000 C 
BRANCH   4   5
ATOM      5  C   UNL     1     -51.134  13.008 -30.757  1.00  0.00     0.000 C 
BRANCH   5   6
ATOM      6  C   UNL     1     -52.393  13.562 -30.072  1.00  0.00     0.000 C 
BRANCH   6   7
ATOM      7  C   UNL     1     -52.194  14.986 -29.524  1.00  0.00     0.006 C 
BRANCH   7   8
ATOM      8  C   UNL     1     -52.570  16.061 -30.554  1.00  0.00     0.053 C 
BRANCH   8   9
ATOM      9  C   UNL     1     -51.357  16.700 -31.156  1.00  0.00     0.041 C 
ATOM     10  O   UNL     1     -50.952  17.816 -30.733  1.00  0.00    -0.550 OA
ATOM     11  O   UNL     1     -50.694  16.082 -32.209  1.00  0.00    -0.550 OA
ENDBRANCH   8   9
ENDBRANCH   7   8
ENDBRANCH   6   7
ENDBRANCH   5   6
ENDBRANCH   4   5
ENDBRANCH   3   4
ENDBRANCH   2   3
ENDBRANCH   1   2
BRANCH   1  12
ATOM     12  C   UNL     1     -47.278   8.741 -29.933  1.00  0.00     0.000 C 
BRANCH  12  13
ATOM     13  C   UNL     1     -47.311   8.876 -31.466  1.00  0.00    -0.000 C 
BRANCH  13  14
ATOM     14  C   UNL     1     -48.013   7.692 -32.148  1.00  0.00    -0.000 C 
BRANCH  14  15
ATOM     15  C   UNL     1     -49.167   8.140 -33.064  1.00  0.00    -0.000 C 
BRANCH  15  16
ATOM     16  C   UNL     1     -49.513   9.628 -32.897  1.00  0.00    -0.000 C 
BRANCH  16  17
ATOM     17  C   UNL     1     -50.938   9.846 -32.361  1.00  0.00    -0.000 C 
BRANCH  17  18
ATOM     18  C   UNL     1     -51.576   8.550 -31.835  1.00  0.00    -0.000 C 
BRANCH  18  19
ATOM     19  C   UNL     1     -51.942   8.631 -30.346  1.00  0.00    -0.003 C 
ATOM     20  C   UNL     1     -52.926   9.767 -30.082  1.00  0.00     0.004 C 
ENDBRANCH  18  19
ENDBRANCH  17  18
ENDBRANCH  16  17
ENDBRANCH  15  16
ENDBRANCH  14  15
ENDBRANCH  13  14
ENDBRANCH  12  13
ENDBRANCH   1  12
TORSDOF 16
ENDMDL
MODEL 7
REMARK VINA RESULT:    -4.330      1.713      3.708
REMARK INTER + INTRA:         -10.625
REMARK INTER:                  -8.098
REMARK INTRA:                  -2.527
REMARK UNBOUND:                -2.245
REMARK SMILES CCCCCCCCCCCCCCCCCC(=O)[O-]
REMARK SMILES IDX 10 1 11 2 12 3 13 4 14 5 15 6 16 7 17 8 18 9 19 10 20 11
REMARK SMILES IDX 9 12 8 13 7 14 6 15 5 16 4 17 3 18 2 19 1 20
REMARK H PARENT
REMARK Flexibility Score: inf
ROOT
ATOM      1  C   UNL     1     -35.332  19.730 -27.625  1.00  0.00     0.000 C 
ENDROOT
BRANCH   1   2
ATOM      2  C   UNL     1     -35.489  18.248 -28.021  1.00  0.00     0.000 C 
BRANCH   2   3
ATOM      3  C   UNL     1     -34.930  17.880 -29.408  1.00  0.00     0.000 C 
BRANCH   3   4
ATOM      4  C   UNL     1     -35.804  16.915 -30.230  1.00  0.00     0.000 C 
BRANCH   4   5
ATOM      5  C   UNL     1     -37.206  16.717 -29.627  1.00  0.00     0.000 C 
BRANCH   5   6
ATOM      6  C   UNL     1     -38.325  17.176 -30.575  1.00  0.00     0.000 C 
BRANCH   6   7
ATOM      7  C   UNL     1     -38.720  18.648 -30.358  1.00  0.00     0.006 C 
BRANCH   7   8
ATOM      8  C   UNL     1     -38.802  19.011 -28.869  1.00  0.00     0.053 C 
BRANCH   8   9
ATOM      9  C   UNL     1     -39.940  19.944 -28.586  1.00  0.00     0.041 C 
ATOM     10  O   UNL     1     -41.019  19.501 -28.111  1.00  0.00    -0.550 OA
ATOM     11  O   UNL     1     -39.822  21.296 -28.881  1.00  0.00    -0.550 OA
ENDBRANCH   8   9
ENDBRANCH   7   8
ENDBRANCH   6   7
ENDBRANCH   5   6
ENDBRANCH   4   5
ENDBRANCH   3   4
ENDBRANCH   2   3
ENDBRANCH   1   2
BRANCH   1  12
ATOM     12  C   UNL     1     -33.950  20.072 -27.028  1.00  0.00     0.000 C 
BRANCH  12  13
ATOM     13  C   UNL     1     -33.879  21.513 -26.494  1.00  0.00    -0.000 C 
BRANCH  13  14
ATOM     14  C   UNL     1     -34.049  22.563 -27.603  1.00  0.00    -0.000 C 
BRANCH  14  15
ATOM     15  C   UNL     1     -35.238  23.506 -27.343  1.00  0.00    -0.000 C 
BRANCH  15  16
ATOM     16  C   UNL     1     -36.503  23.089 -28.109  1.00  0.00    -0.000 C 
BRANCH  16  17
ATOM     17  C   UNL     1     -36.271  22.997 -29.628  1.00  0.00    -0.000 C 
BRANCH  17  18
ATOM     18  C   UNL     1     -36.558  21.594 -30.185  1.00  0.00    -0.000 C 
BRANCH  18  19
ATOM     19  C   UNL     1     -35.759  21.287 -31.460  1.00  0.00    -0.003 C 
ATOM     20  C   UNL     1     -34.306  20.957 -31.131  1.00  0.00     0.004 C 
ENDBRANCH  18  19
ENDBRANCH  17  18
ENDBRANCH  16  17
ENDBRANCH  15  16
ENDBRANCH  14  15
ENDBRANCH  13  14
ENDBRANCH  12  13
ENDBRANCH   1  12
TORSDOF 16
ENDMDL
MODEL 8
REMARK VINA RESULT:    -4.320     14.919     16.832
REMARK INTER + INTRA:         -10.606
REMARK INTER:                  -8.051
REMARK INTRA:                  -2.555
REMARK UNBOUND:                -2.245
REMARK SMILES CCCCCCCCCCCCCCCCCC(=O)[O-]
REMARK SMILES IDX 10 1 11 2 12 3 13 4 14 5 15 6 16 7 17 8 18 9 19 10 20 11
REMARK SMILES IDX 9 12 8 13 7 14 6 15 5 16 4 17 3 18 2 19 1 20
REMARK H PARENT
REMARK Flexibility Score: inf
ROOT
ATOM      1  C   UNL     1     -47.482   9.770 -29.651  1.00  0.00     0.000 C 
ENDROOT
BRANCH   1   2
ATOM      2  C   UNL     1     -47.385   8.232 -29.706  1.00  0.00     0.000 C 
BRANCH   2   3
ATOM      3  C   UNL     1     -47.704   7.606 -31.077  1.00  0.00     0.000 C 
BRANCH   3   4
ATOM      4  C   UNL     1     -47.612   8.572 -32.274  1.00  0.00     0.000 C 
BRANCH   4   5
ATOM      5  C   UNL     1     -48.928   8.671 -33.064  1.00  0.00     0.000 C 
BRANCH   5   6
ATOM      6  C   UNL     1     -49.763   9.899 -32.667  1.00  0.00     0.000 C 
BRANCH   6   7
ATOM      7  C   UNL     1     -51.187   9.530 -32.216  1.00  0.00     0.006 C 
BRANCH   7   8
ATOM      8  C   UNL     1     -51.292   8.062 -31.777  1.00  0.00     0.053 C 
BRANCH   8   9
ATOM      9  C   UNL     1     -51.606   7.941 -30.317  1.00  0.00     0.041 C 
ATOM     10  O   UNL     1     -52.515   8.645 -29.804  1.00  0.00    -0.550 OA
ATOM     11  O   UNL     1     -50.870   7.077 -29.517  1.00  0.00    -0.550 OA
ENDBRANCH   8   9
ENDBRANCH   7   8
ENDBRANCH   6   7
ENDBRANCH   5   6
ENDBRANCH   4   5
ENDBRANCH   3   4
ENDBRANCH   2   3
ENDBRANCH   1   2
BRANCH   1  12
ATOM     12  C   UNL     1     -48.802  10.289 -29.043  1.00  0.00     0.000 C 
BRANCH  12  13
ATOM     13  C   UNL     1     -48.837  11.824 -28.934  1.00  0.00    -0.000 C 
BRANCH  13  14
ATOM     14  C   UNL     1     -49.978  12.447 -29.754  1.00  0.00    -0.000 C 
BRANCH  14  15
ATOM     15  C   UNL     1     -51.367  11.981 -29.280  1.00  0.00    -0.000 C 
BRANCH  15  16
ATOM     16  C   UNL     1     -52.491  12.395 -30.242  1.00  0.00    -0.000 C 
BRANCH  16  17
ATOM     17  C   UNL     1     -52.054  13.500 -31.219  1.00  0.00    -0.000 C 
BRANCH  17  18
ATOM     18  C   UNL     1     -52.649  14.872 -30.863  1.00  0.00    -0.000 C 
BRANCH  18  19
ATOM     19  C   UNL     1     -51.609  16.001 -30.918  1.00  0.00    -0.003 C 
ATOM     20  C   UNL     1     -50.420  15.611 -31.791  1.00  0.00     0.004 C 
ENDBRANCH  18  19
ENDBRANCH  17  18
ENDBRANCH  16  17
ENDBRANCH  15  16
ENDBRANCH  14  15
ENDBRANCH  13  14
ENDBRANCH  12  13
ENDBRANCH   1  12
TORSDOF 16
ENDMDL
MODEL 9
REMARK VINA RESULT:    -4.252     15.907     19.147
REMARK INTER + INTRA:         -10.474
REMARK INTER:                  -7.683
REMARK INTRA:                  -2.791
REMARK UNBOUND:                -2.245
REMARK SMILES CCCCCCCCCCCCCCCCCC(=O)[O-]
REMARK SMILES IDX 10 1 11 2 12 3 13 4 14 5 15 6 16 7 17 8 18 9 19 10 20 11
REMARK SMILES IDX 9 12 8 13 7 14 6 15 5 16 4 17 3 18 2 19 1 20
REMARK H PARENT
REMARK Flexibility Score: inf
ROOT
ATOM      1  C   UNL     1     -50.234   9.988 -32.590  1.00  0.00     0.000 C 
ENDROOT
BRANCH   1   2
ATOM      2  C   UNL     1     -50.103   8.507 -32.998  1.00  0.00     0.000 C 
BRANCH   2   3
ATOM      3  C   UNL     1     -48.667   8.032 -33.285  1.00  0.00     0.000 C 
BRANCH   3   4
ATOM      4  C   UNL     1     -48.448   6.511 -33.184  1.00  0.00     0.000 C 
BRANCH   4   5
ATOM      5  C   UNL     1     -47.730   6.095 -31.888  1.00  0.00     0.000 C 
BRANCH   5   6
ATOM      6  C   UNL     1     -48.704   5.875 -30.720  1.00  0.00     0.000 C 
BRANCH   6   7
ATOM      7  C   UNL     1     -48.371   6.746 -29.496  1.00  0.00     0.006 C 
BRANCH   7   8
ATOM      8  C   UNL     1     -49.103   8.095 -29.530  1.00  0.00     0.053 C 
BRANCH   8   9
ATOM      9  C   UNL     1     -48.144   9.246 -29.560  1.00  0.00     0.041 C 
ATOM     10  O   UNL     1     -48.365  10.273 -28.865  1.00  0.00    -0.550 OA
ATOM     11  O   UNL     1     -47.026   9.200 -30.383  1.00  0.00    -0.550 OA
ENDBRANCH   8   9
ENDBRANCH   7   8
ENDBRANCH   6   7
ENDBRANCH   5   6
ENDBRANCH   4   5
ENDBRANCH   3   4
ENDBRANCH   2   3
ENDBRANCH   1   2
BRANCH   1  12
ATOM     12  C   UNL     1     -51.645  10.375 -32.099  1.00  0.00     0.000 C 
BRANCH  12  13
ATOM     13  C   UNL     1     -51.761  10.355 -30.565  1.00  0.00    -0.000 C 
BRANCH  13  14
ATOM     14  C   UNL     1     -53.086   9.745 -30.081  1.00  0.00    -0.000 C 
BRANCH  14  15
ATOM     15  C   UNL     1     -53.419   8.420 -30.792  1.00  0.00    -0.000 C 
BRANCH  15  16
ATOM     16  C   UNL     1     -52.466   7.281 -30.398  1.00  0.00    -0.000 C 
BRANCH  16  17
ATOM     17  C   UNL     1     -52.787   5.964 -31.128  1.00  0.00    -0.000 C 
BRANCH  17  18
ATOM     18  C   UNL     1     -52.382   5.997 -32.610  1.00  0.00    -0.000 C 
BRANCH  18  19
ATOM     19  C   UNL     1     -53.578   6.226 -33.546  1.00  0.00    -0.003 C 
ATOM     20  C   UNL     1     -53.309   7.378 -34.510  1.00  0.00     0.004 C 
ENDBRANCH  18  19
ENDBRANCH  17  18
ENDBRANCH  16  17
ENDBRANCH  15  16
ENDBRANCH  14  15
ENDBRANCH  13  14
ENDBRANCH  12  13
ENDBRANCH   1  12
TORSDOF 16
ENDMDL
