MODEL 1
REMARK VINA RESULT:    -7.123      0.000      0.000
REMARK INTER + INTRA:         -12.433
REMARK INTER:                  -9.830
REMARK INTRA:                  -2.603
REMARK UNBOUND:                -2.603
REMARK SMILES CC[C@@H](CC[C@H](C)[C@@H]1CC[C@H]2[C@@H]3CC=C4C[C@@H](O)CC[C@@]4(C)[C@@H]3CC[C@@]21C)C(C)C
REMARK SMILES IDX 5 1 4 2 3 3 2 4 1 5 28 6 29 7 30 8 6 9 7 10 8 11 9 12 26 13
REMARK SMILES IDX 10 14 11 15 25 16 27 17 12 18 24 19 23 20 13 21 21 22 14 23
REMARK SMILES IDX 15 24 20 25 22 26 16 27 19 28 17 29 18 30
REMARK H PARENT 18 31
REMARK Flexibility Score: inf
ROOT
ATOM      1  C   UNL     1      26.357 -27.046  36.030  1.00  0.00     0.004 C 
ENDROOT
BRANCH   1   2
ATOM      2  C   UNL     1      25.921 -28.453  36.502  1.00  0.00     0.004 C 
BRANCH   2   3
ATOM      3  C   UNL     1      24.704 -28.446  37.472  1.00  0.00    -0.009 C 
BRANCH   3   4
ATOM      4  C   UNL     1      24.158 -26.996  37.604  1.00  0.00     0.000 C 
ATOM      5  C   UNL     1      22.719 -26.859  37.098  1.00  0.00     0.004 C 
ENDBRANCH   3   4
BRANCH   3   6
ATOM      6  C   UNL     1      24.972 -29.071  38.891  1.00  0.00    -0.014 C 
ATOM      7  C   UNL     1      24.834 -28.052  40.033  1.00  0.00     0.007 C 
ATOM      8  C   UNL     1      24.141 -30.332  39.188  1.00  0.00     0.007 C 
ENDBRANCH   3   6
ENDBRANCH   2   3
ENDBRANCH   1   2
BRANCH   1   9
ATOM      9  C   UNL     1      26.994 -26.996  34.599  1.00  0.00    -0.011 C 
ATOM     10  C   UNL     1      28.355 -26.261  34.697  1.00  0.00     0.008 C 
BRANCH   9  11
ATOM     11  C   UNL     1      26.039 -26.379  33.504  1.00  0.00    -0.002 C 
ATOM     12  C   UNL     1      25.160 -25.221  34.073  1.00  0.00     0.005 C 
ATOM     13  C   UNL     1      24.995 -27.327  32.788  1.00  0.00    -0.026 C 
ATOM     14  C   UNL     1      23.711 -25.500  33.683  1.00  0.00     0.005 C 
ATOM     15  C   UNL     1      23.689 -27.006  33.520  1.00  0.00    -0.001 C 
ATOM     16  C   UNL     1      25.191 -28.852  32.902  1.00  0.00     0.007 C 
ATOM     17  C   UNL     1      24.967 -26.928  31.276  1.00  0.00     0.012 C 
ATOM     18  C   UNL     1      22.422 -27.628  32.880  1.00  0.00     0.000 C 
ATOM     19  C   UNL     1      24.023 -29.644  32.277  1.00  0.00     0.005 C 
ATOM     20  C   UNL     1      22.572 -29.182  32.669  1.00  0.00     0.003 C 
ATOM     21  C   UNL     1      21.166 -27.229  33.701  1.00  0.00     0.031 C 
ATOM     22  C   UNL     1      21.842 -30.078  33.752  1.00  0.00    -0.008 C 
ATOM     23  C   UNL     1      20.099 -28.279  33.760  1.00  0.00    -0.027 C 
ATOM     24  C   UNL     1      20.391 -29.587  33.876  1.00  0.00    -0.065 C 
ATOM     25  C   UNL     1      21.859 -31.577  33.283  1.00  0.00     0.014 C 
ATOM     26  C   UNL     1      22.522 -29.980  35.135  1.00  0.00     0.016 C 
ATOM     27  C   UNL     1      19.288 -30.518  34.345  1.00  0.00     0.063 C 
ATOM     28  C   UNL     1      20.797 -32.468  33.936  1.00  0.00     0.033 C 
ATOM     29  C   UNL     1      19.393 -31.904  33.715  1.00  0.00     0.118 C 
BRANCH  29  30
ATOM     30  O   UNL     1      19.094 -31.825  32.344  1.00  0.00    -0.393 OA
ATOM     31  H   UNL     1      19.959 -31.727  31.867  1.00  0.00     0.210 HD
ENDBRANCH  29  30
ENDBRANCH   9  11
ENDBRANCH   1   9
TORSDOF 7
ENDMDL
MODEL 2
REMARK VINA RESULT:    -7.052      5.434      8.151
REMARK INTER + INTRA:         -12.335
REMARK INTER:                 -10.755
REMARK INTRA:                  -1.580
REMARK UNBOUND:                -2.603
REMARK SMILES CC[C@@H](CC[C@H](C)[C@@H]1CC[C@H]2[C@@H]3CC=C4C[C@@H](O)CC[C@@]4(C)[C@@H]3CC[C@@]21C)C(C)C
REMARK SMILES IDX 5 1 4 2 3 3 2 4 1 5 28 6 29 7 30 8 6 9 7 10 8 11 9 12 26 13
REMARK SMILES IDX 10 14 11 15 25 16 27 17 12 18 24 19 23 20 13 21 21 22 14 23
REMARK SMILES IDX 15 24 20 25 22 26 16 27 19 28 17 29 18 30
REMARK H PARENT 18 31
REMARK Flexibility Score: inf
ROOT
ATOM      1  C   UNL     1      23.961 -26.441  31.524  1.00  0.00     0.004 C 
ENDROOT
BRANCH   1   2
ATOM      2  C   UNL     1      25.357 -27.105  31.556  1.00  0.00     0.004 C 
BRANCH   2   3
ATOM      3  C   UNL     1      25.481 -28.272  32.577  1.00  0.00    -0.009 C 
BRANCH   3   4
ATOM      4  C   UNL     1      24.060 -28.696  33.050  1.00  0.00     0.000 C 
ATOM      5  C   UNL     1      23.694 -30.118  32.615  1.00  0.00     0.004 C 
ENDBRANCH   3   4
BRANCH   3   6
ATOM      6  C   UNL     1      26.416 -27.991  33.810  1.00  0.00    -0.014 C 
ATOM      7  C   UNL     1      27.181 -26.664  33.696  1.00  0.00     0.007 C 
ATOM      8  C   UNL     1      25.705 -28.091  35.172  1.00  0.00     0.007 C 
ENDBRANCH   3   6
ENDBRANCH   2   3
ENDBRANCH   1   2
BRANCH   1   9
ATOM      9  C   UNL     1      23.949 -24.908  31.848  1.00  0.00    -0.011 C 
ATOM     10  C   UNL     1      24.067 -24.733  33.384  1.00  0.00     0.008 C 
BRANCH   9  11
ATOM     11  C   UNL     1      22.712 -24.142  31.235  1.00  0.00    -0.002 C 
ATOM     12  C   UNL     1      21.464 -25.066  31.079  1.00  0.00     0.005 C 
ATOM     13  C   UNL     1      22.866 -23.474  29.810  1.00  0.00    -0.026 C 
ATOM     14  C   UNL     1      20.943 -24.911  29.654  1.00  0.00     0.005 C 
ATOM     15  C   UNL     1      22.178 -24.483  28.887  1.00  0.00    -0.001 C 
ATOM     16  C   UNL     1      24.285 -23.269  29.245  1.00  0.00     0.007 C 
ATOM     17  C   UNL     1      22.134 -22.092  29.864  1.00  0.00     0.012 C 
ATOM     18  C   UNL     1      21.969 -23.990  27.433  1.00  0.00     0.000 C 
ATOM     19  C   UNL     1      24.272 -22.740  27.795  1.00  0.00     0.005 C 
ATOM     20  C   UNL     1      23.312 -23.474  26.788  1.00  0.00     0.003 C 
ATOM     21  C   UNL     1      21.260 -25.089  26.598  1.00  0.00     0.031 C 
ATOM     22  C   UNL     1      24.014 -24.493  25.800  1.00  0.00    -0.008 C 
ATOM     23  C   UNL     1      21.683 -25.155  25.163  1.00  0.00    -0.027 C 
ATOM     24  C   UNL     1      22.962 -24.974  24.787  1.00  0.00    -0.065 C 
ATOM     25  C   UNL     1      25.184 -23.765  25.047  1.00  0.00     0.014 C 
ATOM     26  C   UNL     1      24.586 -25.719  26.545  1.00  0.00     0.016 C 
ATOM     27  C   UNL     1      23.370 -25.464  23.410  1.00  0.00     0.063 C 
ATOM     28  C   UNL     1      25.622 -24.431  23.739  1.00  0.00     0.033 C 
ATOM     29  C   UNL     1      24.443 -24.584  22.777  1.00  0.00     0.118 C 
BRANCH  29  30
ATOM     30  O   UNL     1      23.897 -23.331  22.450  1.00  0.00    -0.393 OA
ATOM     31  H   UNL     1      23.665 -23.362  21.486  1.00  0.00     0.210 HD
ENDBRANCH  29  30
ENDBRANCH   9  11
ENDBRANCH   1   9
TORSDOF 7
ENDMDL
MODEL 3
REMARK VINA RESULT:    -6.946      2.259      5.293
REMARK INTER + INTRA:         -12.189
REMARK INTER:                  -9.259
REMARK INTRA:                  -2.930
REMARK UNBOUND:                -2.603
REMARK SMILES CC[C@@H](CC[C@H](C)[C@@H]1CC[C@H]2[C@@H]3CC=C4C[C@@H](O)CC[C@@]4(C)[C@@H]3CC[C@@]21C)C(C)C
REMARK SMILES IDX 5 1 4 2 3 3 2 4 1 5 28 6 29 7 30 8 6 9 7 10 8 11 9 12 26 13
REMARK SMILES IDX 10 14 11 15 25 16 27 17 12 18 24 19 23 20 13 21 21 22 14 23
REMARK SMILES IDX 15 24 20 25 22 26 16 27 19 28 17 29 18 30
REMARK H PARENT 18 31
REMARK Flexibility Score: inf
ROOT
ATOM      1  C   UNL     1      23.014 -29.007  37.204  1.00  0.00     0.004 C 
ENDROOT
BRANCH   1   2
ATOM      2  C   UNL     1      22.659 -29.360  35.740  1.00  0.00     0.004 C 
BRANCH   2   3
ATOM      3  C   UNL     1      21.295 -28.782  35.262  1.00  0.00    -0.009 C 
BRANCH   3   4
ATOM      4  C   UNL     1      20.712 -29.694  34.146  1.00  0.00     0.000 C 
ATOM      5  C   UNL     1      21.575 -30.932  33.885  1.00  0.00     0.004 C 
ENDBRANCH   3   4
BRANCH   3   6
ATOM      6  C   UNL     1      21.329 -27.281  34.792  1.00  0.00    -0.014 C 
ATOM      7  C   UNL     1      20.650 -27.060  33.432  1.00  0.00     0.007 C 
ATOM      8  C   UNL     1      20.788 -26.285  35.835  1.00  0.00     0.007 C 
ENDBRANCH   3   6
ENDBRANCH   2   3
ENDBRANCH   1   2
BRANCH   1   9
ATOM      9  C   UNL     1      24.546 -28.996  37.529  1.00  0.00    -0.011 C 
ATOM     10  C   UNL     1      24.737 -29.453  38.998  1.00  0.00     0.008 C 
BRANCH   9  11
ATOM     11  C   UNL     1      25.249 -27.616  37.217  1.00  0.00    -0.002 C 
ATOM     12  C   UNL     1      24.265 -26.411  37.353  1.00  0.00     0.005 C 
ATOM     13  C   UNL     1      25.909 -27.406  35.797  1.00  0.00    -0.026 C 
ATOM     14  C   UNL     1      24.382 -25.569  36.085  1.00  0.00     0.005 C 
ATOM     15  C   UNL     1      24.859 -26.572  35.055  1.00  0.00    -0.001 C 
ATOM     16  C   UNL     1      26.173 -28.645  34.920  1.00  0.00     0.007 C 
ATOM     17  C   UNL     1      27.255 -26.642  36.019  1.00  0.00     0.012 C 
ATOM     18  C   UNL     1      25.328 -26.012  33.689  1.00  0.00     0.000 C 
ATOM     19  C   UNL     1      26.687 -28.274  33.513  1.00  0.00     0.005 C 
ATOM     20  C   UNL     1      25.899 -27.144  32.753  1.00  0.00     0.003 C 
ATOM     21  C   UNL     1      24.188 -25.183  33.039  1.00  0.00     0.031 C 
ATOM     22  C   UNL     1      24.904 -27.647  31.629  1.00  0.00    -0.008 C 
ATOM     23  C   UNL     1      24.128 -25.267  31.545  1.00  0.00    -0.027 C 
ATOM     24  C   UNL     1      24.365 -26.415  30.884  1.00  0.00    -0.065 C 
ATOM     25  C   UNL     1      25.678 -28.577  30.627  1.00  0.00     0.014 C 
ATOM     26  C   UNL     1      23.713 -28.433  32.220  1.00  0.00     0.016 C 
ATOM     27  C   UNL     1      23.881 -26.518  29.450  1.00  0.00     0.063 C 
ATOM     28  C   UNL     1      25.020 -28.733  29.253  1.00  0.00     0.033 C 
ATOM     29  C   UNL     1      24.803 -27.373  28.588  1.00  0.00     0.118 C 
BRANCH  29  30
ATOM     30  O   UNL     1      26.027 -26.708  28.397  1.00  0.00    -0.393 OA
ATOM     31  H   UNL     1      26.724 -27.257  28.843  1.00  0.00     0.210 HD
ENDBRANCH  29  30
ENDBRANCH   9  11
ENDBRANCH   1   9
TORSDOF 7
ENDMDL
MODEL 4
REMARK VINA RESULT:    -6.860      2.705      5.573
REMARK INTER + INTRA:         -12.070
REMARK INTER:                  -9.063
REMARK INTRA:                  -3.007
REMARK UNBOUND:                -2.603
REMARK SMILES CC[C@@H](CC[C@H](C)[C@@H]1CC[C@H]2[C@@H]3CC=C4C[C@@H](O)CC[C@@]4(C)[C@@H]3CC[C@@]21C)C(C)C
REMARK SMILES IDX 5 1 4 2 3 3 2 4 1 5 28 6 29 7 30 8 6 9 7 10 8 11 9 12 26 13
REMARK SMILES IDX 10 14 11 15 25 16 27 17 12 18 24 19 23 20 13 21 21 22 14 23
REMARK SMILES IDX 15 24 20 25 22 26 16 27 19 28 17 29 18 30
REMARK H PARENT 18 31
REMARK Flexibility Score: inf
ROOT
ATOM      1  C   UNL     1      25.879 -27.449  37.173  1.00  0.00     0.004 C 
ENDROOT
BRANCH   1   2
ATOM      2  C   UNL     1      26.273 -25.963  37.005  1.00  0.00     0.004 C 
BRANCH   2   3
ATOM      3  C   UNL     1      25.493 -25.224  35.880  1.00  0.00    -0.009 C 
BRANCH   3   4
ATOM      4  C   UNL     1      26.501 -24.668  34.833  1.00  0.00     0.000 C 
ATOM      5  C   UNL     1      27.612 -25.668  34.497  1.00  0.00     0.004 C 
ENDBRANCH   3   4
BRANCH   3   6
ATOM      6  C   UNL     1      24.519 -24.089  36.369  1.00  0.00    -0.014 C 
ATOM      7  C   UNL     1      24.766 -22.742  35.673  1.00  0.00     0.007 C 
ATOM      8  C   UNL     1      23.029 -24.469  36.301  1.00  0.00     0.007 C 
ENDBRANCH   3   6
ENDBRANCH   2   3
ENDBRANCH   1   2
BRANCH   1   9
ATOM      9  C   UNL     1      24.460 -27.823  36.623  1.00  0.00    -0.011 C 
ATOM     10  C   UNL     1      23.605 -28.357  37.800  1.00  0.00     0.008 C 
BRANCH   9  11
ATOM     11  C   UNL     1      24.500 -28.812  35.393  1.00  0.00    -0.002 C 
ATOM     12  C   UNL     1      25.938 -28.961  34.803  1.00  0.00     0.005 C 
ATOM     13  C   UNL     1      23.606 -28.488  34.130  1.00  0.00    -0.026 C 
ATOM     14  C   UNL     1      25.848 -28.746  33.295  1.00  0.00     0.005 C 
ATOM     15  C   UNL     1      24.613 -27.879  33.150  1.00  0.00    -0.001 C 
ATOM     16  C   UNL     1      22.471 -27.456  34.280  1.00  0.00     0.007 C 
ATOM     17  C   UNL     1      23.002 -29.841  33.630  1.00  0.00     0.012 C 
ATOM     18  C   UNL     1      24.067 -27.663  31.716  1.00  0.00     0.000 C 
ATOM     19  C   UNL     1      21.780 -27.140  32.937  1.00  0.00     0.005 C 
ATOM     20  C   UNL     1      22.724 -26.838  31.715  1.00  0.00     0.003 C 
ATOM     21  C   UNL     1      25.174 -27.052  30.816  1.00  0.00     0.031 C 
ATOM     22  C   UNL     1      22.880 -25.308  31.337  1.00  0.00    -0.008 C 
ATOM     23  C   UNL     1      24.677 -26.093  29.778  1.00  0.00    -0.027 C 
ATOM     24  C   UNL     1      23.684 -25.221  30.030  1.00  0.00    -0.065 C 
ATOM     25  C   UNL     1      21.457 -24.677  31.130  1.00  0.00     0.014 C 
ATOM     26  C   UNL     1      23.623 -24.515  32.434  1.00  0.00     0.016 C 
ATOM     27  C   UNL     1      23.533 -24.033  29.098  1.00  0.00     0.063 C 
ATOM     28  C   UNL     1      21.438 -23.391  30.297  1.00  0.00     0.033 C 
ATOM     29  C   UNL     1      22.077 -23.612  28.926  1.00  0.00     0.118 C 
BRANCH  29  30
ATOM     30  O   UNL     1      21.381 -24.595  28.202  1.00  0.00    -0.393 OA
ATOM     31  H   UNL     1      21.899 -24.759  27.371  1.00  0.00     0.210 HD
ENDBRANCH  29  30
ENDBRANCH   9  11
ENDBRANCH   1   9
TORSDOF 7
ENDMDL
MODEL 5
REMARK VINA RESULT:    -6.833      2.353      5.169
REMARK INTER + INTRA:         -12.033
REMARK INTER:                 -10.053
REMARK INTRA:                  -1.980
REMARK UNBOUND:                -2.603
REMARK SMILES CC[C@@H](CC[C@H](C)[C@@H]1CC[C@H]2[C@@H]3CC=C4C[C@@H](O)CC[C@@]4(C)[C@@H]3CC[C@@]21C)C(C)C
REMARK SMILES IDX 5 1 4 2 3 3 2 4 1 5 28 6 29 7 30 8 6 9 7 10 8 11 9 12 26 13
REMARK SMILES IDX 10 14 11 15 25 16 27 17 12 18 24 19 23 20 13 21 21 22 14 23
REMARK SMILES IDX 15 24 20 25 22 26 16 27 19 28 17 29 18 30
REMARK H PARENT 18 31
REMARK Flexibility Score: inf
ROOT
ATOM      1  C   UNL     1      23.003 -28.754  37.387  1.00  0.00     0.004 C 
ENDROOT
BRANCH   1   2
ATOM      2  C   UNL     1      22.574 -29.031  35.926  1.00  0.00     0.004 C 
BRANCH   2   3
ATOM      3  C   UNL     1      22.076 -30.484  35.677  1.00  0.00    -0.009 C 
BRANCH   3   4
ATOM      4  C   UNL     1      21.124 -30.498  34.447  1.00  0.00     0.000 C 
ATOM      5  C   UNL     1      21.690 -31.302  33.272  1.00  0.00     0.004 C 
ENDBRANCH   3   4
BRANCH   3   6
ATOM      6  C   UNL     1      21.397 -31.183  36.912  1.00  0.00    -0.014 C 
ATOM      7  C   UNL     1      19.897 -30.872  37.032  1.00  0.00     0.007 C 
ATOM      8  C   UNL     1      21.642 -32.701  36.986  1.00  0.00     0.007 C 
ENDBRANCH   3   6
ENDBRANCH   2   3
ENDBRANCH   1   2
BRANCH   1   9
ATOM      9  C   UNL     1      24.540 -28.882  37.661  1.00  0.00    -0.011 C 
ATOM     10  C   UNL     1      24.736 -29.380  39.116  1.00  0.00     0.008 C 
BRANCH   9  11
ATOM     11  C   UNL     1      25.350 -27.563  37.348  1.00  0.00    -0.002 C 
ATOM     12  C   UNL     1      24.476 -26.281  37.519  1.00  0.00     0.005 C 
ATOM     13  C   UNL     1      25.993 -27.392  35.914  1.00  0.00    -0.026 C 
ATOM     14  C   UNL     1      24.636 -25.435  36.259  1.00  0.00     0.005 C 
ATOM     15  C   UNL     1      25.002 -26.463  35.207  1.00  0.00    -0.001 C 
ATOM     16  C   UNL     1      26.131 -28.638  35.018  1.00  0.00     0.007 C 
ATOM     17  C   UNL     1      27.405 -26.748  36.113  1.00  0.00     0.012 C 
ATOM     18  C   UNL     1      25.486 -25.927  33.836  1.00  0.00     0.000 C 
ATOM     19  C   UNL     1      26.642 -28.294  33.603  1.00  0.00     0.005 C 
ATOM     20  C   UNL     1      25.936 -27.091  32.874  1.00  0.00     0.003 C 
ATOM     21  C   UNL     1      24.406 -24.996  33.222  1.00  0.00     0.031 C 
ATOM     22  C   UNL     1      24.877 -27.494  31.769  1.00  0.00    -0.008 C 
ATOM     23  C   UNL     1      24.305 -25.055  31.729  1.00  0.00    -0.027 C 
ATOM     24  C   UNL     1      24.428 -26.211  31.051  1.00  0.00    -0.065 C 
ATOM     25  C   UNL     1      25.546 -28.473  30.740  1.00  0.00     0.014 C 
ATOM     26  C   UNL     1      23.637 -28.183  32.380  1.00  0.00     0.016 C 
ATOM     27  C   UNL     1      23.904 -26.254  29.627  1.00  0.00     0.063 C 
ATOM     28  C   UNL     1      24.846 -28.555  29.379  1.00  0.00     0.033 C 
ATOM     29  C   UNL     1      24.730 -27.174  28.734  1.00  0.00     0.118 C 
BRANCH  29  30
ATOM     30  O   UNL     1      26.002 -26.613  28.522  1.00  0.00    -0.393 OA
ATOM     31  H   UNL     1      26.658 -27.216  28.958  1.00  0.00     0.210 HD
ENDBRANCH  29  30
ENDBRANCH   9  11
ENDBRANCH   1   9
TORSDOF 7
ENDMDL
MODEL 6
REMARK VINA RESULT:    -6.780      2.422      5.313
REMARK INTER + INTRA:         -11.960
REMARK INTER:                  -8.952
REMARK INTRA:                  -3.008
REMARK UNBOUND:                -2.603
REMARK SMILES CC[C@@H](CC[C@H](C)[C@@H]1CC[C@H]2[C@@H]3CC=C4C[C@@H](O)CC[C@@]4(C)[C@@H]3CC[C@@]21C)C(C)C
REMARK SMILES IDX 5 1 4 2 3 3 2 4 1 5 28 6 29 7 30 8 6 9 7 10 8 11 9 12 26 13
REMARK SMILES IDX 10 14 11 15 25 16 27 17 12 18 24 19 23 20 13 21 21 22 14 23
REMARK SMILES IDX 15 24 20 25 22 26 16 27 19 28 17 29 18 30
REMARK H PARENT 18 31
REMARK Flexibility Score: inf
ROOT
ATOM      1  C   UNL     1      24.482 -26.732  38.244  1.00  0.00     0.004 C 
ENDROOT
BRANCH   1   2
ATOM      2  C   UNL     1      25.896 -26.872  37.633  1.00  0.00     0.004 C 
BRANCH   2   3
ATOM      3  C   UNL     1      25.946 -26.643  36.095  1.00  0.00    -0.009 C 
BRANCH   3   4
ATOM      4  C   UNL     1      26.529 -27.910  35.404  1.00  0.00     0.000 C 
ATOM      5  C   UNL     1      26.795 -29.050  36.392  1.00  0.00     0.004 C 
ENDBRANCH   3   4
BRANCH   3   6
ATOM      6  C   UNL     1      26.718 -25.353  35.631  1.00  0.00    -0.014 C 
ATOM      7  C   UNL     1      27.860 -25.655  34.649  1.00  0.00     0.007 C 
ATOM      8  C   UNL     1      25.807 -24.242  35.077  1.00  0.00     0.007 C 
ENDBRANCH   3   6
ENDBRANCH   2   3
ENDBRANCH   1   2
BRANCH   1   9
ATOM      9  C   UNL     1      23.413 -26.087  37.298  1.00  0.00    -0.011 C 
ATOM     10  C   UNL     1      22.705 -24.943  38.069  1.00  0.00     0.008 C 
BRANCH   9  11
ATOM     11  C   UNL     1      22.401 -27.132  36.682  1.00  0.00    -0.002 C 
ATOM     12  C   UNL     1      22.855 -28.605  36.928  1.00  0.00     0.005 C 
ATOM     13  C   UNL     1      22.111 -27.081  35.129  1.00  0.00    -0.026 C 
ATOM     14  C   UNL     1      22.805 -29.338  35.590  1.00  0.00     0.005 C 
ATOM     15  C   UNL     1      22.981 -28.218  34.585  1.00  0.00    -0.001 C 
ATOM     16  C   UNL     1      22.517 -25.815  34.348  1.00  0.00     0.007 C 
ATOM     17  C   UNL     1      20.580 -27.331  34.935  1.00  0.00     0.012 C 
ATOM     18  C   UNL     1      22.733 -28.562  33.095  1.00  0.00     0.000 C 
ATOM     19  C   UNL     1      22.302 -25.967  32.827  1.00  0.00     0.005 C 
ATOM     20  C   UNL     1      22.841 -27.290  32.170  1.00  0.00     0.003 C 
ATOM     21  C   UNL     1      23.661 -29.728  32.661  1.00  0.00     0.031 C 
ATOM     22  C   UNL     1      24.207 -27.151  31.382  1.00  0.00    -0.008 C 
ATOM     23  C   UNL     1      24.140 -29.651  31.244  1.00  0.00    -0.027 C 
ATOM     24  C   UNL     1      24.483 -28.484  30.668  1.00  0.00    -0.065 C 
ATOM     25  C   UNL     1      24.081 -25.997  30.324  1.00  0.00     0.014 C 
ATOM     26  C   UNL     1      25.389 -26.836  32.325  1.00  0.00     0.016 C 
ATOM     27  C   UNL     1      25.336 -28.538  29.415  1.00  0.00     0.063 C 
ATOM     28  C   UNL     1      25.094 -26.062  29.176  1.00  0.00     0.033 C 
ATOM     29  C   UNL     1      25.015 -27.403  28.447  1.00  0.00     0.118 C 
BRANCH  29  30
ATOM     30  O   UNL     1      23.737 -27.599  27.894  1.00  0.00    -0.393 OA
ATOM     31  H   UNL     1      23.539 -26.800  27.340  1.00  0.00     0.210 HD
ENDBRANCH  29  30
ENDBRANCH   9  11
ENDBRANCH   1   9
TORSDOF 7
ENDMDL
MODEL 7
REMARK VINA RESULT:    -6.666      6.781     10.359
REMARK INTER + INTRA:         -11.802
REMARK INTER:                  -9.662
REMARK INTRA:                  -2.140
REMARK UNBOUND:                -2.603
REMARK SMILES CC[C@@H](CC[C@H](C)[C@@H]1CC[C@H]2[C@@H]3CC=C4C[C@@H](O)CC[C@@]4(C)[C@@H]3CC[C@@]21C)C(C)C
REMARK SMILES IDX 5 1 4 2 3 3 2 4 1 5 28 6 29 7 30 8 6 9 7 10 8 11 9 12 26 13
REMARK SMILES IDX 10 14 11 15 25 16 27 17 12 18 24 19 23 20 13 21 21 22 14 23
REMARK SMILES IDX 15 24 20 25 22 26 16 27 19 28 17 29 18 30
REMARK H PARENT 18 31
REMARK Flexibility Score: inf
ROOT
ATOM      1  C   UNL     1      20.306 -21.361  31.563  1.00  0.00     0.004 C 
ENDROOT
BRANCH   1   2
ATOM      2  C   UNL     1      20.124 -20.355  30.402  1.00  0.00     0.004 C 
BRANCH   2   3
ATOM      3  C   UNL     1      20.999 -19.074  30.531  1.00  0.00    -0.009 C 
BRANCH   3   4
ATOM      4  C   UNL     1      20.275 -17.884  29.838  1.00  0.00     0.000 C 
ATOM      5  C   UNL     1      19.138 -18.340  28.918  1.00  0.00     0.004 C 
ENDBRANCH   3   4
BRANCH   3   6
ATOM      6  C   UNL     1      22.474 -19.211  30.004  1.00  0.00    -0.014 C 
ATOM      7  C   UNL     1      22.567 -19.941  28.655  1.00  0.00     0.007 C 
ATOM      8  C   UNL     1      23.248 -17.881  29.954  1.00  0.00     0.007 C 
ENDBRANCH   3   6
ENDBRANCH   2   3
ENDBRANCH   1   2
BRANCH   1   9
ATOM      9  C   UNL     1      20.295 -22.869  31.138  1.00  0.00    -0.011 C 
ATOM     10  C   UNL     1      19.173 -23.590  31.928  1.00  0.00     0.008 C 
BRANCH   9  11
ATOM     11  C   UNL     1      21.700 -23.576  31.281  1.00  0.00    -0.002 C 
ATOM     12  C   UNL     1      22.830 -22.569  31.662  1.00  0.00     0.005 C 
ATOM     13  C   UNL     1      22.289 -24.348  30.034  1.00  0.00    -0.026 C 
ATOM     14  C   UNL     1      23.989 -22.779  30.692  1.00  0.00     0.005 C 
ATOM     15  C   UNL     1      23.306 -23.353  29.468  1.00  0.00    -0.001 C 
ATOM     16  C   UNL     1      21.338 -24.701  28.873  1.00  0.00     0.007 C 
ATOM     17  C   UNL     1      22.948 -25.662  30.570  1.00  0.00     0.012 C 
ATOM     18  C   UNL     1      24.218 -23.925  28.354  1.00  0.00     0.000 C 
ATOM     19  C   UNL     1      22.080 -25.324  27.672  1.00  0.00     0.005 C 
ATOM     20  C   UNL     1      23.384 -24.587  27.192  1.00  0.00     0.003 C 
ATOM     21  C   UNL     1      25.206 -22.832  27.867  1.00  0.00     0.031 C 
ATOM     22  C   UNL     1      23.223 -23.695  25.894  1.00  0.00    -0.008 C 
ATOM     23  C   UNL     1      25.541 -22.897  26.409  1.00  0.00    -0.027 C 
ATOM     24  C   UNL     1      24.618 -23.203  25.478  1.00  0.00    -0.065 C 
ATOM     25  C   UNL     1      22.599 -24.562  24.742  1.00  0.00     0.014 C 
ATOM     26  C   UNL     1      22.315 -22.470  26.143  1.00  0.00     0.016 C 
ATOM     27  C   UNL     1      24.922 -22.840  24.036  1.00  0.00     0.063 C 
ATOM     28  C   UNL     1      22.837 -24.021  23.328  1.00  0.00     0.033 C 
ATOM     29  C   UNL     1      24.329 -23.842  23.050  1.00  0.00     0.118 C 
BRANCH  29  30
ATOM     30  O   UNL     1      25.009 -25.068  23.154  1.00  0.00    -0.393 OA
ATOM     31  H   UNL     1      25.854 -24.887  23.642  1.00  0.00     0.210 HD
ENDBRANCH  29  30
ENDBRANCH   9  11
ENDBRANCH   1   9
TORSDOF 7
ENDMDL
MODEL 8
REMARK VINA RESULT:    -6.538      1.899      5.335
REMARK INTER + INTRA:         -11.625
REMARK INTER:                  -9.940
REMARK INTRA:                  -1.685
REMARK UNBOUND:                -2.603
REMARK SMILES CC[C@@H](CC[C@H](C)[C@@H]1CC[C@H]2[C@@H]3CC=C4C[C@@H](O)CC[C@@]4(C)[C@@H]3CC[C@@]21C)C(C)C
REMARK SMILES IDX 5 1 4 2 3 3 2 4 1 5 28 6 29 7 30 8 6 9 7 10 8 11 9 12 26 13
REMARK SMILES IDX 10 14 11 15 25 16 27 17 12 18 24 19 23 20 13 21 21 22 14 23
REMARK SMILES IDX 15 24 20 25 22 26 16 27 19 28 17 29 18 30
REMARK H PARENT 18 31
REMARK Flexibility Score: inf
ROOT
ATOM      1  C   UNL     1      25.000 -28.173  37.676  1.00  0.00     0.004 C 
ENDROOT
BRANCH   1   2
ATOM      2  C   UNL     1      24.439 -28.270  36.238  1.00  0.00     0.004 C 
BRANCH   2   3
ATOM      3  C   UNL     1      25.404 -27.729  35.144  1.00  0.00    -0.009 C 
BRANCH   3   4
ATOM      4  C   UNL     1      26.279 -28.898  34.607  1.00  0.00     0.000 C 
ATOM      5  C   UNL     1      25.839 -29.375  33.219  1.00  0.00     0.004 C 
ENDBRANCH   3   4
BRANCH   3   6
ATOM      6  C   UNL     1      26.304 -26.515  35.580  1.00  0.00    -0.014 C 
ATOM      7  C   UNL     1      27.749 -26.923  35.907  1.00  0.00     0.007 C 
ATOM      8  C   UNL     1      26.286 -25.334  34.593  1.00  0.00     0.007 C 
ENDBRANCH   3   6
ENDBRANCH   2   3
ENDBRANCH   1   2
BRANCH   1   9
ATOM      9  C   UNL     1      23.990 -27.635  38.747  1.00  0.00    -0.011 C 
ATOM     10  C   UNL     1      24.750 -26.669  39.692  1.00  0.00     0.008 C 
BRANCH   9  11
ATOM     11  C   UNL     1      23.222 -28.777  39.521  1.00  0.00    -0.002 C 
ATOM     12  C   UNL     1      24.106 -30.048  39.725  1.00  0.00     0.005 C 
ATOM     13  C   UNL     1      21.884 -29.345  38.901  1.00  0.00    -0.026 C 
ATOM     14  C   UNL     1      23.300 -31.257  39.259  1.00  0.00     0.005 C 
ATOM     15  C   UNL     1      22.340 -30.656  38.253  1.00  0.00    -0.001 C 
ATOM     16  C   UNL     1      21.188 -28.534  37.791  1.00  0.00     0.007 C 
ATOM     17  C   UNL     1      20.880 -29.560  40.081  1.00  0.00     0.012 C 
ATOM     18  C   UNL     1      21.189 -31.561  37.749  1.00  0.00     0.000 C 
ATOM     19  C   UNL     1      19.977 -29.278  37.187  1.00  0.00     0.005 C 
ATOM     20  C   UNL     1      20.204 -30.784  36.795  1.00  0.00     0.003 C 
ATOM     21  C   UNL     1      21.771 -32.856  37.122  1.00  0.00     0.031 C 
ATOM     22  C   UNL     1      20.413 -31.060  35.249  1.00  0.00    -0.008 C 
ATOM     23  C   UNL     1      20.994 -33.391  35.959  1.00  0.00    -0.027 C 
ATOM     24  C   UNL     1      20.440 -32.582  35.037  1.00  0.00    -0.065 C 
ATOM     25  C   UNL     1      19.221 -30.431  34.443  1.00  0.00     0.014 C 
ATOM     26  C   UNL     1      21.738 -30.461  34.730  1.00  0.00     0.016 C 
ATOM     27  C   UNL     1      20.049 -33.193  33.704  1.00  0.00     0.063 C 
ATOM     28  C   UNL     1      19.009 -31.019  33.044  1.00  0.00     0.033 C 
ATOM     29  C   UNL     1      18.810 -32.534  33.107  1.00  0.00     0.118 C 
BRANCH  29  30
ATOM     30  O   UNL     1      17.681 -32.860  33.878  1.00  0.00    -0.393 OA
ATOM     31  H   UNL     1      16.896 -32.811  33.272  1.00  0.00     0.210 HD
ENDBRANCH  29  30
ENDBRANCH   9  11
ENDBRANCH   1   9
TORSDOF 7
ENDMDL
