MODEL 1
REMARK VINA RESULT:    -4.687      0.000      0.000
REMARK INTER + INTRA:         -13.748
REMARK INTER:                 -10.168
REMARK INTRA:                  -3.580
REMARK UNBOUND:                -3.580
REMARK SMILES CCCCCCCCCCCCCCCCCCCCCC(=O)[O-]
REMARK SMILES IDX 12 1 11 2 10 3 9 4 8 5 7 6 6 7 5 8 4 9 3 10 2 11 1 12 13 13
REMARK SMILES IDX 14 14 15 15 16 16 17 17 18 18 19 19 20 20 21 21 22 22 23 23
REMARK SMILES IDX 24 24
REMARK H PARENT
REMARK Flexibility Score: inf
ROOT
ATOM      1  C   UNL     1      12.732  13.796   5.861  1.00  0.00     0.000 C 
ENDROOT
BRANCH   1   2
ATOM      2  C   UNL     1      13.663  12.826   5.109  1.00  0.00     0.000 C 
BRANCH   2   3
ATOM      3  C   UNL     1      12.956  11.626   4.448  1.00  0.00     0.000 C 
BRANCH   3   4
ATOM      4  C   UNL     1      11.984  11.981   3.307  1.00  0.00    -0.000 C 
BRANCH   4   5
ATOM      5  C   UNL     1      10.493  11.797   3.670  1.00  0.00    -0.000 C 
BRANCH   5   6
ATOM      6  C   UNL     1      10.205  10.571   4.556  1.00  0.00    -0.000 C 
BRANCH   6   7
ATOM      7  C   UNL     1       9.048  10.809   5.542  1.00  0.00    -0.000 C 
BRANCH   7   8
ATOM      8  C   UNL     1       9.534  10.970   6.991  1.00  0.00    -0.000 C 
BRANCH   8   9
ATOM      9  C   UNL     1       9.765  12.443   7.377  1.00  0.00    -0.000 C 
BRANCH   9  10
ATOM     10  C   UNL     1       8.564  13.339   7.037  1.00  0.00    -0.000 C 
BRANCH  10  11
ATOM     11  C   UNL     1       8.954  14.545   6.170  1.00  0.00    -0.003 C 
ATOM     12  C   UNL     1       8.271  14.488   4.807  1.00  0.00     0.004 C 
ENDBRANCH  10  11
ENDBRANCH   9  10
ENDBRANCH   8   9
ENDBRANCH   7   8
ENDBRANCH   6   7
ENDBRANCH   5   6
ENDBRANCH   4   5
ENDBRANCH   3   4
ENDBRANCH   2   3
ENDBRANCH   1   2
BRANCH   1  13
ATOM     13  C   UNL     1      12.739  15.212   5.268  1.00  0.00     0.000 C 
BRANCH  13  14
ATOM     14  C   UNL     1      11.860  15.282   4.013  1.00  0.00     0.000 C 
BRANCH  14  15
ATOM     15  C   UNL     1      11.911  16.677   3.377  1.00  0.00     0.000 C 
BRANCH  15  16
ATOM     16  C   UNL     1      11.505  16.618   1.897  1.00  0.00     0.000 C 
BRANCH  16  17
ATOM     17  C   UNL     1      12.634  16.108   0.989  1.00  0.00     0.000 C 
BRANCH  17  18
ATOM     18  C   UNL     1      12.444  14.638   0.573  1.00  0.00     0.000 C 
BRANCH  18  19
ATOM     19  C   UNL     1      13.715  13.798   0.797  1.00  0.00     0.000 C 
BRANCH  19  20
ATOM     20  C   UNL     1      14.749  14.471   1.720  1.00  0.00     0.006 C 
BRANCH  20  21
ATOM     21  C   UNL     1      15.655  13.452   2.426  1.00  0.00     0.053 C 
BRANCH  21  22
ATOM     22  C   UNL     1      16.738  14.155   3.182  1.00  0.00     0.041 C 
ATOM     23  O   UNL     1      17.550  13.496   3.884  1.00  0.00    -0.550 OA
ATOM     24  O   UNL     1      16.807  15.542   3.167  1.00  0.00    -0.550 OA
ENDBRANCH  21  22
ENDBRANCH  20  21
ENDBRANCH  19  20
ENDBRANCH  18  19
ENDBRANCH  17  18
ENDBRANCH  16  17
ENDBRANCH  15  16
ENDBRANCH  14  15
ENDBRANCH  13  14
ENDBRANCH   1  13
TORSDOF 20
ENDMDL
MODEL 2
REMARK VINA RESULT:    -4.675      3.011      6.945
REMARK INTER + INTRA:         -13.721
REMARK INTER:                  -9.725
REMARK INTRA:                  -3.996
REMARK UNBOUND:                -3.580
REMARK SMILES CCCCCCCCCCCCCCCCCCCCCC(=O)[O-]
REMARK SMILES IDX 12 1 11 2 10 3 9 4 8 5 7 6 6 7 5 8 4 9 3 10 2 11 1 12 13 13
REMARK SMILES IDX 14 14 15 15 16 16 17 17 18 18 19 19 20 20 21 21 22 22 23 23
REMARK SMILES IDX 24 24
REMARK H PARENT
REMARK Flexibility Score: inf
ROOT
ATOM      1  C   UNL     1      13.574  13.314   5.192  1.00  0.00     0.000 C 
ENDROOT
BRANCH   1   2
ATOM      2  C   UNL     1      12.582  14.491   5.251  1.00  0.00     0.000 C 
BRANCH   2   3
ATOM      3  C   UNL     1      13.097  15.809   4.640  1.00  0.00     0.000 C 
BRANCH   3   4
ATOM      4  C   UNL     1      12.081  16.571   3.767  1.00  0.00    -0.000 C 
BRANCH   4   5
ATOM      5  C   UNL     1      10.758  15.807   3.528  1.00  0.00    -0.000 C 
BRANCH   5   6
ATOM      6  C   UNL     1      10.661  15.126   2.151  1.00  0.00    -0.000 C 
BRANCH   6   7
ATOM      7  C   UNL     1      11.730  15.625   1.163  1.00  0.00    -0.000 C 
BRANCH   7   8
ATOM      8  C   UNL     1      12.697  14.511   0.731  1.00  0.00    -0.000 C 
BRANCH   8   9
ATOM      9  C   UNL     1      14.171  14.881   0.976  1.00  0.00    -0.000 C 
BRANCH   9  10
ATOM     10  C   UNL     1      14.874  13.909   1.936  1.00  0.00    -0.000 C 
BRANCH  10  11
ATOM     11  C   UNL     1      16.022  14.573   2.712  1.00  0.00    -0.003 C 
ATOM     12  C   UNL     1      16.711  13.574   3.637  1.00  0.00     0.004 C 
ENDBRANCH  10  11
ENDBRANCH   9  10
ENDBRANCH   8   9
ENDBRANCH   7   8
ENDBRANCH   6   7
ENDBRANCH   5   6
ENDBRANCH   4   5
ENDBRANCH   3   4
ENDBRANCH   2   3
ENDBRANCH   1   2
BRANCH   1  13
ATOM     13  C   UNL     1      12.912  11.995   4.769  1.00  0.00     0.000 C 
BRANCH  13  14
ATOM     14  C   UNL     1      12.013  12.203   3.544  1.00  0.00     0.000 C 
BRANCH  14  15
ATOM     15  C   UNL     1      10.664  11.495   3.719  1.00  0.00     0.000 C 
BRANCH  15  16
ATOM     16  C   UNL     1      10.794  10.301   4.676  1.00  0.00     0.000 C 
BRANCH  16  17
ATOM     17  C   UNL     1       9.544  10.094   5.545  1.00  0.00     0.000 C 
BRANCH  17  18
ATOM     18  C   UNL     1       8.937  11.420   6.037  1.00  0.00     0.000 C 
BRANCH  18  19
ATOM     19  C   UNL     1       9.821  12.112   7.090  1.00  0.00     0.000 C 
BRANCH  19  20
ATOM     20  C   UNL     1       9.570  13.626   7.215  1.00  0.00     0.006 C 
BRANCH  20  21
ATOM     21  C   UNL     1       8.825  14.198   6.001  1.00  0.00     0.053 C 
BRANCH  21  22
ATOM     22  C   UNL     1       7.929  15.320   6.421  1.00  0.00     0.041 C 
ATOM     23  O   UNL     1       7.452  15.347   7.587  1.00  0.00    -0.550 OA
ATOM     24  O   UNL     1       7.565  16.298   5.505  1.00  0.00    -0.550 OA
ENDBRANCH  21  22
ENDBRANCH  20  21
ENDBRANCH  19  20
ENDBRANCH  18  19
ENDBRANCH  17  18
ENDBRANCH  16  17
ENDBRANCH  15  16
ENDBRANCH  14  15
ENDBRANCH  13  14
ENDBRANCH   1  13
TORSDOF 20
ENDMDL
MODEL 3
REMARK VINA RESULT:    -4.662      1.512      2.777
REMARK INTER + INTRA:         -13.694
REMARK INTER:                  -9.788
REMARK INTRA:                  -3.906
REMARK UNBOUND:                -3.580
REMARK SMILES CCCCCCCCCCCCCCCCCCCCCC(=O)[O-]
REMARK SMILES IDX 12 1 11 2 10 3 9 4 8 5 7 6 6 7 5 8 4 9 3 10 2 11 1 12 13 13
REMARK SMILES IDX 14 14 15 15 16 16 17 17 18 18 19 19 20 20 21 21 22 22 23 23
REMARK SMILES IDX 24 24
REMARK H PARENT
REMARK Flexibility Score: inf
ROOT
ATOM      1  C   UNL     1      10.754  14.617   5.586  1.00  0.00     0.000 C 
ENDROOT
BRANCH   1   2
ATOM      2  C   UNL     1       9.997  14.739   4.251  1.00  0.00     0.000 C 
BRANCH   2   3
ATOM      3  C   UNL     1       8.660  13.973   4.187  1.00  0.00     0.000 C 
BRANCH   3   4
ATOM      4  C   UNL     1       8.742  12.556   3.587  1.00  0.00    -0.000 C 
BRANCH   4   5
ATOM      5  C   UNL     1       8.500  11.424   4.612  1.00  0.00    -0.000 C 
BRANCH   5   6
ATOM      6  C   UNL     1       9.754  10.595   4.946  1.00  0.00    -0.000 C 
BRANCH   6   7
ATOM      7  C   UNL     1      10.030  10.517   6.458  1.00  0.00    -0.000 C 
BRANCH   7   8
ATOM      8  C   UNL     1       8.897  11.133   7.295  1.00  0.00    -0.000 C 
BRANCH   8   9
ATOM      9  C   UNL     1       9.347  12.388   8.064  1.00  0.00    -0.000 C 
BRANCH   9  10
ATOM     10  C   UNL     1       8.169  13.157   8.683  1.00  0.00    -0.000 C 
BRANCH  10  11
ATOM     11  C   UNL     1       7.019  13.377   7.688  1.00  0.00    -0.003 C 
ATOM     12  C   UNL     1       6.945  14.836   7.247  1.00  0.00     0.004 C 
ENDBRANCH  10  11
ENDBRANCH   9  10
ENDBRANCH   8   9
ENDBRANCH   7   8
ENDBRANCH   6   7
ENDBRANCH   5   6
ENDBRANCH   4   5
ENDBRANCH   3   4
ENDBRANCH   2   3
ENDBRANCH   1   2
BRANCH   1  13
ATOM     13  C   UNL     1      12.254  14.345   5.400  1.00  0.00     0.000 C 
BRANCH  13  14
ATOM     14  C   UNL     1      12.543  12.839   5.424  1.00  0.00     0.000 C 
BRANCH  14  15
ATOM     15  C   UNL     1      13.311  12.401   4.171  1.00  0.00     0.000 C 
BRANCH  15  16
ATOM     16  C   UNL     1      12.398  12.413   2.937  1.00  0.00     0.000 C 
BRANCH  16  17
ATOM     17  C   UNL     1      13.015  13.160   1.745  1.00  0.00     0.000 C 
BRANCH  17  18
ATOM     18  C   UNL     1      12.538  14.620   1.647  1.00  0.00     0.000 C 
BRANCH  18  19
ATOM     19  C   UNL     1      13.591  15.615   2.170  1.00  0.00     0.000 C 
BRANCH  19  20
ATOM     20  C   UNL     1      15.026  15.054   2.176  1.00  0.00     0.006 C 
BRANCH  20  21
ATOM     21  C   UNL     1      15.910  15.721   3.238  1.00  0.00     0.053 C 
BRANCH  21  22
ATOM     22  C   UNL     1      17.015  16.491   2.587  1.00  0.00     0.041 C 
ATOM     23  O   UNL     1      16.755  17.341   1.694  1.00  0.00    -0.550 OA
ATOM     24  O   UNL     1      18.337  16.220   2.914  1.00  0.00    -0.550 OA
ENDBRANCH  21  22
ENDBRANCH  20  21
ENDBRANCH  19  20
ENDBRANCH  18  19
ENDBRANCH  17  18
ENDBRANCH  16  17
ENDBRANCH  15  16
ENDBRANCH  14  15
ENDBRANCH  13  14
ENDBRANCH   1  13
TORSDOF 20
ENDMDL
MODEL 4
REMARK VINA RESULT:    -4.656      2.305      5.693
REMARK INTER + INTRA:         -13.680
REMARK INTER:                 -10.236
REMARK INTRA:                  -3.444
REMARK UNBOUND:                -3.580
REMARK SMILES CCCCCCCCCCCCCCCCCCCCCC(=O)[O-]
REMARK SMILES IDX 12 1 11 2 10 3 9 4 8 5 7 6 6 7 5 8 4 9 3 10 2 11 1 12 13 13
REMARK SMILES IDX 14 14 15 15 16 16 17 17 18 18 19 19 20 20 21 21 22 22 23 23
REMARK SMILES IDX 24 24
REMARK H PARENT
REMARK Flexibility Score: inf
ROOT
ATOM      1  C   UNL     1       8.944  11.792   7.195  1.00  0.00     0.000 C 
ENDROOT
BRANCH   1   2
ATOM      2  C   UNL     1       9.793  10.689   6.535  1.00  0.00     0.000 C 
BRANCH   2   3
ATOM      3  C   UNL     1       9.539  10.485   5.028  1.00  0.00     0.000 C 
BRANCH   3   4
ATOM      4  C   UNL     1      10.600  11.097   4.093  1.00  0.00    -0.000 C 
BRANCH   4   5
ATOM      5  C   UNL     1      11.845  11.644   4.827  1.00  0.00    -0.000 C 
BRANCH   5   6
ATOM      6  C   UNL     1      12.648  12.683   4.024  1.00  0.00    -0.000 C 
BRANCH   6   7
ATOM      7  C   UNL     1      12.225  12.748   2.546  1.00  0.00    -0.000 C 
BRANCH   7   8
ATOM      8  C   UNL     1      13.183  13.601   1.698  1.00  0.00    -0.000 C 
BRANCH   8   9
ATOM      9  C   UNL     1      14.651  13.456   2.140  1.00  0.00    -0.000 C 
BRANCH   9  10
ATOM     10  C   UNL     1      15.385  14.804   2.207  1.00  0.00    -0.000 C 
BRANCH  10  11
ATOM     11  C   UNL     1      16.486  14.824   3.278  1.00  0.00    -0.003 C 
ATOM     12  C   UNL     1      16.482  13.536   4.096  1.00  0.00     0.004 C 
ENDBRANCH  10  11
ENDBRANCH   9  10
ENDBRANCH   8   9
ENDBRANCH   7   8
ENDBRANCH   6   7
ENDBRANCH   5   6
ENDBRANCH   4   5
ENDBRANCH   3   4
ENDBRANCH   2   3
ENDBRANCH   1   2
BRANCH   1  13
ATOM     13  C   UNL     1       7.651  12.094   6.424  1.00  0.00     0.000 C 
BRANCH  13  14
ATOM     14  C   UNL     1       7.244  13.562   6.595  1.00  0.00     0.000 C 
BRANCH  14  15
ATOM     15  C   UNL     1       8.171  14.491   5.802  1.00  0.00     0.000 C 
BRANCH  15  16
ATOM     16  C   UNL     1       8.336  13.996   4.357  1.00  0.00     0.000 C 
BRANCH  16  17
ATOM     17  C   UNL     1       9.441  14.742   3.594  1.00  0.00     0.000 C 
BRANCH  17  18
ATOM     18  C   UNL     1      10.253  15.687   4.497  1.00  0.00     0.000 C 
BRANCH  18  19
ATOM     19  C   UNL     1      11.506  16.238   3.791  1.00  0.00     0.000 C 
BRANCH  19  20
ATOM     20  C   UNL     1      12.754  16.289   4.691  1.00  0.00     0.006 C 
BRANCH  20  21
ATOM     21  C   UNL     1      13.128  17.722   5.094  1.00  0.00     0.053 C 
BRANCH  21  22
ATOM     22  C   UNL     1      12.523  18.064   6.419  1.00  0.00     0.041 C 
ATOM     23  O   UNL     1      12.114  19.234   6.646  1.00  0.00    -0.550 OA
ATOM     24  O   UNL     1      12.475  17.110   7.427  1.00  0.00    -0.550 OA
ENDBRANCH  21  22
ENDBRANCH  20  21
ENDBRANCH  19  20
ENDBRANCH  18  19
ENDBRANCH  17  18
ENDBRANCH  16  17
ENDBRANCH  15  16
ENDBRANCH  14  15
ENDBRANCH  13  14
ENDBRANCH   1  13
TORSDOF 20
ENDMDL
MODEL 5
REMARK VINA RESULT:    -4.653      2.336      3.921
REMARK INTER + INTRA:         -13.673
REMARK INTER:                  -9.782
REMARK INTRA:                  -3.891
REMARK UNBOUND:                -3.580
REMARK SMILES CCCCCCCCCCCCCCCCCCCCCC(=O)[O-]
REMARK SMILES IDX 12 1 11 2 10 3 9 4 8 5 7 6 6 7 5 8 4 9 3 10 2 11 1 12 13 13
REMARK SMILES IDX 14 14 15 15 16 16 17 17 18 18 19 19 20 20 21 21 22 22 23 23
REMARK SMILES IDX 24 24
REMARK H PARENT
REMARK Flexibility Score: inf
ROOT
ATOM      1  C   UNL     1      13.171  13.063   5.063  1.00  0.00     0.000 C 
ENDROOT
BRANCH   1   2
ATOM      2  C   UNL     1      12.468  11.826   4.473  1.00  0.00     0.000 C 
BRANCH   2   3
ATOM      3  C   UNL     1      11.224  12.128   3.616  1.00  0.00     0.000 C 
BRANCH   3   4
ATOM      4  C   UNL     1       9.996  11.242   3.902  1.00  0.00    -0.000 C 
BRANCH   4   5
ATOM      5  C   UNL     1       8.642  11.955   3.691  1.00  0.00    -0.000 C 
BRANCH   5   6
ATOM      6  C   UNL     1       8.633  13.435   4.114  1.00  0.00    -0.000 C 
BRANCH   6   7
ATOM      7  C   UNL     1       8.333  13.624   5.611  1.00  0.00    -0.000 C 
BRANCH   7   8
ATOM      8  C   UNL     1       9.591  13.979   6.421  1.00  0.00    -0.000 C 
BRANCH   8   9
ATOM      9  C   UNL     1      10.111  12.794   7.255  1.00  0.00    -0.000 C 
BRANCH   9  10
ATOM     10  C   UNL     1       9.037  11.721   7.493  1.00  0.00    -0.000 C 
BRANCH  10  11
ATOM     11  C   UNL     1       8.593  11.646   8.962  1.00  0.00    -0.003 C 
ATOM     12  C   UNL     1       7.105  11.325   9.071  1.00  0.00     0.004 C 
ENDBRANCH  10  11
ENDBRANCH   9  10
ENDBRANCH   8   9
ENDBRANCH   7   8
ENDBRANCH   6   7
ENDBRANCH   5   6
ENDBRANCH   4   5
ENDBRANCH   3   4
ENDBRANCH   2   3
ENDBRANCH   1   2
BRANCH   1  13
ATOM     13  C   UNL     1      14.655  13.148   4.678  1.00  0.00     0.000 C 
BRANCH  13  14
ATOM     14  C   UNL     1      14.849  12.864   3.184  1.00  0.00     0.000 C 
BRANCH  14  15
ATOM     15  C   UNL     1      14.704  14.145   2.352  1.00  0.00     0.000 C 
BRANCH  15  16
ATOM     16  C   UNL     1      13.689  13.948   1.217  1.00  0.00     0.000 C 
BRANCH  16  17
ATOM     17  C   UNL     1      12.453  14.849   1.359  1.00  0.00     0.000 C 
BRANCH  17  18
ATOM     18  C   UNL     1      12.521  15.758   2.600  1.00  0.00     0.000 C 
BRANCH  18  19
ATOM     19  C   UNL     1      11.191  15.786   3.377  1.00  0.00     0.000 C 
BRANCH  19  20
ATOM     20  C   UNL     1      11.193  16.754   4.575  1.00  0.00     0.006 C 
BRANCH  20  21
ATOM     21  C   UNL     1      12.505  16.699   5.371  1.00  0.00     0.053 C 
BRANCH  21  22
ATOM     22  C   UNL     1      12.355  17.423   6.671  1.00  0.00     0.041 C 
ATOM     23  O   UNL     1      13.342  18.018   7.182  1.00  0.00    -0.550 OA
ATOM     24  O   UNL     1      11.147  17.382   7.354  1.00  0.00    -0.550 OA
ENDBRANCH  21  22
ENDBRANCH  20  21
ENDBRANCH  19  20
ENDBRANCH  18  19
ENDBRANCH  17  18
ENDBRANCH  16  17
ENDBRANCH  15  16
ENDBRANCH  14  15
ENDBRANCH  13  14
ENDBRANCH   1  13
TORSDOF 20
ENDMDL
MODEL 6
REMARK VINA RESULT:    -4.650      2.453      5.816
REMARK INTER + INTRA:         -13.666
REMARK INTER:                 -10.265
REMARK INTRA:                  -3.401
REMARK UNBOUND:                -3.580
REMARK SMILES CCCCCCCCCCCCCCCCCCCCCC(=O)[O-]
REMARK SMILES IDX 12 1 11 2 10 3 9 4 8 5 7 6 6 7 5 8 4 9 3 10 2 11 1 12 13 13
REMARK SMILES IDX 14 14 15 15 16 16 17 17 18 18 19 19 20 20 21 21 22 22 23 23
REMARK SMILES IDX 24 24
REMARK H PARENT
REMARK Flexibility Score: inf
ROOT
ATOM      1  C   UNL     1       9.463  10.597   5.811  1.00  0.00     0.000 C 
ENDROOT
BRANCH   1   2
ATOM      2  C   UNL     1      10.495  10.111   4.775  1.00  0.00     0.000 C 
BRANCH   2   3
ATOM      3  C   UNL     1      11.198  11.229   3.981  1.00  0.00     0.000 C 
BRANCH   3   4
ATOM      4  C   UNL     1      12.125  12.141   4.809  1.00  0.00    -0.000 C 
BRANCH   4   5
ATOM      5  C   UNL     1      13.614  12.059   4.404  1.00  0.00    -0.000 C 
BRANCH   5   6
ATOM      6  C   UNL     1      14.537  13.008   5.190  1.00  0.00    -0.000 C 
BRANCH   6   7
ATOM      7  C   UNL     1      15.766  13.451   4.378  1.00  0.00    -0.000 C 
BRANCH   7   8
ATOM      8  C   UNL     1      15.563  14.816   3.701  1.00  0.00    -0.000 C 
BRANCH   8   9
ATOM      9  C   UNL     1      15.347  14.696   2.181  1.00  0.00    -0.000 C 
BRANCH   9  10
ATOM     10  C   UNL     1      14.341  15.724   1.642  1.00  0.00    -0.000 C 
BRANCH  10  11
ATOM     11  C   UNL     1      13.259  15.083   0.759  1.00  0.00    -0.003 C 
ATOM     12  C   UNL     1      13.172  13.579   0.999  1.00  0.00     0.004 C 
ENDBRANCH  10  11
ENDBRANCH   9  10
ENDBRANCH   8   9
ENDBRANCH   7   8
ENDBRANCH   6   7
ENDBRANCH   5   6
ENDBRANCH   4   5
ENDBRANCH   3   4
ENDBRANCH   2   3
ENDBRANCH   1   2
BRANCH   1  13
ATOM     13  C   UNL     1       8.285  11.347   5.173  1.00  0.00     0.000 C 
BRANCH  13  14
ATOM     14  C   UNL     1       7.912  12.583   6.002  1.00  0.00     0.000 C 
BRANCH  14  15
ATOM     15  C   UNL     1       9.018  13.644   5.947  1.00  0.00     0.000 C 
BRANCH  15  16
ATOM     16  C   UNL     1       8.708  14.700   4.876  1.00  0.00     0.000 C 
BRANCH  16  17
ATOM     17  C   UNL     1       9.326  14.365   3.510  1.00  0.00     0.000 C 
BRANCH  17  18
ATOM     18  C   UNL     1      10.551  15.238   3.182  1.00  0.00     0.000 C 
BRANCH  18  19
ATOM     19  C   UNL     1      11.408  15.533   4.427  1.00  0.00     0.000 C 
BRANCH  19  20
ATOM     20  C   UNL     1      12.099  16.910   4.393  1.00  0.00     0.006 C 
BRANCH  20  21
ATOM     21  C   UNL     1      11.368  17.953   5.249  1.00  0.00     0.053 C 
BRANCH  21  22
ATOM     22  C   UNL     1      11.254  17.478   6.663  1.00  0.00     0.041 C 
ATOM     23  O   UNL     1      12.290  17.310   7.360  1.00  0.00    -0.550 OA
ATOM     24  O   UNL     1      10.010  17.153   7.188  1.00  0.00    -0.550 OA
ENDBRANCH  21  22
ENDBRANCH  20  21
ENDBRANCH  19  20
ENDBRANCH  18  19
ENDBRANCH  17  18
ENDBRANCH  16  17
ENDBRANCH  15  16
ENDBRANCH  14  15
ENDBRANCH  13  14
ENDBRANCH   1  13
TORSDOF 20
ENDMDL
MODEL 7
REMARK VINA RESULT:    -4.649      1.291      3.475
REMARK INTER + INTRA:         -13.665
REMARK INTER:                  -9.851
REMARK INTRA:                  -3.814
REMARK UNBOUND:                -3.580
REMARK SMILES CCCCCCCCCCCCCCCCCCCCCC(=O)[O-]
REMARK SMILES IDX 12 1 11 2 10 3 9 4 8 5 7 6 6 7 5 8 4 9 3 10 2 11 1 12 13 13
REMARK SMILES IDX 14 14 15 15 16 16 17 17 18 18 19 19 20 20 21 21 22 22 23 23
REMARK SMILES IDX 24 24
REMARK H PARENT
REMARK Flexibility Score: inf
ROOT
ATOM      1  C   UNL     1      12.004  14.631   6.408  1.00  0.00     0.000 C 
ENDROOT
BRANCH   1   2
ATOM      2  C   UNL     1      12.506  15.509   5.246  1.00  0.00     0.000 C 
BRANCH   2   3
ATOM      3  C   UNL     1      11.581  16.683   4.869  1.00  0.00     0.000 C 
BRANCH   3   4
ATOM      4  C   UNL     1      10.637  16.421   3.680  1.00  0.00    -0.000 C 
BRANCH   4   5
ATOM      5  C   UNL     1       9.190  16.916   3.904  1.00  0.00    -0.000 C 
BRANCH   5   6
ATOM      6  C   UNL     1       8.175  15.794   4.190  1.00  0.00    -0.000 C 
BRANCH   6   7
ATOM      7  C   UNL     1       8.229  15.301   5.647  1.00  0.00    -0.000 C 
BRANCH   7   8
ATOM      8  C   UNL     1       8.094  13.773   5.755  1.00  0.00    -0.000 C 
BRANCH   8   9
ATOM      9  C   UNL     1       8.867  13.032   4.648  1.00  0.00    -0.000 C 
BRANCH   9  10
ATOM     10  C   UNL     1       8.607  11.518   4.655  1.00  0.00    -0.000 C 
BRANCH  10  11
ATOM     11  C   UNL     1       9.313  10.804   5.818  1.00  0.00    -0.003 C 
ATOM     12  C   UNL     1      10.190   9.662   5.312  1.00  0.00     0.004 C 
ENDBRANCH  10  11
ENDBRANCH   9  10
ENDBRANCH   8   9
ENDBRANCH   7   8
ENDBRANCH   6   7
ENDBRANCH   5   6
ENDBRANCH   4   5
ENDBRANCH   3   4
ENDBRANCH   2   3
ENDBRANCH   1   2
BRANCH   1  13
ATOM     13  C   UNL     1      12.205  13.131   6.152  1.00  0.00     0.000 C 
BRANCH  13  14
ATOM     14  C   UNL     1      13.208  12.899   5.015  1.00  0.00     0.000 C 
BRANCH  14  15
ATOM     15  C   UNL     1      12.599  12.030   3.907  1.00  0.00     0.000 C 
BRANCH  15  16
ATOM     16  C   UNL     1      12.039  12.902   2.774  1.00  0.00     0.000 C 
BRANCH  16  17
ATOM     17  C   UNL     1      13.100  13.270   1.725  1.00  0.00     0.000 C 
BRANCH  17  18
ATOM     18  C   UNL     1      12.884  14.673   1.130  1.00  0.00     0.000 C 
BRANCH  18  19
ATOM     19  C   UNL     1      13.734  15.745   1.837  1.00  0.00     0.000 C 
BRANCH  19  20
ATOM     20  C   UNL     1      15.250  15.484   1.762  1.00  0.00     0.006 C 
BRANCH  20  21
ATOM     21  C   UNL     1      15.881  15.294   3.149  1.00  0.00     0.053 C 
BRANCH  21  22
ATOM     22  C   UNL     1      16.545  13.956   3.240  1.00  0.00     0.041 C 
ATOM     23  O   UNL     1      16.205  13.027   2.460  1.00  0.00    -0.550 OA
ATOM     24  O   UNL     1      17.487  13.715   4.231  1.00  0.00    -0.550 OA
ENDBRANCH  21  22
ENDBRANCH  20  21
ENDBRANCH  19  20
ENDBRANCH  18  19
ENDBRANCH  17  18
ENDBRANCH  16  17
ENDBRANCH  15  16
ENDBRANCH  14  15
ENDBRANCH  13  14
ENDBRANCH   1  13
TORSDOF 20
ENDMDL
MODEL 8
REMARK VINA RESULT:    -4.634      2.269      3.440
REMARK INTER + INTRA:         -13.632
REMARK INTER:                 -10.172
REMARK INTRA:                  -3.459
REMARK UNBOUND:                -3.580
REMARK SMILES CCCCCCCCCCCCCCCCCCCCCC(=O)[O-]
REMARK SMILES IDX 12 1 11 2 10 3 9 4 8 5 7 6 6 7 5 8 4 9 3 10 2 11 1 12 13 13
REMARK SMILES IDX 14 14 15 15 16 16 17 17 18 18 19 19 20 20 21 21 22 22 23 23
REMARK SMILES IDX 24 24
REMARK H PARENT
REMARK Flexibility Score: inf
ROOT
ATOM      1  C   UNL     1      11.014  14.756   5.922  1.00  0.00     0.000 C 
ENDROOT
BRANCH   1   2
ATOM      2  C   UNL     1      10.704  14.275   4.492  1.00  0.00     0.000 C 
BRANCH   2   3
ATOM      3  C   UNL     1       9.206  14.099   4.173  1.00  0.00     0.000 C 
BRANCH   3   4
ATOM      4  C   UNL     1       8.812  12.720   3.610  1.00  0.00    -0.000 C 
BRANCH   4   5
ATOM      5  C   UNL     1       9.790  11.584   3.984  1.00  0.00    -0.000 C 
BRANCH   5   6
ATOM      6  C   UNL     1       9.281  10.651   5.097  1.00  0.00    -0.000 C 
BRANCH   6   7
ATOM      7  C   UNL     1      10.018  10.859   6.432  1.00  0.00    -0.000 C 
BRANCH   7   8
ATOM      8  C   UNL     1       9.202  11.699   7.428  1.00  0.00    -0.000 C 
BRANCH   8   9
ATOM      9  C   UNL     1       7.705  11.750   7.072  1.00  0.00    -0.000 C 
BRANCH   9  10
ATOM     10  C   UNL     1       7.129  13.173   7.133  1.00  0.00    -0.000 C 
BRANCH  10  11
ATOM     11  C   UNL     1       8.064  14.157   7.852  1.00  0.00    -0.003 C 
ATOM     12  C   UNL     1       7.336  14.888   8.976  1.00  0.00     0.004 C 
ENDBRANCH  10  11
ENDBRANCH   9  10
ENDBRANCH   8   9
ENDBRANCH   7   8
ENDBRANCH   6   7
ENDBRANCH   5   6
ENDBRANCH   4   5
ENDBRANCH   3   4
ENDBRANCH   2   3
ENDBRANCH   1   2
BRANCH   1  13
ATOM     13  C   UNL     1      12.354  14.227   6.453  1.00  0.00     0.000 C 
BRANCH  13  14
ATOM     14  C   UNL     1      12.817  13.006   5.649  1.00  0.00     0.000 C 
BRANCH  14  15
ATOM     15  C   UNL     1      14.267  13.169   5.177  1.00  0.00     0.000 C 
BRANCH  15  16
ATOM     16  C   UNL     1      14.317  13.640   3.716  1.00  0.00     0.000 C 
BRANCH  16  17
ATOM     17  C   UNL     1      13.518  12.732   2.769  1.00  0.00     0.000 C 
BRANCH  17  18
ATOM     18  C   UNL     1      13.034  13.469   1.507  1.00  0.00     0.000 C 
BRANCH  18  19
ATOM     19  C   UNL     1      13.212  14.995   1.618  1.00  0.00     0.000 C 
BRANCH  19  20
ATOM     20  C   UNL     1      13.125  15.729   0.267  1.00  0.00     0.006 C 
BRANCH  20  21
ATOM     21  C   UNL     1      13.870  17.072   0.281  1.00  0.00     0.053 C 
BRANCH  21  22
ATOM     22  C   UNL     1      14.877  17.120  -0.823  1.00  0.00     0.041 C 
ATOM     23  O   UNL     1      15.698  18.073  -0.891  1.00  0.00    -0.550 OA
ATOM     24  O   UNL     1      14.864  16.151  -1.818  1.00  0.00    -0.550 OA
ENDBRANCH  21  22
ENDBRANCH  20  21
ENDBRANCH  19  20
ENDBRANCH  18  19
ENDBRANCH  17  18
ENDBRANCH  16  17
ENDBRANCH  15  16
ENDBRANCH  14  15
ENDBRANCH  13  14
ENDBRANCH   1  13
TORSDOF 20
ENDMDL
MODEL 9
REMARK VINA RESULT:    -4.618      1.459      2.222
REMARK INTER + INTRA:         -13.598
REMARK INTER:                 -10.022
REMARK INTRA:                  -3.575
REMARK UNBOUND:                -3.580
REMARK SMILES CCCCCCCCCCCCCCCCCCCCCC(=O)[O-]
REMARK SMILES IDX 12 1 11 2 10 3 9 4 8 5 7 6 6 7 5 8 4 9 3 10 2 11 1 12 13 13
REMARK SMILES IDX 14 14 15 15 16 16 17 17 18 18 19 19 20 20 21 21 22 22 23 23
REMARK SMILES IDX 24 24
REMARK H PARENT
REMARK Flexibility Score: inf
ROOT
ATOM      1  C   UNL     1      10.602  14.638   6.434  1.00  0.00     0.000 C 
ENDROOT
BRANCH   1   2
ATOM      2  C   UNL     1      12.139  14.697   6.343  1.00  0.00     0.000 C 
BRANCH   2   3
ATOM      3  C   UNL     1      12.797  13.495   5.637  1.00  0.00     0.000 C 
BRANCH   3   4
ATOM      4  C   UNL     1      11.938  12.217   5.576  1.00  0.00    -0.000 C 
BRANCH   4   5
ATOM      5  C   UNL     1      11.665  11.709   4.142  1.00  0.00    -0.000 C 
BRANCH   5   6
ATOM      6  C   UNL     1      10.284  11.058   3.953  1.00  0.00    -0.000 C 
BRANCH   6   7
ATOM      7  C   UNL     1       9.683  10.542   5.273  1.00  0.00    -0.000 C 
BRANCH   7   8
ATOM      8  C   UNL     1       8.482  11.381   5.739  1.00  0.00    -0.000 C 
BRANCH   8   9
ATOM      9  C   UNL     1       8.510  11.661   7.253  1.00  0.00    -0.000 C 
BRANCH   9  10
ATOM     10  C   UNL     1       7.167  12.187   7.783  1.00  0.00    -0.000 C 
BRANCH  10  11
ATOM     11  C   UNL     1       7.266  13.622   8.321  1.00  0.00    -0.003 C 
ATOM     12  C   UNL     1       6.538  14.604   7.408  1.00  0.00     0.004 C 
ENDBRANCH  10  11
ENDBRANCH   9  10
ENDBRANCH   8   9
ENDBRANCH   7   8
ENDBRANCH   6   7
ENDBRANCH   5   6
ENDBRANCH   4   5
ENDBRANCH   3   4
ENDBRANCH   2   3
ENDBRANCH   1   2
BRANCH   1  13
ATOM     13  C   UNL     1       9.954  16.028   6.502  1.00  0.00     0.000 C 
BRANCH  13  14
ATOM     14  C   UNL     1       8.979  16.234   5.336  1.00  0.00     0.000 C 
BRANCH  14  15
ATOM     15  C   UNL     1       8.924  14.995   4.433  1.00  0.00     0.000 C 
BRANCH  15  16
ATOM     16  C   UNL     1       9.462  15.315   3.032  1.00  0.00     0.000 C 
BRANCH  16  17
ATOM     17  C   UNL     1      10.675  14.453   2.647  1.00  0.00     0.000 C 
BRANCH  17  18
ATOM     18  C   UNL     1      11.965  15.279   2.491  1.00  0.00     0.000 C 
BRANCH  18  19
ATOM     19  C   UNL     1      13.115  14.456   1.883  1.00  0.00     0.000 C 
BRANCH  19  20
ATOM     20  C   UNL     1      14.476  14.694   2.564  1.00  0.00     0.006 C 
BRANCH  20  21
ATOM     21  C   UNL     1      15.401  13.472   2.468  1.00  0.00     0.053 C 
BRANCH  21  22
ATOM     22  C   UNL     1      16.360  13.455   3.616  1.00  0.00     0.041 C 
ATOM     23  O   UNL     1      15.950  13.209   4.781  1.00  0.00    -0.550 OA
ATOM     24  O   UNL     1      17.694  13.781   3.410  1.00  0.00    -0.550 OA
ENDBRANCH  21  22
ENDBRANCH  20  21
ENDBRANCH  19  20
ENDBRANCH  18  19
ENDBRANCH  17  18
ENDBRANCH  16  17
ENDBRANCH  15  16
ENDBRANCH  14  15
ENDBRANCH  13  14
ENDBRANCH   1  13
TORSDOF 20
ENDMDL
