MODEL 1
REMARK VINA RESULT:    -5.485      0.000      0.000
REMARK INTER + INTRA:         -15.890
REMARK INTER:                 -12.539
REMARK INTRA:                  -3.351
REMARK UNBOUND:                -3.351
REMARK SMILES CCCCCCCCCCCCCCCCCCCCCCCC(=O)[O-]
REMARK SMILES IDX 13 1 14 2 15 3 16 4 17 5 18 6 19 7 20 8 21 9 22 10 23 11
REMARK SMILES IDX 24 12 25 13 26 14 12 15 11 16 10 17 9 18 8 19 7 20 6 21 5 22
REMARK SMILES IDX 4 23 3 24 2 25 1 26
REMARK H PARENT
REMARK Flexibility Score: inf
ROOT
ATOM      1  C   UNL     1      40.534  -9.209 -42.077  1.00  0.00     0.000 C 
ENDROOT
BRANCH   1   2
ATOM      2  C   UNL     1      41.307  -8.900 -40.782  1.00  0.00     0.000 C 
BRANCH   2   3
ATOM      3  C   UNL     1      40.657  -9.536 -39.540  1.00  0.00     0.000 C 
BRANCH   3   4
ATOM      4  C   UNL     1      41.581 -10.506 -38.777  1.00  0.00     0.000 C 
BRANCH   4   5
ATOM      5  C   UNL     1      42.456  -9.787 -37.734  1.00  0.00     0.000 C 
BRANCH   5   6
ATOM      6  C   UNL     1      43.410 -10.740 -36.991  1.00  0.00     0.000 C 
BRANCH   6   7
ATOM      7  C   UNL     1      42.843 -12.144 -36.713  1.00  0.00     0.000 C 
BRANCH   7   8
ATOM      8  C   UNL     1      43.654 -12.922 -35.665  1.00  0.00     0.000 C 
BRANCH   8   9
ATOM      9  C   UNL     1      45.050 -12.309 -35.485  1.00  0.00     0.000 C 
BRANCH   9  10
ATOM     10  C   UNL     1      46.007 -13.231 -34.712  1.00  0.00     0.006 C 
BRANCH  10  11
ATOM     11  C   UNL     1      45.370 -14.582 -34.360  1.00  0.00     0.053 C 
BRANCH  11  12
ATOM     12  C   UNL     1      45.306 -14.757 -32.875  1.00  0.00     0.041 C 
ATOM     13  O   UNL     1      45.443 -13.764 -32.112  1.00  0.00    -0.550 OA
ATOM     14  O   UNL     1      45.037 -16.008 -32.334  1.00  0.00    -0.550 OA
ENDBRANCH  11  12
ENDBRANCH  10  11
ENDBRANCH   9  10
ENDBRANCH   8   9
ENDBRANCH   7   8
ENDBRANCH   6   7
ENDBRANCH   5   6
ENDBRANCH   4   5
ENDBRANCH   3   4
ENDBRANCH   2   3
ENDBRANCH   1   2
BRANCH   1  15
ATOM     15  C   UNL     1      41.272  -8.707 -43.338  1.00  0.00     0.000 C 
BRANCH  15  16
ATOM     16  C   UNL     1      40.884  -9.452 -44.629  1.00  0.00     0.000 C 
BRANCH  16  17
ATOM     17  C   UNL     1      40.228 -10.829 -44.415  1.00  0.00     0.000 C 
BRANCH  17  18
ATOM     18  C   UNL     1      41.145 -12.040 -44.682  1.00  0.00    -0.000 C 
BRANCH  18  19
ATOM     19  C   UNL     1      42.519 -11.695 -45.283  1.00  0.00    -0.000 C 
BRANCH  19  20
ATOM     20  C   UNL     1      43.686 -12.072 -44.359  1.00  0.00    -0.000 C 
BRANCH  20  21
ATOM     21  C   UNL     1      43.181 -12.425 -42.955  1.00  0.00    -0.000 C 
BRANCH  21  22
ATOM     22  C   UNL     1      43.765 -11.472 -41.900  1.00  0.00    -0.000 C 
BRANCH  22  23
ATOM     23  C   UNL     1      44.240 -12.220 -40.637  1.00  0.00    -0.000 C 
BRANCH  23  24
ATOM     24  C   UNL     1      45.372 -11.498 -39.879  1.00  0.00    -0.000 C 
BRANCH  24  25
ATOM     25  C   UNL     1      46.287 -12.419 -39.058  1.00  0.00    -0.003 C 
ATOM     26  C   UNL     1      45.693 -13.811 -38.846  1.00  0.00     0.004 C 
ENDBRANCH  24  25
ENDBRANCH  23  24
ENDBRANCH  22  23
ENDBRANCH  21  22
ENDBRANCH  20  21
ENDBRANCH  19  20
ENDBRANCH  18  19
ENDBRANCH  17  18
ENDBRANCH  16  17
ENDBRANCH  15  16
ENDBRANCH   1  15
TORSDOF 22
ENDMDL
MODEL 2
REMARK VINA RESULT:    -5.430      3.435      8.879
REMARK INTER + INTRA:         -15.764
REMARK INTER:                 -12.425
REMARK INTRA:                  -3.338
REMARK UNBOUND:                -3.351
REMARK SMILES CCCCCCCCCCCCCCCCCCCCCCCC(=O)[O-]
REMARK SMILES IDX 13 1 14 2 15 3 16 4 17 5 18 6 19 7 20 8 21 9 22 10 23 11
REMARK SMILES IDX 24 12 25 13 26 14 12 15 11 16 10 17 9 18 8 19 7 20 6 21 5 22
REMARK SMILES IDX 4 23 3 24 2 25 1 26
REMARK H PARENT
REMARK Flexibility Score: inf
ROOT
ATOM      1  C   UNL     1      45.877 -13.478 -37.468  1.00  0.00     0.000 C 
ENDROOT
BRANCH   1   2
ATOM      2  C   UNL     1      46.254 -12.932 -38.858  1.00  0.00     0.000 C 
BRANCH   2   3
ATOM      3  C   UNL     1      45.441 -11.683 -39.243  1.00  0.00     0.000 C 
BRANCH   3   4
ATOM      4  C   UNL     1      44.009 -11.668 -38.675  1.00  0.00     0.000 C 
BRANCH   4   5
ATOM      5  C   UNL     1      43.791 -10.533 -37.659  1.00  0.00     0.000 C 
BRANCH   5   6
ATOM      6  C   UNL     1      42.442  -9.812 -37.842  1.00  0.00     0.000 C 
BRANCH   6   7
ATOM      7  C   UNL     1      41.453 -10.513 -38.791  1.00  0.00     0.000 C 
BRANCH   7   8
ATOM      8  C   UNL     1      40.703  -9.534 -39.706  1.00  0.00     0.000 C 
BRANCH   8   9
ATOM      9  C   UNL     1      41.513  -9.242 -40.978  1.00  0.00     0.000 C 
BRANCH   9  10
ATOM     10  C   UNL     1      41.808 -10.509 -41.797  1.00  0.00     0.006 C 
BRANCH  10  11
ATOM     11  C   UNL     1      43.305 -10.693 -42.083  1.00  0.00     0.053 C 
BRANCH  11  12
ATOM     12  C   UNL     1      43.549 -12.014 -42.743  1.00  0.00     0.041 C 
ATOM     13  O   UNL     1      43.885 -13.015 -42.057  1.00  0.00    -0.550 OA
ATOM     14  O   UNL     1      43.352 -12.153 -44.111  1.00  0.00    -0.550 OA
ENDBRANCH  11  12
ENDBRANCH  10  11
ENDBRANCH   9  10
ENDBRANCH   8   9
ENDBRANCH   7   8
ENDBRANCH   6   7
ENDBRANCH   5   6
ENDBRANCH   4   5
ENDBRANCH   3   4
ENDBRANCH   2   3
ENDBRANCH   1   2
BRANCH   1  15
ATOM     15  C   UNL     1      47.014 -14.308 -36.832  1.00  0.00     0.000 C 
BRANCH  15  16
ATOM     16  C   UNL     1      48.017 -13.472 -36.014  1.00  0.00     0.000 C 
BRANCH  16  17
ATOM     17  C   UNL     1      47.428 -12.784 -34.768  1.00  0.00     0.000 C 
BRANCH  17  18
ATOM     18  C   UNL     1      48.075 -13.191 -33.428  1.00  0.00    -0.000 C 
BRANCH  18  19
ATOM     19  C   UNL     1      47.088 -13.656 -32.344  1.00  0.00    -0.000 C 
BRANCH  19  20
ATOM     20  C   UNL     1      46.425 -15.000 -32.678  1.00  0.00    -0.000 C 
BRANCH  20  21
ATOM     21  C   UNL     1      44.911 -14.836 -32.853  1.00  0.00    -0.000 C 
BRANCH  21  22
ATOM     22  C   UNL     1      44.395 -13.605 -32.091  1.00  0.00    -0.000 C 
BRANCH  22  23
ATOM     23  C   UNL     1      43.549 -12.676 -32.987  1.00  0.00    -0.000 C 
BRANCH  23  24
ATOM     24  C   UNL     1      43.849 -12.827 -34.492  1.00  0.00    -0.000 C 
BRANCH  24  25
ATOM     25  C   UNL     1      42.745 -13.525 -35.301  1.00  0.00    -0.003 C 
ATOM     26  C   UNL     1      41.522 -12.638 -35.524  1.00  0.00     0.004 C 
ENDBRANCH  24  25
ENDBRANCH  23  24
ENDBRANCH  22  23
ENDBRANCH  21  22
ENDBRANCH  20  21
ENDBRANCH  19  20
ENDBRANCH  18  19
ENDBRANCH  17  18
ENDBRANCH  16  17
ENDBRANCH  15  16
ENDBRANCH   1  15
TORSDOF 22
ENDMDL
MODEL 3
REMARK VINA RESULT:    -5.423      1.327      3.985
REMARK INTER + INTRA:         -15.748
REMARK INTER:                 -12.568
REMARK INTRA:                  -3.180
REMARK UNBOUND:                -3.351
REMARK SMILES CCCCCCCCCCCCCCCCCCCCCCCC(=O)[O-]
REMARK SMILES IDX 13 1 14 2 15 3 16 4 17 5 18 6 19 7 20 8 21 9 22 10 23 11
REMARK SMILES IDX 24 12 25 13 26 14 12 15 11 16 10 17 9 18 8 19 7 20 6 21 5 22
REMARK SMILES IDX 4 23 3 24 2 25 1 26
REMARK H PARENT
REMARK Flexibility Score: inf
ROOT
ATOM      1  C   UNL     1      43.874 -11.422 -42.263  1.00  0.00     0.000 C 
ENDROOT
BRANCH   1   2
ATOM      2  C   UNL     1      43.891 -12.384 -41.061  1.00  0.00     0.000 C 
BRANCH   2   3
ATOM      3  C   UNL     1      45.046 -12.092 -40.086  1.00  0.00     0.000 C 
BRANCH   3   4
ATOM      4  C   UNL     1      45.615 -13.345 -39.394  1.00  0.00     0.000 C 
BRANCH   4   5
ATOM      5  C   UNL     1      46.779 -13.014 -38.443  1.00  0.00     0.000 C 
BRANCH   5   6
ATOM      6  C   UNL     1      46.681 -13.751 -37.093  1.00  0.00     0.000 C 
BRANCH   6   7
ATOM      7  C   UNL     1      47.939 -13.664 -36.210  1.00  0.00     0.000 C 
BRANCH   7   8
ATOM      8  C   UNL     1      47.692 -12.928 -34.885  1.00  0.00     0.000 C 
BRANCH   8   9
ATOM      9  C   UNL     1      48.600 -13.478 -33.774  1.00  0.00     0.000 C 
BRANCH   9  10
ATOM     10  C   UNL     1      47.805 -14.071 -32.600  1.00  0.00     0.006 C 
BRANCH  10  11
ATOM     11  C   UNL     1      46.484 -14.713 -33.044  1.00  0.00     0.053 C 
BRANCH  11  12
ATOM     12  C   UNL     1      45.344 -14.167 -32.243  1.00  0.00     0.041 C 
ATOM     13  O   UNL     1      45.472 -13.083 -31.613  1.00  0.00    -0.550 OA
ATOM     14  O   UNL     1      44.121 -14.824 -32.238  1.00  0.00    -0.550 OA
ENDBRANCH  11  12
ENDBRANCH  10  11
ENDBRANCH   9  10
ENDBRANCH   8   9
ENDBRANCH   7   8
ENDBRANCH   6   7
ENDBRANCH   5   6
ENDBRANCH   4   5
ENDBRANCH   3   4
ENDBRANCH   2   3
ENDBRANCH   1   2
BRANCH   1  15
ATOM     15  C   UNL     1      43.107 -12.003 -43.472  1.00  0.00     0.000 C 
BRANCH  15  16
ATOM     16  C   UNL     1      41.779 -11.283 -43.775  1.00  0.00     0.000 C 
BRANCH  16  17
ATOM     17  C   UNL     1      41.619  -9.904 -43.110  1.00  0.00     0.000 C 
BRANCH  17  18
ATOM     18  C   UNL     1      40.370  -9.749 -42.217  1.00  0.00    -0.000 C 
BRANCH  18  19
ATOM     19  C   UNL     1      40.626  -9.902 -40.708  1.00  0.00    -0.000 C 
BRANCH  19  20
ATOM     20  C   UNL     1      41.744  -8.983 -40.196  1.00  0.00    -0.000 C 
BRANCH  20  21
ATOM     21  C   UNL     1      42.300  -9.488 -38.860  1.00  0.00    -0.000 C 
BRANCH  21  22
ATOM     22  C   UNL     1      41.789 -10.903 -38.546  1.00  0.00    -0.000 C 
BRANCH  22  23
ATOM     23  C   UNL     1      42.223 -11.383 -37.146  1.00  0.00    -0.000 C 
BRANCH  23  24
ATOM     24  C   UNL     1      43.694 -11.065 -36.811  1.00  0.00    -0.000 C 
BRANCH  24  25
ATOM     25  C   UNL     1      44.201 -11.674 -35.495  1.00  0.00    -0.003 C 
ATOM     26  C   UNL     1      43.646 -13.073 -35.235  1.00  0.00     0.004 C 
ENDBRANCH  24  25
ENDBRANCH  23  24
ENDBRANCH  22  23
ENDBRANCH  21  22
ENDBRANCH  20  21
ENDBRANCH  19  20
ENDBRANCH  18  19
ENDBRANCH  17  18
ENDBRANCH  16  17
ENDBRANCH  15  16
ENDBRANCH   1  15
TORSDOF 22
ENDMDL
MODEL 4
REMARK VINA RESULT:    -5.386      4.032      9.425
REMARK INTER + INTRA:         -15.664
REMARK INTER:                 -12.624
REMARK INTRA:                  -3.040
REMARK UNBOUND:                -3.351
REMARK SMILES CCCCCCCCCCCCCCCCCCCCCCCC(=O)[O-]
REMARK SMILES IDX 13 1 14 2 15 3 16 4 17 5 18 6 19 7 20 8 21 9 22 10 23 11
REMARK SMILES IDX 24 12 25 13 26 14 12 15 11 16 10 17 9 18 8 19 7 20 6 21 5 22
REMARK SMILES IDX 4 23 3 24 2 25 1 26
REMARK H PARENT
REMARK Flexibility Score: inf
ROOT
ATOM      1  C   UNL     1      46.169 -13.668 -37.657  1.00  0.00     0.000 C 
ENDROOT
BRANCH   1   2
ATOM      2  C   UNL     1      47.115 -12.905 -38.602  1.00  0.00     0.000 C 
BRANCH   2   3
ATOM      3  C   UNL     1      46.358 -11.994 -39.586  1.00  0.00     0.000 C 
BRANCH   3   4
ATOM      4  C   UNL     1      44.833 -12.210 -39.593  1.00  0.00     0.000 C 
BRANCH   4   5
ATOM      5  C   UNL     1      44.216 -11.997 -40.987  1.00  0.00     0.000 C 
BRANCH   5   6
ATOM      6  C   UNL     1      42.891 -11.212 -40.945  1.00  0.00     0.000 C 
BRANCH   6   7
ATOM      7  C   UNL     1      42.831 -10.092 -39.890  1.00  0.00     0.000 C 
BRANCH   7   8
ATOM      8  C   UNL     1      41.524  -9.287 -39.944  1.00  0.00     0.000 C 
BRANCH   8   9
ATOM      9  C   UNL     1      41.589  -8.206 -41.033  1.00  0.00     0.000 C 
BRANCH   9  10
ATOM     10  C   UNL     1      40.375  -8.240 -41.975  1.00  0.00     0.006 C 
BRANCH  10  11
ATOM     11  C   UNL     1      40.759  -8.577 -43.423  1.00  0.00     0.053 C 
BRANCH  11  12
ATOM     12  C   UNL     1      40.105  -9.853 -43.851  1.00  0.00     0.041 C 
ATOM     13  O   UNL     1      40.183 -10.881 -43.128  1.00  0.00    -0.550 OA
ATOM     14  O   UNL     1      39.361  -9.892 -45.024  1.00  0.00    -0.550 OA
ENDBRANCH  11  12
ENDBRANCH  10  11
ENDBRANCH   9  10
ENDBRANCH   8   9
ENDBRANCH   7   8
ENDBRANCH   6   7
ENDBRANCH   5   6
ENDBRANCH   4   5
ENDBRANCH   3   4
ENDBRANCH   2   3
ENDBRANCH   1   2
BRANCH   1  15
ATOM     15  C   UNL     1      46.933 -14.554 -36.647  1.00  0.00     0.000 C 
BRANCH  15  16
ATOM     16  C   UNL     1      47.983 -13.791 -35.816  1.00  0.00     0.000 C 
BRANCH  16  17
ATOM     17  C   UNL     1      47.439 -13.099 -34.554  1.00  0.00     0.000 C 
BRANCH  17  18
ATOM     18  C   UNL     1      47.583 -13.910 -33.249  1.00  0.00    -0.000 C 
BRANCH  18  19
ATOM     19  C   UNL     1      46.256 -14.323 -32.589  1.00  0.00    -0.000 C 
BRANCH  19  20
ATOM     20  C   UNL     1      45.371 -15.175 -33.511  1.00  0.00    -0.000 C 
BRANCH  20  21
ATOM     21  C   UNL     1      44.014 -14.501 -33.743  1.00  0.00    -0.000 C 
BRANCH  21  22
ATOM     22  C   UNL     1      43.937 -13.146 -33.022  1.00  0.00    -0.000 C 
BRANCH  22  23
ATOM     23  C   UNL     1      43.373 -12.033 -33.930  1.00  0.00    -0.000 C 
BRANCH  23  24
ATOM     24  C   UNL     1      44.139 -11.871 -35.258  1.00  0.00    -0.000 C 
BRANCH  24  25
ATOM     25  C   UNL     1      43.332 -11.220 -36.392  1.00  0.00    -0.003 C 
ATOM     26  C   UNL     1      42.098 -12.031 -36.784  1.00  0.00     0.004 C 
ENDBRANCH  24  25
ENDBRANCH  23  24
ENDBRANCH  22  23
ENDBRANCH  21  22
ENDBRANCH  20  21
ENDBRANCH  19  20
ENDBRANCH  18  19
ENDBRANCH  17  18
ENDBRANCH  16  17
ENDBRANCH  15  16
ENDBRANCH   1  15
TORSDOF 22
ENDMDL
MODEL 5
REMARK VINA RESULT:    -5.371      3.864      8.973
REMARK INTER + INTRA:         -15.629
REMARK INTER:                 -12.669
REMARK INTRA:                  -2.960
REMARK UNBOUND:                -3.351
REMARK SMILES CCCCCCCCCCCCCCCCCCCCCCCC(=O)[O-]
REMARK SMILES IDX 13 1 14 2 15 3 16 4 17 5 18 6 19 7 20 8 21 9 22 10 23 11
REMARK SMILES IDX 24 12 25 13 26 14 12 15 11 16 10 17 9 18 8 19 7 20 6 21 5 22
REMARK SMILES IDX 4 23 3 24 2 25 1 26
REMARK H PARENT
REMARK Flexibility Score: inf
ROOT
ATOM      1  C   UNL     1      42.466 -12.903 -35.709  1.00  0.00     0.000 C 
ENDROOT
BRANCH   1   2
ATOM      2  C   UNL     1      41.788 -12.002 -36.757  1.00  0.00     0.000 C 
BRANCH   2   3
ATOM      3  C   UNL     1      42.803 -11.274 -37.656  1.00  0.00     0.000 C 
BRANCH   3   4
ATOM      4  C   UNL     1      42.696 -11.643 -39.149  1.00  0.00     0.000 C 
BRANCH   4   5
ATOM      5  C   UNL     1      43.516 -10.699 -40.047  1.00  0.00     0.000 C 
BRANCH   5   6
ATOM      6  C   UNL     1      42.639  -9.704 -40.831  1.00  0.00     0.000 C 
BRANCH   6   7
ATOM      7  C   UNL     1      41.121  -9.918 -40.687  1.00  0.00     0.000 C 
BRANCH   7   8
ATOM      8  C   UNL     1      40.435 -10.263 -42.017  1.00  0.00     0.000 C 
BRANCH   8   9
ATOM      9  C   UNL     1      40.771  -9.221 -43.094  1.00  0.00     0.000 C 
BRANCH   9  10
ATOM     10  C   UNL     1      40.999  -9.852 -44.477  1.00  0.00     0.006 C 
BRANCH  10  11
ATOM     11  C   UNL     1      41.019 -11.386 -44.431  1.00  0.00     0.053 C 
BRANCH  11  12
ATOM     12  C   UNL     1      42.405 -11.896 -44.675  1.00  0.00     0.041 C 
ATOM     13  O   UNL     1      42.842 -12.011 -45.851  1.00  0.00    -0.550 OA
ATOM     14  O   UNL     1      43.235 -12.190 -43.601  1.00  0.00    -0.550 OA
ENDBRANCH  11  12
ENDBRANCH  10  11
ENDBRANCH   9  10
ENDBRANCH   8   9
ENDBRANCH   7   8
ENDBRANCH   6   7
ENDBRANCH   5   6
ENDBRANCH   4   5
ENDBRANCH   3   4
ENDBRANCH   2   3
ENDBRANCH   1   2
BRANCH   1  15
ATOM     15  C   UNL     1      42.988 -12.103 -34.494  1.00  0.00     0.000 C 
BRANCH  15  16
ATOM     16  C   UNL     1      44.027 -12.860 -33.646  1.00  0.00     0.000 C 
BRANCH  16  17
ATOM     17  C   UNL     1      44.115 -14.373 -33.920  1.00  0.00     0.000 C 
BRANCH  17  18
ATOM     18  C   UNL     1      45.386 -15.063 -33.382  1.00  0.00    -0.000 C 
BRANCH  18  19
ATOM     19  C   UNL     1      46.380 -14.130 -32.669  1.00  0.00    -0.000 C 
BRANCH  19  20
ATOM     20  C   UNL     1      47.718 -14.005 -33.411  1.00  0.00    -0.000 C 
BRANCH  20  21
ATOM     21  C   UNL     1      47.602 -13.032 -34.590  1.00  0.00    -0.000 C 
BRANCH  21  22
ATOM     22  C   UNL     1      48.166 -13.653 -35.878  1.00  0.00    -0.000 C 
BRANCH  22  23
ATOM     23  C   UNL     1      47.096 -14.436 -36.667  1.00  0.00    -0.000 C 
BRANCH  23  24
ATOM     24  C   UNL     1      45.935 -13.557 -37.172  1.00  0.00    -0.000 C 
BRANCH  24  25
ATOM     25  C   UNL     1      45.844 -13.426 -38.701  1.00  0.00    -0.003 C 
ATOM     26  C   UNL     1      46.900 -12.485 -39.279  1.00  0.00     0.004 C 
ENDBRANCH  24  25
ENDBRANCH  23  24
ENDBRANCH  22  23
ENDBRANCH  21  22
ENDBRANCH  20  21
ENDBRANCH  19  20
ENDBRANCH  18  19
ENDBRANCH  17  18
ENDBRANCH  16  17
ENDBRANCH  15  16
ENDBRANCH   1  15
TORSDOF 22
ENDMDL
MODEL 6
REMARK VINA RESULT:    -5.250      2.026      6.214
REMARK INTER + INTRA:         -15.353
REMARK INTER:                 -12.465
REMARK INTRA:                  -2.887
REMARK UNBOUND:                -3.351
REMARK SMILES CCCCCCCCCCCCCCCCCCCCCCCC(=O)[O-]
REMARK SMILES IDX 13 1 14 2 15 3 16 4 17 5 18 6 19 7 20 8 21 9 22 10 23 11
REMARK SMILES IDX 24 12 25 13 26 14 12 15 11 16 10 17 9 18 8 19 7 20 6 21 5 22
REMARK SMILES IDX 4 23 3 24 2 25 1 26
REMARK H PARENT
REMARK Flexibility Score: inf
ROOT
ATOM      1  C   UNL     1      45.621 -13.790 -37.935  1.00  0.00     0.000 C 
ENDROOT
BRANCH   1   2
ATOM      2  C   UNL     1      46.121 -14.133 -36.519  1.00  0.00     0.000 C 
BRANCH   2   3
ATOM      3  C   UNL     1      47.656 -14.210 -36.437  1.00  0.00     0.000 C 
BRANCH   3   4
ATOM      4  C   UNL     1      48.277 -13.250 -35.404  1.00  0.00     0.000 C 
BRANCH   4   5
ATOM      5  C   UNL     1      47.465 -13.189 -34.096  1.00  0.00     0.000 C 
BRANCH   5   6
ATOM      6  C   UNL     1      47.853 -14.295 -33.097  1.00  0.00     0.000 C 
BRANCH   6   7
ATOM      7  C   UNL     1      46.682 -14.881 -32.287  1.00  0.00     0.000 C 
BRANCH   7   8
ATOM      8  C   UNL     1      45.373 -14.951 -33.089  1.00  0.00     0.000 C 
BRANCH   8   9
ATOM      9  C   UNL     1      44.264 -14.139 -32.403  1.00  0.00     0.000 C 
BRANCH   9  10
ATOM     10  C   UNL     1      43.792 -12.947 -33.251  1.00  0.00     0.006 C 
BRANCH  10  11
ATOM     11  C   UNL     1      43.070 -13.383 -34.533  1.00  0.00     0.053 C 
BRANCH  11  12
ATOM     12  C   UNL     1      42.997 -12.245 -35.502  1.00  0.00     0.041 C 
ATOM     13  O   UNL     1      43.948 -11.423 -35.589  1.00  0.00    -0.550 OA
ATOM     14  O   UNL     1      41.903 -12.123 -36.349  1.00  0.00    -0.550 OA
ENDBRANCH  11  12
ENDBRANCH  10  11
ENDBRANCH   9  10
ENDBRANCH   8   9
ENDBRANCH   7   8
ENDBRANCH   6   7
ENDBRANCH   5   6
ENDBRANCH   4   5
ENDBRANCH   3   4
ENDBRANCH   2   3
ENDBRANCH   1   2
BRANCH   1  15
ATOM     15  C   UNL     1      46.659 -12.981 -38.745  1.00  0.00     0.000 C 
BRANCH  15  16
ATOM     16  C   UNL     1      46.043 -11.868 -39.614  1.00  0.00     0.000 C 
BRANCH  16  17
ATOM     17  C   UNL     1      44.772 -12.270 -40.385  1.00  0.00     0.000 C 
BRANCH  17  18
ATOM     18  C   UNL     1      43.498 -11.491 -39.997  1.00  0.00    -0.000 C 
BRANCH  18  19
ATOM     19  C   UNL     1      43.716 -10.348 -38.990  1.00  0.00    -0.000 C 
BRANCH  19  20
ATOM     20  C   UNL     1      42.466  -9.476 -38.799  1.00  0.00    -0.000 C 
BRANCH  20  21
ATOM     21  C   UNL     1      41.217 -10.184 -39.333  1.00  0.00    -0.000 C 
BRANCH  21  22
ATOM     22  C   UNL     1      40.437  -9.279 -40.300  1.00  0.00    -0.000 C 
BRANCH  22  23
ATOM     23  C   UNL     1      41.348  -8.651 -41.375  1.00  0.00    -0.000 C 
BRANCH  23  24
ATOM     24  C   UNL     1      41.098  -9.199 -42.794  1.00  0.00    -0.000 C 
BRANCH  24  25
ATOM     25  C   UNL     1      41.600 -10.633 -43.028  1.00  0.00    -0.003 C 
ATOM     26  C   UNL     1      41.366 -11.117 -44.458  1.00  0.00     0.004 C 
ENDBRANCH  24  25
ENDBRANCH  23  24
ENDBRANCH  22  23
ENDBRANCH  21  22
ENDBRANCH  20  21
ENDBRANCH  19  20
ENDBRANCH  18  19
ENDBRANCH  17  18
ENDBRANCH  16  17
ENDBRANCH  15  16
ENDBRANCH   1  15
TORSDOF 22
ENDMDL
MODEL 7
REMARK VINA RESULT:    -5.239      1.520      3.757
REMARK INTER + INTRA:         -15.329
REMARK INTER:                 -12.212
REMARK INTRA:                  -3.117
REMARK UNBOUND:                -3.351
REMARK SMILES CCCCCCCCCCCCCCCCCCCCCCCC(=O)[O-]
REMARK SMILES IDX 13 1 14 2 15 3 16 4 17 5 18 6 19 7 20 8 21 9 22 10 23 11
REMARK SMILES IDX 24 12 25 13 26 14 12 15 11 16 10 17 9 18 8 19 7 20 6 21 5 22
REMARK SMILES IDX 4 23 3 24 2 25 1 26
REMARK H PARENT
REMARK Flexibility Score: inf
ROOT
ATOM      1  C   UNL     1      43.935 -12.435 -41.010  1.00  0.00     0.000 C 
ENDROOT
BRANCH   1   2
ATOM      2  C   UNL     1      44.883 -11.773 -39.994  1.00  0.00     0.000 C 
BRANCH   2   3
ATOM      3  C   UNL     1      44.560 -12.166 -38.541  1.00  0.00     0.000 C 
BRANCH   3   4
ATOM      4  C   UNL     1      44.580 -10.983 -37.553  1.00  0.00     0.000 C 
BRANCH   4   5
ATOM      5  C   UNL     1      43.698 -11.235 -36.317  1.00  0.00     0.000 C 
BRANCH   5   6
ATOM      6  C   UNL     1      42.952 -12.582 -36.375  1.00  0.00     0.000 C 
BRANCH   6   7
ATOM      7  C   UNL     1      42.524 -13.150 -35.010  1.00  0.00     0.000 C 
BRANCH   7   8
ATOM      8  C   UNL     1      43.301 -12.537 -33.835  1.00  0.00     0.000 C 
BRANCH   8   9
ATOM      9  C   UNL     1      43.862 -13.632 -32.916  1.00  0.00     0.000 C 
BRANCH   9  10
ATOM     10  C   UNL     1      45.398 -13.683 -32.925  1.00  0.00     0.006 C 
BRANCH  10  11
ATOM     11  C   UNL     1      45.952 -14.638 -33.991  1.00  0.00     0.053 C 
BRANCH  11  12
ATOM     12  C   UNL     1      46.308 -13.882 -35.233  1.00  0.00     0.041 C 
ATOM     13  O   UNL     1      46.805 -12.727 -35.153  1.00  0.00    -0.550 OA
ATOM     14  O   UNL     1      46.145 -14.476 -36.478  1.00  0.00    -0.550 OA
ENDBRANCH  11  12
ENDBRANCH  10  11
ENDBRANCH   9  10
ENDBRANCH   8   9
ENDBRANCH   7   8
ENDBRANCH   6   7
ENDBRANCH   5   6
ENDBRANCH   4   5
ENDBRANCH   3   4
ENDBRANCH   2   3
ENDBRANCH   1   2
BRANCH   1  15
ATOM     15  C   UNL     1      43.769 -11.594 -42.296  1.00  0.00     0.000 C 
BRANCH  15  16
ATOM     16  C   UNL     1      43.170 -12.374 -43.481  1.00  0.00     0.000 C 
BRANCH  16  17
ATOM     17  C   UNL     1      42.269 -11.547 -44.416  1.00  0.00     0.000 C 
BRANCH  17  18
ATOM     18  C   UNL     1      40.754 -11.678 -44.151  1.00  0.00    -0.000 C 
BRANCH  18  19
ATOM     19  C   UNL     1      39.902 -10.500 -44.654  1.00  0.00    -0.000 C 
BRANCH  19  20
ATOM     20  C   UNL     1      40.627  -9.150 -44.546  1.00  0.00    -0.000 C 
BRANCH  20  21
ATOM     21  C   UNL     1      40.124  -8.354 -43.336  1.00  0.00    -0.000 C 
BRANCH  21  22
ATOM     22  C   UNL     1      41.294  -7.875 -42.463  1.00  0.00    -0.000 C 
BRANCH  22  23
ATOM     23  C   UNL     1      41.889  -9.014 -41.608  1.00  0.00    -0.000 C 
BRANCH  23  24
ATOM     24  C   UNL     1      40.871  -9.665 -40.651  1.00  0.00    -0.000 C 
BRANCH  24  25
ATOM     25  C   UNL     1      41.431 -10.029 -39.267  1.00  0.00    -0.003 C 
ATOM     26  C   UNL     1      42.006  -8.824 -38.523  1.00  0.00     0.004 C 
ENDBRANCH  24  25
ENDBRANCH  23  24
ENDBRANCH  22  23
ENDBRANCH  21  22
ENDBRANCH  20  21
ENDBRANCH  19  20
ENDBRANCH  18  19
ENDBRANCH  17  18
ENDBRANCH  16  17
ENDBRANCH  15  16
ENDBRANCH   1  15
TORSDOF 22
ENDMDL
MODEL 8
REMARK VINA RESULT:    -5.171      1.662      4.236
REMARK INTER + INTRA:         -15.173
REMARK INTER:                 -12.368
REMARK INTRA:                  -2.805
REMARK UNBOUND:                -3.351
REMARK SMILES CCCCCCCCCCCCCCCCCCCCCCCC(=O)[O-]
REMARK SMILES IDX 13 1 14 2 15 3 16 4 17 5 18 6 19 7 20 8 21 9 22 10 23 11
REMARK SMILES IDX 24 12 25 13 26 14 12 15 11 16 10 17 9 18 8 19 7 20 6 21 5 22
REMARK SMILES IDX 4 23 3 24 2 25 1 26
REMARK H PARENT
REMARK Flexibility Score: inf
ROOT
ATOM      1  C   UNL     1      44.305 -12.613 -40.663  1.00  0.00     0.000 C 
ENDROOT
BRANCH   1   2
ATOM      2  C   UNL     1      45.470 -12.017 -39.853  1.00  0.00     0.000 C 
BRANCH   2   3
ATOM      3  C   UNL     1      45.545 -12.582 -38.423  1.00  0.00     0.000 C 
BRANCH   3   4
ATOM      4  C   UNL     1      46.004 -14.052 -38.353  1.00  0.00     0.000 C 
BRANCH   4   5
ATOM      5  C   UNL     1      46.649 -14.402 -37.000  1.00  0.00     0.000 C 
BRANCH   5   6
ATOM      6  C   UNL     1      47.100 -13.159 -36.210  1.00  0.00     0.000 C 
BRANCH   6   7
ATOM      7  C   UNL     1      47.229 -13.365 -34.689  1.00  0.00     0.000 C 
BRANCH   7   8
ATOM      8  C   UNL     1      46.265 -14.429 -34.144  1.00  0.00     0.000 C 
BRANCH   8   9
ATOM      9  C   UNL     1      45.645 -13.979 -32.813  1.00  0.00     0.000 C 
BRANCH   9  10
ATOM     10  C   UNL     1      44.114 -13.852 -32.885  1.00  0.00     0.006 C 
BRANCH  10  11
ATOM     11  C   UNL     1      43.659 -12.698 -33.790  1.00  0.00     0.053 C 
BRANCH  11  12
ATOM     12  C   UNL     1      42.782 -13.213 -34.888  1.00  0.00     0.041 C 
ATOM     13  O   UNL     1      41.546 -12.968 -34.881  1.00  0.00    -0.550 OA
ATOM     14  O   UNL     1      43.338 -13.915 -35.949  1.00  0.00    -0.550 OA
ENDBRANCH  11  12
ENDBRANCH  10  11
ENDBRANCH   9  10
ENDBRANCH   8   9
ENDBRANCH   7   8
ENDBRANCH   6   7
ENDBRANCH   5   6
ENDBRANCH   4   5
ENDBRANCH   3   4
ENDBRANCH   2   3
ENDBRANCH   1   2
BRANCH   1  15
ATOM     15  C   UNL     1      43.870 -11.698 -41.830  1.00  0.00     0.000 C 
BRANCH  15  16
ATOM     16  C   UNL     1      43.503 -12.459 -43.119  1.00  0.00     0.000 C 
BRANCH  16  17
ATOM     17  C   UNL     1      42.814 -11.610 -44.203  1.00  0.00     0.000 C 
BRANCH  17  18
ATOM     18  C   UNL     1      41.324 -11.933 -44.438  1.00  0.00    -0.000 C 
BRANCH  18  19
ATOM     19  C   UNL     1      40.341 -10.845 -43.970  1.00  0.00    -0.000 C 
BRANCH  19  20
ATOM     20  C   UNL     1      40.983  -9.836 -43.005  1.00  0.00    -0.000 C 
BRANCH  20  21
ATOM     21  C   UNL     1      40.458 -10.033 -41.579  1.00  0.00    -0.000 C 
BRANCH  21  22
ATOM     22  C   UNL     1      40.983  -8.935 -40.639  1.00  0.00    -0.000 C 
BRANCH  22  23
ATOM     23  C   UNL     1      42.332  -9.314 -39.994  1.00  0.00    -0.000 C 
BRANCH  23  24
ATOM     24  C   UNL     1      42.437  -8.927 -38.506  1.00  0.00    -0.000 C 
BRANCH  24  25
ATOM     25  C   UNL     1      42.630 -10.111 -37.545  1.00  0.00    -0.003 C 
ATOM     26  C   UNL     1      41.899 -11.372 -38.003  1.00  0.00     0.004 C 
ENDBRANCH  24  25
ENDBRANCH  23  24
ENDBRANCH  22  23
ENDBRANCH  21  22
ENDBRANCH  20  21
ENDBRANCH  19  20
ENDBRANCH  18  19
ENDBRANCH  17  18
ENDBRANCH  16  17
ENDBRANCH  15  16
ENDBRANCH   1  15
TORSDOF 22
ENDMDL
MODEL 9
REMARK VINA RESULT:    -5.148      2.195      6.096
REMARK INTER + INTRA:         -15.119
REMARK INTER:                 -12.069
REMARK INTRA:                  -3.050
REMARK UNBOUND:                -3.351
REMARK SMILES CCCCCCCCCCCCCCCCCCCCCCCC(=O)[O-]
REMARK SMILES IDX 13 1 14 2 15 3 16 4 17 5 18 6 19 7 20 8 21 9 22 10 23 11
REMARK SMILES IDX 24 12 25 13 26 14 12 15 11 16 10 17 9 18 8 19 7 20 6 21 5 22
REMARK SMILES IDX 4 23 3 24 2 25 1 26
REMARK H PARENT
REMARK Flexibility Score: inf
ROOT
ATOM      1  C   UNL     1      45.362 -13.084 -35.726  1.00  0.00     0.000 C 
ENDROOT
BRANCH   1   2
ATOM      2  C   UNL     1      46.164 -14.385 -35.909  1.00  0.00     0.000 C 
BRANCH   2   3
ATOM      3  C   UNL     1      47.602 -14.130 -36.397  1.00  0.00     0.000 C 
BRANCH   3   4
ATOM      4  C   UNL     1      48.463 -13.319 -35.410  1.00  0.00     0.000 C 
BRANCH   4   5
ATOM      5  C   UNL     1      48.812 -14.118 -34.141  1.00  0.00     0.000 C 
BRANCH   5   6
ATOM      6  C   UNL     1      49.031 -13.221 -32.908  1.00  0.00     0.000 C 
BRANCH   6   7
ATOM      7  C   UNL     1      47.803 -13.058 -31.994  1.00  0.00     0.000 C 
BRANCH   7   8
ATOM      8  C   UNL     1      46.737 -14.140 -32.223  1.00  0.00     0.000 C 
BRANCH   8   9
ATOM      9  C   UNL     1      45.329 -13.526 -32.251  1.00  0.00     0.000 C 
BRANCH   9  10
ATOM     10  C   UNL     1      44.222 -14.587 -32.355  1.00  0.00     0.006 C 
BRANCH  10  11
ATOM     11  C   UNL     1      44.772 -15.988 -32.660  1.00  0.00     0.053 C 
BRANCH  11  12
ATOM     12  C   UNL     1      43.797 -16.760 -33.492  1.00  0.00     0.041 C 
ATOM     13  O   UNL     1      43.410 -17.900 -33.123  1.00  0.00    -0.550 OA
ATOM     14  O   UNL     1      43.272 -16.196 -34.648  1.00  0.00    -0.550 OA
ENDBRANCH  11  12
ENDBRANCH  10  11
ENDBRANCH   9  10
ENDBRANCH   8   9
ENDBRANCH   7   8
ENDBRANCH   6   7
ENDBRANCH   5   6
ENDBRANCH   4   5
ENDBRANCH   3   4
ENDBRANCH   2   3
ENDBRANCH   1   2
BRANCH   1  15
ATOM     15  C   UNL     1      43.868 -13.259 -36.078  1.00  0.00     0.000 C 
BRANCH  15  16
ATOM     16  C   UNL     1      43.031 -11.976 -35.911  1.00  0.00     0.000 C 
BRANCH  16  17
ATOM     17  C   UNL     1      43.397 -10.830 -36.871  1.00  0.00     0.000 C 
BRANCH  17  18
ATOM     18  C   UNL     1      42.198 -10.142 -37.557  1.00  0.00    -0.000 C 
BRANCH  18  19
ATOM     19  C   UNL     1      42.569  -9.020 -38.542  1.00  0.00    -0.000 C 
BRANCH  19  20
ATOM     20  C   UNL     1      41.603  -8.928 -39.733  1.00  0.00    -0.000 C 
BRANCH  20  21
ATOM     21  C   UNL     1      42.294  -9.357 -41.032  1.00  0.00    -0.000 C 
BRANCH  21  22
ATOM     22  C   UNL     1      42.269 -10.885 -41.195  1.00  0.00    -0.000 C 
BRANCH  22  23
ATOM     23  C   UNL     1      43.679 -11.472 -41.418  1.00  0.00    -0.000 C 
BRANCH  23  24
ATOM     24  C   UNL     1      44.548 -11.493 -40.145  1.00  0.00    -0.000 C 
BRANCH  24  25
ATOM     25  C   UNL     1      45.380 -12.771 -39.955  1.00  0.00    -0.003 C 
ATOM     26  C   UNL     1      46.802 -12.487 -39.473  1.00  0.00     0.004 C 
ENDBRANCH  24  25
ENDBRANCH  23  24
ENDBRANCH  22  23
ENDBRANCH  21  22
ENDBRANCH  20  21
ENDBRANCH  19  20
ENDBRANCH  18  19
ENDBRANCH  17  18
ENDBRANCH  16  17
ENDBRANCH  15  16
ENDBRANCH   1  15
TORSDOF 22
ENDMDL
