MODEL 1
REMARK VINA RESULT:     9.104      0.000      0.000
REMARK INTER + INTRA:          10.717
REMARK INTER:                   9.902
REMARK INTRA:                   0.815
REMARK UNBOUND:                 0.815
REMARK SMILES C[C@@H]1[C@@H](C)CC[C@]2(C(=O)[O-])CC[C@]3(C)C(=CC[C@@H]4[C@]5(C)CC[C@@H](O)C(C)(C)[C@@H]5CC[C@@]43C)[C@@H]12
REMARK SMILES IDX 7 1 6 2 11 3 33 4 5 5 12 6 15 7 2 8 3 9 13 10 16 11 1 12
REMARK SMILES IDX 4 13 14 14 31 15 17 16 18 17 30 18 32 19 19 20 29 21 28 22
REMARK SMILES IDX 21 23 20 24 25 25 22 26 23 27 26 28 27 29 8 30 9 31 10 32
REMARK SMILES IDX 24 33
REMARK H PARENT 24 34
REMARK Flexibility Score: inf
ROOT
ATOM      1  C   UNL     1     -25.859  34.981  20.312  1.00  0.00     0.017 C 
ATOM      2  C   UNL     1     -25.360  34.658  21.744  1.00  0.00     0.014 C 
ATOM      3  C   UNL     1     -26.938  33.902  19.936  1.00  0.00     0.014 C 
ATOM      4  C   UNL     1     -24.647  34.922  19.341  1.00  0.00     0.030 C 
ATOM      5  C   UNL     1     -24.400  35.693  22.362  1.00  0.00     0.004 C 
ATOM      6  C   UNL     1     -26.775  33.177  18.583  1.00  0.00     0.013 C 
ATOM      7  C   UNL     1     -25.163  35.030  17.917  1.00  0.00    -0.063 C 
ATOM      8  C   UNL     1     -23.485  35.899  19.782  1.00  0.00    -0.003 C 
ATOM      9  C   UNL     1     -23.383  36.307  21.319  1.00  0.00    -0.011 C 
ATOM     10  C   UNL     1     -26.089  33.952  17.383  1.00  0.00    -0.006 C 
ATOM     11  C   UNL     1     -24.642  35.877  17.026  1.00  0.00    -0.027 C 
ATOM     12  C   UNL     1     -22.130  35.407  19.247  1.00  0.00     0.008 C 
ATOM     13  C   UNL     1     -23.249  37.854  21.456  1.00  0.00     0.008 C 
ATOM     14  C   UNL     1     -25.144  32.900  16.703  1.00  0.00     0.017 C 
ATOM     15  C   UNL     1     -27.188  34.542  16.334  1.00  0.00    -0.020 C 
ATOM     16  C   UNL     1     -25.495  36.523  15.993  1.00  0.00     0.032 C 
ATOM     17  C   UNL     1     -26.557  35.603  15.337  1.00  0.00     0.006 C 
ATOM     18  C   UNL     1     -28.452  35.123  17.076  1.00  0.00     0.008 C 
ATOM     19  C   UNL     1     -27.693  33.361  15.429  1.00  0.00     0.012 C 
ATOM     20  C   UNL     1     -27.639  36.366  14.386  1.00  0.00    -0.025 C 
ATOM     21  C   UNL     1     -28.864  36.519  16.655  1.00  0.00     0.005 C 
ATOM     22  C   UNL     1     -29.045  36.566  15.129  1.00  0.00     0.003 C 
ATOM     23  C   UNL     1     -27.079  37.733  13.867  1.00  0.00     0.010 C 
ATOM     24  C   UNL     1     -27.879  35.450  13.116  1.00  0.00     0.012 C 
ATOM     25  C   UNL     1     -29.852  37.859  14.679  1.00  0.00    -0.006 C 
ATOM     26  C   UNL     1     -27.457  38.949  14.735  1.00  0.00     0.033 C 
ATOM     27  C   UNL     1     -28.977  39.167  14.780  1.00  0.00     0.120 C 
ATOM     28  C   UNL     1     -31.123  38.071  15.540  1.00  0.00     0.014 C 
ATOM     29  C   UNL     1     -30.376  37.592  13.231  1.00  0.00     0.014 C 
ENDROOT
BRANCH   1  30
ATOM     30  C   UNL     1     -26.517  36.374  20.242  1.00  0.00     0.048 C 
ATOM     31  O   UNL     1     -25.866  37.400  19.914  1.00  0.00    -0.550 OA
ATOM     32  O   UNL     1     -27.900  36.503  20.286  1.00  0.00    -0.550 OA
ENDBRANCH   1  30
BRANCH  27  33
ATOM     33  O   UNL     1     -29.374  40.124  13.824  1.00  0.00    -0.393 OA
ATOM     34  H   UNL     1     -30.279  39.859  13.503  1.00  0.00     0.210 HD
ENDBRANCH  27  33
TORSDOF 2
ENDMDL
