MODEL 1
REMARK VINA RESULT:    -6.255      0.000      0.000
REMARK INTER + INTRA:          -7.507
REMARK INTER:                  -7.352
REMARK INTRA:                  -0.155
REMARK UNBOUND:                -0.155
REMARK SMILES O=c1c(O)c(-c2ccc(O)cc2)oc2cc(O)cc(O)c12
REMARK SMILES IDX 5 1 3 2 2 3 1 4 21 5 19 6 18 7 16 8 15 9 14 10 13 11 6 12
REMARK SMILES IDX 7 13 8 14 9 15 12 16 11 17 10 18 4 20 20 22 17 24
REMARK H PARENT 10 19 4 21 20 23 17 25
REMARK Flexibility Score: inf
ROOT
ATOM      1  C   UNL     1     -16.756  -1.501 -16.725  1.00  0.00     0.180 A 
ATOM      2  C   UNL     1     -17.790  -2.427 -16.952  1.00  0.00     0.208 A 
ATOM      3  C   UNL     1     -17.460  -3.768 -17.206  1.00  0.00     0.238 A 
ATOM      4  O   UNL     1     -18.391  -4.602 -17.354  1.00  0.00    -0.285 OA
ATOM      5  C   UNL     1     -16.101  -4.163 -17.247  1.00  0.00     0.111 A 
ATOM      6  C   UNL     1     -15.650  -5.487 -17.537  1.00  0.00     0.134 A 
ATOM      7  C   UNL     1     -14.289  -5.793 -17.422  1.00  0.00     0.093 A 
ATOM      8  C   UNL     1     -13.354  -4.808 -17.092  1.00  0.00     0.123 A 
ATOM      9  C   UNL     1     -13.777  -3.501 -16.867  1.00  0.00     0.094 A 
ATOM     10  C   UNL     1     -15.133  -3.173 -16.938  1.00  0.00     0.146 A 
ATOM     11  O   UNL     1     -15.495  -1.916 -16.705  1.00  0.00    -0.452 OA
ENDROOT
BRANCH   1  12
ATOM     12  C   UNL     1     -17.023  -0.067 -16.475  1.00  0.00     0.021 A 
ATOM     13  C   UNL     1     -16.630   0.923 -17.395  1.00  0.00     0.016 A 
ATOM     14  C   UNL     1     -16.872   2.273 -17.127  1.00  0.00     0.047 A 
ATOM     15  C   UNL     1     -17.495   2.654 -15.932  1.00  0.00     0.115 A 
ATOM     16  C   UNL     1     -17.629   0.325 -15.271  1.00  0.00     0.016 A 
ATOM     17  C   UNL     1     -17.871   1.677 -15.005  1.00  0.00     0.047 A 
BRANCH  15  18
ATOM     18  O   UNL     1     -17.743   3.996 -15.655  1.00  0.00    -0.508 OA
ATOM     19  H   UNL     1     -18.069   4.297 -14.743  1.00  0.00     0.293 HD
ENDBRANCH  15  18
ENDBRANCH   1  12
BRANCH   2  20
ATOM     20  O   UNL     1     -19.125  -2.019 -16.884  1.00  0.00    -0.502 OA
ATOM     21  H   UNL     1     -19.782  -2.182 -17.638  1.00  0.00     0.293 HD
ENDBRANCH   2  20
BRANCH   6  22
ATOM     22  O   UNL     1     -16.488  -6.521 -17.963  1.00  0.00    -0.507 OA
ATOM     23  H   UNL     1     -17.494  -6.456 -18.028  1.00  0.00     0.293 HD
ENDBRANCH   6  22
BRANCH   8  24
ATOM     24  O   UNL     1     -11.999  -5.118 -16.996  1.00  0.00    -0.508 OA
ATOM     25  H   UNL     1     -11.291  -4.541 -17.434  1.00  0.00     0.293 HD
ENDBRANCH   8  24
TORSDOF 5
ENDMDL
MODEL 2
REMARK VINA RESULT:    -5.868      1.556      2.876
REMARK INTER + INTRA:          -7.052
REMARK INTER:                  -7.451
REMARK INTRA:                   0.399
REMARK UNBOUND:                -0.155
REMARK SMILES O=c1c(O)c(-c2ccc(O)cc2)oc2cc(O)cc(O)c12
REMARK SMILES IDX 5 1 3 2 2 3 1 4 21 5 19 6 18 7 16 8 15 9 14 10 13 11 6 12
REMARK SMILES IDX 7 13 8 14 9 15 12 16 11 17 10 18 4 20 20 22 17 24
REMARK H PARENT 10 19 4 21 20 23 17 25
REMARK Flexibility Score: inf
ROOT
ATOM      1  C   UNL     1     -16.769  -1.247 -16.804  1.00  0.00     0.180 A 
ATOM      2  C   UNL     1     -15.759  -1.665 -17.687  1.00  0.00     0.208 A 
ATOM      3  C   UNL     1     -15.565  -3.040 -17.901  1.00  0.00     0.238 A 
ATOM      4  O   UNL     1     -14.696  -3.405 -18.734  1.00  0.00    -0.285 OA
ATOM      5  C   UNL     1     -16.373  -3.979 -17.215  1.00  0.00     0.111 A 
ATOM      6  C   UNL     1     -16.238  -5.396 -17.324  1.00  0.00     0.134 A 
ATOM      7  C   UNL     1     -17.176  -6.229 -16.702  1.00  0.00     0.093 A 
ATOM      8  C   UNL     1     -18.205  -5.697 -15.921  1.00  0.00     0.123 A 
ATOM      9  C   UNL     1     -18.309  -4.318 -15.760  1.00  0.00     0.094 A 
ATOM     10  C   UNL     1     -17.411  -3.460 -16.398  1.00  0.00     0.146 A 
ATOM     11  O   UNL     1     -17.552  -2.151 -16.227  1.00  0.00    -0.452 OA
ENDROOT
BRANCH   1  12
ATOM     12  C   UNL     1     -17.016   0.182 -16.508  1.00  0.00     0.021 A 
ATOM     13  C   UNL     1     -16.596   1.196 -17.389  1.00  0.00     0.016 A 
ATOM     14  C   UNL     1     -16.820   2.540 -17.077  1.00  0.00     0.047 A 
ATOM     15  C   UNL     1     -17.453   2.890 -15.878  1.00  0.00     0.115 A 
ATOM     16  C   UNL     1     -17.632   0.542 -15.299  1.00  0.00     0.016 A 
ATOM     17  C   UNL     1     -17.856   1.888 -14.990  1.00  0.00     0.047 A 
BRANCH  15  18
ATOM     18  O   UNL     1     -17.683   4.225 -15.558  1.00  0.00    -0.508 OA
ATOM     19  H   UNL     1     -17.040   4.749 -14.975  1.00  0.00     0.293 HD
ENDBRANCH  15  18
ENDBRANCH   1  12
BRANCH   2  20
ATOM     20  O   UNL     1     -14.988  -0.720 -18.371  1.00  0.00    -0.502 OA
ATOM     21  H   UNL     1     -15.357   0.180 -18.653  1.00  0.00     0.293 HD
ENDBRANCH   2  20
BRANCH   6  22
ATOM     22  O   UNL     1     -15.194  -6.031 -18.003  1.00  0.00    -0.507 OA
ATOM     23  H   UNL     1     -14.500  -5.556 -18.562  1.00  0.00     0.293 HD
ENDBRANCH   6  22
BRANCH   8  24
ATOM     24  O   UNL     1     -19.125  -6.534 -15.292  1.00  0.00    -0.508 OA
ATOM     25  H   UNL     1     -18.838  -7.398 -14.848  1.00  0.00     0.293 HD
ENDBRANCH   8  24
TORSDOF 5
ENDMDL
MODEL 3
REMARK VINA RESULT:    -5.752      3.411      6.375
REMARK INTER + INTRA:          -6.916
REMARK INTER:                  -6.615
REMARK INTRA:                  -0.301
REMARK UNBOUND:                -0.155
REMARK SMILES O=c1c(O)c(-c2ccc(O)cc2)oc2cc(O)cc(O)c12
REMARK SMILES IDX 5 1 3 2 2 3 1 4 21 5 19 6 18 7 16 8 15 9 14 10 13 11 6 12
REMARK SMILES IDX 7 13 8 14 9 15 12 16 11 17 10 18 4 20 20 22 17 24
REMARK H PARENT 10 19 4 21 20 23 17 25
REMARK Flexibility Score: inf
ROOT
ATOM      1  C   UNL     1     -12.790  -2.714 -18.678  1.00  0.00     0.180 A 
ATOM      2  C   UNL     1     -12.825  -4.041 -18.216  1.00  0.00     0.208 A 
ATOM      3  C   UNL     1     -13.996  -4.519 -17.603  1.00  0.00     0.238 A 
ATOM      4  O   UNL     1     -14.040  -5.723 -17.240  1.00  0.00    -0.285 OA
ATOM      5  C   UNL     1     -15.109  -3.658 -17.446  1.00  0.00     0.111 A 
ATOM      6  C   UNL     1     -16.331  -4.024 -16.803  1.00  0.00     0.134 A 
ATOM      7  C   UNL     1     -17.412  -3.134 -16.821  1.00  0.00     0.093 A 
ATOM      8  C   UNL     1     -17.295  -1.868 -17.399  1.00  0.00     0.123 A 
ATOM      9  C   UNL     1     -16.088  -1.480 -17.975  1.00  0.00     0.094 A 
ATOM     10  C   UNL     1     -15.003  -2.359 -18.007  1.00  0.00     0.146 A 
ATOM     11  O   UNL     1     -13.874  -1.953 -18.575  1.00  0.00    -0.452 OA
ENDROOT
BRANCH   1  12
ATOM     12  C   UNL     1     -11.586  -2.132 -19.312  1.00  0.00     0.021 A 
ATOM     13  C   UNL     1     -10.590  -1.496 -18.547  1.00  0.00     0.016 A 
ATOM     14  C   UNL     1      -9.473  -0.932 -19.169  1.00  0.00     0.047 A 
ATOM     15  C   UNL     1      -9.341  -0.983 -20.563  1.00  0.00     0.115 A 
ATOM     16  C   UNL     1     -11.456  -2.161 -20.710  1.00  0.00     0.016 A 
ATOM     17  C   UNL     1     -10.336  -1.597 -21.329  1.00  0.00     0.047 A 
BRANCH  15  18
ATOM     18  O   UNL     1      -8.232  -0.427 -21.193  1.00  0.00    -0.508 OA
ATOM     19  H   UNL     1      -8.325   0.338 -21.852  1.00  0.00     0.293 HD
ENDBRANCH  15  18
ENDBRANCH   1  12
BRANCH   2  20
ATOM     20  O   UNL     1     -11.723  -4.880 -18.402  1.00  0.00    -0.502 OA
ATOM     21  H   UNL     1     -11.032  -4.717 -19.126  1.00  0.00     0.293 HD
ENDBRANCH   2  20
BRANCH   6  22
ATOM     22  O   UNL     1     -16.523  -5.226 -16.118  1.00  0.00    -0.507 OA
ATOM     23  H   UNL     1     -17.291  -5.413 -15.490  1.00  0.00     0.293 HD
ENDBRANCH   6  22
BRANCH   8  24
ATOM     24  O   UNL     1     -18.372  -0.983 -17.398  1.00  0.00    -0.508 OA
ATOM     25  H   UNL     1     -18.714  -0.564 -18.254  1.00  0.00     0.293 HD
ENDBRANCH   8  24
TORSDOF 5
ENDMDL
MODEL 4
REMARK VINA RESULT:    -5.687      2.973      5.645
REMARK INTER + INTRA:          -6.838
REMARK INTER:                  -6.541
REMARK INTRA:                  -0.298
REMARK UNBOUND:                -0.155
REMARK SMILES O=c1c(O)c(-c2ccc(O)cc2)oc2cc(O)cc(O)c12
REMARK SMILES IDX 5 1 3 2 2 3 1 4 21 5 19 6 18 7 16 8 15 9 14 10 13 11 6 12
REMARK SMILES IDX 7 13 8 14 9 15 12 16 11 17 10 18 4 20 20 22 17 24
REMARK H PARENT 10 19 4 21 20 23 17 25
REMARK Flexibility Score: inf
ROOT
ATOM      1  C   UNL     1     -13.772  -3.258 -18.119  1.00  0.00     0.180 A 
ATOM      2  C   UNL     1     -14.186  -4.476 -18.686  1.00  0.00     0.208 A 
ATOM      3  C   UNL     1     -15.361  -5.083 -18.214  1.00  0.00     0.238 A 
ATOM      4  O   UNL     1     -15.755  -6.145 -18.763  1.00  0.00    -0.285 OA
ATOM      5  C   UNL     1     -16.098  -4.474 -17.170  1.00  0.00     0.111 A 
ATOM      6  C   UNL     1     -17.280  -5.021 -16.586  1.00  0.00     0.134 A 
ATOM      7  C   UNL     1     -17.999  -4.269 -15.649  1.00  0.00     0.093 A 
ATOM      8  C   UNL     1     -17.544  -3.018 -15.227  1.00  0.00     0.123 A 
ATOM      9  C   UNL     1     -16.359  -2.502 -15.747  1.00  0.00     0.094 A 
ATOM     10  C   UNL     1     -15.639  -3.212 -16.710  1.00  0.00     0.146 A 
ATOM     11  O   UNL     1     -14.521  -2.679 -17.187  1.00  0.00    -0.452 OA
ENDROOT
BRANCH   1  12
ATOM     12  C   UNL     1     -12.533  -2.570 -18.546  1.00  0.00     0.021 A 
ATOM     13  C   UNL     1     -11.287  -2.881 -17.971  1.00  0.00     0.016 A 
ATOM     14  C   UNL     1     -10.133  -2.202 -18.374  1.00  0.00     0.047 A 
ATOM     15  C   UNL     1     -10.211  -1.195 -19.344  1.00  0.00     0.115 A 
ATOM     16  C   UNL     1     -12.605  -1.545 -19.504  1.00  0.00     0.016 A 
ATOM     17  C   UNL     1     -11.449  -0.868 -19.905  1.00  0.00     0.047 A 
BRANCH  15  18
ATOM     18  O   UNL     1      -9.068  -0.512 -19.754  1.00  0.00    -0.508 OA
ATOM     19  H   UNL     1      -8.787  -0.486 -20.727  1.00  0.00     0.293 HD
ENDBRANCH  15  18
ENDBRANCH   1  12
BRANCH   2  20
ATOM     20  O   UNL     1     -13.456  -5.048 -19.732  1.00  0.00    -0.502 OA
ATOM     21  H   UNL     1     -12.526  -4.732 -19.982  1.00  0.00     0.293 HD
ENDBRANCH   2  20
BRANCH   6  22
ATOM     22  O   UNL     1     -17.771  -6.299 -16.870  1.00  0.00    -0.507 OA
ATOM     23  H   UNL     1     -17.250  -7.155 -16.748  1.00  0.00     0.293 HD
ENDBRANCH   6  22
BRANCH   8  24
ATOM     24  O   UNL     1     -18.257  -2.283 -14.282  1.00  0.00    -0.508 OA
ATOM     25  H   UNL     1     -19.234  -2.472 -14.093  1.00  0.00     0.293 HD
ENDBRANCH   8  24
TORSDOF 5
ENDMDL
MODEL 5
REMARK VINA RESULT:    -5.615      4.139      6.104
REMARK INTER + INTRA:          -6.754
REMARK INTER:                  -6.482
REMARK INTRA:                  -0.272
REMARK UNBOUND:                -0.155
REMARK SMILES O=c1c(O)c(-c2ccc(O)cc2)oc2cc(O)cc(O)c12
REMARK SMILES IDX 5 1 3 2 2 3 1 4 21 5 19 6 18 7 16 8 15 9 14 10 13 11 6 12
REMARK SMILES IDX 7 13 8 14 9 15 12 16 11 17 10 18 4 20 20 22 17 24
REMARK H PARENT 10 19 4 21 20 23 17 25
REMARK Flexibility Score: inf
ROOT
ATOM      1  C   UNL     1     -12.385  -2.488 -19.523  1.00  0.00     0.180 A 
ATOM      2  C   UNL     1     -12.486  -3.633 -20.332  1.00  0.00     0.208 A 
ATOM      3  C   UNL     1     -13.432  -4.619 -20.003  1.00  0.00     0.238 A 
ATOM      4  O   UNL     1     -13.555  -5.615 -20.763  1.00  0.00    -0.285 OA
ATOM      5  C   UNL     1     -14.251  -4.455 -18.860  1.00  0.00     0.111 A 
ATOM      6  C   UNL     1     -15.212  -5.409 -18.409  1.00  0.00     0.134 A 
ATOM      7  C   UNL     1     -16.058  -5.085 -17.342  1.00  0.00     0.093 A 
ATOM      8  C   UNL     1     -15.932  -3.868 -16.666  1.00  0.00     0.123 A 
ATOM      9  C   UNL     1     -14.956  -2.957 -17.061  1.00  0.00     0.094 A 
ATOM     10  C   UNL     1     -14.123  -3.236 -18.146  1.00  0.00     0.146 A 
ATOM     11  O   UNL     1     -13.213  -2.334 -18.495  1.00  0.00    -0.452 OA
ENDROOT
BRANCH   1  12
ATOM     12  C   UNL     1     -11.397  -1.418 -19.790  1.00  0.00     0.021 A 
ATOM     13  C   UNL     1     -10.175  -1.359 -19.095  1.00  0.00     0.016 A 
ATOM     14  C   UNL     1      -9.268  -0.325 -19.348  1.00  0.00     0.047 A 
ATOM     15  C   UNL     1      -9.575   0.668 -20.286  1.00  0.00     0.115 A 
ATOM     16  C   UNL     1     -11.706  -0.407 -20.714  1.00  0.00     0.016 A 
ATOM     17  C   UNL     1     -10.796   0.625 -20.966  1.00  0.00     0.047 A 
BRANCH  15  18
ATOM     18  O   UNL     1      -8.679   1.701 -20.547  1.00  0.00    -0.508 OA
ATOM     19  H   UNL     1      -7.685   1.528 -20.647  1.00  0.00     0.293 HD
ENDBRANCH  15  18
ENDBRANCH   1  12
BRANCH   2  20
ATOM     20  O   UNL     1     -11.684  -3.763 -21.469  1.00  0.00    -0.502 OA
ATOM     21  H   UNL     1     -10.764  -4.188 -21.440  1.00  0.00     0.293 HD
ENDBRANCH   2  20
BRANCH   6  22
ATOM     22  O   UNL     1     -15.358  -6.688 -18.955  1.00  0.00    -0.507 OA
ATOM     23  H   UNL     1     -14.650  -7.407 -18.930  1.00  0.00     0.293 HD
ENDBRANCH   6  22
BRANCH   8  24
ATOM     24  O   UNL     1     -16.768  -3.560 -15.594  1.00  0.00    -0.508 OA
ATOM     25  H   UNL     1     -17.740  -3.314 -15.735  1.00  0.00     0.293 HD
ENDBRANCH   8  24
TORSDOF 5
ENDMDL
MODEL 6
REMARK VINA RESULT:    -5.514      3.033      5.195
REMARK INTER + INTRA:          -6.636
REMARK INTER:                  -6.356
REMARK INTRA:                  -0.280
REMARK UNBOUND:                -0.155
REMARK SMILES O=c1c(O)c(-c2ccc(O)cc2)oc2cc(O)cc(O)c12
REMARK SMILES IDX 5 1 3 2 2 3 1 4 21 5 19 6 18 7 16 8 15 9 14 10 13 11 6 12
REMARK SMILES IDX 7 13 8 14 9 15 12 16 11 17 10 18 4 20 20 22 17 24
REMARK H PARENT 10 19 4 21 20 23 17 25
REMARK Flexibility Score: inf
ROOT
ATOM      1  C   UNL     1     -14.171  -3.372 -17.752  1.00  0.00     0.180 A 
ATOM      2  C   UNL     1     -13.495  -4.600 -17.659  1.00  0.00     0.208 A 
ATOM      3  C   UNL     1     -12.275  -4.760 -18.338  1.00  0.00     0.238 A 
ATOM      4  O   UNL     1     -11.648  -5.843 -18.207  1.00  0.00    -0.285 OA
ATOM      5  C   UNL     1     -11.756  -3.695 -19.113  1.00  0.00     0.111 A 
ATOM      6  C   UNL     1     -10.551  -3.760 -19.875  1.00  0.00     0.134 A 
ATOM      7  C   UNL     1     -10.065  -2.604 -20.499  1.00  0.00     0.093 A 
ATOM      8  C   UNL     1     -10.776  -1.402 -20.443  1.00  0.00     0.123 A 
ATOM      9  C   UNL     1     -11.984  -1.345 -19.752  1.00  0.00     0.094 A 
ATOM     10  C   UNL     1     -12.475  -2.472 -19.089  1.00  0.00     0.146 A 
ATOM     11  O   UNL     1     -13.625  -2.371 -18.433  1.00  0.00    -0.452 OA
ENDROOT
BRANCH   1  12
ATOM     12  C   UNL     1     -15.472  -3.136 -17.086  1.00  0.00     0.021 A 
ATOM     13  C   UNL     1     -16.687  -3.280 -17.780  1.00  0.00     0.016 A 
ATOM     14  C   UNL     1     -17.903  -3.029 -17.137  1.00  0.00     0.047 A 
ATOM     15  C   UNL     1     -17.920  -2.617 -15.799  1.00  0.00     0.115 A 
ATOM     16  C   UNL     1     -15.497  -2.703 -15.750  1.00  0.00     0.016 A 
ATOM     17  C   UNL     1     -16.715  -2.453 -15.109  1.00  0.00     0.047 A 
BRANCH  15  18
ATOM     18  O   UNL     1     -19.125  -2.366 -15.148  1.00  0.00    -0.508 OA
ATOM     19  H   UNL     1     -19.667  -3.113 -14.729  1.00  0.00     0.293 HD
ENDBRANCH  15  18
ENDBRANCH   1  12
BRANCH   2  20
ATOM     20  O   UNL     1     -14.014  -5.631 -16.870  1.00  0.00    -0.502 OA
ATOM     21  H   UNL     1     -14.995  -5.683 -16.621  1.00  0.00     0.293 HD
ENDBRANCH   2  20
BRANCH   6  22
ATOM     22  O   UNL     1      -9.813  -4.931 -20.071  1.00  0.00    -0.507 OA
ATOM     23  H   UNL     1      -8.905  -5.112 -19.668  1.00  0.00     0.293 HD
ENDBRANCH   6  22
BRANCH   8  24
ATOM     24  O   UNL     1     -10.294  -0.261 -21.080  1.00  0.00    -0.508 OA
ATOM     25  H   UNL     1      -9.431   0.183 -20.789  1.00  0.00     0.293 HD
ENDBRANCH   8  24
TORSDOF 5
ENDMDL
MODEL 7
REMARK VINA RESULT:    -5.364      2.133      6.730
REMARK INTER + INTRA:          -6.459
REMARK INTER:                  -6.164
REMARK INTRA:                  -0.295
REMARK UNBOUND:                -0.155
REMARK SMILES O=c1c(O)c(-c2ccc(O)cc2)oc2cc(O)cc(O)c12
REMARK SMILES IDX 5 1 3 2 2 3 1 4 21 5 19 6 18 7 16 8 15 9 14 10 13 11 6 12
REMARK SMILES IDX 7 13 8 14 9 15 12 16 11 17 10 18 4 20 20 22 17 24
REMARK H PARENT 10 19 4 21 20 23 17 25
REMARK Flexibility Score: inf
ROOT
ATOM      1  C   UNL     1     -15.196  -4.374 -17.970  1.00  0.00     0.180 A 
ATOM      2  C   UNL     1     -16.125  -5.124 -17.227  1.00  0.00     0.208 A 
ATOM      3  C   UNL     1     -17.121  -4.450 -16.502  1.00  0.00     0.238 A 
ATOM      4  O   UNL     1     -17.982  -5.128 -15.884  1.00  0.00    -0.285 OA
ATOM      5  C   UNL     1     -17.165  -3.035 -16.514  1.00  0.00     0.111 A 
ATOM      6  C   UNL     1     -18.105  -2.247 -15.783  1.00  0.00     0.134 A 
ATOM      7  C   UNL     1     -18.139  -0.860 -15.973  1.00  0.00     0.093 A 
ATOM      8  C   UNL     1     -17.224  -0.226 -16.817  1.00  0.00     0.123 A 
ATOM      9  C   UNL     1     -16.264  -0.980 -17.487  1.00  0.00     0.094 A 
ATOM     10  C   UNL     1     -16.229  -2.369 -17.348  1.00  0.00     0.146 A 
ATOM     11  O   UNL     1     -15.305  -3.051 -18.014  1.00  0.00    -0.452 OA
ENDROOT
BRANCH   1  12
ATOM     12  C   UNL     1     -14.103  -5.010 -18.739  1.00  0.00     0.021 A 
ATOM     13  C   UNL     1     -12.880  -5.349 -18.131  1.00  0.00     0.016 A 
ATOM     14  C   UNL     1     -11.854  -5.928 -18.883  1.00  0.00     0.047 A 
ATOM     15  C   UNL     1     -12.030  -6.163 -20.253  1.00  0.00     0.115 A 
ATOM     16  C   UNL     1     -14.264  -5.231 -20.116  1.00  0.00     0.016 A 
ATOM     17  C   UNL     1     -13.236  -5.811 -20.866  1.00  0.00     0.047 A 
BRANCH  15  18
ATOM     18  O   UNL     1     -11.015  -6.741 -21.012  1.00  0.00    -0.508 OA
ATOM     19  H   UNL     1     -10.239  -6.192 -21.364  1.00  0.00     0.293 HD
ENDBRANCH  15  18
ENDBRANCH   1  12
BRANCH   2  20
ATOM     20  O   UNL     1     -16.077  -6.521 -17.248  1.00  0.00    -0.502 OA
ATOM     21  H   UNL     1     -15.264  -7.041 -16.938  1.00  0.00     0.293 HD
ENDBRANCH   2  20
BRANCH   6  22
ATOM     22  O   UNL     1     -19.001  -2.771 -14.847  1.00  0.00    -0.507 OA
ATOM     23  H   UNL     1     -19.038  -2.503 -13.875  1.00  0.00     0.293 HD
ENDBRANCH   6  22
BRANCH   8  24
ATOM     24  O   UNL     1     -17.254   1.157 -16.987  1.00  0.00    -0.508 OA
ATOM     25  H   UNL     1     -16.534   1.642 -17.509  1.00  0.00     0.293 HD
ENDBRANCH   8  24
TORSDOF 5
ENDMDL
MODEL 8
REMARK VINA RESULT:    -5.358      3.112      5.246
REMARK INTER + INTRA:          -6.452
REMARK INTER:                  -6.453
REMARK INTRA:                   0.001
REMARK UNBOUND:                -0.155
REMARK SMILES O=c1c(O)c(-c2ccc(O)cc2)oc2cc(O)cc(O)c12
REMARK SMILES IDX 5 1 3 2 2 3 1 4 21 5 19 6 18 7 16 8 15 9 14 10 13 11 6 12
REMARK SMILES IDX 7 13 8 14 9 15 12 16 11 17 10 18 4 20 20 22 17 24
REMARK H PARENT 10 19 4 21 20 23 17 25
REMARK Flexibility Score: inf
ROOT
ATOM      1  C   UNL     1     -13.832  -2.988 -18.205  1.00  0.00     0.180 A 
ATOM      2  C   UNL     1     -15.014  -2.255 -17.997  1.00  0.00     0.208 A 
ATOM      3  C   UNL     1     -16.173  -2.933 -17.585  1.00  0.00     0.238 A 
ATOM      4  O   UNL     1     -17.212  -2.264 -17.348  1.00  0.00    -0.285 OA
ATOM      5  C   UNL     1     -16.140  -4.337 -17.403  1.00  0.00     0.111 A 
ATOM      6  C   UNL     1     -17.265  -5.132 -17.028  1.00  0.00     0.134 A 
ATOM      7  C   UNL     1     -17.086  -6.493 -16.750  1.00  0.00     0.093 A 
ATOM      8  C   UNL     1     -15.837  -7.101 -16.897  1.00  0.00     0.123 A 
ATOM      9  C   UNL     1     -14.746  -6.345 -17.321  1.00  0.00     0.094 A 
ATOM     10  C   UNL     1     -14.885  -4.978 -17.570  1.00  0.00     0.146 A 
ATOM     11  O   UNL     1     -13.817  -4.293 -17.962  1.00  0.00    -0.452 OA
ENDROOT
BRANCH   1  12
ATOM     12  C   UNL     1     -12.578  -2.348 -18.662  1.00  0.00     0.021 A 
ATOM     13  C   UNL     1     -12.555  -1.502 -19.787  1.00  0.00     0.016 A 
ATOM     14  C   UNL     1     -11.354  -0.928 -20.215  1.00  0.00     0.047 A 
ATOM     15  C   UNL     1     -10.160  -1.201 -19.535  1.00  0.00     0.115 A 
ATOM     16  C   UNL     1     -11.374  -2.633 -17.999  1.00  0.00     0.016 A 
ATOM     17  C   UNL     1     -10.174  -2.056 -18.429  1.00  0.00     0.047 A 
BRANCH  15  18
ATOM     18  O   UNL     1      -8.959  -0.634 -19.951  1.00  0.00    -0.508 OA
ATOM     19  H   UNL     1      -8.842  -0.271 -20.890  1.00  0.00     0.293 HD
ENDBRANCH  15  18
ENDBRANCH   1  12
BRANCH   2  20
ATOM     20  O   UNL     1     -15.018  -0.867 -18.160  1.00  0.00    -0.502 OA
ATOM     21  H   UNL     1     -14.171  -0.312 -18.114  1.00  0.00     0.293 HD
ENDBRANCH   2  20
BRANCH   6  22
ATOM     22  O   UNL     1     -18.571  -4.643 -16.941  1.00  0.00    -0.507 OA
ATOM     23  H   UNL     1     -19.391  -5.217 -16.808  1.00  0.00     0.293 HD
ENDBRANCH   6  22
BRANCH   8  24
ATOM     24  O   UNL     1     -15.672  -8.459 -16.634  1.00  0.00    -0.508 OA
ATOM     25  H   UNL     1     -16.322  -9.150 -16.989  1.00  0.00     0.293 HD
ENDBRANCH   8  24
TORSDOF 5
ENDMDL
MODEL 9
REMARK VINA RESULT:    -4.380      3.192      4.965
REMARK INTER + INTRA:          -5.303
REMARK INTER:                  -5.020
REMARK INTRA:                  -0.283
REMARK UNBOUND:                -0.155
REMARK SMILES O=c1c(O)c(-c2ccc(O)cc2)oc2cc(O)cc(O)c12
REMARK SMILES IDX 5 1 3 2 2 3 1 4 21 5 19 6 18 7 16 8 15 9 14 10 13 11 6 12
REMARK SMILES IDX 7 13 8 14 9 15 12 16 11 17 10 18 4 20 20 22 17 24
REMARK H PARENT 10 19 4 21 20 23 17 25
REMARK Flexibility Score: inf
ROOT
ATOM      1  C   UNL     1     -14.343  -3.362 -17.843  1.00  0.00     0.180 A 
ATOM      2  C   UNL     1     -13.761  -2.280 -18.526  1.00  0.00     0.208 A 
ATOM      3  C   UNL     1     -12.556  -2.480 -19.220  1.00  0.00     0.238 A 
ATOM      4  O   UNL     1     -12.069  -1.522 -19.873  1.00  0.00    -0.285 OA
ATOM      5  C   UNL     1     -11.940  -3.755 -19.207  1.00  0.00     0.111 A 
ATOM      6  C   UNL     1     -10.698  -4.061 -19.841  1.00  0.00     0.134 A 
ATOM      7  C   UNL     1     -10.249  -5.386 -19.874  1.00  0.00     0.093 A 
ATOM      8  C   UNL     1     -10.963  -6.406 -19.241  1.00  0.00     0.123 A 
ATOM      9  C   UNL     1     -12.145  -6.107 -18.568  1.00  0.00     0.094 A 
ATOM     10  C   UNL     1     -12.639  -4.800 -18.549  1.00  0.00     0.146 A 
ATOM     11  O   UNL     1     -13.775  -4.561 -17.905  1.00  0.00    -0.452 OA
ENDROOT
BRANCH   1  12
ATOM     12  C   UNL     1     -15.598  -3.223 -17.070  1.00  0.00     0.021 A 
ATOM     13  C   UNL     1     -16.850  -3.503 -17.648  1.00  0.00     0.016 A 
ATOM     14  C   UNL     1     -18.023  -3.342 -16.906  1.00  0.00     0.047 A 
ATOM     15  C   UNL     1     -17.963  -2.888 -15.582  1.00  0.00     0.115 A 
ATOM     16  C   UNL     1     -15.548  -2.749 -15.749  1.00  0.00     0.016 A 
ATOM     17  C   UNL     1     -16.723  -2.590 -15.008  1.00  0.00     0.047 A 
BRANCH  15  18
ATOM     18  O   UNL     1     -19.125  -2.725 -14.832  1.00  0.00    -0.508 OA
ATOM     19  H   UNL     1     -20.027  -2.591 -15.275  1.00  0.00     0.293 HD
ENDBRANCH  15  18
ENDBRANCH   1  12
BRANCH   2  20
ATOM     20  O   UNL     1     -14.398  -1.036 -18.544  1.00  0.00    -0.502 OA
ATOM     21  H   UNL     1     -14.302  -0.365 -17.790  1.00  0.00     0.293 HD
ENDBRANCH   2  20
BRANCH   6  22
ATOM     22  O   UNL     1      -9.863  -3.104 -20.423  1.00  0.00    -0.507 OA
ATOM     23  H   UNL     1      -9.206  -2.529 -19.916  1.00  0.00     0.293 HD
ENDBRANCH   6  22
BRANCH   8  24
ATOM     24  O   UNL     1     -10.500  -7.720 -19.265  1.00  0.00    -0.508 OA
ATOM     25  H   UNL     1      -9.649  -7.973 -19.753  1.00  0.00     0.293 HD
ENDBRANCH   8  24
TORSDOF 5
ENDMDL
