MODEL 1
REMARK VINA RESULT:    -5.643      0.000      0.000
REMARK INTER + INTRA:          -6.542
REMARK INTER:                  -6.633
REMARK INTRA:                   0.091
REMARK UNBOUND:                 0.091
REMARK SMILES O=c1c(O)c(-c2ccc(O)cc2)oc2cc(O)cc(O)c12
REMARK SMILES IDX 5 1 3 2 2 3 1 4 21 5 19 6 18 7 16 8 15 9 14 10 13 11 6 12
REMARK SMILES IDX 7 13 8 14 9 15 12 16 11 17 10 18 4 20 20 22 17 24
REMARK H PARENT 10 19 4 21 20 23 17 25
REMARK Flexibility Score: inf
ROOT
ATOM      1  C   UNL     1       2.308  -5.673   5.617  1.00  0.00     0.180 A 
ATOM      2  C   UNL     1       1.079  -6.282   5.311  1.00  0.00     0.208 A 
ATOM      3  C   UNL     1       1.078  -7.533   4.674  1.00  0.00     0.238 A 
ATOM      4  O   UNL     1      -0.025  -8.097   4.452  1.00  0.00    -0.285 OA
ATOM      5  C   UNL     1       2.306  -8.152   4.336  1.00  0.00     0.111 A 
ATOM      6  C   UNL     1       2.423  -9.399   3.653  1.00  0.00     0.134 A 
ATOM      7  C   UNL     1       3.687  -9.979   3.486  1.00  0.00     0.093 A 
ATOM      8  C   UNL     1       4.841  -9.327   3.919  1.00  0.00     0.123 A 
ATOM      9  C   UNL     1       4.743  -8.079   4.535  1.00  0.00     0.094 A 
ATOM     10  C   UNL     1       3.493  -7.492   4.747  1.00  0.00     0.146 A 
ATOM     11  O   UNL     1       3.442  -6.308   5.347  1.00  0.00    -0.452 OA
ENDROOT
BRANCH   1  12
ATOM     12  C   UNL     1       2.389  -4.344   6.266  1.00  0.00     0.021 A 
ATOM     13  C   UNL     1       1.604  -4.028   7.390  1.00  0.00     0.016 A 
ATOM     14  C   UNL     1       1.679  -2.758   7.970  1.00  0.00     0.047 A 
ATOM     15  C   UNL     1       2.528  -1.785   7.428  1.00  0.00     0.115 A 
ATOM     16  C   UNL     1       3.222  -3.355   5.716  1.00  0.00     0.016 A 
ATOM     17  C   UNL     1       3.296  -2.087   6.300  1.00  0.00     0.047 A 
BRANCH  15  18
ATOM     18  O   UNL     1       2.614  -0.517   7.998  1.00  0.00    -0.508 OA
ATOM     19  H   UNL     1       2.700  -0.393   9.001  1.00  0.00     0.293 HD
ENDBRANCH  15  18
ENDBRANCH   1  12
BRANCH   2  20
ATOM     20  O   UNL     1      -0.121  -5.663   5.674  1.00  0.00    -0.502 OA
ATOM     21  H   UNL     1      -0.880  -6.167   6.120  1.00  0.00     0.293 HD
ENDBRANCH   2  20
BRANCH   6  22
ATOM     22  O   UNL     1       1.342 -10.091   3.098  1.00  0.00    -0.507 OA
ATOM     23  H   UNL     1       0.878  -9.838   2.240  1.00  0.00     0.293 HD
ENDBRANCH   6  22
BRANCH   8  24
ATOM     24  O   UNL     1       6.083  -9.926   3.722  1.00  0.00    -0.508 OA
ATOM     25  H   UNL     1       6.253 -10.891   3.981  1.00  0.00     0.293 HD
ENDBRANCH   8  24
TORSDOF 5
ENDMDL
MODEL 2
REMARK VINA RESULT:    -5.605      5.314      8.592
REMARK INTER + INTRA:          -6.496
REMARK INTER:                  -6.232
REMARK INTRA:                  -0.264
REMARK UNBOUND:                 0.091
REMARK SMILES O=c1c(O)c(-c2ccc(O)cc2)oc2cc(O)cc(O)c12
REMARK SMILES IDX 5 1 3 2 2 3 1 4 21 5 19 6 18 7 16 8 15 9 14 10 13 11 6 12
REMARK SMILES IDX 7 13 8 14 9 15 12 16 11 17 10 18 4 20 20 22 17 24
REMARK H PARENT 10 19 4 21 20 23 17 25
REMARK Flexibility Score: inf
ROOT
ATOM      1  C   UNL     1       5.369   1.977   5.748  1.00  0.00     0.180 A 
ATOM      2  C   UNL     1       6.699   1.793   5.332  1.00  0.00     0.208 A 
ATOM      3  C   UNL     1       7.186   0.486   5.170  1.00  0.00     0.238 A 
ATOM      4  O   UNL     1       8.361   0.328   4.745  1.00  0.00    -0.285 OA
ATOM      5  C   UNL     1       6.344  -0.619   5.442  1.00  0.00     0.111 A 
ATOM      6  C   UNL     1       6.746  -1.985   5.351  1.00  0.00     0.134 A 
ATOM      7  C   UNL     1       5.792  -2.997   5.518  1.00  0.00     0.093 A 
ATOM      8  C   UNL     1       4.469  -2.695   5.835  1.00  0.00     0.123 A 
ATOM      9  C   UNL     1       4.078  -1.364   5.985  1.00  0.00     0.094 A 
ATOM     10  C   UNL     1       4.999  -0.331   5.790  1.00  0.00     0.146 A 
ATOM     11  O   UNL     1       4.585   0.923   5.932  1.00  0.00    -0.452 OA
ENDROOT
BRANCH   1  12
ATOM     12  C   UNL     1       4.791   3.324   5.964  1.00  0.00     0.021 A 
ATOM     13  C   UNL     1       4.661   3.868   7.255  1.00  0.00     0.016 A 
ATOM     14  C   UNL     1       4.089   5.130   7.436  1.00  0.00     0.047 A 
ATOM     15  C   UNL     1       3.628   5.860   6.333  1.00  0.00     0.115 A 
ATOM     16  C   UNL     1       4.307   4.053   4.866  1.00  0.00     0.016 A 
ATOM     17  C   UNL     1       3.736   5.316   5.050  1.00  0.00     0.047 A 
BRANCH  15  18
ATOM     18  O   UNL     1       3.058   7.120   6.501  1.00  0.00    -0.508 OA
ATOM     19  H   UNL     1       2.145   7.235   6.927  1.00  0.00     0.293 HD
ENDBRANCH  15  18
ENDBRANCH   1  12
BRANCH   2  20
ATOM     20  O   UNL     1       7.506   2.898   5.047  1.00  0.00    -0.502 OA
ATOM     21  H   UNL     1       8.447   2.804   4.683  1.00  0.00     0.293 HD
ENDBRANCH   2  20
BRANCH   6  22
ATOM     22  O   UNL     1       8.063  -2.399   5.130  1.00  0.00    -0.507 OA
ATOM     23  H   UNL     1       8.846  -1.777   4.995  1.00  0.00     0.293 HD
ENDBRANCH   6  22
BRANCH   8  24
ATOM     24  O   UNL     1       3.551  -3.728   6.009  1.00  0.00    -0.508 OA
ATOM     25  H   UNL     1       3.772  -4.545   6.567  1.00  0.00     0.293 HD
ENDBRANCH   8  24
TORSDOF 5
ENDMDL
MODEL 3
REMARK VINA RESULT:    -5.533      2.738      4.597
REMARK INTER + INTRA:          -6.412
REMARK INTER:                  -6.112
REMARK INTRA:                  -0.300
REMARK UNBOUND:                 0.091
REMARK SMILES O=c1c(O)c(-c2ccc(O)cc2)oc2cc(O)cc(O)c12
REMARK SMILES IDX 5 1 3 2 2 3 1 4 21 5 19 6 18 7 16 8 15 9 14 10 13 11 6 12
REMARK SMILES IDX 7 13 8 14 9 15 12 16 11 17 10 18 4 20 20 22 17 24
REMARK H PARENT 10 19 4 21 20 23 17 25
REMARK Flexibility Score: inf
ROOT
ATOM      1  C   UNL     1       4.674  -6.688   5.098  1.00  0.00     0.180 A 
ATOM      2  C   UNL     1       4.847  -7.864   4.350  1.00  0.00     0.208 A 
ATOM      3  C   UNL     1       3.714  -8.601   3.969  1.00  0.00     0.238 A 
ATOM      4  O   UNL     1       3.871  -9.625   3.253  1.00  0.00    -0.285 OA
ATOM      5  C   UNL     1       2.425  -8.162   4.356  1.00  0.00     0.111 A 
ATOM      6  C   UNL     1       1.211  -8.852   4.060  1.00  0.00     0.134 A 
ATOM      7  C   UNL     1      -0.016  -8.258   4.380  1.00  0.00     0.093 A 
ATOM      8  C   UNL     1      -0.072  -7.032   5.041  1.00  0.00     0.123 A 
ATOM      9  C   UNL     1       1.109  -6.376   5.388  1.00  0.00     0.094 A 
ATOM     10  C   UNL     1       2.349  -6.927   5.051  1.00  0.00     0.146 A 
ATOM     11  O   UNL     1       3.450  -6.266   5.389  1.00  0.00    -0.452 OA
ENDROOT
BRANCH   1  12
ATOM     12  C   UNL     1       5.821  -5.871   5.557  1.00  0.00     0.021 A 
ATOM     13  C   UNL     1       6.455  -6.122   6.788  1.00  0.00     0.016 A 
ATOM     14  C   UNL     1       7.519  -5.322   7.212  1.00  0.00     0.047 A 
ATOM     15  C   UNL     1       7.957  -4.253   6.419  1.00  0.00     0.115 A 
ATOM     16  C   UNL     1       6.253  -4.784   4.778  1.00  0.00     0.016 A 
ATOM     17  C   UNL     1       7.319  -3.986   5.203  1.00  0.00     0.047 A 
BRANCH  15  18
ATOM     18  O   UNL     1       9.018  -3.449   6.829  1.00  0.00    -0.508 OA
ATOM     19  H   UNL     1       9.924  -3.845   7.056  1.00  0.00     0.293 HD
ENDBRANCH  15  18
ENDBRANCH   1  12
BRANCH   2  20
ATOM     20  O   UNL     1       6.127  -8.268   3.959  1.00  0.00    -0.502 OA
ATOM     21  H   UNL     1       6.814  -8.612   4.621  1.00  0.00     0.293 HD
ENDBRANCH   2  20
BRANCH   6  22
ATOM     22  O   UNL     1       1.157 -10.125   3.484  1.00  0.00    -0.507 OA
ATOM     23  H   UNL     1       1.438 -10.341   2.540  1.00  0.00     0.293 HD
ENDBRANCH   6  22
BRANCH   8  24
ATOM     24  O   UNL     1      -1.311  -6.478   5.358  1.00  0.00    -0.508 OA
ATOM     25  H   UNL     1      -2.150  -7.044   5.397  1.00  0.00     0.293 HD
ENDBRANCH   8  24
TORSDOF 5
ENDMDL
MODEL 4
REMARK VINA RESULT:    -5.488      2.346      6.598
REMARK INTER + INTRA:          -6.360
REMARK INTER:                  -6.801
REMARK INTRA:                   0.442
REMARK UNBOUND:                 0.091
REMARK SMILES O=c1c(O)c(-c2ccc(O)cc2)oc2cc(O)cc(O)c12
REMARK SMILES IDX 5 1 3 2 2 3 1 4 21 5 19 6 18 7 16 8 15 9 14 10 13 11 6 12
REMARK SMILES IDX 7 13 8 14 9 15 12 16 11 17 10 18 4 20 20 22 17 24
REMARK H PARENT 10 19 4 21 20 23 17 25
REMARK Flexibility Score: inf
ROOT
ATOM      1  C   UNL     1       0.830  -7.820   5.078  1.00  0.00     0.180 A 
ATOM      2  C   UNL     1      -0.326  -8.604   5.240  1.00  0.00     0.208 A 
ATOM      3  C   UNL     1      -1.459  -8.029   5.837  1.00  0.00     0.238 A 
ATOM      4  O   UNL     1      -2.508  -8.720   5.931  1.00  0.00    -0.285 OA
ATOM      5  C   UNL     1      -1.418  -6.686   6.280  1.00  0.00     0.111 A 
ATOM      6  C   UNL     1      -2.494  -6.015   6.936  1.00  0.00     0.134 A 
ATOM      7  C   UNL     1      -2.387  -4.646   7.213  1.00  0.00     0.093 A 
ATOM      8  C   UNL     1      -1.222  -3.940   6.918  1.00  0.00     0.123 A 
ATOM      9  C   UNL     1      -0.141  -4.599   6.331  1.00  0.00     0.094 A 
ATOM     10  C   UNL     1      -0.230  -5.956   6.010  1.00  0.00     0.146 A 
ATOM     11  O   UNL     1       0.816  -6.544   5.443  1.00  0.00    -0.452 OA
ENDROOT
BRANCH   1  12
ATOM     12  C   UNL     1       2.071  -8.362   4.478  1.00  0.00     0.021 A 
ATOM     13  C   UNL     1       2.065  -9.555   3.733  1.00  0.00     0.016 A 
ATOM     14  C   UNL     1       3.254 -10.060   3.198  1.00  0.00     0.047 A 
ATOM     15  C   UNL     1       4.465  -9.389   3.412  1.00  0.00     0.115 A 
ATOM     16  C   UNL     1       3.293  -7.706   4.706  1.00  0.00     0.016 A 
ATOM     17  C   UNL     1       4.480  -8.213   4.169  1.00  0.00     0.047 A 
BRANCH  15  18
ATOM     18  O   UNL     1       5.655  -9.881   2.883  1.00  0.00    -0.508 OA
ATOM     19  H   UNL     1       5.673 -10.395   2.008  1.00  0.00     0.293 HD
ENDBRANCH  15  18
ENDBRANCH   1  12
BRANCH   2  20
ATOM     20  O   UNL     1      -0.352  -9.921   4.775  1.00  0.00    -0.502 OA
ATOM     21  H   UNL     1       0.416 -10.330   4.253  1.00  0.00     0.293 HD
ENDBRANCH   2  20
BRANCH   6  22
ATOM     22  O   UNL     1      -3.667  -6.648   7.358  1.00  0.00    -0.507 OA
ATOM     23  H   UNL     1      -3.928  -6.790   8.322  1.00  0.00     0.293 HD
ENDBRANCH   6  22
BRANCH   8  24
ATOM     24  O   UNL     1      -1.145  -2.583   7.223  1.00  0.00    -0.508 OA
ATOM     25  H   UNL     1      -1.882  -1.938   6.960  1.00  0.00     0.293 HD
ENDBRANCH   8  24
TORSDOF 5
ENDMDL
MODEL 5
REMARK VINA RESULT:    -5.480      4.389      7.135
REMARK INTER + INTRA:          -6.350
REMARK INTER:                  -6.067
REMARK INTRA:                  -0.283
REMARK UNBOUND:                 0.091
REMARK SMILES O=c1c(O)c(-c2ccc(O)cc2)oc2cc(O)cc(O)c12
REMARK SMILES IDX 5 1 3 2 2 3 1 4 21 5 19 6 18 7 16 8 15 9 14 10 13 11 6 12
REMARK SMILES IDX 7 13 8 14 9 15 12 16 11 17 10 18 4 20 20 22 17 24
REMARK H PARENT 10 19 4 21 20 23 17 25
REMARK Flexibility Score: inf
ROOT
ATOM      1  C   UNL     1       3.929   1.057   6.342  1.00  0.00     0.180 A 
ATOM      2  C   UNL     1       3.043   0.430   7.234  1.00  0.00     0.208 A 
ATOM      3  C   UNL     1       3.005  -0.973   7.283  1.00  0.00     0.238 A 
ATOM      4  O   UNL     1       2.249  -1.528   8.123  1.00  0.00    -0.285 OA
ATOM      5  C   UNL     1       3.840  -1.731   6.427  1.00  0.00     0.111 A 
ATOM      6  C   UNL     1       3.854  -3.156   6.364  1.00  0.00     0.134 A 
ATOM      7  C   UNL     1       4.814  -3.802   5.573  1.00  0.00     0.093 A 
ATOM      8  C   UNL     1       5.715  -3.076   4.797  1.00  0.00     0.123 A 
ATOM      9  C   UNL     1       5.671  -1.681   4.805  1.00  0.00     0.094 A 
ATOM     10  C   UNL     1       4.749  -1.008   5.611  1.00  0.00     0.146 A 
ATOM     11  O   UNL     1       4.746   0.320   5.599  1.00  0.00    -0.452 OA
ENDROOT
BRANCH   1  12
ATOM     12  C   UNL     1       4.009   2.530   6.216  1.00  0.00     0.021 A 
ATOM     13  C   UNL     1       3.297   3.221   5.218  1.00  0.00     0.016 A 
ATOM     14  C   UNL     1       3.408   4.609   5.103  1.00  0.00     0.047 A 
ATOM     15  C   UNL     1       4.240   5.324   5.973  1.00  0.00     0.115 A 
ATOM     16  C   UNL     1       4.858   3.253   7.071  1.00  0.00     0.016 A 
ATOM     17  C   UNL     1       4.966   4.642   6.955  1.00  0.00     0.047 A 
BRANCH  15  18
ATOM     18  O   UNL     1       4.358   6.708   5.870  1.00  0.00    -0.508 OA
ATOM     19  H   UNL     1       3.653   7.329   6.254  1.00  0.00     0.293 HD
ENDBRANCH  15  18
ENDBRANCH   1  12
BRANCH   2  20
ATOM     20  O   UNL     1       2.244   1.197   8.086  1.00  0.00    -0.502 OA
ATOM     21  H   UNL     1       1.708   1.993   7.759  1.00  0.00     0.293 HD
ENDBRANCH   2  20
BRANCH   6  22
ATOM     22  O   UNL     1       2.939  -3.977   7.028  1.00  0.00    -0.507 OA
ATOM     23  H   UNL     1       2.025  -4.221   6.677  1.00  0.00     0.293 HD
ENDBRANCH   6  22
BRANCH   8  24
ATOM     24  O   UNL     1       6.645  -3.752   4.010  1.00  0.00    -0.508 OA
ATOM     25  H   UNL     1       7.087  -4.606   4.328  1.00  0.00     0.293 HD
ENDBRANCH   8  24
TORSDOF 5
ENDMDL
MODEL 6
REMARK VINA RESULT:    -5.468     15.623     16.920
REMARK INTER + INTRA:          -6.336
REMARK INTER:                  -6.073
REMARK INTRA:                  -0.263
REMARK UNBOUND:                 0.091
REMARK SMILES O=c1c(O)c(-c2ccc(O)cc2)oc2cc(O)cc(O)c12
REMARK SMILES IDX 5 1 3 2 2 3 1 4 21 5 19 6 18 7 16 8 15 9 14 10 13 11 6 12
REMARK SMILES IDX 7 13 8 14 9 15 12 16 11 17 10 18 4 20 20 22 17 24
REMARK H PARENT 10 19 4 21 20 23 17 25
REMARK Flexibility Score: inf
ROOT
ATOM      1  C   UNL     1       1.935  -3.503 -10.218  1.00  0.00     0.180 A 
ATOM      2  C   UNL     1       1.169  -4.455 -10.912  1.00  0.00     0.208 A 
ATOM      3  C   UNL     1      -0.096  -4.088 -11.397  1.00  0.00     0.238 A 
ATOM      4  O   UNL     1      -0.755  -4.929 -12.064  1.00  0.00    -0.285 OA
ATOM      5  C   UNL     1      -0.587  -2.780 -11.168  1.00  0.00     0.111 A 
ATOM      6  C   UNL     1      -1.871  -2.313 -11.579  1.00  0.00     0.134 A 
ATOM      7  C   UNL     1      -2.200  -0.961 -11.413  1.00  0.00     0.093 A 
ATOM      8  C   UNL     1      -1.318  -0.076 -10.795  1.00  0.00     0.123 A 
ATOM      9  C   UNL     1      -0.083  -0.535 -10.336  1.00  0.00     0.094 A 
ATOM     10  C   UNL     1       0.288  -1.870 -10.518  1.00  0.00     0.146 A 
ATOM     11  O   UNL     1       1.476  -2.265 -10.077  1.00  0.00    -0.452 OA
ENDROOT
BRANCH   1  12
ATOM     12  C   UNL     1       3.268  -3.822  -9.656  1.00  0.00     0.021 A 
ATOM     13  C   UNL     1       3.404  -4.545  -8.457  1.00  0.00     0.016 A 
ATOM     14  C   UNL     1       4.671  -4.813  -7.933  1.00  0.00     0.047 A 
ATOM     15  C   UNL     1       5.818  -4.350  -8.591  1.00  0.00     0.115 A 
ATOM     16  C   UNL     1       4.422  -3.343 -10.298  1.00  0.00     0.016 A 
ATOM     17  C   UNL     1       5.689  -3.613  -9.772  1.00  0.00     0.047 A 
BRANCH  15  18
ATOM     18  O   UNL     1       7.087  -4.612  -8.080  1.00  0.00    -0.508 OA
ATOM     19  H   UNL     1       7.693  -3.864  -7.759  1.00  0.00     0.293 HD
ENDBRANCH  15  18
ENDBRANCH   1  12
BRANCH   2  20
ATOM     20  O   UNL     1       1.682  -5.734 -11.146  1.00  0.00    -0.502 OA
ATOM     21  H   UNL     1       2.386  -6.155 -10.551  1.00  0.00     0.293 HD
ENDBRANCH   2  20
BRANCH   6  22
ATOM     22  O   UNL     1      -2.864  -3.134 -12.123  1.00  0.00    -0.507 OA
ATOM     23  H   UNL     1      -3.549  -3.640 -11.585  1.00  0.00     0.293 HD
ENDBRANCH   6  22
BRANCH   8  24
ATOM     24  O   UNL     1      -1.684   1.258 -10.633  1.00  0.00    -0.508 OA
ATOM     25  H   UNL     1      -1.369   1.976 -11.275  1.00  0.00     0.293 HD
ENDBRANCH   8  24
TORSDOF 5
ENDMDL
MODEL 7
REMARK VINA RESULT:    -5.387      3.302      6.332
REMARK INTER + INTRA:          -6.240
REMARK INTER:                  -6.049
REMARK INTRA:                  -0.191
REMARK UNBOUND:                 0.091
REMARK SMILES O=c1c(O)c(-c2ccc(O)cc2)oc2cc(O)cc(O)c12
REMARK SMILES IDX 5 1 3 2 2 3 1 4 21 5 19 6 18 7 16 8 15 9 14 10 13 11 6 12
REMARK SMILES IDX 7 13 8 14 9 15 12 16 11 17 10 18 4 20 20 22 17 24
REMARK H PARENT 10 19 4 21 20 23 17 25
REMARK Flexibility Score: inf
ROOT
ATOM      1  C   UNL     1       5.037  -7.642   4.802  1.00  0.00     0.180 A 
ATOM      2  C   UNL     1       5.792  -8.404   5.710  1.00  0.00     0.208 A 
ATOM      3  C   UNL     1       7.164  -8.141   5.844  1.00  0.00     0.238 A 
ATOM      4  O   UNL     1       7.823  -8.791   6.698  1.00  0.00    -0.285 OA
ATOM      5  C   UNL     1       7.769  -7.132   5.057  1.00  0.00     0.111 A 
ATOM      6  C   UNL     1       9.158  -6.809   5.082  1.00  0.00     0.134 A 
ATOM      7  C   UNL     1       9.623  -5.704   4.356  1.00  0.00     0.093 A 
ATOM      8  C   UNL     1       8.762  -4.952   3.558  1.00  0.00     0.123 A 
ATOM      9  C   UNL     1       7.412  -5.295   3.480  1.00  0.00     0.094 A 
ATOM     10  C   UNL     1       6.912  -6.370   4.220  1.00  0.00     0.146 A 
ATOM     11  O   UNL     1       5.618  -6.658   4.127  1.00  0.00    -0.452 OA
ENDROOT
BRANCH   1  12
ATOM     12  C   UNL     1       3.591  -7.876   4.588  1.00  0.00     0.021 A 
ATOM     13  C   UNL     1       2.623  -6.977   5.071  1.00  0.00     0.016 A 
ATOM     14  C   UNL     1       1.262  -7.232   4.879  1.00  0.00     0.047 A 
ATOM     15  C   UNL     1       0.850  -8.393   4.214  1.00  0.00     0.115 A 
ATOM     16  C   UNL     1       3.168  -9.049   3.941  1.00  0.00     0.016 A 
ATOM     17  C   UNL     1       1.806  -9.301   3.748  1.00  0.00     0.047 A 
BRANCH  15  18
ATOM     18  O   UNL     1      -0.503  -8.658   4.014  1.00  0.00    -0.508 OA
ATOM     19  H   UNL     1      -0.811  -9.391   3.384  1.00  0.00     0.293 HD
ENDBRANCH  15  18
ENDBRANCH   1  12
BRANCH   2  20
ATOM     20  O   UNL     1       5.171  -9.381   6.493  1.00  0.00    -0.502 OA
ATOM     21  H   UNL     1       4.289  -9.219   6.967  1.00  0.00     0.293 HD
ENDBRANCH   2  20
BRANCH   6  22
ATOM     22  O   UNL     1      10.121  -7.551   5.773  1.00  0.00    -0.507 OA
ATOM     23  H   UNL     1      10.923  -7.157   6.240  1.00  0.00     0.293 HD
ENDBRANCH   6  22
BRANCH   8  24
ATOM     24  O   UNL     1       9.262  -3.870   2.838  1.00  0.00    -0.508 OA
ATOM     25  H   UNL     1       9.159  -3.809   1.832  1.00  0.00     0.293 HD
ENDBRANCH   8  24
TORSDOF 5
ENDMDL
MODEL 8
REMARK VINA RESULT:    -5.239      5.248     10.576
REMARK INTER + INTRA:          -6.066
REMARK INTER:                  -5.847
REMARK INTRA:                  -0.219
REMARK UNBOUND:                 0.091
REMARK SMILES O=c1c(O)c(-c2ccc(O)cc2)oc2cc(O)cc(O)c12
REMARK SMILES IDX 5 1 3 2 2 3 1 4 21 5 19 6 18 7 16 8 15 9 14 10 13 11 6 12
REMARK SMILES IDX 7 13 8 14 9 15 12 16 11 17 10 18 4 20 20 22 17 24
REMARK H PARENT 10 19 4 21 20 23 17 25
REMARK Flexibility Score: inf
ROOT
ATOM      1  C   UNL     1       5.032   0.817   6.068  1.00  0.00     0.180 A 
ATOM      2  C   UNL     1       6.430   0.929   6.166  1.00  0.00     0.208 A 
ATOM      3  C   UNL     1       7.022   2.195   6.036  1.00  0.00     0.238 A 
ATOM      4  O   UNL     1       8.269   2.296   6.177  1.00  0.00    -0.285 OA
ATOM      5  C   UNL     1       6.212   3.330   5.794  1.00  0.00     0.111 A 
ATOM      6  C   UNL     1       6.710   4.655   5.605  1.00  0.00     0.134 A 
ATOM      7  C   UNL     1       5.808   5.722   5.502  1.00  0.00     0.093 A 
ATOM      8  C   UNL     1       4.431   5.506   5.515  1.00  0.00     0.123 A 
ATOM      9  C   UNL     1       3.934   4.208   5.640  1.00  0.00     0.094 A 
ATOM     10  C   UNL     1       4.808   3.127   5.780  1.00  0.00     0.146 A 
ATOM     11  O   UNL     1       4.295   1.908   5.907  1.00  0.00    -0.452 OA
ENDROOT
BRANCH   1  12
ATOM     12  C   UNL     1       4.337  -0.487   6.170  1.00  0.00     0.021 A 
ATOM     13  C   UNL     1       4.425  -1.447   5.146  1.00  0.00     0.016 A 
ATOM     14  C   UNL     1       3.740  -2.660   5.253  1.00  0.00     0.047 A 
ATOM     15  C   UNL     1       2.948  -2.925   6.378  1.00  0.00     0.115 A 
ATOM     16  C   UNL     1       3.524  -0.752   7.285  1.00  0.00     0.016 A 
ATOM     17  C   UNL     1       2.841  -1.967   7.390  1.00  0.00     0.047 A 
BRANCH  15  18
ATOM     18  O   UNL     1       2.262  -4.131   6.498  1.00  0.00    -0.508 OA
ATOM     19  H   UNL     1       1.792  -4.554   5.704  1.00  0.00     0.293 HD
ENDBRANCH  15  18
ENDBRANCH   1  12
BRANCH   2  20
ATOM     20  O   UNL     1       7.209  -0.202   6.427  1.00  0.00    -0.502 OA
ATOM     21  H   UNL     1       7.346  -0.563   7.365  1.00  0.00     0.293 HD
ENDBRANCH   2  20
BRANCH   6  22
ATOM     22  O   UNL     1       8.066   4.970   5.484  1.00  0.00    -0.507 OA
ATOM     23  H   UNL     1       8.638   5.340   6.228  1.00  0.00     0.293 HD
ENDBRANCH   6  22
BRANCH   8  24
ATOM     24  O   UNL     1       3.564   6.590   5.394  1.00  0.00    -0.508 OA
ATOM     25  H   UNL     1       3.910   7.533   5.265  1.00  0.00     0.293 HD
ENDBRANCH   8  24
TORSDOF 5
ENDMDL
MODEL 9
REMARK VINA RESULT:    -5.190      3.710      5.222
REMARK INTER + INTRA:          -6.009
REMARK INTER:                  -5.769
REMARK INTRA:                  -0.240
REMARK UNBOUND:                 0.091
REMARK SMILES O=c1c(O)c(-c2ccc(O)cc2)oc2cc(O)cc(O)c12
REMARK SMILES IDX 5 1 3 2 2 3 1 4 21 5 19 6 18 7 16 8 15 9 14 10 13 11 6 12
REMARK SMILES IDX 7 13 8 14 9 15 12 16 11 17 10 18 4 20 20 22 17 24
REMARK H PARENT 10 19 4 21 20 23 17 25
REMARK Flexibility Score: inf
ROOT
ATOM      1  C   UNL     1      -1.247  -4.575   6.442  1.00  0.00     0.180 A 
ATOM      2  C   UNL     1      -0.054  -3.902   6.758  1.00  0.00     0.208 A 
ATOM      3  C   UNL     1       1.172  -4.504   6.435  1.00  0.00     0.238 A 
ATOM      4  O   UNL     1       2.236  -3.872   6.673  1.00  0.00    -0.285 OA
ATOM      5  C   UNL     1       1.192  -5.776   5.816  1.00  0.00     0.111 A 
ATOM      6  C   UNL     1       2.378  -6.497   5.482  1.00  0.00     0.134 A 
ATOM      7  C   UNL     1       2.279  -7.689   4.754  1.00  0.00     0.093 A 
ATOM      8  C   UNL     1       1.038  -8.219   4.405  1.00  0.00     0.123 A 
ATOM      9  C   UNL     1      -0.130  -7.554   4.778  1.00  0.00     0.094 A 
ATOM     10  C   UNL     1      -0.063  -6.344   5.474  1.00  0.00     0.146 A 
ATOM     11  O   UNL     1      -1.198  -5.736   5.802  1.00  0.00    -0.452 OA
ENDROOT
BRANCH   1  12
ATOM     12  C   UNL     1      -2.578  -4.016   6.772  1.00  0.00     0.021 A 
ATOM     13  C   UNL     1      -3.336  -4.514   7.847  1.00  0.00     0.016 A 
ATOM     14  C   UNL     1      -4.601  -3.988   8.125  1.00  0.00     0.047 A 
ATOM     15  C   UNL     1      -5.130  -2.966   7.325  1.00  0.00     0.115 A 
ATOM     16  C   UNL     1      -3.126  -3.006   5.963  1.00  0.00     0.016 A 
ATOM     17  C   UNL     1      -4.390  -2.481   6.243  1.00  0.00     0.047 A 
BRANCH  15  18
ATOM     18  O   UNL     1      -6.389  -2.432   7.592  1.00  0.00    -0.508 OA
ATOM     19  H   UNL     1      -6.566  -1.890   8.432  1.00  0.00     0.293 HD
ENDBRANCH  15  18
ENDBRANCH   1  12
BRANCH   2  20
ATOM     20  O   UNL     1      -0.097  -2.636   7.350  1.00  0.00    -0.502 OA
ATOM     21  H   UNL     1      -0.536  -1.841   6.900  1.00  0.00     0.293 HD
ENDBRANCH   2  20
BRANCH   6  22
ATOM     22  O   UNL     1       3.664  -6.103   5.863  1.00  0.00    -0.507 OA
ATOM     23  H   UNL     1       4.454  -6.725   5.947  1.00  0.00     0.293 HD
ENDBRANCH   6  22
BRANCH   8  24
ATOM     24  O   UNL     1       0.977  -9.416   3.695  1.00  0.00    -0.508 OA
ATOM     25  H   UNL     1       1.121  -9.445   2.692  1.00  0.00     0.293 HD
ENDBRANCH   8  24
TORSDOF 5
ENDMDL
