MODEL 1
REMARK VINA RESULT:    -4.304      0.000      0.000
REMARK INTER + INTRA:          -8.667
REMARK INTER:                  -7.324
REMARK INTRA:                  -1.343
REMARK UNBOUND:                -1.343
REMARK SMILES CCCCCCCCCCCCCC(=O)[O-]
REMARK SMILES IDX 8 1 9 2 10 3 11 4 12 5 13 6 14 7 15 8 16 9 7 10 6 11 5 12
REMARK SMILES IDX 4 13 3 14 2 15 1 16
REMARK H PARENT
REMARK Flexibility Score: inf
ROOT
ATOM      1  C   UNL     1      -4.985   5.735 -37.185  1.00  0.00     0.000 C 
ENDROOT
BRANCH   1   2
ATOM      2  C   UNL     1      -6.281   6.338 -36.619  1.00  0.00     0.000 C 
BRANCH   2   3
ATOM      3  C   UNL     1      -6.017   7.397 -35.537  1.00  0.00     0.000 C 
BRANCH   3   4
ATOM      4  C   UNL     1      -5.624   6.781 -34.186  1.00  0.00     0.000 C 
BRANCH   4   5
ATOM      5  C   UNL     1      -6.568   7.257 -33.071  1.00  0.00     0.006 C 
BRANCH   5   6
ATOM      6  C   UNL     1      -7.312   6.093 -32.403  1.00  0.00     0.053 C 
BRANCH   6   7
ATOM      7  C   UNL     1      -8.101   5.294 -33.396  1.00  0.00     0.041 C 
ATOM      8  O   UNL     1      -9.084   5.811 -33.987  1.00  0.00    -0.550 OA
ATOM      9  O   UNL     1      -7.768   3.968 -33.641  1.00  0.00    -0.550 OA
ENDBRANCH   6   7
ENDBRANCH   5   6
ENDBRANCH   4   5
ENDBRANCH   3   4
ENDBRANCH   2   3
ENDBRANCH   1   2
BRANCH   1  10
ATOM     10  C   UNL     1      -4.028   6.802 -37.741  1.00  0.00     0.000 C 
BRANCH  10  11
ATOM     11  C   UNL     1      -2.556   6.513 -37.399  1.00  0.00    -0.000 C 
BRANCH  11  12
ATOM     12  C   UNL     1      -1.875   7.700 -36.697  1.00  0.00    -0.000 C 
BRANCH  12  13
ATOM     13  C   UNL     1      -1.044   7.267 -35.477  1.00  0.00    -0.000 C 
BRANCH  13  14
ATOM     14  C   UNL     1      -1.498   7.977 -34.184  1.00  0.00    -0.000 C 
BRANCH  14  15
ATOM     15  C   UNL     1      -2.661   8.960 -34.398  1.00  0.00    -0.003 C 
ATOM     16  C   UNL     1      -2.572  10.198 -33.507  1.00  0.00     0.004 C 
ENDBRANCH  14  15
ENDBRANCH  13  14
ENDBRANCH  12  13
ENDBRANCH  11  12
ENDBRANCH  10  11
ENDBRANCH   1  10
TORSDOF 12
ENDMDL
MODEL 2
REMARK VINA RESULT:    -4.225      1.607      2.903
REMARK INTER + INTRA:          -8.532
REMARK INTER:                  -7.405
REMARK INTRA:                  -1.126
REMARK UNBOUND:                -1.343
REMARK SMILES CCCCCCCCCCCCCC(=O)[O-]
REMARK SMILES IDX 8 1 9 2 10 3 11 4 12 5 13 6 14 7 15 8 16 9 7 10 6 11 5 12
REMARK SMILES IDX 4 13 3 14 2 15 1 16
REMARK H PARENT
REMARK Flexibility Score: inf
ROOT
ATOM      1  C   UNL     1      -6.582   5.949 -37.080  1.00  0.00     0.000 C 
ENDROOT
BRANCH   1   2
ATOM      2  C   UNL     1      -5.702   4.690 -36.994  1.00  0.00     0.000 C 
BRANCH   2   3
ATOM      3  C   UNL     1      -6.438   3.497 -36.363  1.00  0.00     0.000 C 
BRANCH   3   4
ATOM      4  C   UNL     1      -7.966   3.612 -36.482  1.00  0.00     0.000 C 
BRANCH   4   5
ATOM      5  C   UNL     1      -8.638   3.416 -35.114  1.00  0.00     0.006 C 
BRANCH   5   6
ATOM      6  C   UNL     1      -7.744   3.876 -33.955  1.00  0.00     0.053 C 
BRANCH   6   7
ATOM      7  C   UNL     1      -8.144   5.227 -33.446  1.00  0.00     0.041 C 
ATOM      8  O   UNL     1      -9.185   5.785 -33.881  1.00  0.00    -0.550 OA
ATOM      9  O   UNL     1      -7.348   5.882 -32.516  1.00  0.00    -0.550 OA
ENDBRANCH   6   7
ENDBRANCH   5   6
ENDBRANCH   4   5
ENDBRANCH   3   4
ENDBRANCH   2   3
ENDBRANCH   1   2
BRANCH   1  10
ATOM     10  C   UNL     1      -6.267   6.968 -35.972  1.00  0.00     0.000 C 
BRANCH  10  11
ATOM     11  C   UNL     1      -4.773   7.332 -35.911  1.00  0.00    -0.000 C 
BRANCH  11  12
ATOM     12  C   UNL     1      -4.418   8.131 -34.646  1.00  0.00    -0.000 C 
BRANCH  12  13
ATOM     13  C   UNL     1      -3.060   8.846 -34.760  1.00  0.00    -0.000 C 
BRANCH  13  14
ATOM     14  C   UNL     1      -1.907   7.996 -34.186  1.00  0.00    -0.000 C 
BRANCH  14  15
ATOM     15  C   UNL     1      -0.942   7.464 -35.259  1.00  0.00    -0.003 C 
ATOM     16  C   UNL     1      -1.194   8.063 -36.641  1.00  0.00     0.004 C 
ENDBRANCH  14  15
ENDBRANCH  13  14
ENDBRANCH  12  13
ENDBRANCH  11  12
ENDBRANCH  10  11
ENDBRANCH   1  10
TORSDOF 12
ENDMDL
MODEL 3
REMARK VINA RESULT:    -4.172     15.026     16.303
REMARK INTER + INTRA:          -8.443
REMARK INTER:                  -7.670
REMARK INTRA:                  -0.773
REMARK UNBOUND:                -1.343
REMARK SMILES CCCCCCCCCCCCCC(=O)[O-]
REMARK SMILES IDX 8 1 9 2 10 3 11 4 12 5 13 6 14 7 15 8 16 9 7 10 6 11 5 12
REMARK SMILES IDX 4 13 3 14 2 15 1 16
REMARK H PARENT
REMARK Flexibility Score: inf
ROOT
ATOM      1  C   UNL     1     -12.969   2.284 -21.956  1.00  0.00     0.000 C 
ENDROOT
BRANCH   1   2
ATOM      2  C   UNL     1     -14.122   2.983 -21.216  1.00  0.00     0.000 C 
BRANCH   2   3
ATOM      3  C   UNL     1     -15.211   3.499 -22.171  1.00  0.00     0.000 C 
BRANCH   3   4
ATOM      4  C   UNL     1     -14.691   3.722 -23.599  1.00  0.00     0.000 C 
BRANCH   4   5
ATOM      5  C   UNL     1     -14.364   5.204 -23.838  1.00  0.00     0.006 C 
BRANCH   5   6
ATOM      6  C   UNL     1     -15.299   5.846 -24.872  1.00  0.00     0.053 C 
BRANCH   6   7
ATOM      7  C   UNL     1     -16.206   6.860 -24.245  1.00  0.00     0.041 C 
ATOM      8  O   UNL     1     -16.901   6.555 -23.241  1.00  0.00    -0.550 OA
ATOM      9  O   UNL     1     -16.310   8.132 -24.793  1.00  0.00    -0.550 OA
ENDBRANCH   6   7
ENDBRANCH   5   6
ENDBRANCH   4   5
ENDBRANCH   3   4
ENDBRANCH   2   3
ENDBRANCH   1   2
BRANCH   1  10
ATOM     10  C   UNL     1     -12.149   1.363 -21.038  1.00  0.00     0.000 C 
BRANCH  10  11
ATOM     11  C   UNL     1     -11.975  -0.051 -21.622  1.00  0.00    -0.000 C 
BRANCH  11  12
ATOM     12  C   UNL     1     -10.548  -0.592 -21.425  1.00  0.00    -0.000 C 
BRANCH  12  13
ATOM     13  C   UNL     1      -9.901  -0.089 -20.123  1.00  0.00    -0.000 C 
BRANCH  13  14
ATOM     14  C   UNL     1      -8.373   0.080 -20.262  1.00  0.00    -0.000 C 
BRANCH  14  15
ATOM     15  C   UNL     1      -7.890   1.522 -20.031  1.00  0.00    -0.003 C 
ATOM     16  C   UNL     1      -9.028   2.492 -19.720  1.00  0.00     0.004 C 
ENDBRANCH  14  15
ENDBRANCH  13  14
ENDBRANCH  12  13
ENDBRANCH  11  12
ENDBRANCH  10  11
ENDBRANCH   1  10
TORSDOF 12
ENDMDL
MODEL 4
REMARK VINA RESULT:    -4.129      3.199      4.913
REMARK INTER + INTRA:          -8.369
REMARK INTER:                  -7.754
REMARK INTRA:                  -0.615
REMARK UNBOUND:                -1.343
REMARK SMILES CCCCCCCCCCCCCC(=O)[O-]
REMARK SMILES IDX 8 1 9 2 10 3 11 4 12 5 13 6 14 7 15 8 16 9 7 10 6 11 5 12
REMARK SMILES IDX 4 13 3 14 2 15 1 16
REMARK H PARENT
REMARK Flexibility Score: inf
ROOT
ATOM      1  C   UNL     1      -8.070   5.544 -33.738  1.00  0.00     0.000 C 
ENDROOT
BRANCH   1   2
ATOM      2  C   UNL     1      -7.789   4.037 -33.862  1.00  0.00     0.000 C 
BRANCH   2   3
ATOM      3  C   UNL     1      -7.393   3.625 -35.289  1.00  0.00     0.000 C 
BRANCH   3   4
ATOM      4  C   UNL     1      -8.587   3.125 -36.116  1.00  0.00     0.000 C 
BRANCH   4   5
ATOM      5  C   UNL     1      -9.728   2.652 -35.202  1.00  0.00     0.006 C 
BRANCH   5   6
ATOM      6  C   UNL     1     -10.480   1.449 -35.786  1.00  0.00     0.053 C 
BRANCH   6   7
ATOM      7  C   UNL     1     -11.958   1.557 -35.565  1.00  0.00     0.041 C 
ATOM      8  O   UNL     1     -12.538   0.781 -34.761  1.00  0.00    -0.550 OA
ATOM      9  O   UNL     1     -12.700   2.494 -36.274  1.00  0.00    -0.550 OA
ENDBRANCH   6   7
ENDBRANCH   5   6
ENDBRANCH   4   5
ENDBRANCH   3   4
ENDBRANCH   2   3
ENDBRANCH   1   2
BRANCH   1  10
ATOM     10  C   UNL     1      -7.274   6.202 -32.599  1.00  0.00     0.000 C 
BRANCH  10  11
ATOM     11  C   UNL     1      -6.102   7.057 -33.114  1.00  0.00    -0.000 C 
BRANCH  11  12
ATOM     12  C   UNL     1      -5.984   7.021 -34.648  1.00  0.00    -0.000 C 
BRANCH  12  13
ATOM     13  C   UNL     1      -5.039   8.107 -35.192  1.00  0.00    -0.000 C 
BRANCH  13  14
ATOM     14  C   UNL     1      -3.627   8.010 -34.576  1.00  0.00    -0.000 C 
BRANCH  14  15
ATOM     15  C   UNL     1      -2.495   8.156 -35.606  1.00  0.00    -0.003 C 
ATOM     16  C   UNL     1      -1.122   7.792 -35.045  1.00  0.00     0.004 C 
ENDBRANCH  14  15
ENDBRANCH  13  14
ENDBRANCH  12  13
ENDBRANCH  11  12
ENDBRANCH  10  11
ENDBRANCH   1  10
TORSDOF 12
ENDMDL
MODEL 5
REMARK VINA RESULT:    -4.074      1.845      2.973
REMARK INTER + INTRA:          -8.276
REMARK INTER:                  -7.426
REMARK INTRA:                  -0.850
REMARK UNBOUND:                -1.343
REMARK SMILES CCCCCCCCCCCCCC(=O)[O-]
REMARK SMILES IDX 8 1 9 2 10 3 11 4 12 5 13 6 14 7 15 8 16 9 7 10 6 11 5 12
REMARK SMILES IDX 4 13 3 14 2 15 1 16
REMARK H PARENT
REMARK Flexibility Score: inf
ROOT
ATOM      1  C   UNL     1      -5.471   3.332 -37.088  1.00  0.00     0.000 C 
ENDROOT
BRANCH   1   2
ATOM      2  C   UNL     1      -6.891   3.555 -36.541  1.00  0.00     0.000 C 
BRANCH   2   3
ATOM      3  C   UNL     1      -6.993   3.279 -35.032  1.00  0.00     0.000 C 
BRANCH   3   4
ATOM      4  C   UNL     1      -8.333   3.736 -34.434  1.00  0.00     0.000 C 
BRANCH   4   5
ATOM      5  C   UNL     1      -8.318   5.245 -34.144  1.00  0.00     0.006 C 
BRANCH   5   6
ATOM      6  C   UNL     1      -7.708   5.567 -32.773  1.00  0.00     0.053 C 
BRANCH   6   7
ATOM      7  C   UNL     1      -6.798   6.756 -32.835  1.00  0.00     0.041 C 
ATOM      8  O   UNL     1      -5.903   6.824 -33.717  1.00  0.00    -0.550 OA
ATOM      9  O   UNL     1      -6.919   7.773 -31.897  1.00  0.00    -0.550 OA
ENDBRANCH   6   7
ENDBRANCH   5   6
ENDBRANCH   4   5
ENDBRANCH   3   4
ENDBRANCH   2   3
ENDBRANCH   1   2
BRANCH   1  10
ATOM     10  C   UNL     1      -4.947   4.539 -37.882  1.00  0.00     0.000 C 
BRANCH  10  11
ATOM     11  C   UNL     1      -5.028   5.853 -37.084  1.00  0.00    -0.000 C 
BRANCH  11  12
ATOM     12  C   UNL     1      -4.273   7.002 -37.774  1.00  0.00    -0.000 C 
BRANCH  12  13
ATOM     13  C   UNL     1      -2.758   6.745 -37.861  1.00  0.00    -0.000 C 
BRANCH  13  14
ATOM     14  C   UNL     1      -1.941   7.842 -37.146  1.00  0.00    -0.000 C 
BRANCH  14  15
ATOM     15  C   UNL     1      -1.337   7.386 -35.808  1.00  0.00    -0.003 C 
ATOM     16  C   UNL     1      -1.887   8.155 -34.608  1.00  0.00     0.004 C 
ENDBRANCH  14  15
ENDBRANCH  13  14
ENDBRANCH  12  13
ENDBRANCH  11  12
ENDBRANCH  10  11
ENDBRANCH   1  10
TORSDOF 12
ENDMDL
MODEL 6
REMARK VINA RESULT:    -4.005      3.358      6.253
REMARK INTER + INTRA:          -8.159
REMARK INTER:                  -7.184
REMARK INTRA:                  -0.975
REMARK UNBOUND:                -1.343
REMARK SMILES CCCCCCCCCCCCCC(=O)[O-]
REMARK SMILES IDX 8 1 9 2 10 3 11 4 12 5 13 6 14 7 15 8 16 9 7 10 6 11 5 12
REMARK SMILES IDX 4 13 3 14 2 15 1 16
REMARK H PARENT
REMARK Flexibility Score: inf
ROOT
ATOM      1  C   UNL     1      -5.894   3.196 -38.320  1.00  0.00     0.000 C 
ENDROOT
BRANCH   1   2
ATOM      2  C   UNL     1      -4.538   2.948 -37.637  1.00  0.00     0.000 C 
BRANCH   2   3
ATOM      3  C   UNL     1      -3.471   3.973 -38.052  1.00  0.00     0.000 C 
BRANCH   3   4
ATOM      4  C   UNL     1      -4.059   5.164 -38.823  1.00  0.00     0.000 C 
BRANCH   4   5
ATOM      5  C   UNL     1      -3.473   6.490 -38.314  1.00  0.00     0.006 C 
BRANCH   5   6
ATOM      6  C   UNL     1      -2.371   6.276 -37.269  1.00  0.00     0.053 C 
BRANCH   6   7
ATOM      7  C   UNL     1      -1.892   7.572 -36.691  1.00  0.00     0.041 C 
ATOM      8  O   UNL     1      -1.482   8.491 -37.448  1.00  0.00    -0.550 OA
ATOM      9  O   UNL     1      -1.868   7.753 -35.314  1.00  0.00    -0.550 OA
ENDBRANCH   6   7
ENDBRANCH   5   6
ENDBRANCH   4   5
ENDBRANCH   3   4
ENDBRANCH   2   3
ENDBRANCH   1   2
BRANCH   1  10
ATOM     10  C   UNL     1      -7.015   3.507 -37.316  1.00  0.00     0.000 C 
BRANCH  10  11
ATOM     11  C   UNL     1      -6.475   3.972 -35.951  1.00  0.00    -0.000 C 
BRANCH  11  12
ATOM     12  C   UNL     1      -7.100   3.194 -34.780  1.00  0.00    -0.000 C 
BRANCH  12  13
ATOM     13  C   UNL     1      -8.335   3.901 -34.195  1.00  0.00    -0.000 C 
BRANCH  13  14
ATOM     14  C   UNL     1      -8.090   5.408 -33.971  1.00  0.00    -0.000 C 
BRANCH  14  15
ATOM     15  C   UNL     1      -7.772   5.769 -32.511  1.00  0.00    -0.003 C 
ATOM     16  C   UNL     1      -6.809   6.947 -32.380  1.00  0.00     0.004 C 
ENDBRANCH  14  15
ENDBRANCH  13  14
ENDBRANCH  12  13
ENDBRANCH  11  12
ENDBRANCH  10  11
ENDBRANCH   1  10
TORSDOF 12
ENDMDL
MODEL 7
REMARK VINA RESULT:    -3.997      1.607      2.712
REMARK INTER + INTRA:          -8.144
REMARK INTER:                  -6.899
REMARK INTRA:                  -1.245
REMARK UNBOUND:                -1.343
REMARK SMILES CCCCCCCCCCCCCC(=O)[O-]
REMARK SMILES IDX 8 1 9 2 10 3 11 4 12 5 13 6 14 7 15 8 16 9 7 10 6 11 5 12
REMARK SMILES IDX 4 13 3 14 2 15 1 16
REMARK H PARENT
REMARK Flexibility Score: inf
ROOT
ATOM      1  C   UNL     1      -4.304   3.708 -38.081  1.00  0.00     0.000 C 
ENDROOT
BRANCH   1   2
ATOM      2  C   UNL     1      -5.732   3.169 -38.268  1.00  0.00     0.000 C 
BRANCH   2   3
ATOM      3  C   UNL     1      -6.656   3.521 -37.091  1.00  0.00     0.000 C 
BRANCH   3   4
ATOM      4  C   UNL     1      -7.578   4.712 -37.396  1.00  0.00     0.000 C 
BRANCH   4   5
ATOM      5  C   UNL     1      -7.546   5.738 -36.252  1.00  0.00     0.006 C 
BRANCH   5   6
ATOM      6  C   UNL     1      -6.804   5.208 -35.017  1.00  0.00     0.053 C 
BRANCH   6   7
ATOM      7  C   UNL     1      -7.749   4.859 -33.909  1.00  0.00     0.041 C 
ATOM      8  O   UNL     1      -8.029   3.655 -33.670  1.00  0.00    -0.550 OA
ATOM      9  O   UNL     1      -8.346   5.866 -33.161  1.00  0.00    -0.550 OA
ENDBRANCH   6   7
ENDBRANCH   5   6
ENDBRANCH   4   5
ENDBRANCH   3   4
ENDBRANCH   2   3
ENDBRANCH   1   2
BRANCH   1  10
ATOM     10  C   UNL     1      -4.124   5.122 -38.655  1.00  0.00     0.000 C 
BRANCH  10  11
ATOM     11  C   UNL     1      -3.174   5.988 -37.809  1.00  0.00    -0.000 C 
BRANCH  11  12
ATOM     12  C   UNL     1      -3.927   7.046 -36.984  1.00  0.00    -0.000 C 
BRANCH  12  13
ATOM     13  C   UNL     1      -2.980   8.060 -36.319  1.00  0.00    -0.000 C 
BRANCH  13  14
ATOM     14  C   UNL     1      -1.504   7.613 -36.396  1.00  0.00    -0.000 C 
BRANCH  14  15
ATOM     15  C   UNL     1      -0.875   7.328 -35.022  1.00  0.00    -0.003 C 
ATOM     16  C   UNL     1      -1.532   8.113 -33.888  1.00  0.00     0.004 C 
ENDBRANCH  14  15
ENDBRANCH  13  14
ENDBRANCH  12  13
ENDBRANCH  11  12
ENDBRANCH  10  11
ENDBRANCH   1  10
TORSDOF 12
ENDMDL
MODEL 8
REMARK VINA RESULT:    -3.983      1.478      3.915
REMARK INTER + INTRA:          -8.121
REMARK INTER:                  -6.683
REMARK INTRA:                  -1.438
REMARK UNBOUND:                -1.343
REMARK SMILES CCCCCCCCCCCCCC(=O)[O-]
REMARK SMILES IDX 8 1 9 2 10 3 11 4 12 5 13 6 14 7 15 8 16 9 7 10 6 11 5 12
REMARK SMILES IDX 4 13 3 14 2 15 1 16
REMARK H PARENT
REMARK Flexibility Score: inf
ROOT
ATOM      1  C   UNL     1      -2.225   8.112 -34.482  1.00  0.00     0.000 C 
ENDROOT
BRANCH   1   2
ATOM      2  C   UNL     1      -3.126   9.337 -34.713  1.00  0.00     0.000 C 
BRANCH   2   3
ATOM      3  C   UNL     1      -4.553   8.951 -35.133  1.00  0.00     0.000 C 
BRANCH   3   4
ATOM      4  C   UNL     1      -5.042   7.660 -34.458  1.00  0.00     0.000 C 
BRANCH   4   5
ATOM      5  C   UNL     1      -6.262   7.085 -35.194  1.00  0.00     0.006 C 
BRANCH   5   6
ATOM      6  C   UNL     1      -6.629   5.679 -34.701  1.00  0.00     0.053 C 
BRANCH   6   7
ATOM      7  C   UNL     1      -7.813   5.703 -33.784  1.00  0.00     0.041 C 
ATOM      8  O   UNL     1      -8.972   5.526 -34.240  1.00  0.00    -0.550 OA
ATOM      9  O   UNL     1      -7.638   5.956 -32.429  1.00  0.00    -0.550 OA
ENDBRANCH   6   7
ENDBRANCH   5   6
ENDBRANCH   4   5
ENDBRANCH   3   4
ENDBRANCH   2   3
ENDBRANCH   1   2
BRANCH   1  10
ATOM     10  C   UNL     1      -1.266   7.852 -35.655  1.00  0.00     0.000 C 
BRANCH  10  11
ATOM     11  C   UNL     1      -1.643   6.596 -36.460  1.00  0.00    -0.000 C 
BRANCH  11  12
ATOM     12  C   UNL     1      -2.402   6.938 -37.754  1.00  0.00    -0.000 C 
BRANCH  12  13
ATOM     13  C   UNL     1      -3.826   6.355 -37.774  1.00  0.00    -0.000 C 
BRANCH  13  14
ATOM     14  C   UNL     1      -3.869   4.952 -38.418  1.00  0.00    -0.000 C 
BRANCH  14  15
ATOM     15  C   UNL     1      -4.624   3.912 -37.575  1.00  0.00    -0.003 C 
ATOM     16  C   UNL     1      -3.942   2.544 -37.560  1.00  0.00     0.004 C 
ENDBRANCH  14  15
ENDBRANCH  13  14
ENDBRANCH  12  13
ENDBRANCH  11  12
ENDBRANCH  10  11
ENDBRANCH   1  10
TORSDOF 12
ENDMDL
MODEL 9
REMARK VINA RESULT:    -3.963      1.426      2.794
REMARK INTER + INTRA:          -8.087
REMARK INTER:                  -6.825
REMARK INTRA:                  -1.262
REMARK UNBOUND:                -1.343
REMARK SMILES CCCCCCCCCCCCCC(=O)[O-]
REMARK SMILES IDX 8 1 9 2 10 3 11 4 12 5 13 6 14 7 15 8 16 9 7 10 6 11 5 12
REMARK SMILES IDX 4 13 3 14 2 15 1 16
REMARK H PARENT
REMARK Flexibility Score: inf
ROOT
ATOM      1  C   UNL     1      -3.644   6.278 -37.926  1.00  0.00     0.000 C 
ENDROOT
BRANCH   1   2
ATOM      2  C   UNL     1      -4.172   4.865 -38.227  1.00  0.00     0.000 C 
BRANCH   2   3
ATOM      3  C   UNL     1      -5.642   4.684 -37.817  1.00  0.00     0.000 C 
BRANCH   3   4
ATOM      4  C   UNL     1      -5.843   3.531 -36.821  1.00  0.00     0.000 C 
BRANCH   4   5
ATOM      5  C   UNL     1      -7.246   3.584 -36.197  1.00  0.00     0.006 C 
BRANCH   5   6
ATOM      6  C   UNL     1      -7.200   3.598 -34.664  1.00  0.00     0.053 C 
BRANCH   6   7
ATOM      7  C   UNL     1      -7.989   4.737 -34.094  1.00  0.00     0.041 C 
ATOM      8  O   UNL     1      -8.812   5.361 -34.814  1.00  0.00    -0.550 OA
ATOM      9  O   UNL     1      -7.788   5.131 -32.778  1.00  0.00    -0.550 OA
ENDBRANCH   6   7
ENDBRANCH   5   6
ENDBRANCH   4   5
ENDBRANCH   3   4
ENDBRANCH   2   3
ENDBRANCH   1   2
BRANCH   1  10
ATOM     10  C   UNL     1      -2.261   6.262 -37.253  1.00  0.00     0.000 C 
BRANCH  10  11
ATOM     11  C   UNL     1      -1.828   7.654 -36.759  1.00  0.00    -0.000 C 
BRANCH  11  12
ATOM     12  C   UNL     1      -1.238   7.611 -35.339  1.00  0.00    -0.000 C 
BRANCH  12  13
ATOM     13  C   UNL     1      -2.185   8.218 -34.289  1.00  0.00    -0.000 C 
BRANCH  13  14
ATOM     14  C   UNL     1      -3.558   8.588 -34.890  1.00  0.00    -0.000 C 
BRANCH  14  15
ATOM     15  C   UNL     1      -4.729   7.800 -34.281  1.00  0.00    -0.003 C 
ATOM     16  C   UNL     1      -5.805   7.437 -35.303  1.00  0.00     0.004 C 
ENDBRANCH  14  15
ENDBRANCH  13  14
ENDBRANCH  12  13
ENDBRANCH  11  12
ENDBRANCH  10  11
ENDBRANCH   1  10
TORSDOF 12
ENDMDL
