MODEL 1
REMARK VINA RESULT:    -5.153      0.000      0.000
REMARK INTER + INTRA:          -9.675
REMARK INTER:                  -8.768
REMARK INTRA:                  -0.907
REMARK UNBOUND:                -0.907
REMARK SMILES CCCCCCCCCCCCCC(=O)[O-]
REMARK SMILES IDX 8 1 9 2 10 3 11 4 12 5 13 6 14 7 15 8 16 9 7 10 6 11 5 12
REMARK SMILES IDX 4 13 3 14 2 15 1 16
REMARK H PARENT
REMARK Flexibility Score: inf
ROOT
ATOM      1  C   UNL     1      22.219  13.100  10.275  1.00  0.00     0.000 C 
ENDROOT
BRANCH   1   2
ATOM      2  C   UNL     1      22.849  13.863   9.096  1.00  0.00     0.000 C 
BRANCH   2   3
ATOM      3  C   UNL     1      24.039  13.153   8.420  1.00  0.00     0.000 C 
BRANCH   3   4
ATOM      4  C   UNL     1      25.370  13.928   8.453  1.00  0.00     0.000 C 
BRANCH   4   5
ATOM      5  C   UNL     1      26.189  13.759   9.749  1.00  0.00     0.006 C 
BRANCH   5   6
ATOM      6  C   UNL     1      25.752  12.576  10.627  1.00  0.00     0.053 C 
BRANCH   6   7
ATOM      7  C   UNL     1      26.775  12.243  11.670  1.00  0.00     0.041 C 
ATOM      8  O   UNL     1      26.427  11.677  12.739  1.00  0.00    -0.550 OA
ATOM      9  O   UNL     1      28.116  12.526  11.446  1.00  0.00    -0.550 OA
ENDBRANCH   6   7
ENDBRANCH   5   6
ENDBRANCH   4   5
ENDBRANCH   3   4
ENDBRANCH   2   3
ENDBRANCH   1   2
BRANCH   1  10
ATOM     10  C   UNL     1      21.987  11.611   9.966  1.00  0.00     0.000 C 
BRANCH  10  11
ATOM     11  C   UNL     1      21.508  10.823  11.196  1.00  0.00    -0.000 C 
BRANCH  11  12
ATOM     12  C   UNL     1      22.657  10.468  12.155  1.00  0.00    -0.000 C 
BRANCH  12  13
ATOM     13  C   UNL     1      22.224   9.491  13.259  1.00  0.00    -0.000 C 
BRANCH  13  14
ATOM     14  C   UNL     1      21.135   8.511  12.790  1.00  0.00    -0.000 C 
BRANCH  14  15
ATOM     15  C   UNL     1      19.953   8.432  13.770  1.00  0.00    -0.003 C 
ATOM     16  C   UNL     1      19.147   9.731  13.826  1.00  0.00     0.004 C 
ENDBRANCH  14  15
ENDBRANCH  13  14
ENDBRANCH  12  13
ENDBRANCH  11  12
ENDBRANCH  10  11
ENDBRANCH   1  10
TORSDOF 12
ENDMDL
MODEL 2
REMARK VINA RESULT:    -5.096      2.891      6.178
REMARK INTER + INTRA:          -9.578
REMARK INTER:                  -8.127
REMARK INTRA:                  -1.451
REMARK UNBOUND:                -0.907
REMARK SMILES CCCCCCCCCCCCCC(=O)[O-]
REMARK SMILES IDX 8 1 9 2 10 3 11 4 12 5 13 6 14 7 15 8 16 9 7 10 6 11 5 12
REMARK SMILES IDX 4 13 3 14 2 15 1 16
REMARK H PARENT
REMARK Flexibility Score: inf
ROOT
ATOM      1  C   UNL     1      26.609  12.073  11.706  1.00  0.00     0.000 C 
ENDROOT
BRANCH   1   2
ATOM      2  C   UNL     1      25.094  11.803  11.670  1.00  0.00     0.000 C 
BRANCH   2   3
ATOM      3  C   UNL     1      24.408  11.743  13.050  1.00  0.00     0.000 C 
BRANCH   3   4
ATOM      4  C   UNL     1      23.618  10.452  13.334  1.00  0.00     0.000 C 
BRANCH   4   5
ATOM      5  C   UNL     1      22.802   9.912  12.142  1.00  0.00     0.006 C 
BRANCH   5   6
ATOM      6  C   UNL     1      21.318  10.312  12.156  1.00  0.00     0.053 C 
BRANCH   6   7
ATOM      7  C   UNL     1      20.483   9.344  12.938  1.00  0.00     0.041 C 
ATOM      8  O   UNL     1      20.865   8.155  13.087  1.00  0.00    -0.550 OA
ATOM      9  O   UNL     1      19.300   9.767  13.531  1.00  0.00    -0.550 OA
ENDBRANCH   6   7
ENDBRANCH   5   6
ENDBRANCH   4   5
ENDBRANCH   3   4
ENDBRANCH   2   3
ENDBRANCH   1   2
BRANCH   1  10
ATOM     10  C   UNL     1      27.141  12.665  10.389  1.00  0.00     0.000 C 
BRANCH  10  11
ATOM     11  C   UNL     1      26.314  13.869   9.909  1.00  0.00    -0.000 C 
BRANCH  11  12
ATOM     12  C   UNL     1      25.725  13.659   8.504  1.00  0.00    -0.000 C 
BRANCH  12  13
ATOM     13  C   UNL     1      24.234  14.022   8.428  1.00  0.00    -0.000 C 
BRANCH  13  14
ATOM     14  C   UNL     1      23.329  12.786   8.276  1.00  0.00    -0.000 C 
BRANCH  14  15
ATOM     15  C   UNL     1      22.325  12.645   9.431  1.00  0.00    -0.003 C 
ATOM     16  C   UNL     1      22.209  13.919  10.269  1.00  0.00     0.004 C 
ENDBRANCH  14  15
ENDBRANCH  13  14
ENDBRANCH  12  13
ENDBRANCH  11  12
ENDBRANCH  10  11
ENDBRANCH   1  10
TORSDOF 12
ENDMDL
MODEL 3
REMARK VINA RESULT:    -5.024      2.269      3.542
REMARK INTER + INTRA:          -9.455
REMARK INTER:                  -8.724
REMARK INTRA:                  -0.730
REMARK UNBOUND:                -0.907
REMARK SMILES CCCCCCCCCCCCCC(=O)[O-]
REMARK SMILES IDX 8 1 9 2 10 3 11 4 12 5 13 6 14 7 15 8 16 9 7 10 6 11 5 12
REMARK SMILES IDX 4 13 3 14 2 15 1 16
REMARK H PARENT
REMARK Flexibility Score: inf
ROOT
ATOM      1  C   UNL     1      26.726  12.129  11.923  1.00  0.00     0.000 C 
ENDROOT
BRANCH   1   2
ATOM      2  C   UNL     1      25.896  12.829  10.831  1.00  0.00     0.000 C 
BRANCH   2   3
ATOM      3  C   UNL     1      26.698  13.297   9.601  1.00  0.00     0.000 C 
BRANCH   3   4
ATOM      4  C   UNL     1      25.878  13.460   8.306  1.00  0.00     0.000 C 
BRANCH   4   5
ATOM      5  C   UNL     1      24.475  14.073   8.497  1.00  0.00     0.006 C 
BRANCH   5   6
ATOM      6  C   UNL     1      23.318  13.078   8.317  1.00  0.00     0.053 C 
BRANCH   6   7
ATOM      7  C   UNL     1      22.429  13.027   9.521  1.00  0.00     0.041 C 
ATOM      8  O   UNL     1      22.048  14.092  10.072  1.00  0.00    -0.550 OA
ATOM      9  O   UNL     1      21.991  11.803  10.012  1.00  0.00    -0.550 OA
ENDBRANCH   6   7
ENDBRANCH   5   6
ENDBRANCH   4   5
ENDBRANCH   3   4
ENDBRANCH   2   3
ENDBRANCH   1   2
BRANCH   1  10
ATOM     10  C   UNL     1      25.856  11.546  13.051  1.00  0.00     0.000 C 
BRANCH  10  11
ATOM     11  C   UNL     1      24.402  11.310  12.610  1.00  0.00    -0.000 C 
BRANCH  11  12
ATOM     12  C   UNL     1      23.775  10.076  13.281  1.00  0.00    -0.000 C 
BRANCH  12  13
ATOM     13  C   UNL     1      22.786   9.343  12.360  1.00  0.00    -0.000 C 
BRANCH  13  14
ATOM     14  C   UNL     1      21.562   8.799  13.117  1.00  0.00    -0.000 C 
BRANCH  14  15
ATOM     15  C   UNL     1      20.342   9.728  13.008  1.00  0.00    -0.003 C 
ATOM     16  C   UNL     1      19.162   9.252  13.856  1.00  0.00     0.004 C 
ENDBRANCH  14  15
ENDBRANCH  13  14
ENDBRANCH  12  13
ENDBRANCH  11  12
ENDBRANCH  10  11
ENDBRANCH   1  10
TORSDOF 12
ENDMDL
MODEL 4
REMARK VINA RESULT:    -5.010      2.670      3.022
REMARK INTER + INTRA:          -9.432
REMARK INTER:                  -8.793
REMARK INTRA:                  -0.639
REMARK UNBOUND:                -0.907
REMARK SMILES CCCCCCCCCCCCCC(=O)[O-]
REMARK SMILES IDX 8 1 9 2 10 3 11 4 12 5 13 6 14 7 15 8 16 9 7 10 6 11 5 12
REMARK SMILES IDX 4 13 3 14 2 15 1 16
REMARK H PARENT
REMARK Flexibility Score: inf
ROOT
ATOM      1  C   UNL     1      22.625  13.141  10.309  1.00  0.00     0.000 C 
ENDROOT
BRANCH   1   2
ATOM      2  C   UNL     1      22.723  12.790   8.813  1.00  0.00     0.000 C 
BRANCH   2   3
ATOM      3  C   UNL     1      23.984  13.318   8.100  1.00  0.00     0.000 C 
BRANCH   3   4
ATOM      4  C   UNL     1      25.220  13.501   9.001  1.00  0.00     0.000 C 
BRANCH   4   5
ATOM      5  C   UNL     1      26.513  13.898   8.260  1.00  0.00     0.006 C 
BRANCH   5   6
ATOM      6  C   UNL     1      27.124  15.230   8.720  1.00  0.00     0.053 C 
BRANCH   6   7
ATOM      7  C   UNL     1      26.746  16.363   7.815  1.00  0.00     0.041 C 
ATOM      8  O   UNL     1      25.545  16.726   7.724  1.00  0.00    -0.550 OA
ATOM      9  O   UNL     1      27.726  17.041   7.101  1.00  0.00    -0.550 OA
ENDBRANCH   6   7
ENDBRANCH   5   6
ENDBRANCH   4   5
ENDBRANCH   3   4
ENDBRANCH   2   3
ENDBRANCH   1   2
BRANCH   1  10
ATOM     10  C   UNL     1      22.547  11.895  11.209  1.00  0.00     0.000 C 
BRANCH  10  11
ATOM     11  C   UNL     1      21.376  10.972  10.836  1.00  0.00    -0.000 C 
BRANCH  11  12
ATOM     12  C   UNL     1      21.628   9.508  11.235  1.00  0.00    -0.000 C 
BRANCH  12  13
ATOM     13  C   UNL     1      21.585   9.295  12.756  1.00  0.00    -0.000 C 
BRANCH  13  14
ATOM     14  C   UNL     1      20.819   8.022  13.156  1.00  0.00    -0.000 C 
BRANCH  14  15
ATOM     15  C   UNL     1      19.409   8.327  13.686  1.00  0.00    -0.003 C 
ATOM     16  C   UNL     1      19.109   9.826  13.736  1.00  0.00     0.004 C 
ENDBRANCH  14  15
ENDBRANCH  13  14
ENDBRANCH  12  13
ENDBRANCH  11  12
ENDBRANCH  10  11
ENDBRANCH   1  10
TORSDOF 12
ENDMDL
MODEL 5
REMARK VINA RESULT:    -4.961      3.158      6.807
REMARK INTER + INTRA:          -9.349
REMARK INTER:                  -8.579
REMARK INTRA:                  -0.770
REMARK UNBOUND:                -0.907
REMARK SMILES CCCCCCCCCCCCCC(=O)[O-]
REMARK SMILES IDX 8 1 9 2 10 3 11 4 12 5 13 6 14 7 15 8 16 9 7 10 6 11 5 12
REMARK SMILES IDX 4 13 3 14 2 15 1 16
REMARK H PARENT
REMARK Flexibility Score: inf
ROOT
ATOM      1  C   UNL     1      22.497  13.196   9.701  1.00  0.00     0.000 C 
ENDROOT
BRANCH   1   2
ATOM      2  C   UNL     1      22.544  12.089  10.769  1.00  0.00     0.000 C 
BRANCH   2   3
ATOM      3  C   UNL     1      21.346  11.119  10.758  1.00  0.00     0.000 C 
BRANCH   3   4
ATOM      4  C   UNL     1      21.665   9.677  11.195  1.00  0.00     0.000 C 
BRANCH   4   5
ATOM      5  C   UNL     1      21.727   9.458  12.721  1.00  0.00     0.006 C 
BRANCH   5   6
ATOM      6  C   UNL     1      20.800   8.348  13.241  1.00  0.00     0.053 C 
BRANCH   6   7
ATOM      7  C   UNL     1      19.562   8.903  13.877  1.00  0.00     0.041 C 
ATOM      8  O   UNL     1      19.002   8.284  14.818  1.00  0.00    -0.550 OA
ATOM      9  O   UNL     1      19.048  10.123  13.453  1.00  0.00    -0.550 OA
ENDBRANCH   6   7
ENDBRANCH   5   6
ENDBRANCH   4   5
ENDBRANCH   3   4
ENDBRANCH   2   3
ENDBRANCH   1   2
BRANCH   1  10
ATOM     10  C   UNL     1      23.548  13.002   8.593  1.00  0.00     0.000 C 
BRANCH  10  11
ATOM     11  C   UNL     1      24.516  14.191   8.486  1.00  0.00    -0.000 C 
BRANCH  11  12
ATOM     12  C   UNL     1      25.822  13.826   7.758  1.00  0.00    -0.000 C 
BRANCH  12  13
ATOM     13  C   UNL     1      27.070  14.110   8.607  1.00  0.00    -0.000 C 
BRANCH  13  14
ATOM     14  C   UNL     1      26.832  13.875  10.109  1.00  0.00    -0.000 C 
BRANCH  14  15
ATOM     15  C   UNL     1      26.890  12.387  10.489  1.00  0.00    -0.003 C 
ATOM     16  C   UNL     1      26.765  12.158  11.995  1.00  0.00     0.004 C 
ENDBRANCH  14  15
ENDBRANCH  13  14
ENDBRANCH  12  13
ENDBRANCH  11  12
ENDBRANCH  10  11
ENDBRANCH   1  10
TORSDOF 12
ENDMDL
MODEL 6
REMARK VINA RESULT:    -4.956      1.088      1.608
REMARK INTER + INTRA:          -9.340
REMARK INTER:                  -8.486
REMARK INTRA:                  -0.853
REMARK UNBOUND:                -0.907
REMARK SMILES CCCCCCCCCCCCCC(=O)[O-]
REMARK SMILES IDX 8 1 9 2 10 3 11 4 12 5 13 6 14 7 15 8 16 9 7 10 6 11 5 12
REMARK SMILES IDX 4 13 3 14 2 15 1 16
REMARK H PARENT
REMARK Flexibility Score: inf
ROOT
ATOM      1  C   UNL     1      22.774  13.692   8.789  1.00  0.00     0.000 C 
ENDROOT
BRANCH   1   2
ATOM      2  C   UNL     1      24.220  14.175   8.570  1.00  0.00     0.000 C 
BRANCH   2   3
ATOM      3  C   UNL     1      25.313  13.159   8.959  1.00  0.00     0.000 C 
BRANCH   3   4
ATOM      4  C   UNL     1      26.330  13.659  10.003  1.00  0.00     0.000 C 
BRANCH   4   5
ATOM      5  C   UNL     1      26.779  12.601  11.032  1.00  0.00     0.006 C 
BRANCH   5   6
ATOM      6  C   UNL     1      25.638  12.011  11.875  1.00  0.00     0.053 C 
BRANCH   6   7
ATOM      7  C   UNL     1      26.104  11.592  13.236  1.00  0.00     0.041 C 
ATOM      8  O   UNL     1      25.644  10.550  13.769  1.00  0.00    -0.550 OA
ATOM      9  O   UNL     1      27.073  12.335  13.899  1.00  0.00    -0.550 OA
ENDBRANCH   6   7
ENDBRANCH   5   6
ENDBRANCH   4   5
ENDBRANCH   3   4
ENDBRANCH   2   3
ENDBRANCH   1   2
BRANCH   1  10
ATOM     10  C   UNL     1      22.551  13.095  10.189  1.00  0.00     0.000 C 
BRANCH  10  11
ATOM     11  C   UNL     1      22.068  11.636  10.136  1.00  0.00    -0.000 C 
BRANCH  11  12
ATOM     12  C   UNL     1      22.226  10.912  11.484  1.00  0.00    -0.000 C 
BRANCH  12  13
ATOM     13  C   UNL     1      20.933  10.214  11.934  1.00  0.00    -0.000 C 
BRANCH  13  14
ATOM     14  C   UNL     1      21.119   9.392  13.221  1.00  0.00    -0.000 C 
BRANCH  14  15
ATOM     15  C   UNL     1      20.027   8.326  13.402  1.00  0.00    -0.003 C 
ATOM     16  C   UNL     1      19.079   8.644  14.559  1.00  0.00     0.004 C 
ENDBRANCH  14  15
ENDBRANCH  13  14
ENDBRANCH  12  13
ENDBRANCH  11  12
ENDBRANCH  10  11
ENDBRANCH   1  10
TORSDOF 12
ENDMDL
MODEL 7
REMARK VINA RESULT:    -4.917      3.401      7.701
REMARK INTER + INTRA:          -9.274
REMARK INTER:                  -8.752
REMARK INTRA:                  -0.522
REMARK UNBOUND:                -0.907
REMARK SMILES CCCCCCCCCCCCCC(=O)[O-]
REMARK SMILES IDX 8 1 9 2 10 3 11 4 12 5 13 6 14 7 15 8 16 9 7 10 6 11 5 12
REMARK SMILES IDX 4 13 3 14 2 15 1 16
REMARK H PARENT
REMARK Flexibility Score: inf
ROOT
ATOM      1  C   UNL     1      22.347  13.483   9.797  1.00  0.00     0.000 C 
ENDROOT
BRANCH   1   2
ATOM      2  C   UNL     1      22.600  12.212  10.626  1.00  0.00     0.000 C 
BRANCH   2   3
ATOM      3  C   UNL     1      21.390  11.265  10.757  1.00  0.00     0.000 C 
BRANCH   3   4
ATOM      4  C   UNL     1      21.730   9.816  11.154  1.00  0.00     0.000 C 
BRANCH   4   5
ATOM      5  C   UNL     1      21.772   9.550  12.673  1.00  0.00     0.006 C 
BRANCH   5   6
ATOM      6  C   UNL     1      20.858   8.407  13.142  1.00  0.00     0.053 C 
BRANCH   6   7
ATOM      7  C   UNL     1      19.631   8.918  13.835  1.00  0.00     0.041 C 
ATOM      8  O   UNL     1      19.146   8.287  14.809  1.00  0.00    -0.550 OA
ATOM      9  O   UNL     1      19.046  10.110  13.426  1.00  0.00    -0.550 OA
ENDBRANCH   6   7
ENDBRANCH   5   6
ENDBRANCH   4   5
ENDBRANCH   3   4
ENDBRANCH   2   3
ENDBRANCH   1   2
BRANCH   1  10
ATOM     10  C   UNL     1      23.213  13.548   8.526  1.00  0.00     0.000 C 
BRANCH  10  11
ATOM     11  C   UNL     1      24.572  14.222   8.774  1.00  0.00    -0.000 C 
BRANCH  11  12
ATOM     12  C   UNL     1      25.704  13.592   7.943  1.00  0.00    -0.000 C 
BRANCH  12  13
ATOM     13  C   UNL     1      26.798  14.606   7.572  1.00  0.00    -0.000 C 
BRANCH  13  14
ATOM     14  C   UNL     1      26.825  15.822   8.515  1.00  0.00    -0.000 C 
BRANCH  14  15
ATOM     15  C   UNL     1      26.961  17.152   7.756  1.00  0.00    -0.003 C 
ATOM     16  C   UNL     1      26.269  18.312   8.472  1.00  0.00     0.004 C 
ENDBRANCH  14  15
ENDBRANCH  13  14
ENDBRANCH  12  13
ENDBRANCH  11  12
ENDBRANCH  10  11
ENDBRANCH   1  10
TORSDOF 12
ENDMDL
MODEL 8
REMARK VINA RESULT:    -4.906      2.070      6.752
REMARK INTER + INTRA:          -9.255
REMARK INTER:                  -8.507
REMARK INTRA:                  -0.749
REMARK UNBOUND:                -0.907
REMARK SMILES CCCCCCCCCCCCCC(=O)[O-]
REMARK SMILES IDX 8 1 9 2 10 3 11 4 12 5 13 6 14 7 15 8 16 9 7 10 6 11 5 12
REMARK SMILES IDX 4 13 3 14 2 15 1 16
REMARK H PARENT
REMARK Flexibility Score: inf
ROOT
ATOM      1  C   UNL     1      22.377  12.994   9.028  1.00  0.00     0.000 C 
ENDROOT
BRANCH   1   2
ATOM      2  C   UNL     1      22.282  12.340  10.418  1.00  0.00     0.000 C 
BRANCH   2   3
ATOM      3  C   UNL     1      21.702  10.911  10.429  1.00  0.00     0.000 C 
BRANCH   3   4
ATOM      4  C   UNL     1      20.770  10.591  11.613  1.00  0.00     0.000 C 
BRANCH   4   5
ATOM      5  C   UNL     1      21.402   9.729  12.726  1.00  0.00     0.006 C 
BRANCH   5   6
ATOM      6  C   UNL     1      22.817   9.222  12.408  1.00  0.00     0.053 C 
BRANCH   6   7
ATOM      7  C   UNL     1      23.853   9.865  13.279  1.00  0.00     0.041 C 
ATOM      8  O   UNL     1      24.554   9.162  14.052  1.00  0.00    -0.550 OA
ATOM      9  O   UNL     1      24.068  11.236  13.209  1.00  0.00    -0.550 OA
ENDBRANCH   6   7
ENDBRANCH   5   6
ENDBRANCH   4   5
ENDBRANCH   3   4
ENDBRANCH   2   3
ENDBRANCH   1   2
BRANCH   1  10
ATOM     10  C   UNL     1      23.828  13.176   8.552  1.00  0.00     0.000 C 
BRANCH  10  11
ATOM     11  C   UNL     1      24.842  13.080   9.704  1.00  0.00    -0.000 C 
BRANCH  11  12
ATOM     12  C   UNL     1      26.221  13.649   9.328  1.00  0.00    -0.000 C 
BRANCH  12  13
ATOM     13  C   UNL     1      26.160  14.582   8.108  1.00  0.00    -0.000 C 
BRANCH  13  14
ATOM     14  C   UNL     1      26.856  15.932   8.359  1.00  0.00    -0.000 C 
BRANCH  14  15
ATOM     15  C   UNL     1      26.077  17.115   7.762  1.00  0.00    -0.003 C 
ATOM     16  C   UNL     1      26.653  18.469   8.180  1.00  0.00     0.004 C 
ENDBRANCH  14  15
ENDBRANCH  13  14
ENDBRANCH  12  13
ENDBRANCH  11  12
ENDBRANCH  10  11
ENDBRANCH   1  10
TORSDOF 12
ENDMDL
MODEL 9
REMARK VINA RESULT:    -4.729      3.685      4.536
REMARK INTER + INTRA:          -8.953
REMARK INTER:                  -8.602
REMARK INTRA:                  -0.351
REMARK UNBOUND:                -0.907
REMARK SMILES CCCCCCCCCCCCCC(=O)[O-]
REMARK SMILES IDX 8 1 9 2 10 3 11 4 12 5 13 6 14 7 15 8 16 9 7 10 6 11 5 12
REMARK SMILES IDX 4 13 3 14 2 15 1 16
REMARK H PARENT
REMARK Flexibility Score: inf
ROOT
ATOM      1  C   UNL     1      23.753  13.747   9.053  1.00  0.00     0.000 C 
ENDROOT
BRANCH   1   2
ATOM      2  C   UNL     1      25.192  13.431   8.609  1.00  0.00     0.000 C 
BRANCH   2   3
ATOM      3  C   UNL     1      25.880  14.539   7.786  1.00  0.00     0.000 C 
BRANCH   3   4
ATOM      4  C   UNL     1      26.861  15.428   8.574  1.00  0.00     0.000 C 
BRANCH   4   5
ATOM      5  C   UNL     1      27.073  16.840   7.991  1.00  0.00     0.006 C 
BRANCH   5   6
ATOM      6  C   UNL     1      25.777  17.635   7.767  1.00  0.00     0.053 C 
BRANCH   6   7
ATOM      7  C   UNL     1      26.029  18.932   7.060  1.00  0.00     0.041 C 
ATOM      8  O   UNL     1      26.814  19.781   7.555  1.00  0.00    -0.550 OA
ATOM      9  O   UNL     1      25.422  19.186   5.836  1.00  0.00    -0.550 OA
ENDBRANCH   6   7
ENDBRANCH   5   6
ENDBRANCH   4   5
ENDBRANCH   3   4
ENDBRANCH   2   3
ENDBRANCH   1   2
BRANCH   1  10
ATOM     10  C   UNL     1      22.816  12.531   8.950  1.00  0.00     0.000 C 
BRANCH  10  11
ATOM     11  C   UNL     1      22.087  12.236  10.271  1.00  0.00    -0.000 C 
BRANCH  11  12
ATOM     12  C   UNL     1      21.651  10.765  10.388  1.00  0.00    -0.000 C 
BRANCH  12  13
ATOM     13  C   UNL     1      20.918  10.471  11.707  1.00  0.00    -0.000 C 
BRANCH  13  14
ATOM     14  C   UNL     1      21.714   9.534  12.632  1.00  0.00    -0.000 C 
BRANCH  14  15
ATOM     15  C   UNL     1      20.913   8.287  13.039  1.00  0.00    -0.003 C 
ATOM     16  C   UNL     1      19.621   8.633  13.780  1.00  0.00     0.004 C 
ENDBRANCH  14  15
ENDBRANCH  13  14
ENDBRANCH  12  13
ENDBRANCH  11  12
ENDBRANCH  10  11
ENDBRANCH   1  10
TORSDOF 12
ENDMDL
