MODEL 1
REMARK VINA RESULT:    -5.891      0.000      0.000
REMARK INTER + INTRA:          -6.235
REMARK INTER:                  -6.235
REMARK INTRA:                   0.000
REMARK UNBOUND:                 0.000
REMARK SMILES O=c1ccc2cc(O)c(O)cc2o1
REMARK SMILES IDX 4 1 3 2 2 3 1 4 13 5 12 6 11 7 9 8 7 9 6 10 5 11 8 12 10 14
REMARK H PARENT 8 13 10 15
REMARK Flexibility Score: inf
ROOT
ATOM      1  C   UNL     1       8.270   5.277  11.606  1.00  0.00     0.019 A 
ATOM      2  C   UNL     1       7.597   6.437  11.225  1.00  0.00     0.094 A 
ATOM      3  C   UNL     1       6.496   6.333  10.367  1.00  0.00     0.336 A 
ATOM      4  O   UNL     1       5.875   7.369  10.011  1.00  0.00    -0.246 OA
ATOM      5  O   UNL     1       6.099   5.143   9.924  1.00  0.00    -0.423 OA
ATOM      6  C   UNL     1       6.712   4.012  10.262  1.00  0.00     0.142 A 
ATOM      7  C   UNL     1       6.250   2.789   9.765  1.00  0.00     0.098 A 
ATOM      8  C   UNL     1       6.892   1.594  10.120  1.00  0.00     0.161 A 
ATOM      9  C   UNL     1       8.003   1.622  10.975  1.00  0.00     0.158 A 
ATOM     10  C   UNL     1       8.472   2.845  11.478  1.00  0.00     0.062 A 
ATOM     11  C   UNL     1       7.830   4.040  11.124  1.00  0.00     0.022 A 
ENDROOT
BRANCH   9  12
ATOM     12  O   UNL     1       8.636   0.429  11.322  1.00  0.00    -0.504 OA
ATOM     13  H   UNL     1       8.939   0.247  12.272  1.00  0.00     0.293 HD
ENDBRANCH   9  12
BRANCH   8  14
ATOM     14  O   UNL     1       6.433   0.374   9.625  1.00  0.00    -0.504 OA
ATOM     15  H   UNL     1       5.563   0.304   9.111  1.00  0.00     0.293 HD
ENDBRANCH   8  14
TORSDOF 2
ENDMDL
MODEL 2
REMARK VINA RESULT:    -5.598      1.061      2.231
REMARK INTER + INTRA:          -5.925
REMARK INTER:                  -5.925
REMARK INTRA:                   0.000
REMARK UNBOUND:                 0.000
REMARK SMILES O=c1ccc2cc(O)c(O)cc2o1
REMARK SMILES IDX 4 1 3 2 2 3 1 4 13 5 12 6 11 7 9 8 7 9 6 10 5 11 8 12 10 14
REMARK H PARENT 8 13 10 15
REMARK Flexibility Score: inf
ROOT
ATOM      1  C   UNL     1       5.918   5.180   9.667  1.00  0.00     0.019 A 
ATOM      2  C   UNL     1       6.356   6.421  10.128  1.00  0.00     0.094 A 
ATOM      3  C   UNL     1       7.419   6.470  11.036  1.00  0.00     0.336 A 
ATOM      4  O   UNL     1       7.830   7.582  11.464  1.00  0.00    -0.246 OA
ATOM      5  O   UNL     1       8.002   5.349  11.452  1.00  0.00    -0.423 OA
ATOM      6  C   UNL     1       7.615   4.145  11.038  1.00  0.00     0.142 A 
ATOM      7  C   UNL     1       8.265   3.001  11.510  1.00  0.00     0.098 A 
ATOM      8  C   UNL     1       7.862   1.729  11.076  1.00  0.00     0.161 A 
ATOM      9  C   UNL     1       6.802   1.603  10.166  1.00  0.00     0.158 A 
ATOM     10  C   UNL     1       6.145   2.747   9.689  1.00  0.00     0.062 A 
ATOM     11  C   UNL     1       6.549   4.018  10.121  1.00  0.00     0.022 A 
ENDROOT
BRANCH   9  12
ATOM     12  O   UNL     1       6.407   0.335   9.740  1.00  0.00    -0.504 OA
ATOM     13  H   UNL     1       5.898   0.202   8.874  1.00  0.00     0.293 HD
ENDBRANCH   9  12
BRANCH   8  14
ATOM     14  O   UNL     1       8.508   0.587  11.545  1.00  0.00    -0.504 OA
ATOM     15  H   UNL     1       9.393   0.282  11.157  1.00  0.00     0.293 HD
ENDBRANCH   8  14
TORSDOF 2
ENDMDL
MODEL 3
REMARK VINA RESULT:    -5.486      1.130      5.059
REMARK INTER + INTRA:          -5.807
REMARK INTER:                  -5.807
REMARK INTRA:                   0.000
REMARK UNBOUND:                 0.000
REMARK SMILES O=c1ccc2cc(O)c(O)cc2o1
REMARK SMILES IDX 4 1 3 2 2 3 1 4 13 5 12 6 11 7 9 8 7 9 6 10 5 11 8 12 10 14
REMARK H PARENT 8 13 10 15
REMARK Flexibility Score: inf
ROOT
ATOM      1  C   UNL     1       6.300   2.647   9.878  1.00  0.00     0.019 A 
ATOM      2  C   UNL     1       7.000   1.517  10.298  1.00  0.00     0.094 A 
ATOM      3  C   UNL     1       8.125   1.681  11.114  1.00  0.00     0.336 A 
ATOM      4  O   UNL     1       8.771   0.672  11.504  1.00  0.00    -0.246 OA
ATOM      5  O   UNL     1       8.519   2.897  11.481  1.00  0.00    -0.423 OA
ATOM      6  C   UNL     1       7.881   4.001  11.103  1.00  0.00     0.142 A 
ATOM      7  C   UNL     1       8.341   5.254  11.520  1.00  0.00     0.098 A 
ATOM      8  C   UNL     1       7.671   6.421  11.125  1.00  0.00     0.161 A 
ATOM      9  C   UNL     1       6.536   6.333  10.306  1.00  0.00     0.158 A 
ATOM     10  C   UNL     1       6.068   5.080   9.884  1.00  0.00     0.062 A 
ATOM     11  C   UNL     1       6.737   3.913  10.279  1.00  0.00     0.022 A 
ENDROOT
BRANCH   9  12
ATOM     12  O   UNL     1       5.875   7.499   9.917  1.00  0.00    -0.504 OA
ATOM     13  H   UNL     1       6.221   8.415  10.178  1.00  0.00     0.293 HD
ENDBRANCH   9  12
BRANCH   8  14
ATOM     14  O   UNL     1       8.129   7.671  11.539  1.00  0.00    -0.504 OA
ATOM     15  H   UNL     1       8.083   7.956  12.510  1.00  0.00     0.293 HD
ENDBRANCH   8  14
TORSDOF 2
ENDMDL
MODEL 4
REMARK VINA RESULT:    -5.453      1.107      4.532
REMARK INTER + INTRA:          -5.772
REMARK INTER:                  -5.772
REMARK INTRA:                   0.000
REMARK UNBOUND:                 0.000
REMARK SMILES O=c1ccc2cc(O)c(O)cc2o1
REMARK SMILES IDX 4 1 3 2 2 3 1 4 13 5 12 6 11 7 9 8 7 9 6 10 5 11 8 12 10 14
REMARK H PARENT 8 13 10 15
REMARK Flexibility Score: inf
ROOT
ATOM      1  C   UNL     1       8.396   2.811  11.380  1.00  0.00     0.019 A 
ATOM      2  C   UNL     1       7.868   1.615  10.895  1.00  0.00     0.094 A 
ATOM      3  C   UNL     1       6.737   1.658  10.073  1.00  0.00     0.336 A 
ATOM      4  O   UNL     1       6.244   0.588   9.625  1.00  0.00    -0.246 OA
ATOM      5  O   UNL     1       6.175   2.823   9.760  1.00  0.00    -0.423 OA
ATOM      6  C   UNL     1       6.646   3.986  10.202  1.00  0.00     0.142 A 
ATOM      7  C   UNL     1       6.014   5.180   9.841  1.00  0.00     0.098 A 
ATOM      8  C   UNL     1       6.508   6.409  10.303  1.00  0.00     0.161 A 
ATOM      9  C   UNL     1       7.639   6.443  11.132  1.00  0.00     0.158 A 
ATOM     10  C   UNL     1       8.278   5.249  11.498  1.00  0.00     0.062 A 
ATOM     11  C   UNL     1       7.786   4.021  11.036  1.00  0.00     0.022 A 
ENDROOT
BRANCH   9  12
ATOM     12  O   UNL     1       8.123   7.669  11.587  1.00  0.00    -0.504 OA
ATOM     13  H   UNL     1       8.953   7.729  12.165  1.00  0.00     0.293 HD
ENDBRANCH   9  12
BRANCH   8  14
ATOM     14  O   UNL     1       5.879   7.600   9.944  1.00  0.00    -0.504 OA
ATOM     15  H   UNL     1       6.094   8.473  10.411  1.00  0.00     0.293 HD
ENDBRANCH   8  14
TORSDOF 2
ENDMDL
MODEL 5
REMARK VINA RESULT:    -5.355      9.085     11.723
REMARK INTER + INTRA:          -5.668
REMARK INTER:                  -5.668
REMARK INTRA:                   0.000
REMARK UNBOUND:                 0.000
REMARK SMILES O=c1ccc2cc(O)c(O)cc2o1
REMARK SMILES IDX 4 1 3 2 2 3 1 4 13 5 12 6 11 7 9 8 7 9 6 10 5 11 8 12 10 14
REMARK H PARENT 8 13 10 15
REMARK Flexibility Score: inf
ROOT
ATOM      1  C   UNL     1       7.619  -4.443  19.271  1.00  0.00     0.019 A 
ATOM      2  C   UNL     1       8.315  -5.560  19.732  1.00  0.00     0.094 A 
ATOM      3  C   UNL     1       9.709  -5.584  19.619  1.00  0.00     0.336 A 
ATOM      4  O   UNL     1      10.356  -6.584  20.029  1.00  0.00    -0.246 OA
ATOM      5  O   UNL     1      10.359  -4.556  19.079  1.00  0.00    -0.423 OA
ATOM      6  C   UNL     1       9.734  -3.473  18.627  1.00  0.00     0.142 A 
ATOM      7  C   UNL     1      10.470  -2.422  18.069  1.00  0.00     0.098 A 
ATOM      8  C   UNL     1       9.816  -1.277  17.592  1.00  0.00     0.161 A 
ATOM      9  C   UNL     1       8.419  -1.183  17.672  1.00  0.00     0.158 A 
ATOM     10  C   UNL     1       7.674  -2.233  18.231  1.00  0.00     0.062 A 
ATOM     11  C   UNL     1       8.328  -3.377  18.708  1.00  0.00     0.022 A 
ENDROOT
BRANCH   9  12
ATOM     12  O   UNL     1       7.776  -0.041  17.195  1.00  0.00    -0.504 OA
ATOM     13  H   UNL     1       8.250   0.854  17.152  1.00  0.00     0.293 HD
ENDBRANCH   9  12
BRANCH   8  14
ATOM     14  O   UNL     1      10.547  -0.229  17.035  1.00  0.00    -0.504 OA
ATOM     15  H   UNL     1      11.461  -0.380  16.626  1.00  0.00     0.293 HD
ENDBRANCH   8  14
TORSDOF 2
ENDMDL
MODEL 6
REMARK VINA RESULT:    -5.195      9.160     11.584
REMARK INTER + INTRA:          -5.499
REMARK INTER:                  -5.499
REMARK INTRA:                   0.000
REMARK UNBOUND:                 0.000
REMARK SMILES O=c1ccc2cc(O)c(O)cc2o1
REMARK SMILES IDX 4 1 3 2 2 3 1 4 13 5 12 6 11 7 9 8 7 9 6 10 5 11 8 12 10 14
REMARK H PARENT 8 13 10 15
REMARK Flexibility Score: inf
ROOT
ATOM      1  C   UNL     1      10.416  -4.607  19.269  1.00  0.00     0.019 A 
ATOM      2  C   UNL     1       9.666  -5.686  19.735  1.00  0.00     0.094 A 
ATOM      3  C   UNL     1       8.270  -5.627  19.652  1.00  0.00     0.336 A 
ATOM      4  O   UNL     1       7.574  -6.592  20.067  1.00  0.00    -0.246 OA
ATOM      5  O   UNL     1       7.670  -4.557  19.137  1.00  0.00    -0.423 OA
ATOM      6  C   UNL     1       8.349  -3.507  18.682  1.00  0.00     0.142 A 
ATOM      7  C   UNL     1       7.664  -2.409  18.151  1.00  0.00     0.098 A 
ATOM      8  C   UNL     1       8.374  -1.299  17.670  1.00  0.00     0.161 A 
ATOM      9  C   UNL     1       9.776  -1.288  17.721  1.00  0.00     0.158 A 
ATOM     10  C   UNL     1      10.469  -2.386  18.252  1.00  0.00     0.062 A 
ATOM     11  C   UNL     1       9.760  -3.495  18.733  1.00  0.00     0.022 A 
ENDROOT
BRANCH   9  12
ATOM     12  O   UNL     1      10.474  -0.181  17.240  1.00  0.00    -0.504 OA
ATOM     13  H   UNL     1      11.442  -0.251  16.946  1.00  0.00     0.293 HD
ENDBRANCH   9  12
BRANCH   8  14
ATOM     14  O   UNL     1       7.695  -0.203  17.140  1.00  0.00    -0.504 OA
ATOM     15  H   UNL     1       7.475   0.608  17.707  1.00  0.00     0.293 HD
ENDBRANCH   8  14
TORSDOF 2
ENDMDL
MODEL 7
REMARK VINA RESULT:    -5.095      1.589      2.385
REMARK INTER + INTRA:          -5.393
REMARK INTER:                  -5.393
REMARK INTRA:                   0.000
REMARK UNBOUND:                 0.000
REMARK SMILES O=c1ccc2cc(O)c(O)cc2o1
REMARK SMILES IDX 4 1 3 2 2 3 1 4 13 5 12 6 11 7 9 8 7 9 6 10 5 11 8 12 10 14
REMARK H PARENT 8 13 10 15
REMARK Flexibility Score: inf
ROOT
ATOM      1  C   UNL     1       8.138   7.653  11.409  1.00  0.00     0.019 A 
ATOM      2  C   UNL     1       7.540   8.812  10.915  1.00  0.00     0.094 A 
ATOM      3  C   UNL     1       6.430   8.695  10.071  1.00  0.00     0.336 A 
ATOM      4  O   UNL     1       5.875   9.731   9.615  1.00  0.00    -0.246 OA
ATOM      5  O   UNL     1       5.954   7.496   9.746  1.00  0.00    -0.423 OA
ATOM      6  C   UNL     1       6.495   6.366  10.194  1.00  0.00     0.142 A 
ATOM      7  C   UNL     1       5.953   5.134   9.818  1.00  0.00     0.098 A 
ATOM      8  C   UNL     1       6.518   3.939  10.289  1.00  0.00     0.161 A 
ATOM      9  C   UNL     1       7.634   3.979  11.138  1.00  0.00     0.158 A 
ATOM     10  C   UNL     1       8.183   5.213  11.520  1.00  0.00     0.062 A 
ATOM     11  C   UNL     1       7.617   6.406  11.050  1.00  0.00     0.022 A 
ENDROOT
BRANCH   9  12
ATOM     12  O   UNL     1       8.190   2.788  11.602  1.00  0.00    -0.504 OA
ATOM     13  H   UNL     1       7.686   1.910  11.544  1.00  0.00     0.293 HD
ENDBRANCH   9  12
BRANCH   8  14
ATOM     14  O   UNL     1       5.979   2.709   9.915  1.00  0.00    -0.504 OA
ATOM     15  H   UNL     1       5.137   2.348  10.346  1.00  0.00     0.293 HD
ENDBRANCH   8  14
TORSDOF 2
ENDMDL
MODEL 8
REMARK VINA RESULT:    -4.930     10.286     12.015
REMARK INTER + INTRA:          -5.218
REMARK INTER:                  -5.218
REMARK INTRA:                   0.000
REMARK UNBOUND:                 0.000
REMARK SMILES O=c1ccc2cc(O)c(O)cc2o1
REMARK SMILES IDX 4 1 3 2 2 3 1 4 13 5 12 6 11 7 9 8 7 9 6 10 5 11 8 12 10 14
REMARK H PARENT 8 13 10 15
REMARK Flexibility Score: inf
ROOT
ATOM      1  C   UNL     1      10.301  -3.237  18.797  1.00  0.00     0.019 A 
ATOM      2  C   UNL     1       9.726  -2.011  18.462  1.00  0.00     0.094 A 
ATOM      3  C   UNL     1       8.332  -1.895  18.457  1.00  0.00     0.336 A 
ATOM      4  O   UNL     1       7.793  -0.796  18.157  1.00  0.00    -0.246 OA
ATOM      5  O   UNL     1       7.568  -2.939  18.769  1.00  0.00    -0.423 OA
ATOM      6  C   UNL     1       8.075  -4.125  19.094  1.00  0.00     0.142 A 
ATOM      7  C   UNL     1       7.223  -5.187  19.413  1.00  0.00     0.098 A 
ATOM      8  C   UNL     1       7.753  -6.440  19.757  1.00  0.00     0.161 A 
ATOM      9  C   UNL     1       9.142  -6.630  19.781  1.00  0.00     0.158 A 
ATOM     10  C   UNL     1      10.003  -5.568  19.463  1.00  0.00     0.062 A 
ATOM     11  C   UNL     1       9.474  -4.317  19.120  1.00  0.00     0.022 A 
ENDROOT
BRANCH   9  12
ATOM     12  O   UNL     1       9.661  -7.878  20.125  1.00  0.00    -0.504 OA
ATOM     13  H   UNL     1      10.320  -8.362  19.525  1.00  0.00     0.293 HD
ENDBRANCH   9  12
BRANCH   8  14
ATOM     14  O   UNL     1       6.906  -7.500  20.074  1.00  0.00    -0.504 OA
ATOM     15  H   UNL     1       7.269  -8.395  20.378  1.00  0.00     0.293 HD
ENDBRANCH   8  14
TORSDOF 2
ENDMDL
MODEL 9
REMARK VINA RESULT:    -4.579      8.757     11.154
REMARK INTER + INTRA:          -4.846
REMARK INTER:                  -4.846
REMARK INTRA:                   0.000
REMARK UNBOUND:                 0.000
REMARK SMILES O=c1ccc2cc(O)c(O)cc2o1
REMARK SMILES IDX 4 1 3 2 2 3 1 4 13 5 12 6 11 7 9 8 7 9 6 10 5 11 8 12 10 14
REMARK H PARENT 8 13 10 15
REMARK Flexibility Score: inf
ROOT
ATOM      1  C   UNL     1      12.338  -1.645  17.880  1.00  0.00     0.019 A 
ATOM      2  C   UNL     1      13.192  -2.625  18.384  1.00  0.00     0.094 A 
ATOM      3  C   UNL     1      12.639  -3.766  18.978  1.00  0.00     0.336 A 
ATOM      4  O   UNL     1      13.393  -4.663  19.439  1.00  0.00    -0.246 OA
ATOM      5  O   UNL     1      11.319  -3.910  19.058  1.00  0.00    -0.423 OA
ATOM      6  C   UNL     1      10.469  -3.000  18.591  1.00  0.00     0.142 A 
ATOM      7  C   UNL     1       9.091  -3.205  18.703  1.00  0.00     0.098 A 
ATOM      8  C   UNL     1       8.191  -2.249  18.211  1.00  0.00     0.161 A 
ATOM      9  C   UNL     1       8.673  -1.080  17.604  1.00  0.00     0.158 A 
ATOM     10  C   UNL     1      10.055  -0.867  17.487  1.00  0.00     0.062 A 
ATOM     11  C   UNL     1      10.954  -1.823  17.978  1.00  0.00     0.022 A 
ENDROOT
BRANCH   9  12
ATOM     12  O   UNL     1       7.772  -0.134  17.117  1.00  0.00    -0.504 OA
ATOM     13  H   UNL     1       6.794  -0.359  16.972  1.00  0.00     0.293 HD
ENDBRANCH   9  12
BRANCH   8  14
ATOM     14  O   UNL     1       6.816  -2.451  18.323  1.00  0.00    -0.504 OA
ATOM     15  H   UNL     1       6.411  -3.378  18.260  1.00  0.00     0.293 HD
ENDBRANCH   8  14
TORSDOF 2
ENDMDL
