MODEL 1
REMARK VINA RESULT:    -4.173      0.000      0.000
REMARK INTER + INTRA:          -7.789
REMARK INTER:                  -6.612
REMARK INTRA:                  -1.177
REMARK UNBOUND:                -1.177
REMARK SMILES CCCCCCCCCCCC(=O)[O-]
REMARK SMILES IDX 7 1 8 2 9 3 10 4 11 5 12 6 13 7 14 8 6 9 5 10 4 11 3 12 2 13
REMARK SMILES IDX 1 14
REMARK H PARENT
REMARK Flexibility Score: inf
ROOT
ATOM      1  C   UNL     1      -3.688  12.654  -4.268  1.00  0.00     0.000 C 
ENDROOT
BRANCH   1   2
ATOM      2  C   UNL     1      -3.192  13.787  -5.180  1.00  0.00     0.000 C 
BRANCH   2   3
ATOM      3  C   UNL     1      -2.516  13.260  -6.458  1.00  0.00     0.000 C 
BRANCH   3   4
ATOM      4  C   UNL     1      -3.172  11.972  -6.990  1.00  0.00     0.006 C 
BRANCH   4   5
ATOM      5  C   UNL     1      -2.842  11.657  -8.458  1.00  0.00     0.053 C 
BRANCH   5   6
ATOM      6  C   UNL     1      -1.503  11.000  -8.602  1.00  0.00     0.041 C 
ATOM      7  O   UNL     1      -1.392   9.753  -8.471  1.00  0.00    -0.550 OA
ATOM      8  O   UNL     1      -0.374  11.770  -8.849  1.00  0.00    -0.550 OA
ENDBRANCH   5   6
ENDBRANCH   4   5
ENDBRANCH   3   4
ENDBRANCH   2   3
ENDBRANCH   1   2
BRANCH   1   9
ATOM      9  C   UNL     1      -4.900  13.073  -3.416  1.00  0.00     0.000 C 
BRANCH   9  10
ATOM     10  C   UNL     1      -6.239  12.632  -4.031  1.00  0.00    -0.000 C 
BRANCH  10  11
ATOM     11  C   UNL     1      -6.116  11.327  -4.836  1.00  0.00    -0.000 C 
BRANCH  11  12
ATOM     12  C   UNL     1      -7.106  11.254  -6.013  1.00  0.00    -0.000 C 
BRANCH  12  13
ATOM     13  C   UNL     1      -7.272  12.563  -6.806  1.00  0.00    -0.003 C 
ATOM     14  C   UNL     1      -6.472  12.580  -8.107  1.00  0.00     0.004 C 
ENDBRANCH  12  13
ENDBRANCH  11  12
ENDBRANCH  10  11
ENDBRANCH   9  10
ENDBRANCH   1   9
TORSDOF 10
ENDMDL
MODEL 2
REMARK VINA RESULT:    -4.046      1.324      1.909
REMARK INTER + INTRA:          -7.588
REMARK INTER:                  -6.469
REMARK INTRA:                  -1.120
REMARK UNBOUND:                -1.177
REMARK SMILES CCCCCCCCCCCC(=O)[O-]
REMARK SMILES IDX 7 1 8 2 9 3 10 4 11 5 12 6 13 7 14 8 6 9 5 10 4 11 3 12 2 13
REMARK SMILES IDX 1 14
REMARK H PARENT
REMARK Flexibility Score: inf
ROOT
ATOM      1  C   UNL     1      -4.396  12.566  -3.276  1.00  0.00     0.000 C 
ENDROOT
BRANCH   1   2
ATOM      2  C   UNL     1      -3.501  12.716  -4.516  1.00  0.00     0.000 C 
BRANCH   2   3
ATOM      3  C   UNL     1      -3.886  11.740  -5.642  1.00  0.00     0.000 C 
BRANCH   3   4
ATOM      4  C   UNL     1      -3.639  12.325  -7.045  1.00  0.00     0.006 C 
BRANCH   4   5
ATOM      5  C   UNL     1      -2.167  12.657  -7.339  1.00  0.00     0.053 C 
BRANCH   5   6
ATOM      6  C   UNL     1      -1.699  12.040  -8.621  1.00  0.00     0.041 C 
ATOM      7  O   UNL     1      -2.520  11.798  -9.545  1.00  0.00    -0.550 OA
ATOM      8  O   UNL     1      -0.362  11.702  -8.782  1.00  0.00    -0.550 OA
ENDBRANCH   5   6
ENDBRANCH   4   5
ENDBRANCH   3   4
ENDBRANCH   2   3
ENDBRANCH   1   2
BRANCH   1   9
ATOM      9  C   UNL     1      -5.133  13.870  -2.921  1.00  0.00     0.000 C 
BRANCH   9  10
ATOM     10  C   UNL     1      -6.641  13.798  -3.209  1.00  0.00    -0.000 C 
BRANCH  10  11
ATOM     11  C   UNL     1      -6.964  13.967  -4.704  1.00  0.00    -0.000 C 
BRANCH  11  12
ATOM     12  C   UNL     1      -8.009  12.955  -5.209  1.00  0.00    -0.000 C 
BRANCH  12  13
ATOM     13  C   UNL     1      -7.427  11.687  -5.858  1.00  0.00    -0.003 C 
ATOM     14  C   UNL     1      -7.309  10.516  -4.885  1.00  0.00     0.004 C 
ENDBRANCH  12  13
ENDBRANCH  11  12
ENDBRANCH  10  11
ENDBRANCH   9  10
ENDBRANCH   1   9
TORSDOF 10
ENDMDL
MODEL 3
REMARK VINA RESULT:    -3.898     12.906     14.197
REMARK INTER + INTRA:          -7.354
REMARK INTER:                  -6.013
REMARK INTRA:                  -1.341
REMARK UNBOUND:                -1.177
REMARK SMILES CCCCCCCCCCCC(=O)[O-]
REMARK SMILES IDX 7 1 8 2 9 3 10 4 11 5 12 6 13 7 14 8 6 9 5 10 4 11 3 12 2 13
REMARK SMILES IDX 1 14
REMARK H PARENT
REMARK Flexibility Score: inf
ROOT
ATOM      1  C   UNL     1       6.312   6.239  -6.260  1.00  0.00     0.000 C 
ENDROOT
BRANCH   1   2
ATOM      2  C   UNL     1       6.817   5.062  -5.410  1.00  0.00     0.000 C 
BRANCH   2   3
ATOM      3  C   UNL     1       5.890   3.837  -5.491  1.00  0.00     0.000 C 
BRANCH   3   4
ATOM      4  C   UNL     1       6.645   2.543  -5.851  1.00  0.00     0.006 C 
BRANCH   4   5
ATOM      5  C   UNL     1       8.159   2.729  -6.034  1.00  0.00     0.053 C 
BRANCH   5   6
ATOM      6  C   UNL     1       8.921   2.380  -4.792  1.00  0.00     0.041 C 
ATOM      7  O   UNL     1       8.723   1.277  -4.216  1.00  0.00    -0.550 OA
ATOM      8  O   UNL     1       9.822   3.287  -4.251  1.00  0.00    -0.550 OA
ENDBRANCH   5   6
ENDBRANCH   4   5
ENDBRANCH   3   4
ENDBRANCH   2   3
ENDBRANCH   1   2
BRANCH   1   9
ATOM      9  C   UNL     1       7.200   6.502  -7.488  1.00  0.00     0.000 C 
BRANCH   9  10
ATOM     10  C   UNL     1       6.595   5.948  -8.789  1.00  0.00    -0.000 C 
BRANCH  10  11
ATOM     11  C   UNL     1       7.245   4.624  -9.224  1.00  0.00    -0.000 C 
BRANCH  11  12
ATOM     12  C   UNL     1       6.226   3.479  -9.376  1.00  0.00    -0.000 C 
BRANCH  12  13
ATOM     13  C   UNL     1       4.750   3.913  -9.349  1.00  0.00    -0.003 C 
ATOM     14  C   UNL     1       3.794   2.815  -9.811  1.00  0.00     0.004 C 
ENDBRANCH  12  13
ENDBRANCH  11  12
ENDBRANCH  10  11
ENDBRANCH   9  10
ENDBRANCH   1   9
TORSDOF 10
ENDMDL
MODEL 4
REMARK VINA RESULT:    -3.886     13.425     15.704
REMARK INTER + INTRA:          -7.335
REMARK INTER:                  -6.209
REMARK INTRA:                  -1.126
REMARK UNBOUND:                -1.177
REMARK SMILES CCCCCCCCCCCC(=O)[O-]
REMARK SMILES IDX 7 1 8 2 9 3 10 4 11 5 12 6 13 7 14 8 6 9 5 10 4 11 3 12 2 13
REMARK SMILES IDX 1 14
REMARK H PARENT
REMARK Flexibility Score: inf
ROOT
ATOM      1  C   UNL     1       6.331   2.368  -9.476  1.00  0.00     0.000 C 
ENDROOT
BRANCH   1   2
ATOM      2  C   UNL     1       6.990   1.462  -8.423  1.00  0.00     0.000 C 
BRANCH   2   3
ATOM      3  C   UNL     1       8.525   1.570  -8.431  1.00  0.00     0.000 C 
BRANCH   3   4
ATOM      4  C   UNL     1       9.109   1.839  -7.031  1.00  0.00     0.006 C 
BRANCH   4   5
ATOM      5  C   UNL     1       9.861   0.645  -6.423  1.00  0.00     0.053 C 
BRANCH   5   6
ATOM      6  C   UNL     1       9.324   0.273  -5.074  1.00  0.00     0.041 C 
ATOM      7  O   UNL     1       8.846   1.158  -4.316  1.00  0.00    -0.550 OA
ATOM      8  O   UNL     1       9.384  -1.045  -4.642  1.00  0.00    -0.550 OA
ENDBRANCH   5   6
ENDBRANCH   4   5
ENDBRANCH   3   4
ENDBRANCH   2   3
ENDBRANCH   1   2
BRANCH   1   9
ATOM      9  C   UNL     1       5.671   3.611  -8.853  1.00  0.00     0.000 C 
BRANCH   9  10
ATOM     10  C   UNL     1       6.540   4.873  -8.983  1.00  0.00    -0.000 C 
BRANCH  10  11
ATOM     11  C   UNL     1       7.417   5.114  -7.743  1.00  0.00    -0.000 C 
BRANCH  11  12
ATOM     12  C   UNL     1       6.679   5.880  -6.628  1.00  0.00    -0.000 C 
BRANCH  12  13
ATOM     13  C   UNL     1       6.673   5.186  -5.255  1.00  0.00    -0.003 C 
ATOM     14  C   UNL     1       6.418   3.682  -5.346  1.00  0.00     0.004 C 
ENDBRANCH  12  13
ENDBRANCH  11  12
ENDBRANCH  10  11
ENDBRANCH   9  10
ENDBRANCH   1   9
TORSDOF 10
ENDMDL
MODEL 5
REMARK VINA RESULT:    -3.822     12.391     15.014
REMARK INTER + INTRA:          -7.234
REMARK INTER:                  -6.233
REMARK INTRA:                  -1.001
REMARK UNBOUND:                -1.177
REMARK SMILES CCCCCCCCCCCC(=O)[O-]
REMARK SMILES IDX 7 1 8 2 9 3 10 4 11 5 12 6 13 7 14 8 6 9 5 10 4 11 3 12 2 13
REMARK SMILES IDX 1 14
REMARK H PARENT
REMARK Flexibility Score: inf
ROOT
ATOM      1  C   UNL     1       6.044   2.964  -6.004  1.00  0.00     0.000 C 
ENDROOT
BRANCH   1   2
ATOM      2  C   UNL     1       6.610   4.123  -5.168  1.00  0.00     0.000 C 
BRANCH   2   3
ATOM      3  C   UNL     1       7.779   3.684  -4.268  1.00  0.00     0.000 C 
BRANCH   3   4
ATOM      4  C   UNL     1       8.897   2.971  -5.052  1.00  0.00     0.006 C 
BRANCH   4   5
ATOM      5  C   UNL     1       9.405   1.680  -4.392  1.00  0.00     0.053 C 
BRANCH   5   6
ATOM      6  C   UNL     1       9.078   0.467  -5.208  1.00  0.00     0.041 C 
ATOM      7  O   UNL     1       8.594   0.593  -6.364  1.00  0.00    -0.550 OA
ATOM      8  O   UNL     1       9.278  -0.801  -4.679  1.00  0.00    -0.550 OA
ENDBRANCH   5   6
ENDBRANCH   4   5
ENDBRANCH   3   4
ENDBRANCH   2   3
ENDBRANCH   1   2
BRANCH   1   9
ATOM      9  C   UNL     1       5.653   3.401  -7.427  1.00  0.00     0.000 C 
BRANCH   9  10
ATOM     10  C   UNL     1       6.855   3.895  -8.248  1.00  0.00    -0.000 C 
BRANCH  10  11
ATOM     11  C   UNL     1       6.517   5.127  -9.105  1.00  0.00    -0.000 C 
BRANCH  11  12
ATOM     12  C   UNL     1       7.605   6.215  -9.043  1.00  0.00    -0.000 C 
BRANCH  12  13
ATOM     13  C   UNL     1       7.468   7.206  -7.874  1.00  0.00    -0.003 C 
ATOM     14  C   UNL     1       6.026   7.383  -7.404  1.00  0.00     0.004 C 
ENDBRANCH  12  13
ENDBRANCH  11  12
ENDBRANCH  10  11
ENDBRANCH   9  10
ENDBRANCH   1   9
TORSDOF 10
ENDMDL
MODEL 6
REMARK VINA RESULT:    -3.822     12.657     14.353
REMARK INTER + INTRA:          -7.234
REMARK INTER:                  -6.137
REMARK INTRA:                  -1.097
REMARK UNBOUND:                -1.177
REMARK SMILES CCCCCCCCCCCC(=O)[O-]
REMARK SMILES IDX 7 1 8 2 9 3 10 4 11 5 12 6 13 7 14 8 6 9 5 10 4 11 3 12 2 13
REMARK SMILES IDX 1 14
REMARK H PARENT
REMARK Flexibility Score: inf
ROOT
ATOM      1  C   UNL     1       6.518   5.976  -6.197  1.00  0.00     0.000 C 
ENDROOT
BRANCH   1   2
ATOM      2  C   UNL     1       6.339   4.598  -5.539  1.00  0.00     0.000 C 
BRANCH   2   3
ATOM      3  C   UNL     1       7.277   4.393  -4.337  1.00  0.00     0.000 C 
BRANCH   3   4
ATOM      4  C   UNL     1       7.869   2.973  -4.281  1.00  0.00     0.006 C 
BRANCH   4   5
ATOM      5  C   UNL     1       8.627   2.556  -5.551  1.00  0.00     0.053 C 
BRANCH   5   6
ATOM      6  C   UNL     1       7.976   1.394  -6.237  1.00  0.00     0.041 C 
ATOM      7  O   UNL     1       8.385   1.015  -7.366  1.00  0.00    -0.550 OA
ATOM      8  O   UNL     1       6.897   0.753  -5.645  1.00  0.00    -0.550 OA
ENDBRANCH   5   6
ENDBRANCH   4   5
ENDBRANCH   3   4
ENDBRANCH   2   3
ENDBRANCH   1   2
BRANCH   1   9
ATOM      9  C   UNL     1       6.727   5.880  -7.718  1.00  0.00     0.000 C 
BRANCH   9  10
ATOM     10  C   UNL     1       7.687   4.746  -8.115  1.00  0.00    -0.000 C 
BRANCH  10  11
ATOM     11  C   UNL     1       7.123   3.865  -9.243  1.00  0.00    -0.000 C 
BRANCH  11  12
ATOM     12  C   UNL     1       5.818   3.147  -8.847  1.00  0.00    -0.000 C 
BRANCH  12  13
ATOM     13  C   UNL     1       4.775   3.027  -9.972  1.00  0.00    -0.003 C 
ATOM     14  C   UNL     1       3.359   3.374  -9.515  1.00  0.00     0.004 C 
ENDBRANCH  12  13
ENDBRANCH  11  12
ENDBRANCH  10  11
ENDBRANCH   9  10
ENDBRANCH   1   9
TORSDOF 10
ENDMDL
MODEL 7
REMARK VINA RESULT:    -3.767      2.622      3.495
REMARK INTER + INTRA:          -7.147
REMARK INTER:                  -5.699
REMARK INTRA:                  -1.448
REMARK UNBOUND:                -1.177
REMARK SMILES CCCCCCCCCCCC(=O)[O-]
REMARK SMILES IDX 7 1 8 2 9 3 10 4 11 5 12 6 13 7 14 8 6 9 5 10 4 11 3 12 2 13
REMARK SMILES IDX 1 14
REMARK H PARENT
REMARK Flexibility Score: inf
ROOT
ATOM      1  C   UNL     1      -4.190  12.602  -3.251  1.00  0.00     0.000 C 
ENDROOT
BRANCH   1   2
ATOM      2  C   UNL     1      -3.641  12.906  -4.655  1.00  0.00     0.000 C 
BRANCH   2   3
ATOM      3  C   UNL     1      -4.010  11.820  -5.679  1.00  0.00     0.000 C 
BRANCH   3   4
ATOM      4  C   UNL     1      -4.379  12.403  -7.057  1.00  0.00     0.006 C 
BRANCH   4   5
ATOM      5  C   UNL     1      -5.814  12.946  -7.147  1.00  0.00     0.053 C 
BRANCH   5   6
ATOM      6  C   UNL     1      -6.491  12.532  -8.417  1.00  0.00     0.041 C 
ATOM      7  O   UNL     1      -5.807  12.228  -9.430  1.00  0.00    -0.550 OA
ATOM      8  O   UNL     1      -7.877  12.514  -8.493  1.00  0.00    -0.550 OA
ENDBRANCH   5   6
ENDBRANCH   4   5
ENDBRANCH   3   4
ENDBRANCH   2   3
ENDBRANCH   1   2
BRANCH   1   9
ATOM      9  C   UNL     1      -5.097  13.724  -2.718  1.00  0.00     0.000 C 
BRANCH   9  10
ATOM     10  C   UNL     1      -6.282  14.024  -3.651  1.00  0.00    -0.000 C 
BRANCH  10  11
ATOM     11  C   UNL     1      -7.582  13.343  -3.189  1.00  0.00    -0.000 C 
BRANCH  11  12
ATOM     12  C   UNL     1      -8.157  12.375  -4.240  1.00  0.00    -0.000 C 
BRANCH  12  13
ATOM     13  C   UNL     1      -7.422  11.029  -4.357  1.00  0.00    -0.003 C 
ATOM     14  C   UNL     1      -7.764  10.268  -5.636  1.00  0.00     0.004 C 
ENDBRANCH  12  13
ENDBRANCH  11  12
ENDBRANCH  10  11
ENDBRANCH   9  10
ENDBRANCH   1   9
TORSDOF 10
ENDMDL
MODEL 8
REMARK VINA RESULT:    -3.742     12.301     14.578
REMARK INTER + INTRA:          -7.106
REMARK INTER:                  -5.843
REMARK INTRA:                  -1.263
REMARK UNBOUND:                -1.177
REMARK SMILES CCCCCCCCCCCC(=O)[O-]
REMARK SMILES IDX 7 1 8 2 9 3 10 4 11 5 12 6 13 7 14 8 6 9 5 10 4 11 3 12 2 13
REMARK SMILES IDX 1 14
REMARK H PARENT
REMARK Flexibility Score: inf
ROOT
ATOM      1  C   UNL     1       5.539   3.312  -8.446  1.00  0.00     0.000 C 
ENDROOT
BRANCH   1   2
ATOM      2  C   UNL     1       6.355   2.975  -7.188  1.00  0.00     0.000 C 
BRANCH   2   3
ATOM      3  C   UNL     1       5.910   3.791  -5.962  1.00  0.00     0.000 C 
BRANCH   3   4
ATOM      4  C   UNL     1       7.092   4.446  -5.223  1.00  0.00     0.006 C 
BRANCH   4   5
ATOM      5  C   UNL     1       7.635   3.619  -4.047  1.00  0.00     0.053 C 
BRANCH   5   6
ATOM      6  C   UNL     1       8.747   2.707  -4.468  1.00  0.00     0.041 C 
ATOM      7  O   UNL     1       9.686   3.142  -5.186  1.00  0.00    -0.550 OA
ATOM      8  O   UNL     1       8.727   1.370  -4.097  1.00  0.00    -0.550 OA
ENDBRANCH   5   6
ENDBRANCH   4   5
ENDBRANCH   3   4
ENDBRANCH   2   3
ENDBRANCH   1   2
BRANCH   1   9
ATOM      9  C   UNL     1       6.386   3.256  -9.730  1.00  0.00     0.000 C 
BRANCH   9  10
ATOM     10  C   UNL     1       6.899   4.640 -10.164  1.00  0.00    -0.000 C 
BRANCH  10  11
ATOM     11  C   UNL     1       8.174   5.058  -9.413  1.00  0.00    -0.000 C 
BRANCH  11  12
ATOM     12  C   UNL     1       7.981   6.329  -8.565  1.00  0.00    -0.000 C 
BRANCH  12  13
ATOM     13  C   UNL     1       6.571   6.942  -8.624  1.00  0.00    -0.003 C 
ATOM     14  C   UNL     1       6.061   7.406  -7.261  1.00  0.00     0.004 C 
ENDBRANCH  12  13
ENDBRANCH  11  12
ENDBRANCH  10  11
ENDBRANCH   9  10
ENDBRANCH   1   9
TORSDOF 10
ENDMDL
MODEL 9
REMARK VINA RESULT:    -3.734      3.458      5.462
REMARK INTER + INTRA:          -7.094
REMARK INTER:                  -6.139
REMARK INTRA:                  -0.955
REMARK UNBOUND:                -1.177
REMARK SMILES CCCCCCCCCCCC(=O)[O-]
REMARK SMILES IDX 7 1 8 2 9 3 10 4 11 5 12 6 13 7 14 8 6 9 5 10 4 11 3 12 2 13
REMARK SMILES IDX 1 14
REMARK H PARENT
REMARK Flexibility Score: inf
ROOT
ATOM      1  C   UNL     1      -5.292  13.778  -2.245  1.00  0.00     0.000 C 
ENDROOT
BRANCH   1   2
ATOM      2  C   UNL     1      -6.809  13.821  -2.491  1.00  0.00     0.000 C 
BRANCH   2   3
ATOM      3  C   UNL     1      -7.231  12.987  -3.713  1.00  0.00     0.000 C 
BRANCH   3   4
ATOM      4  C   UNL     1      -8.683  12.482  -3.615  1.00  0.00     0.006 C 
BRANCH   4   5
ATOM      5  C   UNL     1      -9.080  11.490  -4.720  1.00  0.00     0.053 C 
BRANCH   5   6
ATOM      6  C   UNL     1      -8.591  10.104  -4.432  1.00  0.00     0.041 C 
ATOM      7  O   UNL     1      -8.635   9.647  -3.260  1.00  0.00    -0.550 OA
ATOM      8  O   UNL     1      -8.054   9.330  -5.453  1.00  0.00    -0.550 OA
ENDBRANCH   5   6
ENDBRANCH   4   5
ENDBRANCH   3   4
ENDBRANCH   2   3
ENDBRANCH   1   2
BRANCH   1   9
ATOM      9  C   UNL     1      -4.552  12.917  -3.283  1.00  0.00     0.000 C 
BRANCH   9  10
ATOM     10  C   UNL     1      -3.374  13.658  -3.937  1.00  0.00    -0.000 C 
BRANCH  10  11
ATOM     11  C   UNL     1      -3.119  13.198  -5.383  1.00  0.00    -0.000 C 
BRANCH  11  12
ATOM     12  C   UNL     1      -4.059  12.062  -5.825  1.00  0.00    -0.000 C 
BRANCH  12  13
ATOM     13  C   UNL     1      -4.688  12.242  -7.218  1.00  0.00    -0.003 C 
ATOM     14  C   UNL     1      -6.162  12.638  -7.163  1.00  0.00     0.004 C 
ENDBRANCH  12  13
ENDBRANCH  11  12
ENDBRANCH  10  11
ENDBRANCH   9  10
ENDBRANCH   1   9
TORSDOF 10
ENDMDL
