MODEL 1
REMARK VINA RESULT:    -5.064      0.000      0.000
REMARK INTER + INTRA:          -6.219
REMARK INTER:                  -5.952
REMARK INTRA:                  -0.267
REMARK UNBOUND:                -0.267
REMARK SMILES O=c1cc(-c2ccc(O)c(O)c2)oc2cc(O)cc(O)c12
REMARK SMILES IDX 4 1 3 2 2 3 1 4 21 5 19 6 18 7 16 8 15 9 14 10 13 11 5 12
REMARK SMILES IDX 6 13 7 14 8 15 12 16 10 17 9 18 11 20 20 22 17 24
REMARK H PARENT 9 19 11 21 20 23 17 25
REMARK Flexibility Score: inf
ROOT
ATOM      1  C   UNL     1     170.872 173.744 154.584  1.00  0.00     0.138 A 
ATOM      2  C   UNL     1     170.655 172.843 155.635  1.00  0.00     0.100 A 
ATOM      3  C   UNL     1     169.356 172.617 156.093  1.00  0.00     0.197 A 
ATOM      4  O   UNL     1     169.187 171.756 156.996  1.00  0.00    -0.289 OA
ATOM      5  C   UNL     1     168.273 173.321 155.515  1.00  0.00     0.107 A 
ATOM      6  C   UNL     1     166.914 173.200 155.929  1.00  0.00     0.134 A 
ATOM      7  C   UNL     1     165.912 173.860 155.205  1.00  0.00     0.093 A 
ATOM      8  C   UNL     1     166.225 174.680 154.123  1.00  0.00     0.123 A 
ATOM      9  C   UNL     1     167.558 174.848 153.743  1.00  0.00     0.094 A 
ATOM     10  C   UNL     1     168.577 174.176 154.423  1.00  0.00     0.146 A 
ATOM     11  O   UNL     1     169.832 174.352 154.021  1.00  0.00    -0.456 OA
ENDROOT
BRANCH   1  12
ATOM     12  C   UNL     1     172.232 174.024 154.058  1.00  0.00     0.021 A 
ATOM     13  C   UNL     1     172.739 175.334 154.114  1.00  0.00     0.016 A 
ATOM     14  C   UNL     1     174.020 175.622 153.633  1.00  0.00     0.051 A 
ATOM     15  C   UNL     1     174.817 174.604 153.097  1.00  0.00     0.157 A 
ATOM     16  C   UNL     1     173.045 173.002 153.529  1.00  0.00     0.062 A 
ATOM     17  C   UNL     1     174.331 173.292 153.047  1.00  0.00     0.158 A 
BRANCH  15  18
ATOM     18  O   UNL     1     176.093 174.887 152.614  1.00  0.00    -0.504 OA
ATOM     19  H   UNL     1     176.253 175.634 151.947  1.00  0.00     0.293 HD
ENDBRANCH  15  18
BRANCH  17  20
ATOM     20  O   UNL     1     175.133 172.280 152.524  1.00  0.00    -0.504 OA
ATOM     21  H   UNL     1     174.869 171.304 152.595  1.00  0.00     0.293 HD
ENDBRANCH  17  20
ENDBRANCH   1  12
BRANCH   6  22
ATOM     22  O   UNL     1     166.499 172.474 157.049  1.00  0.00    -0.507 OA
ATOM     23  H   UNL     1     166.695 172.726 158.005  1.00  0.00     0.293 HD
ENDBRANCH   6  22
BRANCH   8  24
ATOM     24  O   UNL     1     165.204 175.332 153.436  1.00  0.00    -0.508 OA
ATOM     25  H   UNL     1     165.392 176.125 152.833  1.00  0.00     0.293 HD
ENDBRANCH   8  24
TORSDOF 5
ENDMDL
MODEL 2
REMARK VINA RESULT:    -5.063      4.766     10.275
REMARK INTER + INTRA:          -6.218
REMARK INTER:                  -5.949
REMARK INTRA:                  -0.269
REMARK UNBOUND:                -0.267
REMARK SMILES O=c1cc(-c2ccc(O)c(O)c2)oc2cc(O)cc(O)c12
REMARK SMILES IDX 4 1 3 2 2 3 1 4 21 5 19 6 18 7 16 8 15 9 14 10 13 11 5 12
REMARK SMILES IDX 6 13 7 14 8 15 12 16 10 17 9 18 11 20 20 22 17 24
REMARK H PARENT 9 19 11 21 20 23 17 25
REMARK Flexibility Score: inf
ROOT
ATOM      1  C   UNL     1     177.374 174.375 154.512  1.00  0.00     0.138 A 
ATOM      2  C   UNL     1     177.629 175.330 155.505  1.00  0.00     0.100 A 
ATOM      3  C   UNL     1     178.938 175.542 155.939  1.00  0.00     0.197 A 
ATOM      4  O   UNL     1     179.142 176.450 156.787  1.00  0.00    -0.289 OA
ATOM      5  C   UNL     1     179.993 174.769 155.398  1.00  0.00     0.107 A 
ATOM      6  C   UNL     1     181.359 174.871 155.795  1.00  0.00     0.134 A 
ATOM      7  C   UNL     1     182.333 174.136 155.106  1.00  0.00     0.093 A 
ATOM      8  C   UNL     1     181.984 173.262 154.078  1.00  0.00     0.123 A 
ATOM      9  C   UNL     1     180.643 173.115 153.718  1.00  0.00     0.094 A 
ATOM     10  C   UNL     1     179.652 173.859 154.362  1.00  0.00     0.146 A 
ATOM     11  O   UNL     1     178.389 173.701 153.981  1.00  0.00    -0.456 OA
ENDROOT
BRANCH   1  12
ATOM     12  C   UNL     1     176.001 174.108 154.014  1.00  0.00     0.021 A 
ATOM     13  C   UNL     1     175.484 172.802 154.079  1.00  0.00     0.016 A 
ATOM     14  C   UNL     1     174.191 172.526 153.623  1.00  0.00     0.051 A 
ATOM     15  C   UNL     1     173.392 173.551 153.105  1.00  0.00     0.157 A 
ATOM     16  C   UNL     1     175.186 175.137 153.503  1.00  0.00     0.062 A 
ATOM     17  C   UNL     1     173.888 174.859 153.048  1.00  0.00     0.158 A 
BRANCH  15  18
ATOM     18  O   UNL     1     172.104 173.280 152.648  1.00  0.00    -0.504 OA
ATOM     19  H   UNL     1     171.501 174.016 152.296  1.00  0.00     0.293 HD
ENDBRANCH  15  18
BRANCH  17  20
ATOM     20  O   UNL     1     173.085 175.879 152.542  1.00  0.00    -0.504 OA
ATOM     21  H   UNL     1     172.551 175.761 151.689  1.00  0.00     0.293 HD
ENDBRANCH  17  20
ENDBRANCH   1  12
BRANCH   6  22
ATOM     22  O   UNL     1     181.807 175.650 156.865  1.00  0.00    -0.507 OA
ATOM     23  H   UNL     1     182.563 176.316 156.818  1.00  0.00     0.293 HD
ENDBRANCH   6  22
BRANCH   8  24
ATOM     24  O   UNL     1     182.977 172.537 153.425  1.00  0.00    -0.508 OA
ATOM     25  H   UNL     1     182.832 171.575 153.139  1.00  0.00     0.293 HD
ENDBRANCH   8  24
TORSDOF 5
ENDMDL
MODEL 3
REMARK VINA RESULT:    -5.056      4.578      7.167
REMARK INTER + INTRA:          -6.209
REMARK INTER:                  -5.940
REMARK INTRA:                  -0.269
REMARK UNBOUND:                -0.267
REMARK SMILES O=c1cc(-c2ccc(O)c(O)c2)oc2cc(O)cc(O)c12
REMARK SMILES IDX 4 1 3 2 2 3 1 4 21 5 19 6 18 7 16 8 15 9 14 10 13 11 5 12
REMARK SMILES IDX 6 13 7 14 8 15 12 16 10 17 9 18 11 20 20 22 17 24
REMARK H PARENT 9 19 11 21 20 23 17 25
REMARK Flexibility Score: inf
ROOT
ATOM      1  C   UNL     1     174.374 170.844 154.522  1.00  0.00     0.138 A 
ATOM      2  C   UNL     1     175.321 170.591 155.524  1.00  0.00     0.100 A 
ATOM      3  C   UNL     1     175.529 169.283 155.962  1.00  0.00     0.197 A 
ATOM      4  O   UNL     1     176.430 169.080 156.818  1.00  0.00    -0.289 OA
ATOM      5  C   UNL     1     174.763 168.226 155.416  1.00  0.00     0.107 A 
ATOM      6  C   UNL     1     174.861 166.861 155.815  1.00  0.00     0.134 A 
ATOM      7  C   UNL     1     174.133 165.885 155.120  1.00  0.00     0.093 A 
ATOM      8  C   UNL     1     173.268 166.232 154.084  1.00  0.00     0.123 A 
ATOM      9  C   UNL     1     173.124 167.573 153.721  1.00  0.00     0.094 A 
ATOM     10  C   UNL     1     173.862 168.565 154.371  1.00  0.00     0.146 A 
ATOM     11  O   UNL     1     173.706 169.828 153.986  1.00  0.00    -0.456 OA
ENDROOT
BRANCH   1  12
ATOM     12  C   UNL     1     174.112 172.216 154.019  1.00  0.00     0.021 A 
ATOM     13  C   UNL     1     172.805 172.733 154.071  1.00  0.00     0.016 A 
ATOM     14  C   UNL     1     172.532 174.025 153.611  1.00  0.00     0.051 A 
ATOM     15  C   UNL     1     173.562 174.823 153.101  1.00  0.00     0.157 A 
ATOM     16  C   UNL     1     175.145 173.030 153.516  1.00  0.00     0.062 A 
ATOM     17  C   UNL     1     174.871 174.328 153.056  1.00  0.00     0.158 A 
BRANCH  15  18
ATOM     18  O   UNL     1     173.295 176.111 152.639  1.00  0.00    -0.504 OA
ATOM     19  H   UNL     1     173.769 176.920 153.024  1.00  0.00     0.293 HD
ENDBRANCH  15  18
BRANCH  17  20
ATOM     20  O   UNL     1     175.895 175.130 152.558  1.00  0.00    -0.504 OA
ATOM     21  H   UNL     1     176.849 175.039 152.888  1.00  0.00     0.293 HD
ENDBRANCH  17  20
ENDBRANCH   1  12
BRANCH   6  22
ATOM     22  O   UNL     1     175.630 166.415 156.893  1.00  0.00    -0.507 OA
ATOM     23  H   UNL     1     175.808 165.448 157.114  1.00  0.00     0.293 HD
ENDBRANCH   6  22
BRANCH   8  24
ATOM     24  O   UNL     1     172.550 165.238 153.426  1.00  0.00    -0.508 OA
ATOM     25  H   UNL     1     171.898 165.458 152.681  1.00  0.00     0.293 HD
ENDBRANCH   8  24
TORSDOF 5
ENDMDL
MODEL 4
REMARK VINA RESULT:    -5.034      4.536      7.075
REMARK INTER + INTRA:          -6.183
REMARK INTER:                  -5.917
REMARK INTRA:                  -0.266
REMARK UNBOUND:                -0.267
REMARK SMILES O=c1cc(-c2ccc(O)c(O)c2)oc2cc(O)cc(O)c12
REMARK SMILES IDX 4 1 3 2 2 3 1 4 21 5 19 6 18 7 16 8 15 9 14 10 13 11 5 12
REMARK SMILES IDX 6 13 7 14 8 15 12 16 10 17 9 18 11 20 20 22 17 24
REMARK H PARENT 9 19 11 21 20 23 17 25
REMARK Flexibility Score: inf
ROOT
ATOM      1  C   UNL     1     173.620 177.281 154.711  1.00  0.00     0.138 A 
ATOM      2  C   UNL     1     172.749 177.440 155.798  1.00  0.00     0.100 A 
ATOM      3  C   UNL     1     172.487 178.719 156.290  1.00  0.00     0.197 A 
ATOM      4  O   UNL     1     171.653 178.834 157.226  1.00  0.00    -0.289 OA
ATOM      5  C   UNL     1     173.126 179.841 155.711  1.00  0.00     0.107 A 
ATOM      6  C   UNL     1     172.965 181.186 156.158  1.00  0.00     0.134 A 
ATOM      7  C   UNL     1     173.558 182.228 155.432  1.00  0.00     0.093 A 
ATOM      8  C   UNL     1     174.351 181.970 154.316  1.00  0.00     0.123 A 
ATOM      9  C   UNL     1     174.559 180.653 153.902  1.00  0.00     0.094 A 
ATOM     10  C   UNL     1     173.954 179.594 154.583  1.00  0.00     0.146 A 
ATOM     11  O   UNL     1     174.165 178.355 154.150  1.00  0.00    -0.456 OA
ENDROOT
BRANCH   1  12
ATOM     12  C   UNL     1     173.935 175.944 154.147  1.00  0.00     0.021 A 
ATOM     13  C   UNL     1     175.262 175.479 154.170  1.00  0.00     0.016 A 
ATOM     14  C   UNL     1     175.584 174.221 153.653  1.00  0.00     0.051 A 
ATOM     15  C   UNL     1     174.584 173.403 153.113  1.00  0.00     0.157 A 
ATOM     16  C   UNL     1     172.933 175.110 153.614  1.00  0.00     0.062 A 
ATOM     17  C   UNL     1     173.256 173.846 153.097  1.00  0.00     0.158 A 
BRANCH  15  18
ATOM     18  O   UNL     1     174.901 172.149 152.594  1.00  0.00    -0.504 OA
ATOM     19  H   UNL     1     175.852 171.905 152.342  1.00  0.00     0.293 HD
ENDBRANCH  15  18
BRANCH  17  20
ATOM     20  O   UNL     1     172.262 173.025 152.569  1.00  0.00    -0.504 OA
ATOM     21  H   UNL     1     171.562 173.383 151.930  1.00  0.00     0.293 HD
ENDBRANCH  17  20
ENDBRANCH   1  12
BRANCH   6  22
ATOM     22  O   UNL     1     172.263 181.549 157.311  1.00  0.00    -0.507 OA
ATOM     23  H   UNL     1     171.900 180.901 157.992  1.00  0.00     0.293 HD
ENDBRANCH   6  22
BRANCH   8  24
ATOM     24  O   UNL     1     174.937 183.030 153.629  1.00  0.00    -0.508 OA
ATOM     25  H   UNL     1     175.724 183.541 154.011  1.00  0.00     0.293 HD
ENDBRANCH   8  24
TORSDOF 5
ENDMDL
MODEL 5
REMARK VINA RESULT:    -4.755      1.708      6.897
REMARK INTER + INTRA:          -5.855
REMARK INTER:                  -5.556
REMARK INTRA:                  -0.299
REMARK UNBOUND:                -0.267
REMARK SMILES O=c1cc(-c2ccc(O)c(O)c2)oc2cc(O)cc(O)c12
REMARK SMILES IDX 4 1 3 2 2 3 1 4 21 5 19 6 18 7 16 8 15 9 14 10 13 11 5 12
REMARK SMILES IDX 6 13 7 14 8 15 12 16 10 17 9 18 11 20 20 22 17 24
REMARK H PARENT 9 19 11 21 20 23 17 25
REMARK Flexibility Score: inf
ROOT
ATOM      1  C   UNL     1     170.793 173.541 154.703  1.00  0.00     0.138 A 
ATOM      2  C   UNL     1     171.192 172.641 155.700  1.00  0.00     0.100 A 
ATOM      3  C   UNL     1     172.547 172.353 155.868  1.00  0.00     0.197 A 
ATOM      4  O   UNL     1     172.879 171.589 156.812  1.00  0.00    -0.289 OA
ATOM      5  C   UNL     1     173.504 172.946 155.011  1.00  0.00     0.107 A 
ATOM      6  C   UNL     1     174.907 172.695 155.064  1.00  0.00     0.134 A 
ATOM      7  C   UNL     1     175.770 173.430 154.240  1.00  0.00     0.093 A 
ATOM      8  C   UNL     1     175.278 174.361 153.327  1.00  0.00     0.123 A 
ATOM      9  C   UNL     1     173.902 174.575 153.229  1.00  0.00     0.094 A 
ATOM     10  C   UNL     1     173.017 173.884 154.061  1.00  0.00     0.146 A 
ATOM     11  O   UNL     1     171.716 174.127 153.947  1.00  0.00    -0.456 OA
ENDROOT
BRANCH   1  12
ATOM     12  C   UNL     1     169.365 173.882 154.479  1.00  0.00     0.021 A 
ATOM     13  C   UNL     1     168.387 172.880 154.604  1.00  0.00     0.016 A 
ATOM     14  C   UNL     1     167.035 173.177 154.407  1.00  0.00     0.051 A 
ATOM     15  C   UNL     1     166.639 174.481 154.091  1.00  0.00     0.157 A 
ATOM     16  C   UNL     1     168.957 175.195 154.174  1.00  0.00     0.062 A 
ATOM     17  C   UNL     1     167.600 175.493 153.977  1.00  0.00     0.158 A 
BRANCH  15  18
ATOM     18  O   UNL     1     165.293 174.782 153.891  1.00  0.00    -0.504 OA
ATOM     19  H   UNL     1     164.898 174.849 152.959  1.00  0.00     0.293 HD
ENDBRANCH  15  18
BRANCH  17  20
ATOM     20  O   UNL     1     167.200 176.793 153.673  1.00  0.00    -0.504 OA
ATOM     21  H   UNL     1     166.965 177.068 152.726  1.00  0.00     0.293 HD
ENDBRANCH  17  20
ENDBRANCH   1  12
BRANCH   6  22
ATOM     22  O   UNL     1     175.498 171.726 155.879  1.00  0.00    -0.507 OA
ATOM     23  H   UNL     1     175.221 171.524 156.827  1.00  0.00     0.293 HD
ENDBRANCH   6  22
BRANCH   8  24
ATOM     24  O   UNL     1     176.164 175.062 152.514  1.00  0.00    -0.508 OA
ATOM     25  H   UNL     1     177.055 175.396 152.864  1.00  0.00     0.293 HD
ENDBRANCH   8  24
TORSDOF 5
ENDMDL
MODEL 6
REMARK VINA RESULT:    -4.752      3.875      6.528
REMARK INTER + INTRA:          -5.852
REMARK INTER:                  -5.553
REMARK INTRA:                  -0.299
REMARK UNBOUND:                -0.267
REMARK SMILES O=c1cc(-c2ccc(O)c(O)c2)oc2cc(O)cc(O)c12
REMARK SMILES IDX 4 1 3 2 2 3 1 4 21 5 19 6 18 7 16 8 15 9 14 10 13 11 5 12
REMARK SMILES IDX 6 13 7 14 8 15 12 16 10 17 9 18 11 20 20 22 17 24
REMARK H PARENT 9 19 11 21 20 23 17 25
REMARK Flexibility Score: inf
ROOT
ATOM      1  C   UNL     1     173.588 177.536 154.631  1.00  0.00     0.138 A 
ATOM      2  C   UNL     1     172.664 177.152 155.612  1.00  0.00     0.100 A 
ATOM      3  C   UNL     1     172.346 175.802 155.770  1.00  0.00     0.197 A 
ATOM      4  O   UNL     1     171.561 175.483 156.700  1.00  0.00    -0.289 OA
ATOM      5  C   UNL     1     172.932 174.837 154.918  1.00  0.00     0.107 A 
ATOM      6  C   UNL     1     172.650 173.439 154.961  1.00  0.00     0.134 A 
ATOM      7  C   UNL     1     173.379 172.564 154.144  1.00  0.00     0.093 A 
ATOM      8  C   UNL     1     174.334 173.040 153.248  1.00  0.00     0.123 A 
ATOM      9  C   UNL     1     174.579 174.412 153.160  1.00  0.00     0.094 A 
ATOM     10  C   UNL     1     173.894 175.307 153.984  1.00  0.00     0.146 A 
ATOM     11  O   UNL     1     174.166 176.604 153.880  1.00  0.00    -0.456 OA
ENDROOT
BRANCH   1  12
ATOM     12  C   UNL     1     173.963 178.957 154.419  1.00  0.00     0.021 A 
ATOM     13  C   UNL     1     172.983 179.957 154.546  1.00  0.00     0.016 A 
ATOM     14  C   UNL     1     173.311 181.303 154.360  1.00  0.00     0.051 A 
ATOM     15  C   UNL     1     174.626 181.672 154.052  1.00  0.00     0.157 A 
ATOM     16  C   UNL     1     175.286 179.337 154.122  1.00  0.00     0.062 A 
ATOM     17  C   UNL     1     175.616 180.688 153.936  1.00  0.00     0.158 A 
BRANCH  15  18
ATOM     18  O   UNL     1     174.958 183.012 153.863  1.00  0.00    -0.504 OA
ATOM     19  H   UNL     1     174.245 183.720 153.726  1.00  0.00     0.293 HD
ENDBRANCH  15  18
BRANCH  17  20
ATOM     20  O   UNL     1     176.926 181.060 153.641  1.00  0.00    -0.504 OA
ATOM     21  H   UNL     1     177.697 180.818 154.253  1.00  0.00     0.293 HD
ENDBRANCH  17  20
ENDBRANCH   1  12
BRANCH   6  22
ATOM     22  O   UNL     1     171.656 172.866 155.759  1.00  0.00    -0.507 OA
ATOM     23  H   UNL     1     171.345 173.233 156.644  1.00  0.00     0.293 HD
ENDBRANCH   6  22
BRANCH   8  24
ATOM     24  O   UNL     1     175.028 172.142 152.441  1.00  0.00    -0.508 OA
ATOM     25  H   UNL     1     175.071 172.256 151.435  1.00  0.00     0.293 HD
ENDBRANCH   8  24
TORSDOF 5
ENDMDL
MODEL 7
REMARK VINA RESULT:    -4.748      1.246      2.709
REMARK INTER + INTRA:          -5.847
REMARK INTER:                  -5.553
REMARK INTRA:                  -0.294
REMARK UNBOUND:                -0.267
REMARK SMILES O=c1cc(-c2ccc(O)c(O)c2)oc2cc(O)cc(O)c12
REMARK SMILES IDX 4 1 3 2 2 3 1 4 21 5 19 6 18 7 16 8 15 9 14 10 13 11 5 12
REMARK SMILES IDX 6 13 7 14 8 15 12 16 10 17 9 18 11 20 20 22 17 24
REMARK H PARENT 9 19 11 21 20 23 17 25
REMARK Flexibility Score: inf
ROOT
ATOM      1  C   UNL     1     170.758 173.894 154.290  1.00  0.00     0.138 A 
ATOM      2  C   UNL     1     169.729 174.782 153.947  1.00  0.00     0.100 A 
ATOM      3  C   UNL     1     168.428 174.532 154.385  1.00  0.00     0.197 A 
ATOM      4  O   UNL     1     167.538 175.380 154.114  1.00  0.00    -0.289 OA
ATOM      5  C   UNL     1     168.151 173.370 155.143  1.00  0.00     0.107 A 
ATOM      6  C   UNL     1     166.856 172.993 155.608  1.00  0.00     0.134 A 
ATOM      7  C   UNL     1     166.723 171.880 156.449  1.00  0.00     0.093 A 
ATOM      8  C   UNL     1     167.825 171.099 156.792  1.00  0.00     0.123 A 
ATOM      9  C   UNL     1     169.089 171.428 156.299  1.00  0.00     0.094 A 
ATOM     10  C   UNL     1     169.261 172.551 155.487  1.00  0.00     0.146 A 
ATOM     11  O   UNL     1     170.482 172.838 155.049  1.00  0.00    -0.456 OA
ENDROOT
BRANCH   1  12
ATOM     12  C   UNL     1     172.160 174.110 153.851  1.00  0.00     0.021 A 
ATOM     13  C   UNL     1     172.719 175.398 153.931  1.00  0.00     0.016 A 
ATOM     14  C   UNL     1     174.039 175.627 153.531  1.00  0.00     0.051 A 
ATOM     15  C   UNL     1     174.824 174.571 153.053  1.00  0.00     0.157 A 
ATOM     16  C   UNL     1     172.960 173.050 153.381  1.00  0.00     0.062 A 
ATOM     17  C   UNL     1     174.286 173.281 152.981  1.00  0.00     0.158 A 
BRANCH  15  18
ATOM     18  O   UNL     1     176.139 174.795 152.651  1.00  0.00    -0.504 OA
ATOM     19  H   UNL     1     176.848 175.103 153.307  1.00  0.00     0.293 HD
ENDBRANCH  15  18
BRANCH  17  20
ATOM     20  O   UNL     1     175.074 172.230 152.516  1.00  0.00    -0.504 OA
ATOM     21  H   UNL     1     174.680 171.473 151.968  1.00  0.00     0.293 HD
ENDBRANCH  17  20
ENDBRANCH   1  12
BRANCH   6  22
ATOM     22  O   UNL     1     165.676 173.654 155.255  1.00  0.00    -0.507 OA
ATOM     23  H   UNL     1     164.754 173.390 155.563  1.00  0.00     0.293 HD
ENDBRANCH   6  22
BRANCH   8  24
ATOM     24  O   UNL     1     167.652 169.992 157.619  1.00  0.00    -0.508 OA
ATOM     25  H   UNL     1     168.388 169.670 158.237  1.00  0.00     0.293 HD
ENDBRANCH   8  24
TORSDOF 5
ENDMDL
MODEL 8
REMARK VINA RESULT:    -4.743      4.982      7.301
REMARK INTER + INTRA:          -5.841
REMARK INTER:                  -5.542
REMARK INTRA:                  -0.299
REMARK UNBOUND:                -0.267
REMARK SMILES O=c1cc(-c2ccc(O)c(O)c2)oc2cc(O)cc(O)c12
REMARK SMILES IDX 4 1 3 2 2 3 1 4 21 5 19 6 18 7 16 8 15 9 14 10 13 11 5 12
REMARK SMILES IDX 6 13 7 14 8 15 12 16 10 17 9 18 11 20 20 22 17 24
REMARK H PARENT 9 19 11 21 20 23 17 25
REMARK Flexibility Score: inf
ROOT
ATOM      1  C   UNL     1     174.591 170.646 154.653  1.00  0.00     0.138 A 
ATOM      2  C   UNL     1     175.509 171.036 155.638  1.00  0.00     0.100 A 
ATOM      3  C   UNL     1     175.819 172.387 155.795  1.00  0.00     0.197 A 
ATOM      4  O   UNL     1     176.598 172.711 156.729  1.00  0.00    -0.289 OA
ATOM      5  C   UNL     1     175.232 173.349 154.940  1.00  0.00     0.107 A 
ATOM      6  C   UNL     1     175.506 174.748 154.982  1.00  0.00     0.134 A 
ATOM      7  C   UNL     1     174.776 175.618 154.162  1.00  0.00     0.093 A 
ATOM      8  C   UNL     1     173.827 175.136 153.262  1.00  0.00     0.123 A 
ATOM      9  C   UNL     1     173.590 173.762 153.174  1.00  0.00     0.094 A 
ATOM     10  C   UNL     1     174.277 172.872 154.002  1.00  0.00     0.146 A 
ATOM     11  O   UNL     1     174.012 171.574 153.898  1.00  0.00    -0.456 OA
ENDROOT
BRANCH   1  12
ATOM     12  C   UNL     1     174.225 169.222 154.441  1.00  0.00     0.021 A 
ATOM     13  C   UNL     1     175.211 168.228 154.568  1.00  0.00     0.016 A 
ATOM     14  C   UNL     1     174.891 166.880 154.381  1.00  0.00     0.051 A 
ATOM     15  C   UNL     1     173.579 166.504 154.074  1.00  0.00     0.157 A 
ATOM     16  C   UNL     1     172.904 168.834 154.144  1.00  0.00     0.062 A 
ATOM     17  C   UNL     1     172.583 167.481 153.958  1.00  0.00     0.158 A 
BRANCH  15  18
ATOM     18  O   UNL     1     173.255 165.161 153.884  1.00  0.00    -0.504 OA
ATOM     19  H   UNL     1     172.768 164.847 153.052  1.00  0.00     0.293 HD
ENDBRANCH  15  18
BRANCH  17  20
ATOM     20  O   UNL     1     171.275 167.101 153.662  1.00  0.00    -0.504 OA
ATOM     21  H   UNL     1     171.025 166.129 153.517  1.00  0.00     0.293 HD
ENDBRANCH  17  20
ENDBRANCH   1  12
BRANCH   6  22
ATOM     22  O   UNL     1     176.493 175.327 155.784  1.00  0.00    -0.507 OA
ATOM     23  H   UNL     1     176.717 176.310 155.803  1.00  0.00     0.293 HD
ENDBRANCH   6  22
BRANCH   8  24
ATOM     24  O   UNL     1     173.132 176.029 152.451  1.00  0.00    -0.508 OA
ATOM     25  H   UNL     1     172.881 175.796 151.497  1.00  0.00     0.293 HD
ENDBRANCH   8  24
TORSDOF 5
ENDMDL
MODEL 9
REMARK VINA RESULT:    -4.738      4.254      6.976
REMARK INTER + INTRA:          -5.835
REMARK INTER:                  -5.534
REMARK INTRA:                  -0.301
REMARK UNBOUND:                -0.267
REMARK SMILES O=c1cc(-c2ccc(O)c(O)c2)oc2cc(O)cc(O)c12
REMARK SMILES IDX 4 1 3 2 2 3 1 4 21 5 19 6 18 7 16 8 15 9 14 10 13 11 5 12
REMARK SMILES IDX 6 13 7 14 8 15 12 16 10 17 9 18 11 20 20 22 17 24
REMARK H PARENT 9 19 11 21 20 23 17 25
REMARK Flexibility Score: inf
ROOT
ATOM      1  C   UNL     1     177.514 174.553 154.582  1.00  0.00     0.138 A 
ATOM      2  C   UNL     1     177.140 175.521 155.523  1.00  0.00     0.100 A 
ATOM      3  C   UNL     1     175.793 175.857 155.669  1.00  0.00     0.197 A 
ATOM      4  O   UNL     1     175.483 176.685 156.565  1.00  0.00    -0.289 OA
ATOM      5  C   UNL     1     174.821 175.242 154.846  1.00  0.00     0.107 A 
ATOM      6  C   UNL     1     173.426 175.537 154.879  1.00  0.00     0.134 A 
ATOM      7  C   UNL     1     172.543 174.780 154.097  1.00  0.00     0.093 A 
ATOM      8  C   UNL     1     173.009 173.783 153.242  1.00  0.00     0.123 A 
ATOM      9  C   UNL     1     174.379 173.523 153.162  1.00  0.00     0.094 A 
ATOM     10  C   UNL     1     175.282 174.237 153.954  1.00  0.00     0.146 A 
ATOM     11  O   UNL     1     176.576 173.950 153.859  1.00  0.00    -0.456 OA
ENDROOT
BRANCH   1  12
ATOM     12  C   UNL     1     178.931 174.158 154.384  1.00  0.00     0.021 A 
ATOM     13  C   UNL     1     179.943 175.127 154.505  1.00  0.00     0.016 A 
ATOM     14  C   UNL     1     181.286 174.779 154.330  1.00  0.00     0.051 A 
ATOM     15  C   UNL     1     181.640 173.456 154.042  1.00  0.00     0.157 A 
ATOM     16  C   UNL     1     179.297 172.826 154.106  1.00  0.00     0.062 A 
ATOM     17  C   UNL     1     180.645 172.477 153.932  1.00  0.00     0.158 A 
BRANCH  15  18
ATOM     18  O   UNL     1     182.977 173.106 153.865  1.00  0.00    -0.504 OA
ATOM     19  H   UNL     1     183.709 173.496 154.449  1.00  0.00     0.293 HD
ENDBRANCH  15  18
BRANCH  17  20
ATOM     20  O   UNL     1     181.003 171.159 153.656  1.00  0.00    -0.504 OA
ATOM     21  H   UNL     1     181.933 170.809 153.855  1.00  0.00     0.293 HD
ENDBRANCH  17  20
ENDBRANCH   1  12
BRANCH   6  22
ATOM     22  O   UNL     1     172.862 176.569 155.634  1.00  0.00    -0.507 OA
ATOM     23  H   UNL     1     173.064 177.549 155.512  1.00  0.00     0.293 HD
ENDBRANCH   6  22
BRANCH   8  24
ATOM     24  O   UNL     1     172.104 173.061 152.469  1.00  0.00    -0.508 OA
ATOM     25  H   UNL     1     171.705 173.447 151.620  1.00  0.00     0.293 HD
ENDBRANCH   8  24
TORSDOF 5
ENDMDL
