MODEL 1
REMARK VINA RESULT:    -6.163      0.000      0.000
REMARK INTER + INTRA:          -7.930
REMARK INTER:                  -7.605
REMARK INTRA:                  -0.325
REMARK UNBOUND:                -0.325
REMARK SMILES Oc1cc(O)c2cc(O)c(-c3cc(O)c(O)c(O)c3)[o+]c2c1
REMARK SMILES IDX 10 1 20 2 21 3 22 4 2 5 3 6 4 7 6 8 7 9 8 10 11 11 12 12
REMARK SMILES IDX 13 13 19 14 15 15 17 16 14 17 16 19 18 21 9 23 1 25 5 27
REMARK H PARENT 14 18 16 20 18 22 9 24 1 26 5 28
REMARK Flexibility Score: inf
ROOT
ATOM      1  C   UNL     1     -13.172 -15.554  32.455  1.00  0.00     0.402 A 
ATOM      2  O   UNL     1     -12.150 -15.508  33.306  1.00  0.00    -0.202 OA
ATOM      3  C   UNL     1     -12.146 -14.756  34.401  1.00  0.00     0.368 A 
ATOM      4  C   UNL     1     -11.024 -14.773  35.233  1.00  0.00     0.162 A 
ATOM      5  C   UNL     1     -10.991 -13.987  36.389  1.00  0.00     0.128 A 
ATOM      6  C   UNL     1     -12.085 -13.181  36.714  1.00  0.00     0.093 A 
ATOM      7  C   UNL     1     -13.220 -13.146  35.897  1.00  0.00     0.136 A 
ATOM      8  C   UNL     1     -13.260 -13.943  34.723  1.00  0.00     0.125 A 
ATOM      9  C   UNL     1     -14.361 -13.982  33.853  1.00  0.00     0.078 A 
ATOM     10  C   UNL     1     -14.329 -14.797  32.717  1.00  0.00     0.223 A 
ENDROOT
BRANCH   1  11
ATOM     11  C   UNL     1     -13.054 -16.425  31.264  1.00  0.00     0.091 A 
ATOM     12  C   UNL     1     -13.065 -17.818  31.424  1.00  0.00     0.068 A 
ATOM     13  C   UNL     1     -12.935 -18.673  30.324  1.00  0.00     0.162 A 
ATOM     14  C   UNL     1     -12.873 -15.889  29.980  1.00  0.00     0.068 A 
ATOM     15  C   UNL     1     -12.776 -18.125  29.028  1.00  0.00     0.200 A 
ATOM     16  C   UNL     1     -12.741 -16.727  28.869  1.00  0.00     0.162 A 
BRANCH  13  17
ATOM     17  O   UNL     1     -12.967 -20.048  30.563  1.00  0.00    -0.504 OA
ATOM     18  H   UNL     1     -13.678 -20.669  30.206  1.00  0.00     0.293 HD
ENDBRANCH  13  17
BRANCH  15  19
ATOM     19  O   UNL     1     -12.649 -18.926  27.891  1.00  0.00    -0.502 OA
ATOM     20  H   UNL     1     -12.728 -18.586  26.943  1.00  0.00     0.293 HD
ENDBRANCH  15  19
BRANCH  16  21
ATOM     21  O   UNL     1     -12.570 -16.149  27.611  1.00  0.00    -0.504 OA
ATOM     22  H   UNL     1     -13.350 -15.934  27.003  1.00  0.00     0.293 HD
ENDBRANCH  16  21
ENDBRANCH   1  11
BRANCH  10  23
ATOM     23  O   UNL     1     -15.441 -14.872  31.878  1.00  0.00    -0.500 OA
ATOM     24  H   UNL     1     -15.347 -14.891  30.869  1.00  0.00     0.294 HD
ENDBRANCH  10  23
BRANCH   5  25
ATOM     25  O   UNL     1      -9.875 -13.999  37.224  1.00  0.00    -0.507 OA
ATOM     26  H   UNL     1      -9.045 -14.530  36.990  1.00  0.00     0.293 HD
ENDBRANCH   5  25
BRANCH   7  27
ATOM     27  O   UNL     1     -14.271 -12.311  36.289  1.00  0.00    -0.507 OA
ATOM     28  H   UNL     1     -14.341 -11.870  37.195  1.00  0.00     0.293 HD
ENDBRANCH   7  27
TORSDOF 7
ENDMDL
MODEL 2
REMARK VINA RESULT:    -5.882      1.066      2.582
REMARK INTER + INTRA:          -7.583
REMARK INTER:                  -7.258
REMARK INTRA:                  -0.325
REMARK UNBOUND:                -0.325
REMARK SMILES Oc1cc(O)c2cc(O)c(-c3cc(O)c(O)c(O)c3)[o+]c2c1
REMARK SMILES IDX 10 1 20 2 21 3 22 4 2 5 3 6 4 7 6 8 7 9 8 10 11 11 12 12
REMARK SMILES IDX 13 13 19 14 15 15 17 16 14 17 16 19 18 21 9 23 1 25 5 27
REMARK H PARENT 14 18 16 20 18 22 9 24 1 26 5 28
REMARK Flexibility Score: inf
ROOT
ATOM      1  C   UNL     1     -12.089 -16.202  32.499  1.00  0.00     0.402 A 
ATOM      2  O   UNL     1     -12.932 -15.343  33.066  1.00  0.00    -0.202 OA
ATOM      3  C   UNL     1     -12.636 -14.642  34.155  1.00  0.00     0.368 A 
ATOM      4  C   UNL     1     -13.589 -13.765  34.680  1.00  0.00     0.162 A 
ATOM      5  C   UNL     1     -13.305 -13.019  35.828  1.00  0.00     0.128 A 
ATOM      6  C   UNL     1     -12.062 -13.149  36.453  1.00  0.00     0.093 A 
ATOM      7  C   UNL     1     -11.091 -14.021  35.947  1.00  0.00     0.136 A 
ATOM      8  C   UNL     1     -11.373 -14.779  34.781  1.00  0.00     0.125 A 
ATOM      9  C   UNL     1     -10.455 -15.667  34.197  1.00  0.00     0.078 A 
ATOM     10  C   UNL     1     -10.803 -16.378  33.044  1.00  0.00     0.223 A 
ENDROOT
BRANCH   1  11
ATOM     11  C   UNL     1     -12.540 -16.932  31.292  1.00  0.00     0.091 A 
ATOM     12  C   UNL     1     -12.883 -18.288  31.394  1.00  0.00     0.068 A 
ATOM     13  C   UNL     1     -13.293 -19.015  30.271  1.00  0.00     0.162 A 
ATOM     14  C   UNL     1     -12.576 -16.313  30.034  1.00  0.00     0.068 A 
ATOM     15  C   UNL     1     -13.351 -18.377  29.008  1.00  0.00     0.200 A 
ATOM     16  C   UNL     1     -12.983 -17.023  28.901  1.00  0.00     0.162 A 
BRANCH  13  17
ATOM     17  O   UNL     1     -13.630 -20.357  30.456  1.00  0.00    -0.504 OA
ATOM     18  H   UNL     1     -13.648 -20.820  31.353  1.00  0.00     0.293 HD
ENDBRANCH  13  17
BRANCH  15  19
ATOM     19  O   UNL     1     -13.759 -19.049  27.853  1.00  0.00    -0.502 OA
ATOM     20  H   UNL     1     -14.489 -19.746  27.829  1.00  0.00     0.293 HD
ENDBRANCH  15  19
BRANCH  16  21
ATOM     21  O   UNL     1     -13.011 -16.364  27.671  1.00  0.00    -0.504 OA
ATOM     22  H   UNL     1     -12.230 -16.389  27.027  1.00  0.00     0.293 HD
ENDBRANCH  16  21
ENDBRANCH   1  11
BRANCH  10  23
ATOM     23  O   UNL     1      -9.875 -17.223  32.435  1.00  0.00    -0.500 OA
ATOM     24  H   UNL     1     -10.151 -18.105  32.019  1.00  0.00     0.294 HD
ENDBRANCH  10  23
BRANCH   5  25
ATOM     25  O   UNL     1     -14.250 -12.142  36.356  1.00  0.00    -0.507 OA
ATOM     26  H   UNL     1     -13.975 -11.328  36.893  1.00  0.00     0.293 HD
ENDBRANCH   5  25
BRANCH   7  27
ATOM     27  O   UNL     1      -9.875 -14.097  36.633  1.00  0.00    -0.507 OA
ATOM     28  H   UNL     1      -9.206 -13.343  36.694  1.00  0.00     0.293 HD
ENDBRANCH   7  27
TORSDOF 7
ENDMDL
MODEL 3
REMARK VINA RESULT:    -5.610      1.154      3.180
REMARK INTER + INTRA:          -7.247
REMARK INTER:                  -6.904
REMARK INTRA:                  -0.343
REMARK UNBOUND:                -0.325
REMARK SMILES Oc1cc(O)c2cc(O)c(-c3cc(O)c(O)c(O)c3)[o+]c2c1
REMARK SMILES IDX 10 1 20 2 21 3 22 4 2 5 3 6 4 7 6 8 7 9 8 10 11 11 12 12
REMARK SMILES IDX 13 13 19 14 15 15 17 16 14 17 16 19 18 21 9 23 1 25 5 27
REMARK H PARENT 14 18 16 20 18 22 9 24 1 26 5 28
REMARK Flexibility Score: inf
ROOT
ATOM      1  C   UNL     1     -12.046 -16.343  32.362  1.00  0.00     0.402 A 
ATOM      2  O   UNL     1     -12.869 -15.449  32.904  1.00  0.00    -0.202 OA
ATOM      3  C   UNL     1     -12.578 -14.761  34.002  1.00  0.00     0.368 A 
ATOM      4  C   UNL     1     -13.510 -13.846  34.498  1.00  0.00     0.162 A 
ATOM      5  C   UNL     1     -13.231 -13.112  35.655  1.00  0.00     0.128 A 
ATOM      6  C   UNL     1     -12.015 -13.294  36.318  1.00  0.00     0.093 A 
ATOM      7  C   UNL     1     -11.065 -14.205  35.842  1.00  0.00     0.136 A 
ATOM      8  C   UNL     1     -11.342 -14.951  34.667  1.00  0.00     0.125 A 
ATOM      9  C   UNL     1     -10.444 -15.876  34.110  1.00  0.00     0.078 A 
ATOM     10  C   UNL     1     -10.786 -16.571  32.946  1.00  0.00     0.223 A 
ENDROOT
BRANCH   1  11
ATOM     11  C   UNL     1     -12.488 -17.053  31.140  1.00  0.00     0.091 A 
ATOM     12  C   UNL     1     -12.538 -16.363  29.921  1.00  0.00     0.068 A 
ATOM     13  C   UNL     1     -12.971 -16.996  28.750  1.00  0.00     0.162 A 
ATOM     14  C   UNL     1     -12.914 -18.389  31.185  1.00  0.00     0.068 A 
ATOM     15  C   UNL     1     -13.377 -18.352  28.797  1.00  0.00     0.200 A 
ATOM     16  C   UNL     1     -13.350 -19.038  30.025  1.00  0.00     0.162 A 
BRANCH  13  17
ATOM     17  O   UNL     1     -12.981 -16.245  27.573  1.00  0.00    -0.504 OA
ATOM     18  H   UNL     1     -13.820 -15.974  27.080  1.00  0.00     0.293 HD
ENDBRANCH  13  17
BRANCH  15  19
ATOM     19  O   UNL     1     -13.811 -19.039  27.661  1.00  0.00    -0.502 OA
ATOM     20  H   UNL     1     -14.653 -19.595  27.620  1.00  0.00     0.293 HD
ENDBRANCH  15  19
BRANCH  16  21
ATOM     21  O   UNL     1     -13.758 -20.369  30.116  1.00  0.00    -0.504 OA
ATOM     22  H   UNL     1     -14.323 -20.710  30.884  1.00  0.00     0.293 HD
ENDBRANCH  16  21
ENDBRANCH   1  11
BRANCH  10  23
ATOM     23  O   UNL     1      -9.875 -17.454  32.365  1.00  0.00    -0.500 OA
ATOM     24  H   UNL     1      -9.245 -18.015  32.926  1.00  0.00     0.294 HD
ENDBRANCH  10  23
BRANCH   5  25
ATOM     25  O   UNL     1     -14.155 -12.197  36.155  1.00  0.00    -0.507 OA
ATOM     26  H   UNL     1     -14.151 -11.919  37.130  1.00  0.00     0.293 HD
ENDBRANCH   5  25
BRANCH   7  27
ATOM     27  O   UNL     1      -9.875 -14.332  36.565  1.00  0.00    -0.507 OA
ATOM     28  H   UNL     1      -9.019 -14.716  36.192  1.00  0.00     0.293 HD
ENDBRANCH   7  27
TORSDOF 7
ENDMDL
MODEL 4
REMARK VINA RESULT:    -4.980      1.408      7.039
REMARK INTER + INTRA:          -6.470
REMARK INTER:                  -6.236
REMARK INTRA:                  -0.234
REMARK UNBOUND:                -0.325
REMARK SMILES Oc1cc(O)c2cc(O)c(-c3cc(O)c(O)c(O)c3)[o+]c2c1
REMARK SMILES IDX 10 1 20 2 21 3 22 4 2 5 3 6 4 7 6 8 7 9 8 10 11 11 12 12
REMARK SMILES IDX 13 13 19 14 15 15 17 16 14 17 16 19 18 21 9 23 1 25 5 27
REMARK H PARENT 14 18 16 20 18 22 9 24 1 26 5 28
REMARK Flexibility Score: inf
ROOT
ATOM      1  C   UNL     1     -12.640 -15.934  32.719  1.00  0.00     0.402 A 
ATOM      2  O   UNL     1     -11.856 -15.773  31.656  1.00  0.00    -0.202 OA
ATOM      3  C   UNL     1     -11.935 -16.535  30.570  1.00  0.00     0.368 A 
ATOM      4  C   UNL     1     -11.065 -16.290  29.504  1.00  0.00     0.162 A 
ATOM      5  C   UNL     1     -11.123 -17.080  28.351  1.00  0.00     0.128 A 
ATOM      6  C   UNL     1     -12.055 -18.116  28.264  1.00  0.00     0.093 A 
ATOM      7  C   UNL     1     -12.937 -18.382  29.318  1.00  0.00     0.136 A 
ATOM      8  C   UNL     1     -12.884 -17.583  30.490  1.00  0.00     0.125 A 
ATOM      9  C   UNL     1     -13.737 -17.767  31.590  1.00  0.00     0.078 A 
ATOM     10  C   UNL     1     -13.628 -16.936  32.709  1.00  0.00     0.223 A 
ENDROOT
BRANCH   1  11
ATOM     11  C   UNL     1     -12.449 -15.027  33.874  1.00  0.00     0.091 A 
ATOM     12  C   UNL     1     -11.278 -15.122  34.639  1.00  0.00     0.068 A 
ATOM     13  C   UNL     1     -11.072 -14.296  35.749  1.00  0.00     0.162 A 
ATOM     14  C   UNL     1     -13.441 -14.111  34.256  1.00  0.00     0.068 A 
ATOM     15  C   UNL     1     -12.067 -13.356  36.116  1.00  0.00     0.200 A 
ATOM     16  C   UNL     1     -13.252 -13.278  35.363  1.00  0.00     0.162 A 
BRANCH  13  17
ATOM     17  O   UNL     1      -9.875 -14.442  36.454  1.00  0.00    -0.504 OA
ATOM     18  H   UNL     1      -9.678 -13.993  37.337  1.00  0.00     0.293 HD
ENDBRANCH  13  17
BRANCH  15  19
ATOM     19  O   UNL     1     -11.915 -12.500  37.210  1.00  0.00    -0.502 OA
ATOM     20  H   UNL     1     -12.683 -12.119  37.744  1.00  0.00     0.293 HD
ENDBRANCH  15  19
BRANCH  16  21
ATOM     21  O   UNL     1     -14.263 -12.377  35.702  1.00  0.00    -0.504 OA
ATOM     22  H   UNL     1     -14.070 -11.412  35.939  1.00  0.00     0.293 HD
ENDBRANCH  16  21
ENDBRANCH   1  11
BRANCH  10  23
ATOM     23  O   UNL     1     -14.507 -17.088  33.782  1.00  0.00    -0.500 OA
ATOM     24  H   UNL     1     -15.092 -16.326  34.103  1.00  0.00     0.294 HD
ENDBRANCH  10  23
BRANCH   5  25
ATOM     25  O   UNL     1     -10.259 -16.842  27.284  1.00  0.00    -0.507 OA
ATOM     26  H   UNL     1      -9.788 -17.600  26.805  1.00  0.00     0.293 HD
ENDBRANCH   5  25
BRANCH   7  27
ATOM     27  O   UNL     1     -13.837 -19.439  29.155  1.00  0.00    -0.507 OA
ATOM     28  H   UNL     1     -14.484 -19.524  28.384  1.00  0.00     0.293 HD
ENDBRANCH   7  27
TORSDOF 7
ENDMDL
MODEL 5
REMARK VINA RESULT:    -4.787      1.398      7.117
REMARK INTER + INTRA:          -6.231
REMARK INTER:                  -5.994
REMARK INTRA:                  -0.237
REMARK UNBOUND:                -0.325
REMARK SMILES Oc1cc(O)c2cc(O)c(-c3cc(O)c(O)c(O)c3)[o+]c2c1
REMARK SMILES IDX 10 1 20 2 21 3 22 4 2 5 3 6 4 7 6 8 7 9 8 10 11 11 12 12
REMARK SMILES IDX 13 13 19 14 15 15 17 16 14 17 16 19 18 21 9 23 1 25 5 27
REMARK H PARENT 14 18 16 20 18 22 9 24 1 26 5 28
REMARK Flexibility Score: inf
ROOT
ATOM      1  C   UNL     1     -12.629 -15.942  32.728  1.00  0.00     0.402 A 
ATOM      2  O   UNL     1     -11.847 -15.757  31.668  1.00  0.00    -0.202 OA
ATOM      3  C   UNL     1     -11.934 -16.487  30.561  1.00  0.00     0.368 A 
ATOM      4  C   UNL     1     -11.066 -16.220  29.500  1.00  0.00     0.162 A 
ATOM      5  C   UNL     1     -11.133 -16.976  28.326  1.00  0.00     0.128 A 
ATOM      6  C   UNL     1     -12.073 -18.003  28.213  1.00  0.00     0.093 A 
ATOM      7  C   UNL     1     -12.954 -18.291  29.261  1.00  0.00     0.136 A 
ATOM      8  C   UNL     1     -12.891 -17.525  30.455  1.00  0.00     0.125 A 
ATOM      9  C   UNL     1     -13.743 -17.734  31.552  1.00  0.00     0.078 A 
ATOM     10  C   UNL     1     -13.624 -16.936  32.693  1.00  0.00     0.223 A 
ENDROOT
BRANCH   1  11
ATOM     11  C   UNL     1     -12.428 -15.069  33.907  1.00  0.00     0.091 A 
ATOM     12  C   UNL     1     -13.415 -14.132  34.248  1.00  0.00     0.068 A 
ATOM     13  C   UNL     1     -13.251 -13.277  35.343  1.00  0.00     0.162 A 
ATOM     14  C   UNL     1     -11.246 -15.117  34.661  1.00  0.00     0.068 A 
ATOM     15  C   UNL     1     -12.065 -13.347  36.114  1.00  0.00     0.200 A 
ATOM     16  C   UNL     1     -11.064 -14.271  35.758  1.00  0.00     0.162 A 
BRANCH  13  17
ATOM     17  O   UNL     1     -14.283 -12.379  35.625  1.00  0.00    -0.504 OA
ATOM     18  H   UNL     1     -14.151 -11.386  35.755  1.00  0.00     0.293 HD
ENDBRANCH  13  17
BRANCH  15  19
ATOM     19  O   UNL     1     -11.847 -12.525  37.222  1.00  0.00    -0.502 OA
ATOM     20  H   UNL     1     -11.333 -12.804  38.045  1.00  0.00     0.293 HD
ENDBRANCH  15  19
BRANCH  16  21
ATOM     21  O   UNL     1      -9.875 -14.359  36.482  1.00  0.00    -0.504 OA
ATOM     22  H   UNL     1      -8.975 -14.470  36.033  1.00  0.00     0.293 HD
ENDBRANCH  16  21
ENDBRANCH   1  11
BRANCH  10  23
ATOM     23  O   UNL     1     -14.502 -17.111  33.764  1.00  0.00    -0.500 OA
ATOM     24  H   UNL     1     -15.091 -16.358  34.098  1.00  0.00     0.294 HD
ENDBRANCH  10  23
BRANCH   5  25
ATOM     25  O   UNL     1     -10.270 -16.714  27.263  1.00  0.00    -0.507 OA
ATOM     26  H   UNL     1      -9.553 -16.002  27.327  1.00  0.00     0.293 HD
ENDBRANCH   5  25
BRANCH   7  27
ATOM     27  O   UNL     1     -13.861 -19.337  29.071  1.00  0.00    -0.507 OA
ATOM     28  H   UNL     1     -13.612 -20.316  29.068  1.00  0.00     0.293 HD
ENDBRANCH   7  27
TORSDOF 7
ENDMDL
MODEL 6
REMARK VINA RESULT:    -3.458      2.160      7.615
REMARK INTER + INTRA:          -4.592
REMARK INTER:                  -4.802
REMARK INTRA:                   0.211
REMARK UNBOUND:                -0.325
REMARK SMILES Oc1cc(O)c2cc(O)c(-c3cc(O)c(O)c(O)c3)[o+]c2c1
REMARK SMILES IDX 10 1 20 2 21 3 22 4 2 5 3 6 4 7 6 8 7 9 8 10 11 11 12 12
REMARK SMILES IDX 13 13 19 14 15 15 17 16 14 17 16 19 18 21 9 23 1 25 5 27
REMARK H PARENT 14 18 16 20 18 22 9 24 1 26 5 28
REMARK Flexibility Score: inf
ROOT
ATOM      1  C   UNL     1     -11.809 -16.126  30.783  1.00  0.00     0.402 A 
ATOM      2  O   UNL     1     -12.685 -15.716  29.868  1.00  0.00    -0.202 OA
ATOM      3  C   UNL     1     -12.623 -16.072  28.589  1.00  0.00     0.368 A 
ATOM      4  C   UNL     1     -13.588 -15.587  27.702  1.00  0.00     0.162 A 
ATOM      5  C   UNL     1     -13.544 -15.942  26.350  1.00  0.00     0.128 A 
ATOM      6  C   UNL     1     -12.532 -16.784  25.884  1.00  0.00     0.093 A 
ATOM      7  C   UNL     1     -11.554 -17.282  26.752  1.00  0.00     0.136 A 
ATOM      8  C   UNL     1     -11.594 -16.927  28.126  1.00  0.00     0.125 A 
ATOM      9  C   UNL     1     -10.664 -17.389  29.071  1.00  0.00     0.078 A 
ATOM     10  C   UNL     1     -10.771 -17.000  30.410  1.00  0.00     0.223 A 
ENDROOT
BRANCH   1  11
ATOM     11  C   UNL     1     -11.979 -15.653  32.176  1.00  0.00     0.091 A 
ATOM     12  C   UNL     1     -13.241 -15.224  32.610  1.00  0.00     0.068 A 
ATOM     13  C   UNL     1     -13.434 -14.752  33.913  1.00  0.00     0.162 A 
ATOM     14  C   UNL     1     -10.890 -15.570  33.057  1.00  0.00     0.068 A 
ATOM     15  C   UNL     1     -12.336 -14.692  34.805  1.00  0.00     0.200 A 
ATOM     16  C   UNL     1     -11.064 -15.100  34.362  1.00  0.00     0.162 A 
BRANCH  13  17
ATOM     17  O   UNL     1     -14.723 -14.354  34.274  1.00  0.00    -0.504 OA
ATOM     18  H   UNL     1     -15.067 -14.340  35.223  1.00  0.00     0.293 HD
ENDBRANCH  13  17
BRANCH  15  19
ATOM     19  O   UNL     1     -12.468 -14.237  36.120  1.00  0.00    -0.502 OA
ATOM     20  H   UNL     1     -13.351 -14.134  36.599  1.00  0.00     0.293 HD
ENDBRANCH  15  19
BRANCH  16  21
ATOM     21  O   UNL     1      -9.954 -15.041  35.206  1.00  0.00    -0.504 OA
ATOM     22  H   UNL     1      -9.367 -14.219  35.270  1.00  0.00     0.293 HD
ENDBRANCH  16  21
ENDBRANCH   1  11
BRANCH  10  23
ATOM     23  O   UNL     1      -9.877 -17.497  31.357  1.00  0.00    -0.500 OA
ATOM     24  H   UNL     1      -9.286 -18.298  31.164  1.00  0.00     0.294 HD
ENDBRANCH  10  23
BRANCH   5  25
ATOM     25  O   UNL     1     -14.503 -15.463  25.460  1.00  0.00    -0.507 OA
ATOM     26  H   UNL     1     -15.486 -15.436  25.704  1.00  0.00     0.293 HD
ENDBRANCH   5  25
BRANCH   7  27
ATOM     27  O   UNL     1     -10.573 -18.115  26.207  1.00  0.00    -0.507 OA
ATOM     28  H   UNL     1     -10.489 -19.103  26.403  1.00  0.00     0.293 HD
ENDBRANCH   7  27
TORSDOF 7
ENDMDL
MODEL 7
REMARK VINA RESULT:    -3.365      1.404      6.976
REMARK INTER + INTRA:          -4.477
REMARK INTER:                  -4.358
REMARK INTRA:                  -0.119
REMARK UNBOUND:                -0.325
REMARK SMILES Oc1cc(O)c2cc(O)c(-c3cc(O)c(O)c(O)c3)[o+]c2c1
REMARK SMILES IDX 10 1 20 2 21 3 22 4 2 5 3 6 4 7 6 8 7 9 8 10 11 11 12 12
REMARK SMILES IDX 13 13 19 14 15 15 17 16 14 17 16 19 18 21 9 23 1 25 5 27
REMARK H PARENT 14 18 16 20 18 22 9 24 1 26 5 28
REMARK Flexibility Score: inf
ROOT
ATOM      1  C   UNL     1     -12.821 -16.137  32.454  1.00  0.00     0.402 A 
ATOM      2  O   UNL     1     -12.534 -17.426  32.617  1.00  0.00    -0.202 OA
ATOM      3  C   UNL     1     -12.706 -18.338  31.666  1.00  0.00     0.368 A 
ATOM      4  C   UNL     1     -12.378 -19.669  31.934  1.00  0.00     0.162 A 
ATOM      5  C   UNL     1     -12.553 -20.650  30.953  1.00  0.00     0.128 A 
ATOM      6  C   UNL     1     -13.057 -20.297  29.699  1.00  0.00     0.093 A 
ATOM      7  C   UNL     1     -13.393 -18.970  29.406  1.00  0.00     0.136 A 
ATOM      8  C   UNL     1     -13.216 -17.970  30.397  1.00  0.00     0.125 A 
ATOM      9  C   UNL     1     -13.513 -16.614  30.188  1.00  0.00     0.078 A 
ATOM     10  C   UNL     1     -13.307 -15.685  31.213  1.00  0.00     0.223 A 
ENDROOT
BRANCH   1  11
ATOM     11  C   UNL     1     -12.595 -15.219  33.593  1.00  0.00     0.091 A 
ATOM     12  C   UNL     1     -11.368 -15.250  34.271  1.00  0.00     0.068 A 
ATOM     13  C   UNL     1     -11.126 -14.412  35.365  1.00  0.00     0.162 A 
ATOM     14  C   UNL     1     -13.603 -14.355  34.048  1.00  0.00     0.068 A 
ATOM     15  C   UNL     1     -12.140 -13.525  35.804  1.00  0.00     0.200 A 
ATOM     16  C   UNL     1     -13.379 -13.510  35.139  1.00  0.00     0.162 A 
BRANCH  13  17
ATOM     17  O   UNL     1      -9.876 -14.493  35.981  1.00  0.00    -0.504 OA
ATOM     18  H   UNL     1      -9.101 -13.878  35.776  1.00  0.00     0.293 HD
ENDBRANCH  13  17
BRANCH  15  19
ATOM     19  O   UNL     1     -11.955 -12.659  36.885  1.00  0.00    -0.502 OA
ATOM     20  H   UNL     1     -11.271 -12.799  37.615  1.00  0.00     0.293 HD
ENDBRANCH  15  19
BRANCH  16  21
ATOM     21  O   UNL     1     -14.409 -12.663  35.551  1.00  0.00    -0.504 OA
ATOM     22  H   UNL     1     -14.391 -12.186  36.444  1.00  0.00     0.293 HD
ENDBRANCH  16  21
ENDBRANCH   1  11
BRANCH  10  23
ATOM     23  O   UNL     1     -13.556 -14.331  30.990  1.00  0.00    -0.500 OA
ATOM     24  H   UNL     1     -13.024 -13.795  30.315  1.00  0.00     0.294 HD
ENDBRANCH  10  23
BRANCH   5  25
ATOM     25  O   UNL     1     -12.228 -21.980  31.213  1.00  0.00    -0.507 OA
ATOM     26  H   UNL     1     -11.869 -22.271  32.114  1.00  0.00     0.293 HD
ENDBRANCH   5  25
BRANCH   7  27
ATOM     27  O   UNL     1     -13.895 -18.700  28.129  1.00  0.00    -0.507 OA
ATOM     28  H   UNL     1     -14.366 -17.845  27.871  1.00  0.00     0.293 HD
ENDBRANCH   7  27
TORSDOF 7
ENDMDL
