MODEL 1
REMARK VINA RESULT:    -6.839      0.000      0.000
REMARK INTER + INTRA:          -8.327
REMARK INTER:                  -8.038
REMARK INTRA:                  -0.289
REMARK UNBOUND:                -0.289
REMARK SMILES O=c1cc(-c2ccc(O)c(O)c2)oc2cc(O)cc(O)c12
REMARK SMILES IDX 4 1 3 2 2 3 1 4 21 5 19 6 18 7 16 8 15 9 14 10 13 11 5 12
REMARK SMILES IDX 6 13 7 14 8 15 12 16 10 17 9 18 11 20 20 22 17 24
REMARK H PARENT 9 19 11 21 20 23 17 25
REMARK Flexibility Score: inf
ROOT
ATOM      1  C   UNL     1      17.957  42.876  24.036  1.00  0.00     0.138 A 
ATOM      2  C   UNL     1      19.008  43.265  23.194  1.00  0.00     0.100 A 
ATOM      3  C   UNL     1      20.325  42.973  23.552  1.00  0.00     0.197 A 
ATOM      4  O   UNL     1      21.242  43.280  22.746  1.00  0.00    -0.289 OA
ATOM      5  C   UNL     1      20.591  42.316  24.776  1.00  0.00     0.107 A 
ATOM      6  C   UNL     1      21.895  42.003  25.264  1.00  0.00     0.134 A 
ATOM      7  C   UNL     1      22.032  41.246  26.434  1.00  0.00     0.093 A 
ATOM      8  C   UNL     1      20.916  40.843  27.165  1.00  0.00     0.123 A 
ATOM      9  C   UNL     1      19.637  41.189  26.726  1.00  0.00     0.094 A 
ATOM     10  C   UNL     1      19.466  41.914  25.545  1.00  0.00     0.146 A 
ATOM     11  O   UNL     1      18.231  42.211  25.154  1.00  0.00    -0.456 OA
ENDROOT
BRANCH   1  12
ATOM     12  C   UNL     1      16.539  43.163  23.705  1.00  0.00     0.021 A 
ATOM     13  C   UNL     1      16.109  44.457  23.353  1.00  0.00     0.016 A 
ATOM     14  C   UNL     1      14.765  44.699  23.055  1.00  0.00     0.051 A 
ATOM     15  C   UNL     1      13.828  43.660  23.111  1.00  0.00     0.157 A 
ATOM     16  C   UNL     1      15.590  42.128  23.771  1.00  0.00     0.062 A 
ATOM     17  C   UNL     1      14.244  42.368  23.472  1.00  0.00     0.158 A 
BRANCH  15  18
ATOM     18  O   UNL     1      12.489  43.907  22.812  1.00  0.00    -0.504 OA
ATOM     19  H   UNL     1      12.191  44.778  22.389  1.00  0.00     0.293 HD
ENDBRANCH  15  18
BRANCH  17  20
ATOM     20  O   UNL     1      13.336  41.312  23.541  1.00  0.00    -0.504 OA
ATOM     21  H   UNL     1      13.341  40.646  24.305  1.00  0.00     0.293 HD
ENDBRANCH  17  20
ENDBRANCH   1  12
BRANCH   6  22
ATOM     22  O   UNL     1      23.080  42.430  24.655  1.00  0.00    -0.507 OA
ATOM     23  H   UNL     1      23.232  43.350  24.271  1.00  0.00     0.293 HD
ENDBRANCH   6  22
BRANCH   8  24
ATOM     24  O   UNL     1      21.090  40.104  28.333  1.00  0.00    -0.508 OA
ATOM     25  H   UNL     1      20.305  39.854  28.925  1.00  0.00     0.293 HD
ENDBRANCH   8  24
TORSDOF 5
ENDMDL
MODEL 2
REMARK VINA RESULT:    -6.794      1.071      2.778
REMARK INTER + INTRA:          -8.274
REMARK INTER:                  -8.009
REMARK INTRA:                  -0.265
REMARK UNBOUND:                -0.289
REMARK SMILES O=c1cc(-c2ccc(O)c(O)c2)oc2cc(O)cc(O)c12
REMARK SMILES IDX 4 1 3 2 2 3 1 4 21 5 19 6 18 7 16 8 15 9 14 10 13 11 5 12
REMARK SMILES IDX 6 13 7 14 8 15 12 16 10 17 9 18 11 20 20 22 17 24
REMARK H PARENT 9 19 11 21 20 23 17 25
REMARK Flexibility Score: inf
ROOT
ATOM      1  C   UNL     1      17.298  42.284  25.383  1.00  0.00     0.138 A 
ATOM      2  C   UNL     1      17.238  41.617  26.615  1.00  0.00     0.100 A 
ATOM      3  C   UNL     1      18.417  41.194  27.229  1.00  0.00     0.197 A 
ATOM      4  O   UNL     1      18.336  40.654  28.363  1.00  0.00    -0.289 OA
ATOM      5  C   UNL     1      19.661  41.415  26.590  1.00  0.00     0.107 A 
ATOM      6  C   UNL     1      20.924  40.993  27.103  1.00  0.00     0.134 A 
ATOM      7  C   UNL     1      22.099  41.369  26.441  1.00  0.00     0.093 A 
ATOM      8  C   UNL     1      22.054  42.100  25.255  1.00  0.00     0.123 A 
ATOM      9  C   UNL     1      20.822  42.472  24.715  1.00  0.00     0.094 A 
ATOM     10  C   UNL     1      19.634  42.141  25.370  1.00  0.00     0.146 A 
ATOM     11  O   UNL     1      18.482  42.527  24.831  1.00  0.00    -0.456 OA
ENDROOT
BRANCH   1  12
ATOM     12  C   UNL     1      16.074  42.753  24.685  1.00  0.00     0.021 A 
ATOM     13  C   UNL     1      15.802  44.124  24.510  1.00  0.00     0.016 A 
ATOM     14  C   UNL     1      14.638  44.536  23.857  1.00  0.00     0.051 A 
ATOM     15  C   UNL     1      13.723  43.591  23.374  1.00  0.00     0.157 A 
ATOM     16  C   UNL     1      15.145  41.811  24.209  1.00  0.00     0.062 A 
ATOM     17  C   UNL     1      13.979  42.223  23.553  1.00  0.00     0.158 A 
BRANCH  15  18
ATOM     18  O   UNL     1      12.563  44.008  22.722  1.00  0.00    -0.504 OA
ATOM     19  H   UNL     1      12.175  44.932  22.868  1.00  0.00     0.293 HD
ENDBRANCH  15  18
BRANCH  17  20
ATOM     20  O   UNL     1      13.087  41.256  23.088  1.00  0.00    -0.504 OA
ATOM     21  H   UNL     1      13.035  40.999  22.109  1.00  0.00     0.293 HD
ENDBRANCH  17  20
ENDBRANCH   1  12
BRANCH   6  22
ATOM     22  O   UNL     1      21.077  40.187  28.236  1.00  0.00    -0.507 OA
ATOM     23  H   UNL     1      21.006  40.511  29.189  1.00  0.00     0.293 HD
ENDBRANCH   6  22
BRANCH   8  24
ATOM     24  O   UNL     1      23.243  42.444  24.614  1.00  0.00    -0.508 OA
ATOM     25  H   UNL     1      23.284  43.204  23.944  1.00  0.00     0.293 HD
ENDBRANCH   8  24
TORSDOF 5
ENDMDL
MODEL 3
REMARK VINA RESULT:    -6.402      5.432      7.044
REMARK INTER + INTRA:          -7.813
REMARK INTER:                  -7.547
REMARK INTRA:                  -0.266
REMARK UNBOUND:                -0.289
REMARK SMILES O=c1cc(-c2ccc(O)c(O)c2)oc2cc(O)cc(O)c12
REMARK SMILES IDX 4 1 3 2 2 3 1 4 21 5 19 6 18 7 16 8 15 9 14 10 13 11 5 12
REMARK SMILES IDX 6 13 7 14 8 15 12 16 10 17 9 18 11 20 20 22 17 24
REMARK H PARENT 9 19 11 21 20 23 17 25
REMARK Flexibility Score: inf
ROOT
ATOM      1  C   UNL     1      21.051  38.800  22.631  1.00  0.00     0.138 A 
ATOM      2  C   UNL     1      21.103  39.709  21.566  1.00  0.00     0.100 A 
ATOM      3  C   UNL     1      21.860  39.404  20.434  1.00  0.00     0.197 A 
ATOM      4  O   UNL     1      21.837  40.211  19.468  1.00  0.00    -0.289 OA
ATOM      5  C   UNL     1      22.594  38.195  20.384  1.00  0.00     0.107 A 
ATOM      6  C   UNL     1      23.431  37.797  19.299  1.00  0.00     0.134 A 
ATOM      7  C   UNL     1      24.016  36.525  19.309  1.00  0.00     0.093 A 
ATOM      8  C   UNL     1      23.844  35.661  20.389  1.00  0.00     0.123 A 
ATOM      9  C   UNL     1      23.070  36.061  21.480  1.00  0.00     0.094 A 
ATOM     10  C   UNL     1      22.446  37.310  21.485  1.00  0.00     0.146 A 
ATOM     11  O   UNL     1      21.706  37.647  22.536  1.00  0.00    -0.456 OA
ENDROOT
BRANCH   1  12
ATOM     12  C   UNL     1      20.264  39.074  23.859  1.00  0.00     0.021 A 
ATOM     13  C   UNL     1      19.207  38.236  24.264  1.00  0.00     0.016 A 
ATOM     14  C   UNL     1      18.477  38.524  25.420  1.00  0.00     0.051 A 
ATOM     15  C   UNL     1      18.782  39.655  26.186  1.00  0.00     0.157 A 
ATOM     16  C   UNL     1      20.555  40.215  24.628  1.00  0.00     0.062 A 
ATOM     17  C   UNL     1      19.825  40.505  25.786  1.00  0.00     0.158 A 
BRANCH  15  18
ATOM     18  O   UNL     1      18.051  39.938  27.340  1.00  0.00    -0.504 OA
ATOM     19  H   UNL     1      17.258  40.568  27.324  1.00  0.00     0.293 HD
ENDBRANCH  15  18
BRANCH  17  20
ATOM     20  O   UNL     1      20.152  41.642  26.525  1.00  0.00    -0.504 OA
ATOM     21  H   UNL     1      20.503  41.585  27.475  1.00  0.00     0.293 HD
ENDBRANCH  17  20
ENDBRANCH   1  12
BRANCH   6  22
ATOM     22  O   UNL     1      23.739  38.617  18.208  1.00  0.00    -0.507 OA
ATOM     23  H   UNL     1      23.095  39.255  17.767  1.00  0.00     0.293 HD
ENDBRANCH   6  22
BRANCH   8  24
ATOM     24  O   UNL     1      24.454  34.409  20.372  1.00  0.00    -0.508 OA
ATOM     25  H   UNL     1      24.343  33.775  19.589  1.00  0.00     0.293 HD
ENDBRANCH   8  24
TORSDOF 5
ENDMDL
MODEL 4
REMARK VINA RESULT:    -6.291      2.468      2.654
REMARK INTER + INTRA:          -7.683
REMARK INTER:                  -7.395
REMARK INTRA:                  -0.287
REMARK UNBOUND:                -0.289
REMARK SMILES O=c1cc(-c2ccc(O)c(O)c2)oc2cc(O)cc(O)c12
REMARK SMILES IDX 4 1 3 2 2 3 1 4 21 5 19 6 18 7 16 8 15 9 14 10 13 11 5 12
REMARK SMILES IDX 6 13 7 14 8 15 12 16 10 17 9 18 11 20 20 22 17 24
REMARK H PARENT 9 19 11 21 20 23 17 25
REMARK Flexibility Score: inf
ROOT
ATOM      1  C   UNL     1      17.474  43.465  25.775  1.00  0.00     0.138 A 
ATOM      2  C   UNL     1      17.885  43.799  24.477  1.00  0.00     0.100 A 
ATOM      3  C   UNL     1      19.154  43.422  24.036  1.00  0.00     0.197 A 
ATOM      4  O   UNL     1      19.470  43.682  22.845  1.00  0.00    -0.289 OA
ATOM      5  C   UNL     1      20.027  42.735  24.912  1.00  0.00     0.107 A 
ATOM      6  C   UNL     1      21.358  42.337  24.584  1.00  0.00     0.134 A 
ATOM      7  C   UNL     1      22.089  41.559  25.490  1.00  0.00     0.093 A 
ATOM      8  C   UNL     1      21.561  41.217  26.734  1.00  0.00     0.123 A 
ATOM      9  C   UNL     1      20.281  41.646  27.087  1.00  0.00     0.094 A 
ATOM     10  C   UNL     1      19.514  42.394  26.191  1.00  0.00     0.146 A 
ATOM     11  O   UNL     1      18.294  42.771  26.559  1.00  0.00    -0.456 OA
ENDROOT
BRANCH   1  12
ATOM     12  C   UNL     1      16.136  43.842  26.297  1.00  0.00     0.021 A 
ATOM     13  C   UNL     1      15.896  43.994  27.676  1.00  0.00     0.016 A 
ATOM     14  C   UNL     1      14.625  44.341  28.139  1.00  0.00     0.051 A 
ATOM     15  C   UNL     1      13.570  44.533  27.237  1.00  0.00     0.157 A 
ATOM     16  C   UNL     1      15.069  44.024  25.399  1.00  0.00     0.062 A 
ATOM     17  C   UNL     1      13.795  44.372  25.861  1.00  0.00     0.158 A 
BRANCH  15  18
ATOM     18  O   UNL     1      12.303  44.880  27.704  1.00  0.00    -0.504 OA
ATOM     19  H   UNL     1      12.130  45.062  28.685  1.00  0.00     0.293 HD
ENDBRANCH  15  18
BRANCH  17  20
ATOM     20  O   UNL     1      12.766  44.552  24.937  1.00  0.00    -0.504 OA
ATOM     21  H   UNL     1      12.940  44.890  23.997  1.00  0.00     0.293 HD
ENDBRANCH  17  20
ENDBRANCH   1  12
BRANCH   6  22
ATOM     22  O   UNL     1      22.013  42.698  23.402  1.00  0.00    -0.507 OA
ATOM     23  H   UNL     1      21.624  42.607  22.476  1.00  0.00     0.293 HD
ENDBRANCH   6  22
BRANCH   8  24
ATOM     24  O   UNL     1      22.323  40.455  27.618  1.00  0.00    -0.508 OA
ATOM     25  H   UNL     1      22.685  40.846  28.480  1.00  0.00     0.293 HD
ENDBRANCH   8  24
TORSDOF 5
ENDMDL
MODEL 5
REMARK VINA RESULT:    -6.274      4.894      7.958
REMARK INTER + INTRA:          -7.663
REMARK INTER:                  -7.349
REMARK INTRA:                  -0.314
REMARK UNBOUND:                -0.289
REMARK SMILES O=c1cc(-c2ccc(O)c(O)c2)oc2cc(O)cc(O)c12
REMARK SMILES IDX 4 1 3 2 2 3 1 4 21 5 19 6 18 7 16 8 15 9 14 10 13 11 5 12
REMARK SMILES IDX 6 13 7 14 8 15 12 16 10 17 9 18 11 20 20 22 17 24
REMARK H PARENT 9 19 11 21 20 23 17 25
REMARK Flexibility Score: inf
ROOT
ATOM      1  C   UNL     1      21.216  38.917  22.108  1.00  0.00     0.138 A 
ATOM      2  C   UNL     1      20.583  38.144  23.092  1.00  0.00     0.100 A 
ATOM      3  C   UNL     1      19.709  38.753  23.992  1.00  0.00     0.197 A 
ATOM      4  O   UNL     1      19.109  38.024  24.824  1.00  0.00    -0.289 OA
ATOM      5  C   UNL     1      19.493  40.150  23.926  1.00  0.00     0.107 A 
ATOM      6  C   UNL     1      18.655  40.885  24.817  1.00  0.00     0.134 A 
ATOM      7  C   UNL     1      18.425  42.247  24.583  1.00  0.00     0.093 A 
ATOM      8  C   UNL     1      19.047  42.911  23.528  1.00  0.00     0.123 A 
ATOM      9  C   UNL     1      19.911  42.214  22.682  1.00  0.00     0.094 A 
ATOM     10  C   UNL     1      20.135  40.848  22.869  1.00  0.00     0.146 A 
ATOM     11  O   UNL     1      20.953  40.217  22.033  1.00  0.00    -0.456 OA
ENDROOT
BRANCH   1  12
ATOM     12  C   UNL     1      22.156  38.321  21.126  1.00  0.00     0.021 A 
ATOM     13  C   UNL     1      22.763  37.069  21.348  1.00  0.00     0.016 A 
ATOM     14  C   UNL     1      23.651  36.537  20.410  1.00  0.00     0.051 A 
ATOM     15  C   UNL     1      23.955  37.244  19.241  1.00  0.00     0.157 A 
ATOM     16  C   UNL     1      22.476  39.030  19.955  1.00  0.00     0.062 A 
ATOM     17  C   UNL     1      23.365  38.498  19.014  1.00  0.00     0.158 A 
BRANCH  15  18
ATOM     18  O   UNL     1      24.842  36.708  18.307  1.00  0.00    -0.504 OA
ATOM     19  H   UNL     1      24.859  35.717  18.101  1.00  0.00     0.293 HD
ENDBRANCH  15  18
BRANCH  17  20
ATOM     20  O   UNL     1      23.649  39.230  17.861  1.00  0.00    -0.504 OA
ATOM     21  H   UNL     1      24.334  38.920  17.182  1.00  0.00     0.293 HD
ENDBRANCH  17  20
ENDBRANCH   1  12
BRANCH   6  22
ATOM     22  O   UNL     1      18.051  40.337  25.953  1.00  0.00    -0.507 OA
ATOM     23  H   UNL     1      18.110  40.723  26.882  1.00  0.00     0.293 HD
ENDBRANCH   6  22
BRANCH   8  24
ATOM     24  O   UNL     1      18.808  44.270  23.334  1.00  0.00    -0.508 OA
ATOM     25  H   UNL     1      19.396  44.832  22.730  1.00  0.00     0.293 HD
ENDBRANCH   8  24
TORSDOF 5
ENDMDL
MODEL 6
REMARK VINA RESULT:    -6.210      5.165      7.840
REMARK INTER + INTRA:          -7.588
REMARK INTER:                  -7.326
REMARK INTRA:                  -0.262
REMARK UNBOUND:                -0.289
REMARK SMILES O=c1cc(-c2ccc(O)c(O)c2)oc2cc(O)cc(O)c12
REMARK SMILES IDX 4 1 3 2 2 3 1 4 21 5 19 6 18 7 16 8 15 9 14 10 13 11 5 12
REMARK SMILES IDX 6 13 7 14 8 15 12 16 10 17 9 18 11 20 20 22 17 24
REMARK H PARENT 9 19 11 21 20 23 17 25
REMARK Flexibility Score: inf
ROOT
ATOM      1  C   UNL     1      20.795  38.540  21.829  1.00  0.00     0.138 A 
ATOM      2  C   UNL     1      19.439  38.403  21.502  1.00  0.00     0.100 A 
ATOM      3  C   UNL     1      18.464  38.869  22.384  1.00  0.00     0.197 A 
ATOM      4  O   UNL     1      17.258  38.788  22.035  1.00  0.00    -0.289 OA
ATOM      5  C   UNL     1      18.851  39.446  23.617  1.00  0.00     0.107 A 
ATOM      6  C   UNL     1      17.944  39.918  24.613  1.00  0.00     0.134 A 
ATOM      7  C   UNL     1      18.442  40.578  25.743  1.00  0.00     0.093 A 
ATOM      8  C   UNL     1      19.813  40.729  25.943  1.00  0.00     0.123 A 
ATOM      9  C   UNL     1      20.711  40.223  25.002  1.00  0.00     0.094 A 
ATOM     10  C   UNL     1      20.245  39.591  23.848  1.00  0.00     0.146 A 
ATOM     11  O   UNL     1      21.132  39.136  22.969  1.00  0.00    -0.456 OA
ENDROOT
BRANCH   1  12
ATOM     12  C   UNL     1      21.873  38.061  20.928  1.00  0.00     0.021 A 
ATOM     13  C   UNL     1      22.567  36.861  21.178  1.00  0.00     0.016 A 
ATOM     14  C   UNL     1      23.583  36.440  20.317  1.00  0.00     0.051 A 
ATOM     15  C   UNL     1      23.930  37.209  19.199  1.00  0.00     0.157 A 
ATOM     16  C   UNL     1      22.236  38.834  19.811  1.00  0.00     0.062 A 
ATOM     17  C   UNL     1      23.254  38.413  18.947  1.00  0.00     0.158 A 
BRANCH  15  18
ATOM     18  O   UNL     1      24.945  36.783  18.343  1.00  0.00    -0.504 OA
ATOM     19  H   UNL     1      25.019  35.817  18.047  1.00  0.00     0.293 HD
ENDBRANCH  15  18
BRANCH  17  20
ATOM     20  O   UNL     1      23.577  39.204  17.846  1.00  0.00    -0.504 OA
ATOM     21  H   UNL     1      24.413  39.044  17.295  1.00  0.00     0.293 HD
ENDBRANCH  17  20
ENDBRANCH   1  12
BRANCH   6  22
ATOM     22  O   UNL     1      16.557  39.744  24.552  1.00  0.00    -0.507 OA
ATOM     23  H   UNL     1      16.035  39.079  25.101  1.00  0.00     0.293 HD
ENDBRANCH   6  22
BRANCH   8  24
ATOM     24  O   UNL     1      20.274  41.377  27.087  1.00  0.00    -0.508 OA
ATOM     25  H   UNL     1      20.998  40.973  27.671  1.00  0.00     0.293 HD
ENDBRANCH   8  24
TORSDOF 5
ENDMDL
MODEL 7
REMARK VINA RESULT:    -6.177     13.933     16.243
REMARK INTER + INTRA:          -7.549
REMARK INTER:                  -7.256
REMARK INTRA:                  -0.293
REMARK UNBOUND:                -0.289
REMARK SMILES O=c1cc(-c2ccc(O)c(O)c2)oc2cc(O)cc(O)c12
REMARK SMILES IDX 4 1 3 2 2 3 1 4 21 5 19 6 18 7 16 8 15 9 14 10 13 11 5 12
REMARK SMILES IDX 6 13 7 14 8 15 12 16 10 17 9 18 11 20 20 22 17 24
REMARK H PARENT 9 19 11 21 20 23 17 25
REMARK Flexibility Score: inf
ROOT
ATOM      1  C   UNL     1      14.053  38.047  11.325  1.00  0.00     0.138 A 
ATOM      2  C   UNL     1      13.855  37.393  12.549  1.00  0.00     0.100 A 
ATOM      3  C   UNL     1      12.567  37.280  13.073  1.00  0.00     0.197 A 
ATOM      4  O   UNL     1      12.414  36.634  14.142  1.00  0.00    -0.289 OA
ATOM      5  C   UNL     1      11.475  37.855  12.380  1.00  0.00     0.107 A 
ATOM      6  C   UNL     1      10.123  37.838  12.838  1.00  0.00     0.134 A 
ATOM      7  C   UNL     1       9.108  38.337  12.012  1.00  0.00     0.093 A 
ATOM      8  C   UNL     1       9.402  38.905  10.773  1.00  0.00     0.123 A 
ATOM      9  C   UNL     1      10.726  38.975  10.339  1.00  0.00     0.094 A 
ATOM     10  C   UNL     1      11.757  38.456  11.124  1.00  0.00     0.146 A 
ATOM     11  O   UNL     1      13.003  38.530  10.668  1.00  0.00    -0.456 OA
ENDROOT
BRANCH   1  12
ATOM     12  C   UNL     1      15.402  38.196  10.724  1.00  0.00     0.021 A 
ATOM     13  C   UNL     1      15.635  39.056   9.633  1.00  0.00     0.016 A 
ATOM     14  C   UNL     1      16.913  39.169   9.082  1.00  0.00     0.051 A 
ATOM     15  C   UNL     1      17.978  38.424   9.602  1.00  0.00     0.157 A 
ATOM     16  C   UNL     1      16.474  37.441  11.232  1.00  0.00     0.062 A 
ATOM     17  C   UNL     1      17.756  37.554  10.681  1.00  0.00     0.158 A 
BRANCH  15  18
ATOM     18  O   UNL     1      19.253  38.541   9.048  1.00  0.00    -0.504 OA
ATOM     19  H   UNL     1      19.835  37.730   8.880  1.00  0.00     0.293 HD
ENDBRANCH  15  18
BRANCH  17  20
ATOM     20  O   UNL     1      18.794  36.795  11.221  1.00  0.00    -0.504 OA
ATOM     21  H   UNL     1      18.663  36.206  12.035  1.00  0.00     0.293 HD
ENDBRANCH  17  20
ENDBRANCH   1  12
BRANCH   6  22
ATOM     22  O   UNL     1       9.730  37.370  14.096  1.00  0.00    -0.507 OA
ATOM     23  H   UNL     1       8.811  37.022  14.321  1.00  0.00     0.293 HD
ENDBRANCH   6  22
BRANCH   8  24
ATOM     24  O   UNL     1       8.368  39.405   9.984  1.00  0.00    -0.508 OA
ATOM     25  H   UNL     1       7.396  39.279  10.241  1.00  0.00     0.293 HD
ENDBRANCH   8  24
TORSDOF 5
ENDMDL
MODEL 8
REMARK VINA RESULT:    -6.013      9.065     11.474
REMARK INTER + INTRA:          -7.356
REMARK INTER:                  -7.090
REMARK INTRA:                  -0.266
REMARK UNBOUND:                -0.289
REMARK SMILES O=c1cc(-c2ccc(O)c(O)c2)oc2cc(O)cc(O)c12
REMARK SMILES IDX 4 1 3 2 2 3 1 4 21 5 19 6 18 7 16 8 15 9 14 10 13 11 5 12
REMARK SMILES IDX 6 13 7 14 8 15 12 16 10 17 9 18 11 20 20 22 17 24
REMARK H PARENT 9 19 11 21 20 23 17 25
REMARK Flexibility Score: inf
ROOT
ATOM      1  C   UNL     1      12.494  37.034  16.504  1.00  0.00     0.138 A 
ATOM      2  C   UNL     1      12.930  35.702  16.557  1.00  0.00     0.100 A 
ATOM      3  C   UNL     1      13.213  35.117  17.791  1.00  0.00     0.197 A 
ATOM      4  O   UNL     1      13.543  33.902  17.812  1.00  0.00    -0.289 OA
ATOM      5  C   UNL     1      13.089  35.880  18.976  1.00  0.00     0.107 A 
ATOM      6  C   UNL     1      13.389  35.401  20.287  1.00  0.00     0.134 A 
ATOM      7  C   UNL     1      13.116  36.209  21.397  1.00  0.00     0.093 A 
ATOM      8  C   UNL     1      12.612  37.500  21.242  1.00  0.00     0.123 A 
ATOM      9  C   UNL     1      12.365  37.999  19.962  1.00  0.00     0.094 A 
ATOM     10  C   UNL     1      12.594  37.205  18.836  1.00  0.00     0.146 A 
ATOM     11  O   UNL     1      12.333  37.711  17.636  1.00  0.00    -0.456 OA
ENDROOT
BRANCH   1  12
ATOM     12  C   UNL     1      12.181  37.706  15.218  1.00  0.00     0.021 A 
ATOM     13  C   UNL     1      13.045  38.666  14.656  1.00  0.00     0.016 A 
ATOM     14  C   UNL     1      12.720  39.289  13.449  1.00  0.00     0.051 A 
ATOM     15  C   UNL     1      11.527  38.974  12.787  1.00  0.00     0.157 A 
ATOM     16  C   UNL     1      10.979  37.405  14.554  1.00  0.00     0.062 A 
ATOM     17  C   UNL     1      10.652  38.028  13.344  1.00  0.00     0.158 A 
BRANCH  15  18
ATOM     18  O   UNL     1      11.208  39.599  11.582  1.00  0.00    -0.504 OA
ATOM     19  H   UNL     1      10.362  40.146  11.475  1.00  0.00     0.293 HD
ENDBRANCH  15  18
BRANCH  17  20
ATOM     20  O   UNL     1       9.455  37.694  12.713  1.00  0.00    -0.504 OA
ATOM     21  H   UNL     1       9.370  36.880  12.115  1.00  0.00     0.293 HD
ENDBRANCH  17  20
ENDBRANCH   1  12
BRANCH   6  22
ATOM     22  O   UNL     1      13.974  34.158  20.549  1.00  0.00    -0.507 OA
ATOM     23  H   UNL     1      14.052  33.405  19.883  1.00  0.00     0.293 HD
ENDBRANCH   6  22
BRANCH   8  24
ATOM     24  O   UNL     1      12.367  38.282  22.368  1.00  0.00    -0.508 OA
ATOM     25  H   UNL     1      13.046  38.955  22.705  1.00  0.00     0.293 HD
ENDBRANCH   8  24
TORSDOF 5
ENDMDL
MODEL 9
REMARK VINA RESULT:    -5.994     10.137     12.214
REMARK INTER + INTRA:          -7.333
REMARK INTER:                  -7.042
REMARK INTRA:                  -0.291
REMARK UNBOUND:                -0.289
REMARK SMILES O=c1cc(-c2ccc(O)c(O)c2)oc2cc(O)cc(O)c12
REMARK SMILES IDX 4 1 3 2 2 3 1 4 21 5 19 6 18 7 16 8 15 9 14 10 13 11 5 12
REMARK SMILES IDX 6 13 7 14 8 15 12 16 10 17 9 18 11 20 20 22 17 24
REMARK H PARENT 9 19 11 21 20 23 17 25
REMARK Flexibility Score: inf
ROOT
ATOM      1  C   UNL     1      12.331  38.353  14.394  1.00  0.00     0.138 A 
ATOM      2  C   UNL     1      13.719  38.313  14.198  1.00  0.00     0.100 A 
ATOM      3  C   UNL     1      14.572  38.270  15.301  1.00  0.00     0.197 A 
ATOM      4  O   UNL     1      15.809  38.171  15.092  1.00  0.00    -0.289 OA
ATOM      5  C   UNL     1      14.032  38.299  16.608  1.00  0.00     0.107 A 
ATOM      6  C   UNL     1      14.806  38.301  17.807  1.00  0.00     0.134 A 
ATOM      7  C   UNL     1      14.160  38.213  19.047  1.00  0.00     0.093 A 
ATOM      8  C   UNL     1      12.769  38.186  19.133  1.00  0.00     0.123 A 
ATOM      9  C   UNL     1      12.000  38.238  17.969  1.00  0.00     0.094 A 
ATOM     10  C   UNL     1      12.615  38.291  16.717  1.00  0.00     0.146 A 
ATOM     11  O   UNL     1      11.848  38.325  15.632  1.00  0.00    -0.456 OA
ENDROOT
BRANCH   1  12
ATOM     12  C   UNL     1      11.379  38.402  13.257  1.00  0.00     0.021 A 
ATOM     13  C   UNL     1      11.544  39.308  12.191  1.00  0.00     0.016 A 
ATOM     14  C   UNL     1      10.627  39.338  11.139  1.00  0.00     0.051 A 
ATOM     15  C   UNL     1       9.526  38.472  11.133  1.00  0.00     0.157 A 
ATOM     16  C   UNL     1      10.264  37.545  13.250  1.00  0.00     0.062 A 
ATOM     17  C   UNL     1       9.344  37.573  12.196  1.00  0.00     0.158 A 
BRANCH  15  18
ATOM     18  O   UNL     1       8.613  38.505  10.080  1.00  0.00    -0.504 OA
ATOM     19  H   UNL     1       8.065  39.333   9.878  1.00  0.00     0.293 HD
ENDBRANCH  15  18
BRANCH  17  20
ATOM     20  O   UNL     1       8.256  36.700  12.224  1.00  0.00    -0.504 OA
ATOM     21  H   UNL     1       7.333  36.980  11.911  1.00  0.00     0.293 HD
ENDBRANCH  17  20
ENDBRANCH   1  12
BRANCH   6  22
ATOM     22  O   UNL     1      16.200  38.411  17.837  1.00  0.00    -0.507 OA
ATOM     23  H   UNL     1      16.751  38.538  18.671  1.00  0.00     0.293 HD
ENDBRANCH   6  22
BRANCH   8  24
ATOM     24  O   UNL     1      12.160  38.115  20.384  1.00  0.00    -0.508 OA
ATOM     25  H   UNL     1      12.364  37.363  21.032  1.00  0.00     0.293 HD
ENDBRANCH   8  24
TORSDOF 5
ENDMDL
