MODEL 1
REMARK VINA RESULT:    -5.098      0.000      0.000
REMARK INTER + INTRA:          -5.247
REMARK INTER:                  -5.247
REMARK INTRA:                   0.000
REMARK UNBOUND:                 0.000
REMARK SMILES O=c1ccc2ccc(O)cc2o1
REMARK SMILES IDX 6 1 7 2 8 3 10 4 11 5 5 6 4 7 3 8 2 9 1 10 12 11 9 12
REMARK H PARENT 9 13
REMARK Flexibility Score: inf
ROOT
ATOM      1  C   UNL     1      44.087  28.306  16.136  1.00  0.00     0.016 A 
ATOM      2  C   UNL     1      43.730  27.524  17.239  1.00  0.00     0.047 A 
ATOM      3  C   UNL     1      44.701  26.791  17.931  1.00  0.00     0.119 A 
ATOM      4  C   UNL     1      46.042  26.841  17.518  1.00  0.00     0.094 A 
ATOM      5  C   UNL     1      46.409  27.621  16.417  1.00  0.00     0.142 A 
ATOM      6  C   UNL     1      45.425  28.358  15.721  1.00  0.00     0.018 A 
ATOM      7  C   UNL     1      45.822  29.129  14.624  1.00  0.00     0.019 A 
ATOM      8  C   UNL     1      47.166  29.148  14.250  1.00  0.00     0.094 A 
ATOM      9  C   UNL     1      48.084  28.392  14.987  1.00  0.00     0.336 A 
ATOM     10  O   UNL     1      49.302  28.396  14.666  1.00  0.00    -0.246 OA
ATOM     11  O   UNL     1      47.680  27.667  16.027  1.00  0.00    -0.423 OA
ENDROOT
BRANCH   3  12
ATOM     12  O   UNL     1      44.327  26.018  19.027  1.00  0.00    -0.508 OA
ATOM     13  H   UNL     1      44.958  25.341  19.439  1.00  0.00     0.293 HD
ENDBRANCH   3  12
TORSDOF 1
ENDMDL
MODEL 2
REMARK VINA RESULT:    -5.021     11.477     12.677
REMARK INTER + INTRA:          -5.168
REMARK INTER:                  -5.168
REMARK INTRA:                   0.000
REMARK UNBOUND:                 0.000
REMARK SMILES O=c1ccc2ccc(O)cc2o1
REMARK SMILES IDX 6 1 7 2 8 3 10 4 11 5 5 6 4 7 3 8 2 9 1 10 12 11 9 12
REMARK H PARENT 9 13
REMARK Flexibility Score: inf
ROOT
ATOM      1  C   UNL     1      56.742  32.363  22.144  1.00  0.00     0.016 A 
ATOM      2  C   UNL     1      56.962  32.384  23.525  1.00  0.00     0.047 A 
ATOM      3  C   UNL     1      56.119  33.121  24.365  1.00  0.00     0.119 A 
ATOM      4  C   UNL     1      55.046  33.844  23.820  1.00  0.00     0.094 A 
ATOM      5  C   UNL     1      54.818  33.829  22.441  1.00  0.00     0.142 A 
ATOM      6  C   UNL     1      55.672  33.084  21.596  1.00  0.00     0.018 A 
ATOM      7  C   UNL     1      55.418  33.087  20.221  1.00  0.00     0.019 A 
ATOM      8  C   UNL     1      54.339  33.821  19.726  1.00  0.00     0.094 A 
ATOM      9  C   UNL     1      53.537  34.534  20.622  1.00  0.00     0.336 A 
ATOM     10  O   UNL     1      52.559  35.202  20.195  1.00  0.00    -0.246 OA
ATOM     11  O   UNL     1      53.800  34.514  21.926  1.00  0.00    -0.423 OA
ENDROOT
BRANCH   3  12
ATOM     12  O   UNL     1      56.354  33.130  25.738  1.00  0.00    -0.508 OA
ATOM     13  H   UNL     1      55.915  33.811  26.346  1.00  0.00     0.293 HD
ENDBRANCH   3  12
TORSDOF 1
ENDMDL
MODEL 3
REMARK VINA RESULT:    -4.975      1.267      4.222
REMARK INTER + INTRA:          -5.120
REMARK INTER:                  -5.120
REMARK INTRA:                   0.000
REMARK UNBOUND:                 0.000
REMARK SMILES O=c1ccc2ccc(O)cc2o1
REMARK SMILES IDX 6 1 7 2 8 3 10 4 11 5 5 6 4 7 3 8 2 9 1 10 12 11 9 12
REMARK H PARENT 9 13
REMARK Flexibility Score: inf
ROOT
ATOM      1  C   UNL     1      44.383  28.677  15.724  1.00  0.00     0.016 A 
ATOM      2  C   UNL     1      45.392  29.108  14.858  1.00  0.00     0.047 A 
ATOM      3  C   UNL     1      46.689  28.594  14.971  1.00  0.00     0.119 A 
ATOM      4  C   UNL     1      46.981  27.641  15.959  1.00  0.00     0.094 A 
ATOM      5  C   UNL     1      45.978  27.203  16.830  1.00  0.00     0.142 A 
ATOM      6  C   UNL     1      44.670  27.724  16.712  1.00  0.00     0.018 A 
ATOM      7  C   UNL     1      43.688  27.266  17.596  1.00  0.00     0.019 A 
ATOM      8  C   UNL     1      44.025  26.317  18.562  1.00  0.00     0.094 A 
ATOM      9  C   UNL     1      45.341  25.846  18.619  1.00  0.00     0.336 A 
ATOM     10  O   UNL     1      45.664  24.990  19.483  1.00  0.00    -0.246 OA
ATOM     11  O   UNL     1      46.256  26.298  17.765  1.00  0.00    -0.423 OA
ENDROOT
BRANCH   3  12
ATOM     12  O   UNL     1      47.682  29.036  14.099  1.00  0.00    -0.508 OA
ATOM     13  H   UNL     1      48.438  28.430  13.806  1.00  0.00     0.293 HD
ENDBRANCH   3  12
TORSDOF 1
ENDMDL
MODEL 4
REMARK VINA RESULT:    -4.904      0.797      4.224
REMARK INTER + INTRA:          -5.048
REMARK INTER:                  -5.048
REMARK INTRA:                   0.000
REMARK UNBOUND:                 0.000
REMARK SMILES O=c1ccc2ccc(O)cc2o1
REMARK SMILES IDX 6 1 7 2 8 3 10 4 11 5 5 6 4 7 3 8 2 9 1 10 12 11 9 12
REMARK H PARENT 9 13
REMARK Flexibility Score: inf
ROOT
ATOM      1  C   UNL     1      45.871  29.129  14.612  1.00  0.00     0.016 A 
ATOM      2  C   UNL     1      47.222  29.098  14.250  1.00  0.00     0.047 A 
ATOM      3  C   UNL     1      48.127  28.301  14.961  1.00  0.00     0.119 A 
ATOM      4  C   UNL     1      47.679  27.528  16.043  1.00  0.00     0.094 A 
ATOM      5  C   UNL     1      46.330  27.552  16.412  1.00  0.00     0.142 A 
ATOM      6  C   UNL     1      45.420  28.357  15.692  1.00  0.00     0.018 A 
ATOM      7  C   UNL     1      44.077  28.359  16.083  1.00  0.00     0.019 A 
ATOM      8  C   UNL     1      43.678  27.574  17.165  1.00  0.00     0.094 A 
ATOM      9  C   UNL     1      44.636  26.801  17.831  1.00  0.00     0.336 A 
ATOM     10  O   UNL     1      44.296  26.086  18.810  1.00  0.00    -0.246 OA
ATOM     11  O   UNL     1      45.907  26.817  17.437  1.00  0.00    -0.423 OA
ENDROOT
BRANCH   3  12
ATOM     12  O   UNL     1      49.468  28.284  14.587  1.00  0.00    -0.508 OA
ATOM     13  H   UNL     1      49.785  28.722  13.730  1.00  0.00     0.293 HD
ENDBRANCH   3  12
TORSDOF 1
ENDMDL
MODEL 5
REMARK VINA RESULT:    -4.864     11.096     12.228
REMARK INTER + INTRA:          -5.006
REMARK INTER:                  -5.006
REMARK INTRA:                   0.000
REMARK UNBOUND:                 0.000
REMARK SMILES O=c1ccc2ccc(O)cc2o1
REMARK SMILES IDX 6 1 7 2 8 3 10 4 11 5 5 6 4 7 3 8 2 9 1 10 12 11 9 12
REMARK H PARENT 9 13
REMARK Flexibility Score: inf
ROOT
ATOM      1  C   UNL     1      54.600  34.353  23.450  1.00  0.00     0.016 A 
ATOM      2  C   UNL     1      55.375  33.698  24.411  1.00  0.00     0.047 A 
ATOM      3  C   UNL     1      56.167  32.600  24.054  1.00  0.00     0.119 A 
ATOM      4  C   UNL     1      56.185  32.153  22.724  1.00  0.00     0.094 A 
ATOM      5  C   UNL     1      55.413  32.802  21.755  1.00  0.00     0.142 A 
ATOM      6  C   UNL     1      54.615  33.910  22.120  1.00  0.00     0.018 A 
ATOM      7  C   UNL     1      53.854  34.539  21.129  1.00  0.00     0.019 A 
ATOM      8  C   UNL     1      53.904  34.059  19.820  1.00  0.00     0.094 A 
ATOM      9  C   UNL     1      54.717  32.958  19.533  1.00  0.00     0.336 A 
ATOM     10  O   UNL     1      54.776  32.510  18.357  1.00  0.00    -0.246 OA
ATOM     11  O   UNL     1      55.431  32.378  20.494  1.00  0.00    -0.423 OA
ENDROOT
BRANCH   3  12
ATOM     12  O   UNL     1      56.933  31.960  25.026  1.00  0.00    -0.508 OA
ATOM     13  H   UNL     1      57.498  31.149  24.806  1.00  0.00     0.293 HD
ENDBRANCH   3  12
TORSDOF 1
ENDMDL
MODEL 6
REMARK VINA RESULT:    -4.825      3.315      5.794
REMARK INTER + INTRA:          -4.966
REMARK INTER:                  -4.966
REMARK INTRA:                   0.000
REMARK UNBOUND:                 0.000
REMARK SMILES O=c1ccc2ccc(O)cc2o1
REMARK SMILES IDX 6 1 7 2 8 3 10 4 11 5 5 6 4 7 3 8 2 9 1 10 12 11 9 12
REMARK H PARENT 9 13
REMARK Flexibility Score: inf
ROOT
ATOM      1  C   UNL     1      48.131  32.016  14.943  1.00  0.00     0.016 A 
ATOM      2  C   UNL     1      49.301  32.709  14.617  1.00  0.00     0.047 A 
ATOM      3  C   UNL     1      50.300  32.092  13.856  1.00  0.00     0.119 A 
ATOM      4  C   UNL     1      50.129  30.771  13.415  1.00  0.00     0.094 A 
ATOM      5  C   UNL     1      48.962  30.070  13.736  1.00  0.00     0.142 A 
ATOM      6  C   UNL     1      47.955  30.696  14.505  1.00  0.00     0.018 A 
ATOM      7  C   UNL     1      46.800  29.970  14.809  1.00  0.00     0.019 A 
ATOM      8  C   UNL     1      46.674  28.659  14.349  1.00  0.00     0.094 A 
ATOM      9  C   UNL     1      47.711  28.104  13.592  1.00  0.00     0.336 A 
ATOM     10  O   UNL     1      47.617  26.922  13.168  1.00  0.00    -0.246 OA
ATOM     11  O   UNL     1      48.801  28.817  13.317  1.00  0.00    -0.423 OA
ENDROOT
BRANCH   3  12
ATOM     12  O   UNL     1      51.459  32.798  13.542  1.00  0.00    -0.508 OA
ATOM     13  H   UNL     1      52.372  32.362  13.580  1.00  0.00     0.293 HD
ENDBRANCH   3  12
TORSDOF 1
ENDMDL
MODEL 7
REMARK VINA RESULT:    -4.807      3.418      4.628
REMARK INTER + INTRA:          -4.947
REMARK INTER:                  -4.947
REMARK INTRA:                   0.000
REMARK UNBOUND:                 0.000
REMARK SMILES O=c1ccc2ccc(O)cc2o1
REMARK SMILES IDX 6 1 7 2 8 3 10 4 11 5 5 6 4 7 3 8 2 9 1 10 12 11 9 12
REMARK H PARENT 9 13
REMARK Flexibility Score: inf
ROOT
ATOM      1  C   UNL     1      46.736  29.688  14.830  1.00  0.00     0.016 A 
ATOM      2  C   UNL     1      46.686  28.395  14.300  1.00  0.00     0.047 A 
ATOM      3  C   UNL     1      47.736  27.914  13.509  1.00  0.00     0.119 A 
ATOM      4  C   UNL     1      48.846  28.732  13.246  1.00  0.00     0.094 A 
ATOM      5  C   UNL     1      48.905  30.026  13.773  1.00  0.00     0.142 A 
ATOM      6  C   UNL     1      47.843  30.508  14.570  1.00  0.00     0.018 A 
ATOM      7  C   UNL     1      47.930  31.806  15.083  1.00  0.00     0.019 A 
ATOM      8  C   UNL     1      49.053  32.582  14.795  1.00  0.00     0.094 A 
ATOM      9  C   UNL     1      50.066  32.038  13.998  1.00  0.00     0.336 A 
ATOM     10  O   UNL     1      51.087  32.722  13.727  1.00  0.00    -0.246 OA
ATOM     11  O   UNL     1      49.958  30.800  13.523  1.00  0.00    -0.423 OA
ENDROOT
BRANCH   3  12
ATOM     12  O   UNL     1      47.669  26.623  12.989  1.00  0.00    -0.508 OA
ATOM     13  H   UNL     1      48.375  25.929  13.201  1.00  0.00     0.293 HD
ENDBRANCH   3  12
TORSDOF 1
ENDMDL
MODEL 8
REMARK VINA RESULT:    -4.751      2.658      5.252
REMARK INTER + INTRA:          -4.890
REMARK INTER:                  -4.890
REMARK INTRA:                   0.000
REMARK UNBOUND:                 0.000
REMARK SMILES O=c1ccc2ccc(O)cc2o1
REMARK SMILES IDX 6 1 7 2 8 3 10 4 11 5 5 6 4 7 3 8 2 9 1 10 12 11 9 12
REMARK H PARENT 9 13
REMARK Flexibility Score: inf
ROOT
ATOM      1  C   UNL     1      46.134  27.084  17.250  1.00  0.00     0.016 A 
ATOM      2  C   UNL     1      45.410  27.886  16.362  1.00  0.00     0.047 A 
ATOM      3  C   UNL     1      44.010  27.862  16.367  1.00  0.00     0.119 A 
ATOM      4  C   UNL     1      43.328  27.028  17.266  1.00  0.00     0.094 A 
ATOM      5  C   UNL     1      44.043  26.222  18.158  1.00  0.00     0.142 A 
ATOM      6  C   UNL     1      45.456  26.250  18.150  1.00  0.00     0.018 A 
ATOM      7  C   UNL     1      46.143  25.434  19.053  1.00  0.00     0.019 A 
ATOM      8  C   UNL     1      45.422  24.622  19.929  1.00  0.00     0.094 A 
ATOM      9  C   UNL     1      44.024  24.647  19.879  1.00  0.00     0.336 A 
ATOM     10  O   UNL     1      43.355  23.922  20.661  1.00  0.00    -0.246 OA
ATOM     11  O   UNL     1      43.394  25.433  19.010  1.00  0.00    -0.423 OA
ENDROOT
BRANCH   3  12
ATOM     12  O   UNL     1      43.306  28.668  15.475  1.00  0.00    -0.508 OA
ATOM     13  H   UNL     1      42.906  28.292  14.624  1.00  0.00     0.293 HD
ENDBRANCH   3  12
TORSDOF 1
ENDMDL
MODEL 9
REMARK VINA RESULT:    -4.715      1.819      4.686
REMARK INTER + INTRA:          -4.853
REMARK INTER:                  -4.853
REMARK INTRA:                   0.000
REMARK UNBOUND:                 0.000
REMARK SMILES O=c1ccc2ccc(O)cc2o1
REMARK SMILES IDX 6 1 7 2 8 3 10 4 11 5 5 6 4 7 3 8 2 9 1 10 12 11 9 12
REMARK H PARENT 9 13
REMARK Flexibility Score: inf
ROOT
ATOM      1  C   UNL     1      47.383  27.253  15.956  1.00  0.00     0.016 A 
ATOM      2  C   UNL     1      47.057  28.288  15.073  1.00  0.00     0.047 A 
ATOM      3  C   UNL     1      45.785  28.871  15.103  1.00  0.00     0.119 A 
ATOM      4  C   UNL     1      44.829  28.416  16.025  1.00  0.00     0.094 A 
ATOM      5  C   UNL     1      45.145  27.383  16.912  1.00  0.00     0.142 A 
ATOM      6  C   UNL     1      46.431  26.797  16.878  1.00  0.00     0.018 A 
ATOM      7  C   UNL     1      46.718  25.766  17.778  1.00  0.00     0.019 A 
ATOM      8  C   UNL     1      45.735  25.348  18.676  1.00  0.00     0.094 A 
ATOM      9  C   UNL     1      44.485  25.975  18.652  1.00  0.00     0.336 A 
ATOM     10  O   UNL     1      43.585  25.612  19.455  1.00  0.00    -0.246 OA
ATOM     11  O   UNL     1      44.238  26.954  17.786  1.00  0.00    -0.423 OA
ENDROOT
BRANCH   3  12
ATOM     12  O   UNL     1      45.479  29.900  14.215  1.00  0.00    -0.508 OA
ATOM     13  H   UNL     1      44.521  30.168  14.025  1.00  0.00     0.293 HD
ENDBRANCH   3  12
TORSDOF 1
ENDMDL
