MODEL 1
REMARK VINA RESULT:    -3.580      0.000      0.000
REMARK INTER + INTRA:          -6.098
REMARK INTER:                  -5.673
REMARK INTRA:                  -0.425
REMARK UNBOUND:                -0.425
REMARK SMILES CCCCCCCCCCCC(=O)[O-]
REMARK SMILES IDX 7 1 8 2 9 3 10 4 11 5 12 6 13 7 14 8 6 9 5 10 4 11 3 12 2 13
REMARK SMILES IDX 1 14
REMARK H PARENT
REMARK Flexibility Score: inf
ROOT
ATOM      1  C   UNL     1       7.216   2.719  -5.493  1.00  0.00     0.000 C 
ENDROOT
BRANCH   1   2
ATOM      2  C   UNL     1       6.700   1.769  -4.402  1.00  0.00     0.000 C 
BRANCH   2   3
ATOM      3  C   UNL     1       5.874   0.598  -4.966  1.00  0.00     0.000 C 
BRANCH   3   4
ATOM      4  C   UNL     1       5.354  -0.397  -3.914  1.00  0.00     0.006 C 
BRANCH   4   5
ATOM      5  C   UNL     1       4.522  -1.533  -4.525  1.00  0.00     0.053 C 
BRANCH   5   6
ATOM      6  C   UNL     1       3.438  -1.950  -3.582  1.00  0.00     0.041 C 
ATOM      7  O   UNL     1       3.559  -1.743  -2.346  1.00  0.00    -0.550 OA
ATOM      8  O   UNL     1       2.273  -2.525  -4.072  1.00  0.00    -0.550 OA
ENDBRANCH   5   6
ENDBRANCH   4   5
ENDBRANCH   3   4
ENDBRANCH   2   3
ENDBRANCH   1   2
BRANCH   1   9
ATOM      9  C   UNL     1       7.362   4.147  -4.954  1.00  0.00     0.000 C 
BRANCH   9  10
ATOM     10  C   UNL     1       6.669   4.293  -3.591  1.00  0.00    -0.000 C 
BRANCH  10  11
ATOM     11  C   UNL     1       6.027   5.678  -3.389  1.00  0.00    -0.000 C 
BRANCH  11  12
ATOM     12  C   UNL     1       5.009   5.761  -2.238  1.00  0.00    -0.000 C 
BRANCH  12  13
ATOM     13  C   UNL     1       5.477   6.667  -1.089  1.00  0.00    -0.003 C 
ATOM     14  C   UNL     1       6.466   5.938  -0.184  1.00  0.00     0.004 C 
ENDBRANCH  12  13
ENDBRANCH  11  12
ENDBRANCH  10  11
ENDBRANCH   9  10
ENDBRANCH   1   9
TORSDOF 10
ENDMDL
MODEL 2
REMARK VINA RESULT:    -3.450      1.245      2.017
REMARK INTER + INTRA:          -5.892
REMARK INTER:                  -5.440
REMARK INTRA:                  -0.451
REMARK UNBOUND:                -0.425
REMARK SMILES CCCCCCCCCCCC(=O)[O-]
REMARK SMILES IDX 7 1 8 2 9 3 10 4 11 5 12 6 13 7 14 8 6 9 5 10 4 11 3 12 2 13
REMARK SMILES IDX 1 14
REMARK H PARENT
REMARK Flexibility Score: inf
ROOT
ATOM      1  C   UNL     1       6.174   0.826  -5.873  1.00  0.00     0.000 C 
ENDROOT
BRANCH   1   2
ATOM      2  C   UNL     1       5.608   0.261  -4.561  1.00  0.00     0.000 C 
BRANCH   2   3
ATOM      3  C   UNL     1       6.295  -1.044  -4.122  1.00  0.00     0.000 C 
BRANCH   3   4
ATOM      4  C   UNL     1       5.444  -2.315  -4.288  1.00  0.00     0.006 C 
BRANCH   4   5
ATOM      5  C   UNL     1       4.147  -2.069  -5.071  1.00  0.00     0.053 C 
BRANCH   5   6
ATOM      6  C   UNL     1       3.006  -2.793  -4.430  1.00  0.00     0.041 C 
ATOM      7  O   UNL     1       2.218  -2.180  -3.662  1.00  0.00    -0.550 OA
ATOM      8  O   UNL     1       2.784  -4.134  -4.715  1.00  0.00    -0.550 OA
ENDBRANCH   5   6
ENDBRANCH   4   5
ENDBRANCH   3   4
ENDBRANCH   2   3
ENDBRANCH   1   2
BRANCH   1   9
ATOM      9  C   UNL     1       6.896   2.156  -5.631  1.00  0.00     0.000 C 
BRANCH   9  10
ATOM     10  C   UNL     1       6.736   2.612  -4.173  1.00  0.00    -0.000 C 
BRANCH  10  11
ATOM     11  C   UNL     1       7.463   3.935  -3.873  1.00  0.00    -0.000 C 
BRANCH  11  12
ATOM     12  C   UNL     1       6.554   5.176  -3.799  1.00  0.00    -0.000 C 
BRANCH  12  13
ATOM     13  C   UNL     1       5.782   5.273  -2.476  1.00  0.00    -0.003 C 
ATOM     14  C   UNL     1       4.558   6.172  -2.618  1.00  0.00     0.004 C 
ENDBRANCH  12  13
ENDBRANCH  11  12
ENDBRANCH  10  11
ENDBRANCH   9  10
ENDBRANCH   1   9
TORSDOF 10
ENDMDL
MODEL 3
REMARK VINA RESULT:    -3.448      9.067     12.297
REMARK INTER + INTRA:          -5.889
REMARK INTER:                  -4.553
REMARK INTRA:                  -1.336
REMARK UNBOUND:                -0.425
REMARK SMILES CCCCCCCCCCCC(=O)[O-]
REMARK SMILES IDX 7 1 8 2 9 3 10 4 11 5 12 6 13 7 14 8 6 9 5 10 4 11 3 12 2 13
REMARK SMILES IDX 1 14
REMARK H PARENT
REMARK Flexibility Score: inf
ROOT
ATOM      1  C   UNL     1      -6.946  -2.254  -4.997  1.00  0.00     0.000 C 
ENDROOT
BRANCH   1   2
ATOM      2  C   UNL     1      -6.202  -1.419  -6.049  1.00  0.00     0.000 C 
BRANCH   2   3
ATOM      3  C   UNL     1      -4.811  -0.958  -5.578  1.00  0.00     0.000 C 
BRANCH   3   4
ATOM      4  C   UNL     1      -3.649  -1.882  -5.984  1.00  0.00     0.006 C 
BRANCH   4   5
ATOM      5  C   UNL     1      -2.772  -1.287  -7.095  1.00  0.00     0.053 C 
BRANCH   5   6
ATOM      6  C   UNL     1      -1.325  -1.401  -6.734  1.00  0.00     0.041 C 
ATOM      7  O   UNL     1      -0.711  -0.409  -6.260  1.00  0.00    -0.550 OA
ATOM      8  O   UNL     1      -0.665  -2.615  -6.876  1.00  0.00    -0.550 OA
ENDBRANCH   5   6
ENDBRANCH   4   5
ENDBRANCH   3   4
ENDBRANCH   2   3
ENDBRANCH   1   2
BRANCH   1   9
ATOM      9  C   UNL     1      -6.599  -1.785  -3.579  1.00  0.00     0.000 C 
BRANCH   9  10
ATOM     10  C   UNL     1      -6.163  -2.967  -2.700  1.00  0.00    -0.000 C 
BRANCH  10  11
ATOM     11  C   UNL     1      -4.635  -3.067  -2.542  1.00  0.00    -0.000 C 
BRANCH  11  12
ATOM     12  C   UNL     1      -4.014  -4.386  -3.036  1.00  0.00    -0.000 C 
BRANCH  12  13
ATOM     13  C   UNL     1      -5.014  -5.269  -3.798  1.00  0.00    -0.003 C 
ATOM     14  C   UNL     1      -4.680  -5.321  -5.285  1.00  0.00     0.004 C 
ENDBRANCH  12  13
ENDBRANCH  11  12
ENDBRANCH  10  11
ENDBRANCH   9  10
ENDBRANCH   1   9
TORSDOF 10
ENDMDL
MODEL 4
REMARK VINA RESULT:    -3.385      3.524      5.170
REMARK INTER + INTRA:          -5.789
REMARK INTER:                  -4.504
REMARK INTRA:                  -1.285
REMARK UNBOUND:                -0.425
REMARK SMILES CCCCCCCCCCCC(=O)[O-]
REMARK SMILES IDX 7 1 8 2 9 3 10 4 11 5 12 6 13 7 14 8 6 9 5 10 4 11 3 12 2 13
REMARK SMILES IDX 1 14
REMARK H PARENT
REMARK Flexibility Score: inf
ROOT
ATOM      1  C   UNL     1       5.568   0.634  -6.925  1.00  0.00     0.000 C 
ENDROOT
BRANCH   1   2
ATOM      2  C   UNL     1       6.113  -0.565  -7.716  1.00  0.00     0.000 C 
BRANCH   2   3
ATOM      3  C   UNL     1       5.330  -1.864  -7.453  1.00  0.00     0.000 C 
BRANCH   3   4
ATOM      4  C   UNL     1       3.840  -1.670  -7.118  1.00  0.00     0.006 C 
BRANCH   4   5
ATOM      5  C   UNL     1       3.274  -2.791  -6.236  1.00  0.00     0.053 C 
BRANCH   5   6
ATOM      6  C   UNL     1       2.158  -2.272  -5.386  1.00  0.00     0.041 C 
ATOM      7  O   UNL     1       1.097  -1.854  -5.921  1.00  0.00    -0.550 OA
ATOM      8  O   UNL     1       2.268  -2.295  -4.002  1.00  0.00    -0.550 OA
ENDBRANCH   5   6
ENDBRANCH   4   5
ENDBRANCH   3   4
ENDBRANCH   2   3
ENDBRANCH   1   2
BRANCH   1   9
ATOM      9  C   UNL     1       6.602   1.139  -5.912  1.00  0.00     0.000 C 
BRANCH   9  10
ATOM     10  C   UNL     1       6.038   1.097  -4.484  1.00  0.00    -0.000 C 
BRANCH  10  11
ATOM     11  C   UNL     1       5.423  -0.267  -4.121  1.00  0.00    -0.000 C 
BRANCH  11  12
ATOM     12  C   UNL     1       6.440  -1.405  -3.917  1.00  0.00    -0.000 C 
BRANCH  12  13
ATOM     13  C   UNL     1       5.785  -2.716  -3.458  1.00  0.00    -0.003 C 
ATOM     14  C   UNL     1       6.103  -3.007  -1.994  1.00  0.00     0.004 C 
ENDBRANCH  12  13
ENDBRANCH  11  12
ENDBRANCH  10  11
ENDBRANCH   9  10
ENDBRANCH   1   9
TORSDOF 10
ENDMDL
MODEL 5
REMARK VINA RESULT:    -3.363      2.710      4.318
REMARK INTER + INTRA:          -5.754
REMARK INTER:                  -4.534
REMARK INTRA:                  -1.220
REMARK UNBOUND:                -0.425
REMARK SMILES CCCCCCCCCCCC(=O)[O-]
REMARK SMILES IDX 7 1 8 2 9 3 10 4 11 5 12 6 13 7 14 8 6 9 5 10 4 11 3 12 2 13
REMARK SMILES IDX 1 14
REMARK H PARENT
REMARK Flexibility Score: inf
ROOT
ATOM      1  C   UNL     1       7.827   1.304  -4.620  1.00  0.00     0.000 C 
ENDROOT
BRANCH   1   2
ATOM      2  C   UNL     1       7.112  -0.031  -4.366  1.00  0.00     0.000 C 
BRANCH   2   3
ATOM      3  C   UNL     1       5.583   0.116  -4.257  1.00  0.00     0.000 C 
BRANCH   3   4
ATOM      4  C   UNL     1       4.848  -1.122  -3.716  1.00  0.00     0.006 C 
BRANCH   4   5
ATOM      5  C   UNL     1       4.345  -2.053  -4.828  1.00  0.00     0.053 C 
BRANCH   5   6
ATOM      6  C   UNL     1       3.154  -2.828  -4.360  1.00  0.00     0.041 C 
ATOM      7  O   UNL     1       3.097  -4.073  -4.542  1.00  0.00    -0.550 OA
ATOM      8  O   UNL     1       2.127  -2.184  -3.681  1.00  0.00    -0.550 OA
ENDBRANCH   5   6
ENDBRANCH   4   5
ENDBRANCH   3   4
ENDBRANCH   2   3
ENDBRANCH   1   2
BRANCH   1   9
ATOM      9  C   UNL     1       6.877   2.487  -4.394  1.00  0.00     0.000 C 
BRANCH   9  10
ATOM     10  C   UNL     1       6.975   3.498  -5.546  1.00  0.00    -0.000 C 
BRANCH  10  11
ATOM     11  C   UNL     1       7.511   2.875  -6.848  1.00  0.00    -0.000 C 
BRANCH  11  12
ATOM     12  C   UNL     1       6.462   2.686  -7.959  1.00  0.00    -0.000 C 
BRANCH  12  13
ATOM     13  C   UNL     1       5.575   1.453  -7.740  1.00  0.00    -0.003 C 
ATOM     14  C   UNL     1       6.346   0.165  -8.012  1.00  0.00     0.004 C 
ENDBRANCH  12  13
ENDBRANCH  11  12
ENDBRANCH  10  11
ENDBRANCH   9  10
ENDBRANCH   1   9
TORSDOF 10
ENDMDL
MODEL 6
REMARK VINA RESULT:    -3.327      9.274     12.099
REMARK INTER + INTRA:          -5.697
REMARK INTER:                  -4.221
REMARK INTRA:                  -1.476
REMARK UNBOUND:                -0.425
REMARK SMILES CCCCCCCCCCCC(=O)[O-]
REMARK SMILES IDX 7 1 8 2 9 3 10 4 11 5 12 6 13 7 14 8 6 9 5 10 4 11 3 12 2 13
REMARK SMILES IDX 1 14
REMARK H PARENT
REMARK Flexibility Score: inf
ROOT
ATOM      1  C   UNL     1      -3.470  -3.991  -5.208  1.00  0.00     0.000 C 
ENDROOT
BRANCH   1   2
ATOM      2  C   UNL     1      -4.674  -3.924  -6.158  1.00  0.00     0.000 C 
BRANCH   2   3
ATOM      3  C   UNL     1      -4.771  -2.584  -6.911  1.00  0.00     0.000 C 
BRANCH   3   4
ATOM      4  C   UNL     1      -3.986  -1.423  -6.275  1.00  0.00     0.006 C 
BRANCH   4   5
ATOM      5  C   UNL     1      -3.002  -0.762  -7.250  1.00  0.00     0.053 C 
BRANCH   5   6
ATOM      6  C   UNL     1      -1.607  -1.224  -6.975  1.00  0.00     0.041 C 
ATOM      7  O   UNL     1      -0.866  -0.572  -6.192  1.00  0.00    -0.550 OA
ATOM      8  O   UNL     1      -1.138  -2.401  -7.545  1.00  0.00    -0.550 OA
ENDBRANCH   5   6
ENDBRANCH   4   5
ENDBRANCH   3   4
ENDBRANCH   2   3
ENDBRANCH   1   2
BRANCH   1   9
ATOM      9  C   UNL     1      -3.842  -4.700  -3.900  1.00  0.00     0.000 C 
BRANCH   9  10
ATOM     10  C   UNL     1      -4.159  -3.682  -2.794  1.00  0.00    -0.000 C 
BRANCH  10  11
ATOM     11  C   UNL     1      -5.669  -3.436  -2.619  1.00  0.00    -0.000 C 
BRANCH  11  12
ATOM     12  C   UNL     1      -6.139  -2.009  -2.954  1.00  0.00    -0.000 C 
BRANCH  12  13
ATOM     13  C   UNL     1      -7.145  -1.968  -4.113  1.00  0.00    -0.003 C 
ATOM     14  C   UNL     1      -7.885  -3.296  -4.247  1.00  0.00     0.004 C 
ENDBRANCH  12  13
ENDBRANCH  11  12
ENDBRANCH  10  11
ENDBRANCH   9  10
ENDBRANCH   1   9
TORSDOF 10
ENDMDL
MODEL 7
REMARK VINA RESULT:    -3.277      3.963      5.294
REMARK INTER + INTRA:          -5.618
REMARK INTER:                  -4.656
REMARK INTRA:                  -0.962
REMARK UNBOUND:                -0.425
REMARK SMILES CCCCCCCCCCCC(=O)[O-]
REMARK SMILES IDX 7 1 8 2 9 3 10 4 11 5 12 6 13 7 14 8 6 9 5 10 4 11 3 12 2 13
REMARK SMILES IDX 1 14
REMARK H PARENT
REMARK Flexibility Score: inf
ROOT
ATOM      1  C   UNL     1       7.009  -0.136  -4.295  1.00  0.00     0.000 C 
ENDROOT
BRANCH   1   2
ATOM      2  C   UNL     1       6.949  -1.671  -4.303  1.00  0.00     0.000 C 
BRANCH   2   3
ATOM      3  C   UNL     1       6.922  -2.278  -2.888  1.00  0.00     0.000 C 
BRANCH   3   4
ATOM      4  C   UNL     1       5.642  -3.058  -2.540  1.00  0.00     0.006 C 
BRANCH   4   5
ATOM      5  C   UNL     1       4.596  -3.023  -3.662  1.00  0.00     0.053 C 
BRANCH   5   6
ATOM      6  C   UNL     1       3.419  -2.196  -3.251  1.00  0.00     0.041 C 
ATOM      7  O   UNL     1       3.508  -1.408  -2.273  1.00  0.00    -0.550 OA
ATOM      8  O   UNL     1       2.236  -2.260  -3.977  1.00  0.00    -0.550 OA
ENDBRANCH   5   6
ENDBRANCH   4   5
ENDBRANCH   3   4
ENDBRANCH   2   3
ENDBRANCH   1   2
BRANCH   1   9
ATOM      9  C   UNL     1       5.730   0.466  -4.888  1.00  0.00     0.000 C 
BRANCH   9  10
ATOM     10  C   UNL     1       5.255  -0.342  -6.105  1.00  0.00    -0.000 C 
BRANCH  10  11
ATOM     11  C   UNL     1       5.885   0.136  -7.426  1.00  0.00    -0.000 C 
BRANCH  11  12
ATOM     12  C   UNL     1       5.557   1.590  -7.815  1.00  0.00    -0.000 C 
BRANCH  12  13
ATOM     13  C   UNL     1       4.787   1.695  -9.139  1.00  0.00    -0.003 C 
ATOM     14  C   UNL     1       3.460   0.946  -9.065  1.00  0.00     0.004 C 
ENDBRANCH  12  13
ENDBRANCH  11  12
ENDBRANCH  10  11
ENDBRANCH   9  10
ENDBRANCH   1   9
TORSDOF 10
ENDMDL
MODEL 8
REMARK VINA RESULT:    -3.261      3.004      4.518
REMARK INTER + INTRA:          -5.592
REMARK INTER:                  -4.267
REMARK INTRA:                  -1.325
REMARK UNBOUND:                -0.425
REMARK SMILES CCCCCCCCCCCC(=O)[O-]
REMARK SMILES IDX 7 1 8 2 9 3 10 4 11 5 12 6 13 7 14 8 6 9 5 10 4 11 3 12 2 13
REMARK SMILES IDX 1 14
REMARK H PARENT
REMARK Flexibility Score: inf
ROOT
ATOM      1  C   UNL     1       6.561   1.234  -5.709  1.00  0.00     0.000 C 
ENDROOT
BRANCH   1   2
ATOM      2  C   UNL     1       5.555   0.121  -5.380  1.00  0.00     0.000 C 
BRANCH   2   3
ATOM      3  C   UNL     1       5.358  -0.083  -3.867  1.00  0.00     0.000 C 
BRANCH   3   4
ATOM      4  C   UNL     1       4.611  -1.370  -3.476  1.00  0.00     0.006 C 
BRANCH   4   5
ATOM      5  C   UNL     1       4.324  -2.283  -4.676  1.00  0.00     0.053 C 
BRANCH   5   6
ATOM      6  C   UNL     1       2.916  -2.786  -4.623  1.00  0.00     0.041 C 
ATOM      7  O   UNL     1       2.085  -2.262  -3.835  1.00  0.00    -0.550 OA
ATOM      8  O   UNL     1       2.507  -3.802  -5.477  1.00  0.00    -0.550 OA
ENDBRANCH   5   6
ENDBRANCH   4   5
ENDBRANCH   3   4
ENDBRANCH   2   3
ENDBRANCH   1   2
BRANCH   1   9
ATOM      9  C   UNL     1       6.918   2.039  -4.454  1.00  0.00     0.000 C 
BRANCH   9  10
ATOM     10  C   UNL     1       8.441   2.137  -4.280  1.00  0.00    -0.000 C 
BRANCH  10  11
ATOM     11  C   UNL     1       9.160   0.796  -4.516  1.00  0.00    -0.000 C 
BRANCH  11  12
ATOM     12  C   UNL     1       9.127  -0.178  -3.324  1.00  0.00    -0.000 C 
BRANCH  12  13
ATOM     13  C   UNL     1       8.687  -1.594  -3.722  1.00  0.00    -0.003 C 
ATOM     14  C   UNL     1       8.076  -2.334  -2.535  1.00  0.00     0.004 C 
ENDBRANCH  12  13
ENDBRANCH  11  12
ENDBRANCH  10  11
ENDBRANCH   9  10
ENDBRANCH   1   9
TORSDOF 10
ENDMDL
MODEL 9
REMARK VINA RESULT:    -3.247     11.213     13.307
REMARK INTER + INTRA:          -5.570
REMARK INTER:                  -3.992
REMARK INTRA:                  -1.579
REMARK UNBOUND:                -0.425
REMARK SMILES CCCCCCCCCCCC(=O)[O-]
REMARK SMILES IDX 7 1 8 2 9 3 10 4 11 5 12 6 13 7 14 8 6 9 5 10 4 11 3 12 2 13
REMARK SMILES IDX 1 14
REMARK H PARENT
REMARK Flexibility Score: inf
ROOT
ATOM      1  C   UNL     1      -7.618  -4.413  -5.354  1.00  0.00     0.000 C 
ENDROOT
BRANCH   1   2
ATOM      2  C   UNL     1      -6.657  -5.446  -4.747  1.00  0.00     0.000 C 
BRANCH   2   3
ATOM      3  C   UNL     1      -6.916  -5.702  -3.251  1.00  0.00     0.000 C 
BRANCH   3   4
ATOM      4  C   UNL     1      -5.755  -6.374  -2.496  1.00  0.00     0.006 C 
BRANCH   4   5
ATOM      5  C   UNL     1      -4.390  -6.123  -3.151  1.00  0.00     0.053 C 
BRANCH   5   6
ATOM      6  C   UNL     1      -3.359  -5.828  -2.109  1.00  0.00     0.041 C 
ATOM      7  O   UNL     1      -3.403  -6.408  -0.992  1.00  0.00    -0.550 OA
ATOM      8  O   UNL     1      -2.320  -4.949  -2.387  1.00  0.00    -0.550 OA
ENDBRANCH   5   6
ENDBRANCH   4   5
ENDBRANCH   3   4
ENDBRANCH   2   3
ENDBRANCH   1   2
BRANCH   1   9
ATOM      9  C   UNL     1      -8.268  -3.558  -4.259  1.00  0.00     0.000 C 
BRANCH   9  10
ATOM     10  C   UNL     1      -7.634  -2.160  -4.206  1.00  0.00    -0.000 C 
BRANCH  10  11
ATOM     11  C   UNL     1      -6.791  -1.930  -2.938  1.00  0.00    -0.000 C 
BRANCH  11  12
ATOM     12  C   UNL     1      -5.309  -2.327  -3.062  1.00  0.00    -0.000 C 
BRANCH  12  13
ATOM     13  C   UNL     1      -4.662  -1.826  -4.362  1.00  0.00    -0.003 C 
ATOM     14  C   UNL     1      -3.932  -2.955  -5.083  1.00  0.00     0.004 C 
ENDBRANCH  12  13
ENDBRANCH  11  12
ENDBRANCH  10  11
ENDBRANCH   9  10
ENDBRANCH   1   9
TORSDOF 10
ENDMDL
