MODEL 1
REMARK VINA RESULT:    -5.027      0.000      0.000
REMARK INTER + INTRA:          -6.060
REMARK INTER:                  -5.909
REMARK INTRA:                  -0.151
REMARK UNBOUND:                -0.151
REMARK SMILES O=C([O-])C=Cc1ccc(O)c(O)c1
REMARK SMILES IDX 6 1 13 2 7 3 11 4 8 5 9 6 5 7 4 8 2 9 1 10 3 11 12 12 10 14
REMARK H PARENT 12 13 10 15
REMARK Flexibility Score: inf
ROOT
ATOM      1  C   UNL     1      11.481 -16.246   8.087  1.00  0.00    -0.022 A 
ATOM      2  C   UNL     1      12.741 -16.811   8.367  1.00  0.00     0.058 A 
ATOM      3  C   UNL     1      11.425 -14.994   7.454  1.00  0.00     0.012 A 
ATOM      4  C   UNL     1      13.920 -16.121   8.041  1.00  0.00     0.157 A 
ATOM      5  C   UNL     1      12.597 -14.306   7.132  1.00  0.00     0.051 A 
ATOM      6  C   UNL     1      13.845 -14.863   7.425  1.00  0.00     0.157 A 
ENDROOT
BRANCH   1   7
ATOM      7  C   UNL     1      10.207 -16.940   8.400  1.00  0.00     0.010 C 
ATOM      8  C   UNL     1       9.016 -16.566   7.914  1.00  0.00     0.025 C 
BRANCH   8   9
ATOM      9  C   UNL     1       7.773 -17.288   8.237  1.00  0.00     0.064 C 
ATOM     10  O   UNL     1       7.604 -18.485   7.884  1.00  0.00    -0.545 OA
ATOM     11  O   UNL     1       6.770 -16.636   8.943  1.00  0.00    -0.545 OA
ENDBRANCH   8   9
ENDBRANCH   1   7
BRANCH   4  12
ATOM     12  O   UNL     1      15.162 -16.686   8.326  1.00  0.00    -0.504 OA
ATOM     13  H   UNL     1      15.429 -17.594   7.964  1.00  0.00     0.293 HD
ENDBRANCH   4  12
BRANCH   6  14
ATOM     14  O   UNL     1      14.999 -14.152   7.093  1.00  0.00    -0.504 OA
ATOM     15  H   UNL     1      15.685 -13.885   7.789  1.00  0.00     0.293 HD
ENDBRANCH   6  14
TORSDOF 4
ENDMDL
MODEL 2
REMARK VINA RESULT:    -4.996      0.748      2.078
REMARK INTER + INTRA:          -6.023
REMARK INTER:                  -5.871
REMARK INTRA:                  -0.152
REMARK UNBOUND:                -0.151
REMARK SMILES O=C([O-])C=Cc1ccc(O)c(O)c1
REMARK SMILES IDX 6 1 13 2 7 3 11 4 8 5 9 6 5 7 4 8 2 9 1 10 3 11 12 12 10 14
REMARK H PARENT 12 13 10 15
REMARK Flexibility Score: inf
ROOT
ATOM      1  C   UNL     1      11.146 -16.192   7.911  1.00  0.00    -0.022 A 
ATOM      2  C   UNL     1      11.976 -15.156   7.437  1.00  0.00     0.058 A 
ATOM      3  C   UNL     1      11.741 -17.334   8.470  1.00  0.00     0.012 A 
ATOM      4  C   UNL     1      13.373 -15.276   7.500  1.00  0.00     0.157 A 
ATOM      5  C   UNL     1      13.131 -17.454   8.532  1.00  0.00     0.051 A 
ATOM      6  C   UNL     1      13.951 -16.432   8.048  1.00  0.00     0.157 A 
ENDROOT
BRANCH   1   7
ATOM      7  C   UNL     1       9.665 -16.107   7.877  1.00  0.00     0.010 C 
ATOM      8  C   UNL     1       8.853 -17.077   8.323  1.00  0.00     0.025 C 
BRANCH   8   9
ATOM      9  C   UNL     1       7.386 -16.952   8.285  1.00  0.00     0.064 C 
ATOM     10  O   UNL     1       6.802 -15.953   8.783  1.00  0.00    -0.545 OA
ATOM     11  O   UNL     1       6.632 -17.955   7.689  1.00  0.00    -0.545 OA
ENDBRANCH   8   9
ENDBRANCH   1   7
BRANCH   4  12
ATOM     12  O   UNL     1      14.185 -14.248   7.025  1.00  0.00    -0.504 OA
ATOM     13  H   UNL     1      14.985 -13.915   7.551  1.00  0.00     0.293 HD
ENDBRANCH   4  12
BRANCH   6  14
ATOM     14  O   UNL     1      15.336 -16.582   8.121  1.00  0.00    -0.504 OA
ATOM     15  H   UNL     1      15.907 -16.713   7.295  1.00  0.00     0.293 HD
ENDBRANCH   6  14
TORSDOF 4
ENDMDL
MODEL 3
REMARK VINA RESULT:    -4.821      1.098      6.132
REMARK INTER + INTRA:          -5.817
REMARK INTER:                  -5.693
REMARK INTRA:                  -0.124
REMARK UNBOUND:                -0.151
REMARK SMILES O=C([O-])C=Cc1ccc(O)c(O)c1
REMARK SMILES IDX 6 1 13 2 7 3 11 4 8 5 9 6 5 7 4 8 2 9 1 10 3 11 12 12 10 14
REMARK H PARENT 12 13 10 15
REMARK Flexibility Score: inf
ROOT
ATOM      1  C   UNL     1      10.302 -17.258   7.766  1.00  0.00    -0.022 A 
ATOM      2  C   UNL     1       9.328 -16.324   8.171  1.00  0.00     0.058 A 
ATOM      3  C   UNL     1       9.889 -18.542   7.374  1.00  0.00     0.012 A 
ATOM      4  C   UNL     1       7.970 -16.680   8.207  1.00  0.00     0.157 A 
ATOM      5  C   UNL     1       8.538 -18.897   7.412  1.00  0.00     0.051 A 
ATOM      6  C   UNL     1       7.576 -17.973   7.829  1.00  0.00     0.157 A 
ENDROOT
BRANCH   1   7
ATOM      7  C   UNL     1      11.747 -16.927   7.699  1.00  0.00     0.010 C 
ATOM      8  C   UNL     1      12.231 -15.682   7.815  1.00  0.00     0.025 C 
BRANCH   8   9
ATOM      9  C   UNL     1      13.674 -15.392   7.756  1.00  0.00     0.064 C 
ATOM     10  O   UNL     1      14.099 -14.273   7.362  1.00  0.00    -0.545 OA
ATOM     11  O   UNL     1      14.582 -16.368   8.144  1.00  0.00    -0.545 OA
ENDBRANCH   8   9
ENDBRANCH   1   7
BRANCH   4  12
ATOM     12  O   UNL     1       7.014 -15.751   8.613  1.00  0.00    -0.504 OA
ATOM     13  H   UNL     1       7.274 -14.826   8.938  1.00  0.00     0.293 HD
ENDBRANCH   4  12
BRANCH   6  14
ATOM     14  O   UNL     1       6.236 -18.357   7.858  1.00  0.00    -0.504 OA
ATOM     15  H   UNL     1       5.955 -19.330   7.891  1.00  0.00     0.293 HD
ENDBRANCH   6  14
TORSDOF 4
ENDMDL
MODEL 4
REMARK VINA RESULT:    -4.478      1.705      2.503
REMARK INTER + INTRA:          -5.413
REMARK INTER:                  -5.293
REMARK INTRA:                  -0.120
REMARK UNBOUND:                -0.151
REMARK SMILES O=C([O-])C=Cc1ccc(O)c(O)c1
REMARK SMILES IDX 6 1 13 2 7 3 11 4 8 5 9 6 5 7 4 8 2 9 1 10 3 11 12 12 10 14
REMARK H PARENT 12 13 10 15
REMARK Flexibility Score: inf
ROOT
ATOM      1  C   UNL     1      10.258 -17.556   7.882  1.00  0.00    -0.022 A 
ATOM      2  C   UNL     1      10.467 -16.163   7.856  1.00  0.00     0.058 A 
ATOM      3  C   UNL     1      11.321 -18.408   7.541  1.00  0.00     0.012 A 
ATOM      4  C   UNL     1      11.710 -15.635   7.472  1.00  0.00     0.157 A 
ATOM      5  C   UNL     1      12.557 -17.883   7.156  1.00  0.00     0.051 A 
ATOM      6  C   UNL     1      12.757 -16.501   7.117  1.00  0.00     0.157 A 
ENDROOT
BRANCH   1   7
ATOM      7  C   UNL     1       8.967 -18.162   8.293  1.00  0.00     0.010 C 
ATOM      8  C   UNL     1       7.784 -17.828   7.758  1.00  0.00     0.025 C 
BRANCH   8   9
ATOM      9  C   UNL     1       6.523 -18.460   8.183  1.00  0.00     0.064 C 
ATOM     10  O   UNL     1       5.811 -19.107   7.369  1.00  0.00    -0.545 OA
ATOM     11  O   UNL     1       6.112 -18.340   9.504  1.00  0.00    -0.545 OA
ENDBRANCH   8   9
ENDBRANCH   1   7
BRANCH   4  12
ATOM     12  O   UNL     1      11.907 -14.256   7.445  1.00  0.00    -0.504 OA
ATOM     13  H   UNL     1      11.257 -13.634   6.978  1.00  0.00     0.293 HD
ENDBRANCH   4  12
BRANCH   6  14
ATOM     14  O   UNL     1      14.001 -16.007   6.727  1.00  0.00    -0.504 OA
ATOM     15  H   UNL     1      14.197 -15.014   6.684  1.00  0.00     0.293 HD
ENDBRANCH   6  14
TORSDOF 4
ENDMDL
MODEL 5
REMARK VINA RESULT:    -4.448      1.276      6.042
REMARK INTER + INTRA:          -5.378
REMARK INTER:                  -5.252
REMARK INTRA:                  -0.126
REMARK UNBOUND:                -0.151
REMARK SMILES O=C([O-])C=Cc1ccc(O)c(O)c1
REMARK SMILES IDX 6 1 13 2 7 3 11 4 8 5 9 6 5 7 4 8 2 9 1 10 3 11 12 12 10 14
REMARK H PARENT 12 13 10 15
REMARK Flexibility Score: inf
ROOT
ATOM      1  C   UNL     1       9.596 -16.458   7.741  1.00  0.00    -0.022 A 
ATOM      2  C   UNL     1       9.343 -17.474   6.798  1.00  0.00     0.058 A 
ATOM      3  C   UNL     1       8.591 -16.125   8.664  1.00  0.00     0.012 A 
ATOM      4  C   UNL     1       8.100 -18.124   6.765  1.00  0.00     0.157 A 
ATOM      5  C   UNL     1       7.353 -16.771   8.631  1.00  0.00     0.051 A 
ATOM      6  C   UNL     1       7.101 -17.767   7.685  1.00  0.00     0.157 A 
ENDROOT
BRANCH   1   7
ATOM      7  C   UNL     1      10.897 -15.750   7.823  1.00  0.00     0.010 C 
ATOM      8  C   UNL     1      12.085 -16.372   7.816  1.00  0.00     0.025 C 
BRANCH   8   9
ATOM      9  C   UNL     1      13.358 -15.635   7.887  1.00  0.00     0.064 C 
ATOM     10  O   UNL     1      14.421 -16.203   8.254  1.00  0.00    -0.545 OA
ATOM     11  O   UNL     1      13.388 -14.290   7.542  1.00  0.00    -0.545 OA
ENDBRANCH   8   9
ENDBRANCH   1   7
BRANCH   4  12
ATOM     12  O   UNL     1       7.858 -19.125   5.826  1.00  0.00    -0.504 OA
ATOM     13  H   UNL     1       8.122 -19.017   4.853  1.00  0.00     0.293 HD
ENDBRANCH   4  12
BRANCH   6  14
ATOM     14  O   UNL     1       5.854 -18.393   7.675  1.00  0.00    -0.504 OA
ATOM     15  H   UNL     1       4.993 -17.879   7.823  1.00  0.00     0.293 HD
ENDBRANCH   6  14
TORSDOF 4
ENDMDL
MODEL 6
REMARK VINA RESULT:    -4.204      1.677      2.217
REMARK INTER + INTRA:          -5.092
REMARK INTER:                  -4.968
REMARK INTRA:                  -0.124
REMARK UNBOUND:                -0.151
REMARK SMILES O=C([O-])C=Cc1ccc(O)c(O)c1
REMARK SMILES IDX 6 1 13 2 7 3 11 4 8 5 9 6 5 7 4 8 2 9 1 10 3 11 12 12 10 14
REMARK H PARENT 12 13 10 15
REMARK Flexibility Score: inf
ROOT
ATOM      1  C   UNL     1      10.985 -17.008   8.162  1.00  0.00    -0.022 A 
ATOM      2  C   UNL     1      11.362 -17.934   7.168  1.00  0.00     0.058 A 
ATOM      3  C   UNL     1      11.987 -16.302   8.845  1.00  0.00     0.012 A 
ATOM      4  C   UNL     1      12.718 -18.164   6.885  1.00  0.00     0.157 A 
ATOM      5  C   UNL     1      13.337 -16.532   8.566  1.00  0.00     0.051 A 
ATOM      6  C   UNL     1      13.708 -17.461   7.591  1.00  0.00     0.157 A 
ENDROOT
BRANCH   1   7
ATOM      7  C   UNL     1       9.566 -16.721   8.488  1.00  0.00     0.010 C 
ATOM      8  C   UNL     1       8.534 -17.426   8.005  1.00  0.00     0.025 C 
BRANCH   8   9
ATOM      9  C   UNL     1       7.138 -17.120   8.361  1.00  0.00     0.064 C 
ATOM     10  O   UNL     1       6.230 -17.987   8.247  1.00  0.00    -0.545 OA
ATOM     11  O   UNL     1       6.816 -15.854   8.832  1.00  0.00    -0.545 OA
ENDBRANCH   8   9
ENDBRANCH   1   7
BRANCH   4  12
ATOM     12  O   UNL     1      13.081 -19.084   5.904  1.00  0.00    -0.504 OA
ATOM     13  H   UNL     1      13.104 -18.834   4.922  1.00  0.00     0.293 HD
ENDBRANCH   4  12
BRANCH   6  14
ATOM     14  O   UNL     1      15.063 -17.671   7.335  1.00  0.00    -0.504 OA
ATOM     15  H   UNL     1      15.460 -18.601   7.269  1.00  0.00     0.293 HD
ENDBRANCH   6  14
TORSDOF 4
ENDMDL
MODEL 7
REMARK VINA RESULT:    -3.628      1.258      6.005
REMARK INTER + INTRA:          -4.414
REMARK INTER:                  -4.268
REMARK INTRA:                  -0.146
REMARK UNBOUND:                -0.151
REMARK SMILES O=C([O-])C=Cc1ccc(O)c(O)c1
REMARK SMILES IDX 6 1 13 2 7 3 11 4 8 5 9 6 5 7 4 8 2 9 1 10 3 11 12 12 10 14
REMARK H PARENT 12 13 10 15
REMARK Flexibility Score: inf
ROOT
ATOM      1  C   UNL     1      11.065 -16.276   7.869  1.00  0.00    -0.022 A 
ATOM      2  C   UNL     1       9.694 -15.993   7.705  1.00  0.00     0.058 A 
ATOM      3  C   UNL     1      11.441 -17.524   8.390  1.00  0.00     0.012 A 
ATOM      4  C   UNL     1       8.721 -16.934   8.079  1.00  0.00     0.157 A 
ATOM      5  C   UNL     1      10.474 -18.460   8.764  1.00  0.00     0.051 A 
ATOM      6  C   UNL     1       9.115 -18.170   8.614  1.00  0.00     0.157 A 
ENDROOT
BRANCH   1   7
ATOM      7  C   UNL     1      12.129 -15.320   7.477  1.00  0.00     0.010 C 
ATOM      8  C   UNL     1      13.412 -15.441   7.848  1.00  0.00     0.025 C 
BRANCH   8   9
ATOM      9  C   UNL     1      14.445 -14.478   7.429  1.00  0.00     0.064 C 
ATOM     10  O   UNL     1      15.101 -14.646   6.366  1.00  0.00    -0.545 OA
ATOM     11  O   UNL     1      14.701 -13.366   8.220  1.00  0.00    -0.545 OA
ENDBRANCH   8   9
ENDBRANCH   1   7
BRANCH   4  12
ATOM     12  O   UNL     1       7.368 -16.644   7.916  1.00  0.00    -0.504 OA
ATOM     13  H   UNL     1       6.777 -16.403   8.703  1.00  0.00     0.293 HD
ENDBRANCH   4  12
BRANCH   6  14
ATOM     14  O   UNL     1       8.172 -19.124   8.999  1.00  0.00    -0.504 OA
ATOM     15  H   UNL     1       8.144 -19.504   9.937  1.00  0.00     0.293 HD
ENDBRANCH   6  14
TORSDOF 4
ENDMDL
MODEL 8
REMARK VINA RESULT:    -3.482      2.134      6.202
REMARK INTER + INTRA:          -4.243
REMARK INTER:                  -4.091
REMARK INTRA:                  -0.153
REMARK UNBOUND:                -0.151
REMARK SMILES O=C([O-])C=Cc1ccc(O)c(O)c1
REMARK SMILES IDX 6 1 13 2 7 3 11 4 8 5 9 6 5 7 4 8 2 9 1 10 3 11 12 12 10 14
REMARK H PARENT 12 13 10 15
REMARK Flexibility Score: inf
ROOT
ATOM      1  C   UNL     1       9.372 -17.830   7.949  1.00  0.00    -0.022 A 
ATOM      2  C   UNL     1       8.268 -18.707   7.961  1.00  0.00     0.058 A 
ATOM      3  C   UNL     1       9.186 -16.501   8.360  1.00  0.00     0.012 A 
ATOM      4  C   UNL     1       6.999 -18.251   8.353  1.00  0.00     0.157 A 
ATOM      5  C   UNL     1       7.923 -16.046   8.749  1.00  0.00     0.051 A 
ATOM      6  C   UNL     1       6.828 -16.914   8.745  1.00  0.00     0.157 A 
ENDROOT
BRANCH   1   7
ATOM      7  C   UNL     1      10.734 -18.267   7.555  1.00  0.00     0.010 C 
ATOM      8  C   UNL     1      11.801 -17.457   7.542  1.00  0.00     0.025 C 
BRANCH   8   9
ATOM      9  C   UNL     1      13.142 -17.929   7.156  1.00  0.00     0.064 C 
ATOM     10  O   UNL     1      13.574 -19.049   7.538  1.00  0.00    -0.545 OA
ATOM     11  O   UNL     1      13.944 -17.125   6.357  1.00  0.00    -0.545 OA
ENDBRANCH   8   9
ENDBRANCH   1   7
BRANCH   4  12
ATOM     12  O   UNL     1       5.913 -19.124   8.357  1.00  0.00    -0.504 OA
ATOM     13  H   UNL     1       5.542 -19.517   7.500  1.00  0.00     0.293 HD
ENDBRANCH   4  12
BRANCH   6  14
ATOM     14  O   UNL     1       5.579 -16.431   9.136  1.00  0.00    -0.504 OA
ATOM     15  H   UNL     1       4.942 -15.995   8.480  1.00  0.00     0.293 HD
ENDBRANCH   6  14
TORSDOF 4
ENDMDL
