MODEL 1
REMARK VINA RESULT:    -5.147      0.000      0.000
REMARK INTER + INTRA:          -5.448
REMARK INTER:                  -5.448
REMARK INTRA:                   0.000
REMARK UNBOUND:                 0.000
REMARK SMILES O=c1ccc2cc(O)c(O)cc2o1
REMARK SMILES IDX 4 1 3 2 2 3 1 4 13 5 12 6 11 7 9 8 7 9 6 10 5 11 8 12 10 14
REMARK H PARENT 8 13 10 15
REMARK Flexibility Score: inf
ROOT
ATOM      1  C   UNL     1      16.882  41.846  37.965  1.00  0.00     0.019 A 
ATOM      2  C   UNL     1      16.881  42.111  39.334  1.00  0.00     0.094 A 
ATOM      3  C   UNL     1      16.855  41.038  40.232  1.00  0.00     0.336 A 
ATOM      4  O   UNL     1      16.853  41.255  41.471  1.00  0.00    -0.246 OA
ATOM      5  O   UNL     1      16.831  39.785  39.784  1.00  0.00    -0.423 OA
ATOM      6  C   UNL     1      16.831  39.489  38.485  1.00  0.00     0.142 A 
ATOM      7  C   UNL     1      16.806  38.153  38.073  1.00  0.00     0.098 A 
ATOM      8  C   UNL     1      16.806  37.836  36.707  1.00  0.00     0.161 A 
ATOM      9  C   UNL     1      16.831  38.861  35.749  1.00  0.00     0.158 A 
ATOM     10  C   UNL     1      16.857  40.202  36.157  1.00  0.00     0.062 A 
ATOM     11  C   UNL     1      16.857  40.520  37.522  1.00  0.00     0.022 A 
ENDROOT
BRANCH   9  12
ATOM     12  O   UNL     1      16.831  38.537  34.393  1.00  0.00    -0.504 OA
ATOM     13  H   UNL     1      16.189  38.975  33.744  1.00  0.00     0.293 HD
ENDBRANCH   9  12
BRANCH   8  14
ATOM     14  O   UNL     1      16.781  36.506  36.292  1.00  0.00    -0.504 OA
ATOM     15  H   UNL     1      15.959  35.927  36.418  1.00  0.00     0.293 HD
ENDBRANCH   8  14
TORSDOF 2
ENDMDL
MODEL 2
REMARK VINA RESULT:    -4.914     14.614     15.768
REMARK INTER + INTRA:          -5.202
REMARK INTER:                  -5.202
REMARK INTRA:                   0.000
REMARK UNBOUND:                 0.000
REMARK SMILES O=c1ccc2cc(O)c(O)cc2o1
REMARK SMILES IDX 4 1 3 2 2 3 1 4 13 5 12 6 11 7 9 8 7 9 6 10 5 11 8 12 10 14
REMARK H PARENT 8 13 10 15
REMARK Flexibility Score: inf
ROOT
ATOM      1  C   UNL     1       6.042  35.285  25.857  1.00  0.00     0.019 A 
ATOM      2  C   UNL     1       6.966  36.265  25.494  1.00  0.00     0.094 A 
ATOM      3  C   UNL     1       8.229  36.262  26.096  1.00  0.00     0.336 A 
ATOM      4  O   UNL     1       9.077  37.137  25.782  1.00  0.00    -0.246 OA
ATOM      5  O   UNL     1       8.542  35.337  27.001  1.00  0.00    -0.423 OA
ATOM      6  C   UNL     1       7.690  34.385  27.376  1.00  0.00     0.142 A 
ATOM      7  C   UNL     1       8.075  33.440  28.331  1.00  0.00     0.098 A 
ATOM      8  C   UNL     1       7.181  32.434  28.729  1.00  0.00     0.161 A 
ATOM      9  C   UNL     1       5.896  32.376  28.168  1.00  0.00     0.158 A 
ATOM     10  C   UNL     1       5.505  33.321  27.209  1.00  0.00     0.062 A 
ATOM     11  C   UNL     1       6.398  34.326  26.811  1.00  0.00     0.022 A 
ENDROOT
BRANCH   9  12
ATOM     12  O   UNL     1       5.014  31.374  28.570  1.00  0.00    -0.504 OA
ATOM     13  H   UNL     1       4.097  31.277  28.152  1.00  0.00     0.293 HD
ENDBRANCH   9  12
BRANCH   8  14
ATOM     14  O   UNL     1       7.561  31.491  29.681  1.00  0.00    -0.504 OA
ATOM     15  H   UNL     1       7.861  30.561  29.415  1.00  0.00     0.293 HD
ENDBRANCH   8  14
TORSDOF 2
ENDMDL
MODEL 3
REMARK VINA RESULT:    -4.831     14.674     15.717
REMARK INTER + INTRA:          -5.114
REMARK INTER:                  -5.114
REMARK INTRA:                   0.000
REMARK UNBOUND:                 0.000
REMARK SMILES O=c1ccc2cc(O)c(O)cc2o1
REMARK SMILES IDX 4 1 3 2 2 3 1 4 13 5 12 6 11 7 9 8 7 9 6 10 5 11 8 12 10 14
REMARK H PARENT 8 13 10 15
REMARK Flexibility Score: inf
ROOT
ATOM      1  C   UNL     1       8.217  33.537  27.009  1.00  0.00     0.019 A 
ATOM      2  C   UNL     1       7.076  32.874  27.460  1.00  0.00     0.094 A 
ATOM      3  C   UNL     1       5.866  33.574  27.528  1.00  0.00     0.336 A 
ATOM      4  O   UNL     1       4.826  32.994  27.932  1.00  0.00    -0.246 OA
ATOM      5  O   UNL     1       5.807  34.854  27.168  1.00  0.00    -0.423 OA
ATOM      6  C   UNL     1       6.873  35.525  26.732  1.00  0.00     0.142 A 
ATOM      7  C   UNL     1       6.751  36.868  26.367  1.00  0.00     0.098 A 
ATOM      8  C   UNL     1       7.869  37.580  25.907  1.00  0.00     0.161 A 
ATOM      9  C   UNL     1       9.116  36.942  25.813  1.00  0.00     0.158 A 
ATOM     10  C   UNL     1       9.243  35.594  26.178  1.00  0.00     0.062 A 
ATOM     11  C   UNL     1       8.126  34.883  26.637  1.00  0.00     0.022 A 
ENDROOT
BRANCH   9  12
ATOM     12  O   UNL     1      10.222  37.656  25.356  1.00  0.00    -0.504 OA
ATOM     13  H   UNL     1      10.274  38.664  25.439  1.00  0.00     0.293 HD
ENDBRANCH   9  12
BRANCH   8  14
ATOM     14  O   UNL     1       7.752  38.919  25.542  1.00  0.00    -0.504 OA
ATOM     15  H   UNL     1       7.178  39.206  24.758  1.00  0.00     0.293 HD
ENDBRANCH   8  14
TORSDOF 2
ENDMDL
MODEL 4
REMARK VINA RESULT:    -4.825     14.705     16.166
REMARK INTER + INTRA:          -5.107
REMARK INTER:                  -5.107
REMARK INTRA:                   0.000
REMARK UNBOUND:                 0.000
REMARK SMILES O=c1ccc2cc(O)c(O)cc2o1
REMARK SMILES IDX 4 1 3 2 2 3 1 4 13 5 12 6 11 7 9 8 7 9 6 10 5 11 8 12 10 14
REMARK H PARENT 8 13 10 15
REMARK Flexibility Score: inf
ROOT
ATOM      1  C   UNL     1       8.571  35.355  26.705  1.00  0.00     0.019 A 
ATOM      2  C   UNL     1       8.144  36.213  25.692  1.00  0.00     0.094 A 
ATOM      3  C   UNL     1       6.850  36.066  25.179  1.00  0.00     0.336 A 
ATOM      4  O   UNL     1       6.445  36.830  24.265  1.00  0.00    -0.246 OA
ATOM      5  O   UNL     1       6.042  35.120  25.652  1.00  0.00    -0.423 OA
ATOM      6  C   UNL     1       6.410  34.280  26.618  1.00  0.00     0.142 A 
ATOM      7  C   UNL     1       5.518  33.306  27.075  1.00  0.00     0.098 A 
ATOM      8  C   UNL     1       5.901  32.419  28.092  1.00  0.00     0.161 A 
ATOM      9  C   UNL     1       7.184  32.508  28.654  1.00  0.00     0.158 A 
ATOM     10  C   UNL     1       8.083  33.484  28.199  1.00  0.00     0.062 A 
ATOM     11  C   UNL     1       7.701  34.370  27.183  1.00  0.00     0.022 A 
ENDROOT
BRANCH   9  12
ATOM     12  O   UNL     1       7.557  31.623  29.664  1.00  0.00    -0.504 OA
ATOM     13  H   UNL     1       8.379  31.038  29.578  1.00  0.00     0.293 HD
ENDBRANCH   9  12
BRANCH   8  14
ATOM     14  O   UNL     1       5.014  31.448  28.551  1.00  0.00    -0.504 OA
ATOM     15  H   UNL     1       5.224  30.879  29.363  1.00  0.00     0.293 HD
ENDBRANCH   8  14
TORSDOF 2
ENDMDL
MODEL 5
REMARK VINA RESULT:    -4.750     15.188     16.287
REMARK INTER + INTRA:          -5.028
REMARK INTER:                  -5.028
REMARK INTRA:                   0.000
REMARK UNBOUND:                 0.000
REMARK SMILES O=c1ccc2cc(O)c(O)cc2o1
REMARK SMILES IDX 4 1 3 2 2 3 1 4 13 5 12 6 11 7 9 8 7 9 6 10 5 11 8 12 10 14
REMARK H PARENT 8 13 10 15
REMARK Flexibility Score: inf
ROOT
ATOM      1  C   UNL     1       8.270  34.503  26.700  1.00  0.00     0.019 A 
ATOM      2  C   UNL     1       8.501  35.802  26.249  1.00  0.00     0.094 A 
ATOM      3  C   UNL     1       7.444  36.719  26.250  1.00  0.00     0.336 A 
ATOM      4  O   UNL     1       7.632  37.896  25.847  1.00  0.00    -0.246 OA
ATOM      5  O   UNL     1       6.236  36.354  26.675  1.00  0.00    -0.423 OA
ATOM      6  C   UNL     1       5.973  35.124  27.114  1.00  0.00     0.142 A 
ATOM      7  C   UNL     1       4.685  34.799  27.548  1.00  0.00     0.098 A 
ATOM      8  C   UNL     1       4.403  33.505  28.011  1.00  0.00     0.161 A 
ATOM      9  C   UNL     1       5.414  32.533  28.039  1.00  0.00     0.158 A 
ATOM     10  C   UNL     1       6.708  32.855  27.604  1.00  0.00     0.062 A 
ATOM     11  C   UNL     1       6.991  34.147  27.141  1.00  0.00     0.022 A 
ENDROOT
BRANCH   9  12
ATOM     12  O   UNL     1       5.125  31.250  28.500  1.00  0.00    -0.504 OA
ATOM     13  H   UNL     1       4.639  30.576  27.921  1.00  0.00     0.293 HD
ENDBRANCH   9  12
BRANCH   8  14
ATOM     14  O   UNL     1       3.120  33.177  28.446  1.00  0.00    -0.504 OA
ATOM     15  H   UNL     1       2.465  32.690  27.845  1.00  0.00     0.293 HD
ENDBRANCH   8  14
TORSDOF 2
ENDMDL
MODEL 6
REMARK VINA RESULT:    -4.695     15.373     15.532
REMARK INTER + INTRA:          -4.969
REMARK INTER:                  -4.969
REMARK INTRA:                   0.000
REMARK UNBOUND:                 0.000
REMARK SMILES O=c1ccc2cc(O)c(O)cc2o1
REMARK SMILES IDX 4 1 3 2 2 3 1 4 13 5 12 6 11 7 9 8 7 9 6 10 5 11 8 12 10 14
REMARK H PARENT 8 13 10 15
REMARK Flexibility Score: inf
ROOT
ATOM      1  C   UNL     1       8.483  36.763  25.449  1.00  0.00     0.019 A 
ATOM      2  C   UNL     1       7.733  37.937  25.507  1.00  0.00     0.094 A 
ATOM      3  C   UNL     1       6.556  37.954  26.262  1.00  0.00     0.336 A 
ATOM      4  O   UNL     1       5.865  39.003  26.327  1.00  0.00    -0.246 OA
ATOM      5  O   UNL     1       6.158  36.863  26.914  1.00  0.00    -0.423 OA
ATOM      6  C   UNL     1       6.844  35.722  26.885  1.00  0.00     0.142 A 
ATOM      7  C   UNL     1       6.378  34.609  27.590  1.00  0.00     0.098 A 
ATOM      8  C   UNL     1       7.097  33.404  27.563  1.00  0.00     0.161 A 
ATOM      9  C   UNL     1       8.287  33.314  26.826  1.00  0.00     0.158 A 
ATOM     10  C   UNL     1       8.760  34.428  26.117  1.00  0.00     0.062 A 
ATOM     11  C   UNL     1       8.042  35.632  26.144  1.00  0.00     0.022 A 
ENDROOT
BRANCH   9  12
ATOM     12  O   UNL     1       8.995  32.114  26.804  1.00  0.00    -0.504 OA
ATOM     13  H   UNL     1       8.575  31.245  27.111  1.00  0.00     0.293 HD
ENDBRANCH   9  12
BRANCH   8  14
ATOM     14  O   UNL     1       6.635  32.292  28.265  1.00  0.00    -0.504 OA
ATOM     15  H   UNL     1       6.519  32.312  29.271  1.00  0.00     0.293 HD
ENDBRANCH   8  14
TORSDOF 2
ENDMDL
MODEL 7
REMARK VINA RESULT:    -4.646     14.568     15.589
REMARK INTER + INTRA:          -4.918
REMARK INTER:                  -4.918
REMARK INTRA:                   0.000
REMARK UNBOUND:                 0.000
REMARK SMILES O=c1ccc2cc(O)c(O)cc2o1
REMARK SMILES IDX 4 1 3 2 2 3 1 4 13 5 12 6 11 7 9 8 7 9 6 10 5 11 8 12 10 14
REMARK H PARENT 8 13 10 15
REMARK Flexibility Score: inf
ROOT
ATOM      1  C   UNL     1       5.651  35.148  26.759  1.00  0.00     0.019 A 
ATOM      2  C   UNL     1       5.763  33.968  27.494  1.00  0.00     0.094 A 
ATOM      3  C   UNL     1       7.038  33.484  27.809  1.00  0.00     0.336 A 
ATOM      4  O   UNL     1       7.160  32.421  28.472  1.00  0.00    -0.246 OA
ATOM      5  O   UNL     1       8.125  34.141  27.413  1.00  0.00    -0.423 OA
ATOM      6  C   UNL     1       8.062  35.271  26.710  1.00  0.00     0.142 A 
ATOM      7  C   UNL     1       9.239  35.918  26.321  1.00  0.00     0.098 A 
ATOM      8  C   UNL     1       9.178  37.108  25.580  1.00  0.00     0.161 A 
ATOM      9  C   UNL     1       7.934  37.652  25.228  1.00  0.00     0.158 A 
ATOM     10  C   UNL     1       6.751  37.007  25.616  1.00  0.00     0.062 A 
ATOM     11  C   UNL     1       6.811  35.818  26.356  1.00  0.00     0.022 A 
ENDROOT
BRANCH   9  12
ATOM     12  O   UNL     1       7.883  38.835  24.492  1.00  0.00    -0.504 OA
ATOM     13  H   UNL     1       7.822  38.827  23.481  1.00  0.00     0.293 HD
ENDBRANCH   9  12
BRANCH   8  14
ATOM     14  O   UNL     1      10.349  37.756  25.191  1.00  0.00    -0.504 OA
ATOM     15  H   UNL     1      11.226  37.257  25.101  1.00  0.00     0.293 HD
ENDBRANCH   8  14
TORSDOF 2
ENDMDL
MODEL 8
REMARK VINA RESULT:    -4.563     14.766     16.657
REMARK INTER + INTRA:          -4.830
REMARK INTER:                  -4.830
REMARK INTRA:                   0.000
REMARK UNBOUND:                 0.000
REMARK SMILES O=c1ccc2cc(O)c(O)cc2o1
REMARK SMILES IDX 4 1 3 2 2 3 1 4 13 5 12 6 11 7 9 8 7 9 6 10 5 11 8 12 10 14
REMARK H PARENT 8 13 10 15
REMARK Flexibility Score: inf
ROOT
ATOM      1  C   UNL     1       7.758  34.505  24.245  1.00  0.00     0.019 A 
ATOM      2  C   UNL     1       8.691  35.474  24.614  1.00  0.00     0.094 A 
ATOM      3  C   UNL     1       8.946  35.688  25.972  1.00  0.00     0.336 A 
ATOM      4  O   UNL     1       9.784  36.557  26.326  1.00  0.00    -0.246 OA
ATOM      5  O   UNL     1       8.305  34.977  26.898  1.00  0.00    -0.423 OA
ATOM      6  C   UNL     1       7.407  34.043  26.589  1.00  0.00     0.142 A 
ATOM      7  C   UNL     1       6.766  33.328  27.605  1.00  0.00     0.098 A 
ATOM      8  C   UNL     1       5.819  32.344  27.285  1.00  0.00     0.161 A 
ATOM      9  C   UNL     1       5.513  32.075  25.942  1.00  0.00     0.158 A 
ATOM     10  C   UNL     1       6.154  32.789  24.920  1.00  0.00     0.062 A 
ATOM     11  C   UNL     1       7.099  33.773  25.239  1.00  0.00     0.022 A 
ENDROOT
BRANCH   9  12
ATOM     12  O   UNL     1       4.570  31.095  25.633  1.00  0.00    -0.504 OA
ATOM     13  H   UNL     1       3.696  31.022  26.140  1.00  0.00     0.293 HD
ENDBRANCH   9  12
BRANCH   8  14
ATOM     14  O   UNL     1       5.178  31.628  28.294  1.00  0.00    -0.504 OA
ATOM     15  H   UNL     1       4.250  31.879  28.614  1.00  0.00     0.293 HD
ENDBRANCH   8  14
TORSDOF 2
ENDMDL
MODEL 9
REMARK VINA RESULT:    -4.353     14.911     15.727
REMARK INTER + INTRA:          -4.607
REMARK INTER:                  -4.607
REMARK INTRA:                   0.000
REMARK UNBOUND:                 0.000
REMARK SMILES O=c1ccc2cc(O)c(O)cc2o1
REMARK SMILES IDX 4 1 3 2 2 3 1 4 13 5 12 6 11 7 9 8 7 9 6 10 5 11 8 12 10 14
REMARK H PARENT 8 13 10 15
REMARK Flexibility Score: inf
ROOT
ATOM      1  C   UNL     1       6.876  36.251  24.974  1.00  0.00     0.019 A 
ATOM      2  C   UNL     1       6.051  37.272  25.445  1.00  0.00     0.094 A 
ATOM      3  C   UNL     1       5.640  37.250  26.782  1.00  0.00     0.336 A 
ATOM      4  O   UNL     1       4.895  38.162  27.226  1.00  0.00    -0.246 OA
ATOM      5  O   UNL     1       6.030  36.268  27.591  1.00  0.00    -0.423 OA
ATOM      6  C   UNL     1       6.817  35.274  27.182  1.00  0.00     0.142 A 
ATOM      7  C   UNL     1       7.195  34.269  28.076  1.00  0.00     0.098 A 
ATOM      8  C   UNL     1       8.024  33.220  27.651  1.00  0.00     0.161 A 
ATOM      9  C   UNL     1       8.476  33.177  26.323  1.00  0.00     0.158 A 
ATOM     10  C   UNL     1       8.100  34.184  25.421  1.00  0.00     0.062 A 
ATOM     11  C   UNL     1       7.271  35.232  25.846  1.00  0.00     0.022 A 
ENDROOT
BRANCH   9  12
ATOM     12  O   UNL     1       9.299  32.132  25.908  1.00  0.00    -0.504 OA
ATOM     13  H   UNL     1       9.171  31.188  26.254  1.00  0.00     0.293 HD
ENDBRANCH   9  12
BRANCH   8  14
ATOM     14  O   UNL     1       8.404  32.217  28.540  1.00  0.00    -0.504 OA
ATOM     15  H   UNL     1       9.229  31.652  28.381  1.00  0.00     0.293 HD
ENDBRANCH   8  14
TORSDOF 2
ENDMDL
