MODEL 1
REMARK VINA RESULT:    -3.830      0.000      0.000
REMARK INTER + INTRA:          -4.209
REMARK INTER:                  -4.166
REMARK INTRA:                  -0.043
REMARK UNBOUND:                -0.043
REMARK SMILES COc1cc2ccc(=O)oc2cc1O
REMARK SMILES IDX 3 1 13 2 12 3 11 4 5 5 4 6 6 7 7 8 8 9 9 10 10 11 2 12 1 13
REMARK SMILES IDX 14 14
REMARK H PARENT 14 15
REMARK Flexibility Score: inf
ROOT
ATOM      1  C   UNL     1      24.811   8.216  18.829  1.00  0.00     0.161 A 
ATOM      2  C   UNL     1      26.052   7.864  18.263  1.00  0.00     0.161 A 
ATOM      3  C   UNL     1      26.102   7.119  17.080  1.00  0.00     0.098 A 
ATOM      4  C   UNL     1      24.923   6.715  16.448  1.00  0.00     0.142 A 
ATOM      5  C   UNL     1      23.676   7.062  17.006  1.00  0.00     0.022 A 
ATOM      6  C   UNL     1      23.621   7.809  18.191  1.00  0.00     0.062 A 
ATOM      7  C   UNL     1      22.513   6.644  16.350  1.00  0.00     0.019 A 
ATOM      8  C   UNL     1      22.619   5.903  15.173  1.00  0.00     0.094 A 
ATOM      9  C   UNL     1      23.892   5.596  14.679  1.00  0.00     0.336 A 
ATOM     10  O   UNL     1      24.009   4.928  13.619  1.00  0.00    -0.246 OA
ATOM     11  O   UNL     1      24.981   6.007  15.323  1.00  0.00    -0.423 OA
ENDROOT
BRANCH   1  12
ATOM     12  O   UNL     1      24.798   8.964  20.017  1.00  0.00    -0.493 OA
ATOM     13  C   UNL     1      23.623   9.483  20.631  1.00  0.00     0.278 C 
ENDBRANCH   1  12
BRANCH   2  14
ATOM     14  O   UNL     1      27.251   8.248  18.864  1.00  0.00    -0.504 OA
ATOM     15  H   UNL     1      27.727   9.108  18.620  1.00  0.00     0.293 HD
ENDBRANCH   2  14
TORSDOF 2
ENDMDL
MODEL 2
REMARK VINA RESULT:    -3.786      2.061      2.807
REMARK INTER + INTRA:          -4.162
REMARK INTER:                  -4.096
REMARK INTRA:                  -0.065
REMARK UNBOUND:                -0.043
REMARK SMILES COc1cc2ccc(=O)oc2cc1O
REMARK SMILES IDX 3 1 13 2 12 3 11 4 5 5 4 6 6 7 7 8 8 9 9 10 10 11 2 12 1 13
REMARK SMILES IDX 14 14
REMARK H PARENT 14 15
REMARK Flexibility Score: inf
ROOT
ATOM      1  C   UNL     1      25.412   7.900  18.158  1.00  0.00     0.161 A 
ATOM      2  C   UNL     1      25.553   7.218  16.934  1.00  0.00     0.161 A 
ATOM      3  C   UNL     1      24.422   6.842  16.201  1.00  0.00     0.098 A 
ATOM      4  C   UNL     1      23.142   7.139  16.675  1.00  0.00     0.142 A 
ATOM      5  C   UNL     1      22.989   7.822  17.899  1.00  0.00     0.022 A 
ATOM      6  C   UNL     1      24.120   8.200  18.636  1.00  0.00     0.062 A 
ATOM      7  C   UNL     1      21.694   8.105  18.346  1.00  0.00     0.019 A 
ATOM      8  C   UNL     1      20.601   7.708  17.577  1.00  0.00     0.094 A 
ATOM      9  C   UNL     1      20.830   7.034  16.372  1.00  0.00     0.336 A 
ATOM     10  O   UNL     1      19.857   6.668  15.663  1.00  0.00    -0.246 OA
ATOM     11  O   UNL     1      22.072   6.778  15.970  1.00  0.00    -0.423 OA
ENDROOT
BRANCH   1  12
ATOM     12  O   UNL     1      26.568   8.261  18.868  1.00  0.00    -0.493 OA
ATOM     13  C   UNL     1      27.111   7.523  19.958  1.00  0.00     0.278 C 
ENDBRANCH   1  12
BRANCH   2  14
ATOM     14  O   UNL     1      26.815   6.903  16.428  1.00  0.00    -0.504 OA
ATOM     15  H   UNL     1      27.356   7.561  15.880  1.00  0.00     0.293 HD
ENDBRANCH   2  14
TORSDOF 2
ENDMDL
MODEL 3
REMARK VINA RESULT:    -3.638      1.542      4.683
REMARK INTER + INTRA:          -4.001
REMARK INTER:                  -3.956
REMARK INTRA:                  -0.045
REMARK UNBOUND:                -0.043
REMARK SMILES COc1cc2ccc(=O)oc2cc1O
REMARK SMILES IDX 3 1 13 2 12 3 11 4 5 5 4 6 6 7 7 8 8 9 9 10 10 11 2 12 1 13
REMARK SMILES IDX 14 14
REMARK H PARENT 14 15
REMARK Flexibility Score: inf
ROOT
ATOM      1  C   UNL     1      24.485   6.562  15.910  1.00  0.00     0.161 A 
ATOM      2  C   UNL     1      25.522   7.104  16.695  1.00  0.00     0.161 A 
ATOM      3  C   UNL     1      25.225   7.814  17.864  1.00  0.00     0.098 A 
ATOM      4  C   UNL     1      23.899   7.993  18.265  1.00  0.00     0.142 A 
ATOM      5  C   UNL     1      22.854   7.454  17.487  1.00  0.00     0.022 A 
ATOM      6  C   UNL     1      23.147   6.742  16.315  1.00  0.00     0.062 A 
ATOM      7  C   UNL     1      21.536   7.650  17.915  1.00  0.00     0.019 A 
ATOM      8  C   UNL     1      21.296   8.365  19.087  1.00  0.00     0.094 A 
ATOM      9  C   UNL     1      22.384   8.870  19.808  1.00  0.00     0.336 A 
ATOM     10  O   UNL     1      22.188   9.518  20.869  1.00  0.00    -0.246 OA
ATOM     11  O   UNL     1      23.627   8.669  19.378  1.00  0.00    -0.423 OA
ENDROOT
BRANCH   1  12
ATOM     12  O   UNL     1      24.819   5.857  14.743  1.00  0.00    -0.493 OA
ATOM     13  C   UNL     1      23.987   4.881  14.123  1.00  0.00     0.278 C 
ENDBRANCH   1  12
BRANCH   2  14
ATOM     14  O   UNL     1      26.859   6.947  16.327  1.00  0.00    -0.504 OA
ATOM     15  H   UNL     1      27.348   6.066  16.430  1.00  0.00     0.293 HD
ENDBRANCH   2  14
TORSDOF 2
ENDMDL
MODEL 4
REMARK VINA RESULT:    -3.615      4.988      5.991
REMARK INTER + INTRA:          -3.976
REMARK INTER:                  -3.913
REMARK INTRA:                  -0.063
REMARK UNBOUND:                -0.043
REMARK SMILES COc1cc2ccc(=O)oc2cc1O
REMARK SMILES IDX 3 1 13 2 12 3 11 4 5 5 4 6 6 7 7 8 8 9 9 10 10 11 2 12 1 13
REMARK SMILES IDX 14 14
REMARK H PARENT 14 15
REMARK Flexibility Score: inf
ROOT
ATOM      1  C   UNL     1      20.598  11.437  17.205  1.00  0.00     0.161 A 
ATOM      2  C   UNL     1      19.204  11.536  17.031  1.00  0.00     0.161 A 
ATOM      3  C   UNL     1      18.461  10.417  16.637  1.00  0.00     0.098 A 
ATOM      4  C   UNL     1      19.093   9.192  16.412  1.00  0.00     0.142 A 
ATOM      5  C   UNL     1      20.489   9.082  16.584  1.00  0.00     0.022 A 
ATOM      6  C   UNL     1      21.236  10.200  16.979  1.00  0.00     0.062 A 
ATOM      7  C   UNL     1      21.092   7.842  16.352  1.00  0.00     0.019 A 
ATOM      8  C   UNL     1      20.306   6.759  15.961  1.00  0.00     0.094 A 
ATOM      9  C   UNL     1      18.927   6.943  15.810  1.00  0.00     0.336 A 
ATOM     10  O   UNL     1      18.199   5.979  15.458  1.00  0.00    -0.246 OA
ATOM     11  O   UNL     1      18.378   8.134  16.038  1.00  0.00    -0.423 OA
ENDROOT
BRANCH   1  12
ATOM     12  O   UNL     1      21.313  12.579  17.601  1.00  0.00    -0.493 OA
ATOM     13  C   UNL     1      21.651  12.894  18.948  1.00  0.00     0.278 C 
ENDBRANCH   1  12
BRANCH   2  14
ATOM     14  O   UNL     1      18.537  12.742  17.246  1.00  0.00    -0.504 OA
ATOM     15  H   UNL     1      18.852  13.614  16.838  1.00  0.00     0.293 HD
ENDBRANCH   2  14
TORSDOF 2
ENDMDL
MODEL 5
REMARK VINA RESULT:    -3.537      4.644      6.785
REMARK INTER + INTRA:          -3.890
REMARK INTER:                  -3.841
REMARK INTRA:                  -0.050
REMARK UNBOUND:                -0.043
REMARK SMILES COc1cc2ccc(=O)oc2cc1O
REMARK SMILES IDX 3 1 13 2 12 3 11 4 5 5 4 6 6 7 7 8 8 9 9 10 10 11 2 12 1 13
REMARK SMILES IDX 14 14
REMARK H PARENT 14 15
REMARK Flexibility Score: inf
ROOT
ATOM      1  C   UNL     1      20.878   6.824  16.200  1.00  0.00     0.161 A 
ATOM      2  C   UNL     1      19.508   6.681  15.904  1.00  0.00     0.161 A 
ATOM      3  C   UNL     1      18.644   7.776  16.015  1.00  0.00     0.098 A 
ATOM      4  C   UNL     1      19.129   9.021  16.421  1.00  0.00     0.142 A 
ATOM      5  C   UNL     1      20.499   9.176  16.719  1.00  0.00     0.022 A 
ATOM      6  C   UNL     1      21.368   8.081  16.609  1.00  0.00     0.062 A 
ATOM      7  C   UNL     1      20.955  10.435  17.122  1.00  0.00     0.019 A 
ATOM      8  C   UNL     1      20.051  11.493  17.217  1.00  0.00     0.094 A 
ATOM      9  C   UNL     1      18.706  11.265  16.905  1.00  0.00     0.336 A 
ATOM     10  O   UNL     1      17.875  12.206  16.983  1.00  0.00    -0.246 OA
ATOM     11  O   UNL     1      18.300  10.057  16.523  1.00  0.00    -0.423 OA
ENDROOT
BRANCH   1  12
ATOM     12  O   UNL     1      21.716   5.704  16.079  1.00  0.00    -0.493 OA
ATOM     13  C   UNL     1      23.007   5.723  15.477  1.00  0.00     0.278 C 
ENDBRANCH   1  12
BRANCH   2  14
ATOM     14  O   UNL     1      18.985   5.453  15.496  1.00  0.00    -0.504 OA
ATOM     15  H   UNL     1      18.968   4.644  16.105  1.00  0.00     0.293 HD
ENDBRANCH   2  14
TORSDOF 2
ENDMDL
MODEL 6
REMARK VINA RESULT:    -3.438      3.784      5.057
REMARK INTER + INTRA:          -3.783
REMARK INTER:                  -3.719
REMARK INTRA:                  -0.064
REMARK UNBOUND:                -0.043
REMARK SMILES COc1cc2ccc(=O)oc2cc1O
REMARK SMILES IDX 3 1 13 2 12 3 11 4 5 5 4 6 6 7 7 8 8 9 9 10 10 11 2 12 1 13
REMARK SMILES IDX 14 14
REMARK H PARENT 14 15
REMARK Flexibility Score: inf
ROOT
ATOM      1  C   UNL     1      19.690   9.280  16.911  1.00  0.00     0.161 A 
ATOM      2  C   UNL     1      19.180   8.381  15.954  1.00  0.00     0.161 A 
ATOM      3  C   UNL     1      19.980   7.342  15.465  1.00  0.00     0.098 A 
ATOM      4  C   UNL     1      21.292   7.186  15.920  1.00  0.00     0.142 A 
ATOM      5  C   UNL     1      21.813   8.081  16.878  1.00  0.00     0.022 A 
ATOM      6  C   UNL     1      21.014   9.123  17.370  1.00  0.00     0.062 A 
ATOM      7  C   UNL     1      23.129   7.898  17.313  1.00  0.00     0.019 A 
ATOM      8  C   UNL     1      23.883   6.847  16.793  1.00  0.00     0.094 A 
ATOM      9  C   UNL     1      23.300   5.999  15.846  1.00  0.00     0.336 A 
ATOM     10  O   UNL     1      23.964   5.044  15.365  1.00  0.00    -0.246 OA
ATOM     11  O   UNL     1      22.045   6.195  15.449  1.00  0.00    -0.423 OA
ENDROOT
BRANCH   1  12
ATOM     12  O   UNL     1      18.860  10.311  17.380  1.00  0.00    -0.493 OA
ATOM     13  C   UNL     1      18.851  11.638  16.863  1.00  0.00     0.278 C 
ENDBRANCH   1  12
BRANCH   2  14
ATOM     14  O   UNL     1      17.875   8.504  15.476  1.00  0.00    -0.504 OA
ATOM     15  H   UNL     1      17.660   8.985  14.611  1.00  0.00     0.293 HD
ENDBRANCH   2  14
TORSDOF 2
ENDMDL
MODEL 7
REMARK VINA RESULT:    -3.431      4.612      6.837
REMARK INTER + INTRA:          -3.775
REMARK INTER:                  -3.739
REMARK INTRA:                  -0.036
REMARK UNBOUND:                -0.043
REMARK SMILES COc1cc2ccc(=O)oc2cc1O
REMARK SMILES IDX 3 1 13 2 12 3 11 4 5 5 4 6 6 7 7 8 8 9 9 10 10 11 2 12 1 13
REMARK SMILES IDX 14 14
REMARK H PARENT 14 15
REMARK Flexibility Score: inf
ROOT
ATOM      1  C   UNL     1      19.017   7.376  15.869  1.00  0.00     0.161 A 
ATOM      2  C   UNL     1      20.422   7.295  15.916  1.00  0.00     0.161 A 
ATOM      3  C   UNL     1      21.179   8.395  16.337  1.00  0.00     0.098 A 
ATOM      4  C   UNL     1      20.549   9.584  16.712  1.00  0.00     0.142 A 
ATOM      5  C   UNL     1      19.143   9.676  16.669  1.00  0.00     0.022 A 
ATOM      6  C   UNL     1      18.382   8.576  16.249  1.00  0.00     0.062 A 
ATOM      7  C   UNL     1      18.542  10.879  17.052  1.00  0.00     0.019 A 
ATOM      8  C   UNL     1      19.342  11.945  17.462  1.00  0.00     0.094 A 
ATOM      9  C   UNL     1      20.731  11.781  17.479  1.00  0.00     0.336 A 
ATOM     10  O   UNL     1      21.472  12.730  17.847  1.00  0.00    -0.246 OA
ATOM     11  O   UNL     1      21.277  10.625  17.110  1.00  0.00    -0.423 OA
ENDROOT
BRANCH   1  12
ATOM     12  O   UNL     1      18.289   6.254  15.442  1.00  0.00    -0.493 OA
ATOM     13  C   UNL     1      17.876   5.188  16.292  1.00  0.00     0.278 C 
ENDBRANCH   1  12
BRANCH   2  14
ATOM     14  O   UNL     1      21.088   6.125  15.549  1.00  0.00    -0.504 OA
ATOM     15  H   UNL     1      21.123   5.312  16.151  1.00  0.00     0.293 HD
ENDBRANCH   2  14
TORSDOF 2
ENDMDL
MODEL 8
REMARK VINA RESULT:    -3.426      3.662      5.335
REMARK INTER + INTRA:          -3.769
REMARK INTER:                  -3.707
REMARK INTRA:                  -0.063
REMARK UNBOUND:                -0.043
REMARK SMILES COc1cc2ccc(=O)oc2cc1O
REMARK SMILES IDX 3 1 13 2 12 3 11 4 5 5 4 6 6 7 7 8 8 9 9 10 10 11 2 12 1 13
REMARK SMILES IDX 14 14
REMARK H PARENT 14 15
REMARK Flexibility Score: inf
ROOT
ATOM      1  C   UNL     1      22.557   6.808  16.324  1.00  0.00     0.161 A 
ATOM      2  C   UNL     1      23.040   7.958  16.980  1.00  0.00     0.161 A 
ATOM      3  C   UNL     1      22.184   9.032  17.243  1.00  0.00     0.098 A 
ATOM      4  C   UNL     1      20.842   8.977  16.859  1.00  0.00     0.142 A 
ATOM      5  C   UNL     1      20.347   7.832  16.202  1.00  0.00     0.022 A 
ATOM      6  C   UNL     1      21.203   6.753  15.937  1.00  0.00     0.062 A 
ATOM      7  C   UNL     1      18.999   7.807  15.830  1.00  0.00     0.019 A 
ATOM      8  C   UNL     1      18.189   8.905  16.117  1.00  0.00     0.094 A 
ATOM      9  C   UNL     1      18.749  10.007  16.771  1.00  0.00     0.336 A 
ATOM     10  O   UNL     1      18.035  11.008  17.039  1.00  0.00    -0.246 OA
ATOM     11  O   UNL     1      20.035  10.005  17.114  1.00  0.00    -0.423 OA
ENDROOT
BRANCH   1  12
ATOM     12  O   UNL     1      23.444   5.749  16.075  1.00  0.00    -0.493 OA
ATOM     13  C   UNL     1      24.158   5.562  14.857  1.00  0.00     0.278 C 
ENDBRANCH   1  12
BRANCH   2  14
ATOM     14  O   UNL     1      24.374   8.050  17.379  1.00  0.00    -0.504 OA
ATOM     15  H   UNL     1      24.838   8.940  17.511  1.00  0.00     0.293 HD
ENDBRANCH   2  14
TORSDOF 2
ENDMDL
MODEL 9
REMARK VINA RESULT:    -3.408      1.568      4.704
REMARK INTER + INTRA:          -3.751
REMARK INTER:                  -3.701
REMARK INTRA:                  -0.049
REMARK UNBOUND:                -0.043
REMARK SMILES COc1cc2ccc(=O)oc2cc1O
REMARK SMILES IDX 3 1 13 2 12 3 11 4 5 5 4 6 6 7 7 8 8 9 9 10 10 11 2 12 1 13
REMARK SMILES IDX 14 14
REMARK H PARENT 14 15
REMARK Flexibility Score: inf
ROOT
ATOM      1  C   UNL     1      22.406   6.755  16.280  1.00  0.00     0.161 A 
ATOM      2  C   UNL     1      23.592   6.290  15.680  1.00  0.00     0.161 A 
ATOM      3  C   UNL     1      24.831   6.539  16.281  1.00  0.00     0.098 A 
ATOM      4  C   UNL     1      24.904   7.252  17.481  1.00  0.00     0.142 A 
ATOM      5  C   UNL     1      23.723   7.721  18.090  1.00  0.00     0.022 A 
ATOM      6  C   UNL     1      22.479   7.473  17.491  1.00  0.00     0.062 A 
ATOM      7  C   UNL     1      23.828   8.431  19.291  1.00  0.00     0.019 A 
ATOM      8  C   UNL     1      25.088   8.652  19.847  1.00  0.00     0.094 A 
ATOM      9  C   UNL     1      26.217   8.156  19.186  1.00  0.00     0.336 A 
ATOM     10  O   UNL     1      27.362   8.344  19.672  1.00  0.00    -0.246 OA
ATOM     11  O   UNL     1      26.087   7.484  18.045  1.00  0.00    -0.423 OA
ENDROOT
BRANCH   1  12
ATOM     12  O   UNL     1      21.180   6.488  15.649  1.00  0.00    -0.493 OA
ATOM     13  C   UNL     1      20.125   7.433  15.500  1.00  0.00     0.278 C 
ENDBRANCH   1  12
BRANCH   2  14
ATOM     14  O   UNL     1      23.561   5.576  14.482  1.00  0.00    -0.504 OA
ATOM     15  H   UNL     1      24.340   5.009  14.170  1.00  0.00     0.293 HD
ENDBRANCH   2  14
TORSDOF 2
ENDMDL
