MODEL 1
REMARK VINA RESULT:    -4.286      0.000      0.000
REMARK INTER + INTRA:          -5.648
REMARK INTER:                  -5.163
REMARK INTRA:                  -0.485
REMARK UNBOUND:                -0.485
REMARK SMILES O=c1c(O)c(-c2ccc(O)cc2O)oc2cc(O)cc(O)c12
REMARK SMILES IDX 5 1 3 2 2 3 1 4 22 5 20 6 19 7 17 8 16 9 15 10 14 11 6 12
REMARK SMILES IDX 8 13 7 14 9 15 11 16 12 17 10 18 13 20 4 22 21 24 18 26
REMARK H PARENT 10 19 13 21 4 23 21 25 18 27
REMARK Flexibility Score: inf
ROOT
ATOM      1  C   UNL     1      35.974  -2.806   3.756  1.00  0.00     0.184 A 
ATOM      2  C   UNL     1      35.413  -2.329   2.559  1.00  0.00     0.208 A 
ATOM      3  C   UNL     1      36.189  -2.343   1.390  1.00  0.00     0.238 A 
ATOM      4  O   UNL     1      35.662  -1.966   0.310  1.00  0.00    -0.285 OA
ATOM      5  C   UNL     1      37.523  -2.817   1.436  1.00  0.00     0.111 A 
ATOM      6  C   UNL     1      38.413  -2.840   0.320  1.00  0.00     0.134 A 
ATOM      7  C   UNL     1      39.668  -3.449   0.450  1.00  0.00     0.093 A 
ATOM      8  C   UNL     1      40.089  -3.976   1.670  1.00  0.00     0.123 A 
ATOM      9  C   UNL     1      39.250  -3.905   2.783  1.00  0.00     0.094 A 
ATOM     10  C   UNL     1      37.978  -3.337   2.674  1.00  0.00     0.146 A 
ATOM     11  O   UNL     1      37.206  -3.301   3.754  1.00  0.00    -0.451 OA
ENDROOT
BRANCH   1  12
ATOM     12  C   UNL     1      35.219  -2.797   5.031  1.00  0.00     0.063 A 
ATOM     13  C   UNL     1      34.407  -1.607   6.992  1.00  0.00     0.047 A 
ATOM     14  C   UNL     1      35.094  -1.611   5.776  1.00  0.00     0.020 A 
ATOM     15  C   UNL     1      33.845  -2.790   7.486  1.00  0.00     0.119 A 
ATOM     16  C   UNL     1      33.976  -3.977   6.761  1.00  0.00     0.093 A 
ATOM     17  C   UNL     1      34.662  -3.989   5.537  1.00  0.00     0.130 A 
BRANCH  15  18
ATOM     18  O   UNL     1      33.157  -2.797   8.698  1.00  0.00    -0.508 OA
ATOM     19  H   UNL     1      32.739  -3.643   9.065  1.00  0.00     0.293 HD
ENDBRANCH  15  18
BRANCH  17  20
ATOM     20  O   UNL     1      34.780  -5.180   4.820  1.00  0.00    -0.507 OA
ATOM     21  H   UNL     1      33.967  -5.668   4.461  1.00  0.00     0.293 HD
ENDBRANCH  17  20
ENDBRANCH   1  12
BRANCH   2  22
ATOM     22  O   UNL     1      34.090  -1.878   2.537  1.00  0.00    -0.502 OA
ATOM     23  H   UNL     1      33.845  -0.927   2.288  1.00  0.00     0.293 HD
ENDBRANCH   2  22
BRANCH   6  24
ATOM     24  O   UNL     1      38.127  -2.260  -0.920  1.00  0.00    -0.507 OA
ATOM     25  H   UNL     1      38.265  -1.288  -1.145  1.00  0.00     0.293 HD
ENDBRANCH   6  24
BRANCH   8  26
ATOM     26  O   UNL     1      41.350  -4.560   1.768  1.00  0.00    -0.508 OA
ATOM     27  H   UNL     1      41.683  -4.960   2.637  1.00  0.00     0.293 HD
ENDBRANCH   8  26
TORSDOF 6
ENDMDL
MODEL 2
REMARK VINA RESULT:    -3.927     11.031     12.811
REMARK INTER + INTRA:          -5.216
REMARK INTER:                  -4.741
REMARK INTRA:                  -0.474
REMARK UNBOUND:                -0.485
REMARK SMILES O=c1c(O)c(-c2ccc(O)cc2O)oc2cc(O)cc(O)c12
REMARK SMILES IDX 5 1 3 2 2 3 1 4 22 5 20 6 19 7 17 8 16 9 15 10 14 11 6 12
REMARK SMILES IDX 8 13 7 14 9 15 11 16 12 17 10 18 13 20 4 22 21 24 18 26
REMARK H PARENT 10 19 13 21 4 23 21 25 18 27
REMARK Flexibility Score: inf
ROOT
ATOM      1  C   UNL     1      30.250 -11.858  -0.164  1.00  0.00     0.184 A 
ATOM      2  C   UNL     1      30.550 -10.854  -1.100  1.00  0.00     0.208 A 
ATOM      3  C   UNL     1      29.496 -10.159  -1.714  1.00  0.00     0.238 A 
ATOM      4  O   UNL     1      29.771  -9.223  -2.509  1.00  0.00    -0.285 OA
ATOM      5  C   UNL     1      28.156 -10.490  -1.398  1.00  0.00     0.111 A 
ATOM      6  C   UNL     1      27.009  -9.878  -1.989  1.00  0.00     0.134 A 
ATOM      7  C   UNL     1      25.733 -10.195  -1.508  1.00  0.00     0.093 A 
ATOM      8  C   UNL     1      25.557 -11.147  -0.504  1.00  0.00     0.123 A 
ATOM      9  C   UNL     1      26.667 -11.795   0.039  1.00  0.00     0.094 A 
ATOM     10  C   UNL     1      27.956 -11.473  -0.395  1.00  0.00     0.146 A 
ATOM     11  O   UNL     1      28.985 -12.104   0.157  1.00  0.00    -0.451 OA
ENDROOT
BRANCH   1  12
ATOM     12  C   UNL     1      31.313 -12.646   0.503  1.00  0.00     0.063 A 
ATOM     13  C   UNL     1      32.873 -14.515   0.495  1.00  0.00     0.047 A 
ATOM     14  C   UNL     1      31.891 -13.754  -0.144  1.00  0.00     0.020 A 
ATOM     15  C   UNL     1      33.283 -14.187   1.792  1.00  0.00     0.119 A 
ATOM     16  C   UNL     1      32.706 -13.098   2.449  1.00  0.00     0.093 A 
ATOM     17  C   UNL     1      31.720 -12.327   1.814  1.00  0.00     0.130 A 
BRANCH  15  18
ATOM     18  O   UNL     1      34.262 -14.940   2.438  1.00  0.00    -0.508 OA
ATOM     19  H   UNL     1      34.716 -14.607   3.280  1.00  0.00     0.293 HD
ENDBRANCH  15  18
BRANCH  17  20
ATOM     20  O   UNL     1      31.156 -11.238   2.480  1.00  0.00    -0.507 OA
ATOM     21  H   UNL     1      31.423 -10.996   3.428  1.00  0.00     0.293 HD
ENDBRANCH  17  20
ENDBRANCH   1  12
BRANCH   2  22
ATOM     22  O   UNL     1      31.880 -10.537  -1.385  1.00  0.00    -0.502 OA
ATOM     23  H   UNL     1      32.539 -10.261  -0.666  1.00  0.00     0.293 HD
ENDBRANCH   2  22
BRANCH   6  24
ATOM     24  O   UNL     1      27.067  -8.981  -3.060  1.00  0.00    -0.507 OA
ATOM     25  H   UNL     1      27.256  -7.995  -2.974  1.00  0.00     0.293 HD
ENDBRANCH   6  24
BRANCH   8  26
ATOM     26  O   UNL     1      24.271 -11.449  -0.061  1.00  0.00    -0.508 OA
ATOM     27  H   UNL     1      23.516 -11.630  -0.712  1.00  0.00     0.293 HD
ENDBRANCH   8  26
TORSDOF 6
ENDMDL
MODEL 3
REMARK VINA RESULT:    -3.894      1.574      7.279
REMARK INTER + INTRA:          -5.175
REMARK INTER:                  -4.694
REMARK INTRA:                  -0.482
REMARK UNBOUND:                -0.485
REMARK SMILES O=c1c(O)c(-c2ccc(O)cc2O)oc2cc(O)cc(O)c12
REMARK SMILES IDX 5 1 3 2 2 3 1 4 22 5 20 6 19 7 17 8 16 9 15 10 14 11 6 12
REMARK SMILES IDX 8 13 7 14 9 15 11 16 12 17 10 18 13 20 4 22 21 24 18 26
REMARK H PARENT 10 19 13 21 4 23 21 25 18 27
REMARK Flexibility Score: inf
ROOT
ATOM      1  C   UNL     1      35.207  -2.816   5.026  1.00  0.00     0.184 A 
ATOM      2  C   UNL     1      34.671  -4.005   5.548  1.00  0.00     0.208 A 
ATOM      3  C   UNL     1      33.979  -3.961   6.769  1.00  0.00     0.238 A 
ATOM      4  O   UNL     1      33.453  -5.019   7.203  1.00  0.00    -0.285 OA
ATOM      5  C   UNL     1      33.849  -2.732   7.461  1.00  0.00     0.111 A 
ATOM      6  C   UNL     1      33.203  -2.579   8.725  1.00  0.00     0.134 A 
ATOM      7  C   UNL     1      33.021  -1.296   9.256  1.00  0.00     0.093 A 
ATOM      8  C   UNL     1      33.519  -0.169   8.602  1.00  0.00     0.123 A 
ATOM      9  C   UNL     1      34.204  -0.313   7.396  1.00  0.00     0.094 A 
ATOM     10  C   UNL     1      34.369  -1.577   6.823  1.00  0.00     0.146 A 
ATOM     11  O   UNL     1      35.016  -1.669   5.668  1.00  0.00    -0.451 OA
ENDROOT
BRANCH   1  12
ATOM     12  C   UNL     1      35.969  -2.794   3.755  1.00  0.00     0.063 A 
ATOM     13  C   UNL     1      38.050  -3.128   2.538  1.00  0.00     0.047 A 
ATOM     14  C   UNL     1      37.323  -3.174   3.730  1.00  0.00     0.020 A 
ATOM     15  C   UNL     1      37.438  -2.691   1.357  1.00  0.00     0.119 A 
ATOM     16  C   UNL     1      36.098  -2.298   1.374  1.00  0.00     0.093 A 
ATOM     17  C   UNL     1      35.360  -2.344   2.567  1.00  0.00     0.130 A 
BRANCH  15  18
ATOM     18  O   UNL     1      38.155  -2.641   0.163  1.00  0.00    -0.508 OA
ATOM     19  H   UNL     1      39.167  -2.646   0.152  1.00  0.00     0.293 HD
ENDBRANCH  15  18
BRANCH  17  20
ATOM     20  O   UNL     1      34.020  -1.954   2.568  1.00  0.00    -0.507 OA
ATOM     21  H   UNL     1      33.736  -1.020   2.292  1.00  0.00     0.293 HD
ENDBRANCH  17  20
ENDBRANCH   1  12
BRANCH   2  22
ATOM     22  O   UNL     1      34.801  -5.202   4.840  1.00  0.00    -0.502 OA
ATOM     23  H   UNL     1      34.075  -5.550   4.224  1.00  0.00     0.293 HD
ENDBRANCH   2  22
BRANCH   6  24
ATOM     24  O   UNL     1      32.749  -3.647   9.505  1.00  0.00    -0.507 OA
ATOM     25  H   UNL     1      32.861  -4.620   9.267  1.00  0.00     0.293 HD
ENDBRANCH   6  24
BRANCH   8  26
ATOM     26  O   UNL     1      33.334   1.091   9.168  1.00  0.00    -0.508 OA
ATOM     27  H   UNL     1      34.101   1.600   9.590  1.00  0.00     0.293 HD
ENDBRANCH   8  26
TORSDOF 6
ENDMDL
MODEL 4
REMARK VINA RESULT:    -3.890     10.676     12.208
REMARK INTER + INTRA:          -5.171
REMARK INTER:                  -4.689
REMARK INTRA:                  -0.481
REMARK UNBOUND:                -0.485
REMARK SMILES O=c1c(O)c(-c2ccc(O)cc2O)oc2cc(O)cc(O)c12
REMARK SMILES IDX 5 1 3 2 2 3 1 4 22 5 20 6 19 7 17 8 16 9 15 10 14 11 6 12
REMARK SMILES IDX 8 13 7 14 9 15 11 16 12 17 10 18 13 20 4 22 21 24 18 26
REMARK H PARENT 10 19 13 21 4 23 21 25 18 27
REMARK Flexibility Score: inf
ROOT
ATOM      1  C   UNL     1      30.163 -11.362  -0.468  1.00  0.00     0.184 A 
ATOM      2  C   UNL     1      30.936 -12.361  -1.084  1.00  0.00     0.208 A 
ATOM      3  C   UNL     1      31.783 -13.151  -0.292  1.00  0.00     0.238 A 
ATOM      4  O   UNL     1      32.430 -14.081  -0.841  1.00  0.00    -0.285 OA
ATOM      5  C   UNL     1      31.862 -12.919   1.103  1.00  0.00     0.111 A 
ATOM      6  C   UNL     1      32.716 -13.634   1.996  1.00  0.00     0.134 A 
ATOM      7  C   UNL     1      32.618 -13.407   3.375  1.00  0.00     0.093 A 
ATOM      8  C   UNL     1      31.744 -12.448   3.887  1.00  0.00     0.123 A 
ATOM      9  C   UNL     1      30.947 -11.702   3.017  1.00  0.00     0.094 A 
ATOM     10  C   UNL     1      30.997 -11.932   1.641  1.00  0.00     0.146 A 
ATOM     11  O   UNL     1      30.213 -11.209   0.850  1.00  0.00    -0.451 OA
ENDROOT
BRANCH   1  12
ATOM     12  C   UNL     1      29.267 -10.476  -1.248  1.00  0.00     0.063 A 
ATOM     13  C   UNL     1      28.945  -8.541  -2.689  1.00  0.00     0.047 A 
ATOM     14  C   UNL     1      29.792  -9.393  -1.976  1.00  0.00     0.020 A 
ATOM     15  C   UNL     1      27.562  -8.752  -2.675  1.00  0.00     0.119 A 
ATOM     16  C   UNL     1      27.028  -9.816  -1.944  1.00  0.00     0.093 A 
ATOM     17  C   UNL     1      27.872 -10.678  -1.227  1.00  0.00     0.130 A 
BRANCH  15  18
ATOM     18  O   UNL     1      26.708  -7.907  -3.382  1.00  0.00    -0.508 OA
ATOM     19  H   UNL     1      25.701  -7.975  -3.292  1.00  0.00     0.293 HD
ENDBRANCH  15  18
BRANCH  17  20
ATOM     20  O   UNL     1      27.326 -11.740  -0.506  1.00  0.00    -0.507 OA
ATOM     21  H   UNL     1      26.445 -12.166  -0.769  1.00  0.00     0.293 HD
ENDBRANCH  17  20
ENDBRANCH   1  12
BRANCH   2  22
ATOM     22  O   UNL     1      30.831 -12.579  -2.460  1.00  0.00    -0.502 OA
ATOM     23  H   UNL     1      30.762 -11.819  -3.127  1.00  0.00     0.293 HD
ENDBRANCH   2  22
BRANCH   6  24
ATOM     24  O   UNL     1      33.689 -14.549   1.582  1.00  0.00    -0.507 OA
ATOM     25  H   UNL     1      34.557 -14.300   1.133  1.00  0.00     0.293 HD
ENDBRANCH   6  24
BRANCH   8  26
ATOM     26  O   UNL     1      31.684 -12.238   5.263  1.00  0.00    -0.508 OA
ATOM     27  H   UNL     1      31.413 -11.343   5.650  1.00  0.00     0.293 HD
ENDBRANCH   8  26
TORSDOF 6
ENDMDL
MODEL 5
REMARK VINA RESULT:    -3.861      1.395      2.975
REMARK INTER + INTRA:          -5.135
REMARK INTER:                  -4.713
REMARK INTRA:                  -0.422
REMARK UNBOUND:                -0.485
REMARK SMILES O=c1c(O)c(-c2ccc(O)cc2O)oc2cc(O)cc(O)c12
REMARK SMILES IDX 5 1 3 2 2 3 1 4 22 5 20 6 19 7 17 8 16 9 15 10 14 11 6 12
REMARK SMILES IDX 8 13 7 14 9 15 11 16 12 17 10 18 13 20 4 22 21 24 18 26
REMARK H PARENT 10 19 13 21 4 23 21 25 18 27
REMARK Flexibility Score: inf
ROOT
ATOM      1  C   UNL     1      36.126  -2.935   4.770  1.00  0.00     0.184 A 
ATOM      2  C   UNL     1      37.514  -2.940   4.993  1.00  0.00     0.208 A 
ATOM      3  C   UNL     1      38.379  -2.745   3.905  1.00  0.00     0.238 A 
ATOM      4  O   UNL     1      39.618  -2.695   4.119  1.00  0.00    -0.285 OA
ATOM      5  C   UNL     1      37.845  -2.567   2.605  1.00  0.00     0.111 A 
ATOM      6  C   UNL     1      38.630  -2.401   1.423  1.00  0.00     0.134 A 
ATOM      7  C   UNL     1      37.996  -2.105   0.210  1.00  0.00     0.093 A 
ATOM      8  C   UNL     1      36.606  -2.033   0.122  1.00  0.00     0.123 A 
ATOM      9  C   UNL     1      35.827  -2.253   1.259  1.00  0.00     0.094 A 
ATOM     10  C   UNL     1      36.432  -2.514   2.491  1.00  0.00     0.146 A 
ATOM     11  O   UNL     1      35.655  -2.705   3.550  1.00  0.00    -0.451 OA
ENDROOT
BRANCH   1  12
ATOM     12  C   UNL     1      35.158  -3.158   5.869  1.00  0.00     0.063 A 
ATOM     13  C   UNL     1      34.024  -2.371   7.874  1.00  0.00     0.047 A 
ATOM     14  C   UNL     1      34.916  -2.152   6.822  1.00  0.00     0.020 A 
ATOM     15  C   UNL     1      33.371  -3.603   7.997  1.00  0.00     0.119 A 
ATOM     16  C   UNL     1      33.615  -4.615   7.065  1.00  0.00     0.093 A 
ATOM     17  C   UNL     1      34.507  -4.402   6.003  1.00  0.00     0.130 A 
BRANCH  15  18
ATOM     18  O   UNL     1      32.480  -3.833   9.043  1.00  0.00    -0.508 OA
ATOM     19  H   UNL     1      31.616  -4.342   8.902  1.00  0.00     0.293 HD
ENDBRANCH  15  18
BRANCH  17  20
ATOM     20  O   UNL     1      34.737  -5.419   5.076  1.00  0.00    -0.507 OA
ATOM     21  H   UNL     1      34.338  -5.391   4.145  1.00  0.00     0.293 HD
ENDBRANCH  17  20
ENDBRANCH   1  12
BRANCH   2  22
ATOM     22  O   UNL     1      38.014  -3.105   6.287  1.00  0.00    -0.502 OA
ATOM     23  H   UNL     1      38.915  -3.531   6.470  1.00  0.00     0.293 HD
ENDBRANCH   2  22
BRANCH   6  24
ATOM     24  O   UNL     1      40.020  -2.542   1.382  1.00  0.00    -0.507 OA
ATOM     25  H   UNL     1      40.674  -1.930   1.845  1.00  0.00     0.293 HD
ENDBRANCH   6  24
BRANCH   8  26
ATOM     26  O   UNL     1      36.009  -1.753  -1.105  1.00  0.00    -0.508 OA
ATOM     27  H   UNL     1      35.373  -2.406  -1.546  1.00  0.00     0.293 HD
ENDBRANCH   8  26
TORSDOF 6
ENDMDL
MODEL 6
REMARK VINA RESULT:    -3.850     10.286     12.487
REMARK INTER + INTRA:          -5.122
REMARK INTER:                  -4.742
REMARK INTRA:                  -0.380
REMARK UNBOUND:                -0.485
REMARK SMILES O=c1c(O)c(-c2ccc(O)cc2O)oc2cc(O)cc(O)c12
REMARK SMILES IDX 5 1 3 2 2 3 1 4 22 5 20 6 19 7 17 8 16 9 15 10 14 11 6 12
REMARK SMILES IDX 8 13 7 14 9 15 11 16 12 17 10 18 13 20 4 22 21 24 18 26
REMARK H PARENT 10 19 13 21 4 23 21 25 18 27
REMARK Flexibility Score: inf
ROOT
ATOM      1  C   UNL     1      30.340 -12.065   0.637  1.00  0.00     0.184 A 
ATOM      2  C   UNL     1      30.758 -13.381   0.375  1.00  0.00     0.208 A 
ATOM      3  C   UNL     1      31.344 -14.127   1.410  1.00  0.00     0.238 A 
ATOM      4  O   UNL     1      31.665 -15.323   1.185  1.00  0.00    -0.285 OA
ATOM      5  C   UNL     1      31.523 -13.541   2.687  1.00  0.00     0.111 A 
ATOM      6  C   UNL     1      32.141 -14.191   3.797  1.00  0.00     0.134 A 
ATOM      7  C   UNL     1      32.149 -13.563   5.049  1.00  0.00     0.093 A 
ATOM      8  C   UNL     1      31.620 -12.283   5.215  1.00  0.00     0.123 A 
ATOM      9  C   UNL     1      31.066 -11.614   4.123  1.00  0.00     0.094 A 
ATOM     10  C   UNL     1      31.011 -12.230   2.870  1.00  0.00     0.146 A 
ATOM     11  O   UNL     1      30.465 -11.564   1.860  1.00  0.00    -0.451 OA
ENDROOT
BRANCH   1  12
ATOM     12  C   UNL     1      29.736 -11.214  -0.415  1.00  0.00     0.063 A 
ATOM     13  C   UNL     1      27.768 -10.354  -1.562  1.00  0.00     0.047 A 
ATOM     14  C   UNL     1      28.339 -11.135  -0.553  1.00  0.00     0.020 A 
ATOM     15  C   UNL     1      28.586  -9.652  -2.454  1.00  0.00     0.119 A 
ATOM     16  C   UNL     1      29.976  -9.736  -2.336  1.00  0.00     0.093 A 
ATOM     17  C   UNL     1      30.556 -10.515  -1.323  1.00  0.00     0.130 A 
BRANCH  15  18
ATOM     18  O   UNL     1      28.028  -8.872  -3.465  1.00  0.00    -0.508 OA
ATOM     19  H   UNL     1      27.033  -8.880  -3.652  1.00  0.00     0.293 HD
ENDBRANCH  15  18
BRANCH  17  20
ATOM     20  O   UNL     1      31.946 -10.584  -1.213  1.00  0.00    -0.507 OA
ATOM     21  H   UNL     1      32.499 -11.183  -1.815  1.00  0.00     0.293 HD
ENDBRANCH  17  20
ENDBRANCH   1  12
BRANCH   2  22
ATOM     22  O   UNL     1      30.559 -13.941  -0.889  1.00  0.00    -0.502 OA
ATOM     23  H   UNL     1      30.922 -13.516  -1.734  1.00  0.00     0.293 HD
ENDBRANCH   2  22
BRANCH   6  24
ATOM     24  O   UNL     1      32.780 -15.432   3.719  1.00  0.00    -0.507 OA
ATOM     25  H   UNL     1      32.540 -16.238   4.275  1.00  0.00     0.293 HD
ENDBRANCH   6  24
BRANCH   8  26
ATOM     26  O   UNL     1      31.659 -11.681   6.471  1.00  0.00    -0.508 OA
ATOM     27  H   UNL     1      32.483 -11.190   6.797  1.00  0.00     0.293 HD
ENDBRANCH   8  26
TORSDOF 6
ENDMDL
MODEL 7
REMARK VINA RESULT:    -3.834      3.696      7.362
REMARK INTER + INTRA:          -5.103
REMARK INTER:                  -4.681
REMARK INTRA:                  -0.422
REMARK UNBOUND:                -0.485
REMARK SMILES O=c1c(O)c(-c2ccc(O)cc2O)oc2cc(O)cc(O)c12
REMARK SMILES IDX 5 1 3 2 2 3 1 4 22 5 20 6 19 7 17 8 16 9 15 10 14 11 6 12
REMARK SMILES IDX 8 13 7 14 9 15 11 16 12 17 10 18 13 20 4 22 21 24 18 26
REMARK H PARENT 10 19 13 21 4 23 21 25 18 27
REMARK Flexibility Score: inf
ROOT
ATOM      1  C   UNL     1      36.214  -2.664  -1.797  1.00  0.00     0.184 A 
ATOM      2  C   UNL     1      37.272  -3.510  -2.167  1.00  0.00     0.208 A 
ATOM      3  C   UNL     1      38.173  -3.945  -1.183  1.00  0.00     0.238 A 
ATOM      4  O   UNL     1      39.086  -4.747  -1.510  1.00  0.00    -0.285 OA
ATOM      5  C   UNL     1      38.015  -3.513   0.157  1.00  0.00     0.111 A 
ATOM      6  C   UNL     1      38.892  -3.860   1.229  1.00  0.00     0.134 A 
ATOM      7  C   UNL     1      38.566  -3.480   2.537  1.00  0.00     0.093 A 
ATOM      8  C   UNL     1      37.433  -2.712   2.803  1.00  0.00     0.123 A 
ATOM      9  C   UNL     1      36.601  -2.317   1.755  1.00  0.00     0.094 A 
ATOM     10  C   UNL     1      36.880  -2.712   0.444  1.00  0.00     0.146 A 
ATOM     11  O   UNL     1      36.056  -2.325  -0.522  1.00  0.00    -0.451 OA
ENDROOT
BRANCH   1  12
ATOM     12  C   UNL     1      35.242  -2.148  -2.789  1.00  0.00     0.063 A 
ATOM     13  C   UNL     1      33.325  -2.505  -4.247  1.00  0.00     0.047 A 
ATOM     14  C   UNL     1      34.225  -2.981  -3.290  1.00  0.00     0.020 A 
ATOM     15  C   UNL     1      33.435  -1.194  -4.724  1.00  0.00     0.119 A 
ATOM     16  C   UNL     1      34.451  -0.363  -4.244  1.00  0.00     0.093 A 
ATOM     17  C   UNL     1      35.357  -0.833  -3.282  1.00  0.00     0.130 A 
BRANCH  15  18
ATOM     18  O   UNL     1      32.543  -0.709  -5.679  1.00  0.00    -0.508 OA
ATOM     19  H   UNL     1      31.571  -0.537  -5.456  1.00  0.00     0.293 HD
ENDBRANCH  15  18
BRANCH  17  20
ATOM     20  O   UNL     1      36.362   0.010  -2.807  1.00  0.00    -0.507 OA
ATOM     21  H   UNL     1      36.218   1.009  -2.709  1.00  0.00     0.293 HD
ENDBRANCH  17  20
ENDBRANCH   1  12
BRANCH   2  22
ATOM     22  O   UNL     1      37.400  -3.933  -3.493  1.00  0.00    -0.502 OA
ATOM     23  H   UNL     1      37.114  -3.357  -4.276  1.00  0.00     0.293 HD
ENDBRANCH   2  22
BRANCH   6  24
ATOM     24  O   UNL     1      40.098  -4.547   1.061  1.00  0.00    -0.507 OA
ATOM     25  H   UNL     1      40.826  -4.606   1.755  1.00  0.00     0.293 HD
ENDBRANCH   6  24
BRANCH   8  26
ATOM     26  O   UNL     1      37.149  -2.338   4.115  1.00  0.00    -0.508 OA
ATOM     27  H   UNL     1      37.603  -1.543   4.549  1.00  0.00     0.293 HD
ENDBRANCH   8  26
TORSDOF 6
ENDMDL
MODEL 8
REMARK VINA RESULT:    -3.774     10.447     11.507
REMARK INTER + INTRA:          -5.031
REMARK INTER:                  -4.746
REMARK INTRA:                  -0.284
REMARK UNBOUND:                -0.485
REMARK SMILES O=c1c(O)c(-c2ccc(O)cc2O)oc2cc(O)cc(O)c12
REMARK SMILES IDX 5 1 3 2 2 3 1 4 22 5 20 6 19 7 17 8 16 9 15 10 14 11 6 12
REMARK SMILES IDX 8 13 7 14 9 15 11 16 12 17 10 18 13 20 4 22 21 24 18 26
REMARK H PARENT 10 19 13 21 4 23 21 25 18 27
REMARK Flexibility Score: inf
ROOT
ATOM      1  C   UNL     1      30.635 -11.962   0.486  1.00  0.00     0.184 A 
ATOM      2  C   UNL     1      31.533 -12.844  -0.139  1.00  0.00     0.208 A 
ATOM      3  C   UNL     1      31.781 -12.702  -1.513  1.00  0.00     0.238 A 
ATOM      4  O   UNL     1      32.628 -13.458  -2.056  1.00  0.00    -0.285 OA
ATOM      5  C   UNL     1      31.113 -11.692  -2.248  1.00  0.00     0.111 A 
ATOM      6  C   UNL     1      31.259 -11.482  -3.653  1.00  0.00     0.134 A 
ATOM      7  C   UNL     1      30.649 -10.373  -4.252  1.00  0.00     0.093 A 
ATOM      8  C   UNL     1      29.848  -9.504  -3.512  1.00  0.00     0.123 A 
ATOM      9  C   UNL     1      29.650  -9.734  -2.150  1.00  0.00     0.094 A 
ATOM     10  C   UNL     1      30.276 -10.811  -1.517  1.00  0.00     0.146 A 
ATOM     11  O   UNL     1      30.071 -10.987  -0.217  1.00  0.00    -0.451 OA
ENDROOT
BRANCH   1  12
ATOM     12  C   UNL     1      30.309 -12.071   1.928  1.00  0.00     0.063 A 
ATOM     13  C   UNL     1      28.693 -12.491   3.699  1.00  0.00     0.047 A 
ATOM     14  C   UNL     1      29.009 -12.415   2.340  1.00  0.00     0.020 A 
ATOM     15  C   UNL     1      29.668 -12.214   4.664  1.00  0.00     0.119 A 
ATOM     16  C   UNL     1      30.959 -11.857   4.265  1.00  0.00     0.093 A 
ATOM     17  C   UNL     1      31.285 -11.780   2.903  1.00  0.00     0.130 A 
BRANCH  15  18
ATOM     18  O   UNL     1      29.363 -12.286   6.022  1.00  0.00    -0.508 OA
ATOM     19  H   UNL     1      30.037 -12.023   6.731  1.00  0.00     0.293 HD
ENDBRANCH  15  18
BRANCH  17  20
ATOM     20  O   UNL     1      32.579 -11.429   2.518  1.00  0.00    -0.507 OA
ATOM     21  H   UNL     1      32.753 -10.820   1.727  1.00  0.00     0.293 HD
ENDBRANCH  17  20
ENDBRANCH   1  12
BRANCH   2  22
ATOM     22  O   UNL     1      32.188 -13.824   0.611  1.00  0.00    -0.502 OA
ATOM     23  H   UNL     1      31.719 -14.659   0.941  1.00  0.00     0.293 HD
ENDBRANCH   2  22
BRANCH   6  24
ATOM     24  O   UNL     1      31.964 -12.341  -4.502  1.00  0.00    -0.507 OA
ATOM     25  H   UNL     1      32.696 -12.053  -5.132  1.00  0.00     0.293 HD
ENDBRANCH   6  24
BRANCH   8  26
ATOM     26  O   UNL     1      29.243  -8.420  -4.145  1.00  0.00    -0.508 OA
ATOM     27  H   UNL     1      28.240  -8.284  -4.119  1.00  0.00     0.293 HD
ENDBRANCH   8  26
TORSDOF 6
ENDMDL
MODEL 9
REMARK VINA RESULT:    -3.764     10.367     11.387
REMARK INTER + INTRA:          -5.019
REMARK INTER:                  -4.539
REMARK INTRA:                  -0.480
REMARK UNBOUND:                -0.485
REMARK SMILES O=c1c(O)c(-c2ccc(O)cc2O)oc2cc(O)cc(O)c12
REMARK SMILES IDX 5 1 3 2 2 3 1 4 22 5 20 6 19 7 17 8 16 9 15 10 14 11 6 12
REMARK SMILES IDX 8 13 7 14 9 15 11 16 12 17 10 18 13 20 4 22 21 24 18 26
REMARK H PARENT 10 19 13 21 4 23 21 25 18 27
REMARK Flexibility Score: inf
ROOT
ATOM      1  C   UNL     1      30.381 -11.789   1.050  1.00  0.00     0.184 A 
ATOM      2  C   UNL     1      29.013 -11.617   0.779  1.00  0.00     0.208 A 
ATOM      3  C   UNL     1      28.622 -11.167  -0.492  1.00  0.00     0.238 A 
ATOM      4  O   UNL     1      27.394 -11.069  -0.747  1.00  0.00    -0.285 OA
ATOM      5  C   UNL     1      29.606 -10.875  -1.469  1.00  0.00     0.111 A 
ATOM      6  C   UNL     1      29.325 -10.375  -2.776  1.00  0.00     0.134 A 
ATOM      7  C   UNL     1      30.367 -10.244  -3.704  1.00  0.00     0.093 A 
ATOM      8  C   UNL     1      31.685 -10.532  -3.351  1.00  0.00     0.123 A 
ATOM      9  C   UNL     1      31.978 -10.965  -2.057  1.00  0.00     0.094 A 
ATOM     10  C   UNL     1      30.955 -11.141  -1.122  1.00  0.00     0.146 A 
ATOM     11  O   UNL     1      31.276 -11.566   0.094  1.00  0.00    -0.451 OA
ENDROOT
BRANCH   1  12
ATOM     12  C   UNL     1      30.864 -12.238   2.377  1.00  0.00     0.063 A 
ATOM     13  C   UNL     1      31.343 -11.768   4.717  1.00  0.00     0.047 A 
ATOM     14  C   UNL     1      30.863 -11.355   3.472  1.00  0.00     0.020 A 
ATOM     15  C   UNL     1      31.843 -13.065   4.882  1.00  0.00     0.119 A 
ATOM     16  C   UNL     1      31.863 -13.945   3.797  1.00  0.00     0.093 A 
ATOM     17  C   UNL     1      31.379 -13.539   2.545  1.00  0.00     0.130 A 
BRANCH  15  18
ATOM     18  O   UNL     1      32.326 -13.487   6.119  1.00  0.00    -0.508 OA
ATOM     19  H   UNL     1      33.315 -13.630   6.281  1.00  0.00     0.293 HD
ENDBRANCH  15  18
BRANCH  17  20
ATOM     20  O   UNL     1      31.399 -14.431   1.472  1.00  0.00    -0.507 OA
ATOM     21  H   UNL     1      30.571 -14.942   1.188  1.00  0.00     0.293 HD
ENDBRANCH  17  20
ENDBRANCH   1  12
BRANCH   2  22
ATOM     22  O   UNL     1      28.062 -11.924   1.755  1.00  0.00    -0.502 OA
ATOM     23  H   UNL     1      28.315 -12.129   2.715  1.00  0.00     0.293 HD
ENDBRANCH   2  22
BRANCH   6  24
ATOM     24  O   UNL     1      28.056  -9.971  -3.203  1.00  0.00    -0.507 OA
ATOM     25  H   UNL     1      27.254 -10.577  -3.274  1.00  0.00     0.293 HD
ENDBRANCH   6  24
BRANCH   8  26
ATOM     26  O   UNL     1      32.698 -10.375  -4.294  1.00  0.00    -0.508 OA
ATOM     27  H   UNL     1      32.618  -9.705  -5.050  1.00  0.00     0.293 HD
ENDBRANCH   8  26
TORSDOF 6
ENDMDL
