MODEL 1
REMARK VINA RESULT:   142.390      0.000      0.000
REMARK INTER + INTRA:         155.509
REMARK INTER:                 154.876
REMARK INTRA:                   0.633
REMARK UNBOUND:                 0.633
REMARK SMILES C[C@H]1[C@H](C)CC[C@]2(C(=O)[O-])CC[C@]3(C)C(=CC[C@@H]4[C@]5(C)CC[C@@H](O)C(C)(C)[C@@H]5CC[C@@]43C)[C@H]12
REMARK SMILES IDX 7 1 6 2 11 3 33 4 5 5 12 6 15 7 2 8 3 9 13 10 16 11 1 12
REMARK SMILES IDX 4 13 14 14 31 15 17 16 18 17 30 18 32 19 19 20 29 21 28 22
REMARK SMILES IDX 21 23 20 24 25 25 22 26 23 27 26 28 27 29 8 30 9 31 10 32
REMARK SMILES IDX 24 33
REMARK H PARENT 24 34
REMARK Flexibility Score: inf
ROOT
ATOM      1  C   UNL     1     -29.666  22.721 -14.446  1.00  0.00     0.017 C 
ATOM      2  C   UNL     1     -29.627  21.246 -13.961  1.00  0.00     0.014 C 
ATOM      3  C   UNL     1     -28.758  22.918 -15.713  1.00  0.00     0.014 C 
ATOM      4  C   UNL     1     -29.264  23.685 -13.277  1.00  0.00     0.030 C 
ATOM      5  C   UNL     1     -28.326  20.875 -13.251  1.00  0.00     0.004 C 
ATOM      6  C   UNL     1     -27.728  24.071 -15.669  1.00  0.00     0.013 C 
ATOM      7  C   UNL     1     -29.147  25.106 -13.844  1.00  0.00    -0.063 C 
ATOM      8  C   UNL     1     -28.009  23.246 -12.449  1.00  0.00    -0.003 C 
ATOM      9  C   UNL     1     -28.119  21.759 -12.015  1.00  0.00    -0.011 C 
ATOM     10  C   UNL     1     -28.170  25.424 -14.978  1.00  0.00    -0.006 C 
ATOM     11  C   UNL     1     -29.972  26.049 -13.364  1.00  0.00    -0.027 C 
ATOM     12  C   UNL     1     -27.834  24.166 -11.222  1.00  0.00     0.008 C 
ATOM     13  C   UNL     1     -26.875  21.273 -11.249  1.00  0.00     0.008 C 
ATOM     14  C   UNL     1     -26.901  26.026 -14.292  1.00  0.00     0.017 C 
ATOM     15  C   UNL     1     -28.786  26.500 -16.018  1.00  0.00    -0.020 C 
ATOM     16  C   UNL     1     -30.400  27.241 -14.156  1.00  0.00     0.032 C 
ATOM     17  C   UNL     1     -29.412  27.742 -15.251  1.00  0.00     0.006 C 
ATOM     18  C   UNL     1     -29.905  25.850 -16.880  1.00  0.00     0.008 C 
ATOM     19  C   UNL     1     -27.640  26.976 -16.973  1.00  0.00     0.012 C 
ATOM     20  C   UNL     1     -30.036  28.889 -16.210  1.00  0.00    -0.025 C 
ATOM     21  C   UNL     1     -31.025  26.782 -17.392  1.00  0.00     0.005 C 
ATOM     22  C   UNL     1     -30.659  28.286 -17.548  1.00  0.00     0.003 C 
ATOM     23  C   UNL     1     -31.092  29.793 -15.458  1.00  0.00     0.010 C 
ATOM     24  C   UNL     1     -28.879  29.883 -16.574  1.00  0.00     0.012 C 
ATOM     25  C   UNL     1     -31.868  29.127 -18.156  1.00  0.00    -0.006 C 
ATOM     26  C   UNL     1     -32.558  29.381 -15.636  1.00  0.00     0.033 C 
ATOM     27  C   UNL     1     -33.022  29.299 -17.106  1.00  0.00     0.120 C 
ATOM     28  C   UNL     1     -32.454  28.417 -19.414  1.00  0.00     0.014 C 
ATOM     29  C   UNL     1     -31.372  30.512 -18.671  1.00  0.00     0.014 C 
ENDROOT
BRANCH   1  30
ATOM     30  C   UNL     1     -31.120  22.962 -14.865  1.00  0.00     0.048 C 
ATOM     31  O   UNL     1     -31.519  24.094 -15.250  1.00  0.00    -0.550 OA
ATOM     32  O   UNL     1     -32.046  21.928 -14.771  1.00  0.00    -0.550 OA
ENDBRANCH   1  30
BRANCH  27  33
ATOM     33  O   UNL     1     -33.810  30.429 -17.404  1.00  0.00    -0.393 OA
ATOM     34  H   UNL     1     -34.691  30.097 -17.717  1.00  0.00     0.210 HD
ENDBRANCH  27  33
TORSDOF 2
ENDMDL
