MODEL 1
REMARK VINA RESULT:    -1.106      0.000      0.000
REMARK INTER + INTRA:          -4.069
REMARK INTER:                  -2.916
REMARK INTRA:                  -1.153
REMARK UNBOUND:                -1.153
REMARK SMILES CCCCCCCCCCCCCCCCCCCCCCCCCCCCCC(=O)[O-]
REMARK SMILES IDX 16 1 17 2 18 3 19 4 20 5 21 6 22 7 23 8 24 9 25 10 26 11
REMARK SMILES IDX 27 12 28 13 29 14 30 15 31 16 32 17 15 18 14 19 13 20 12 21
REMARK SMILES IDX 11 22 10 23 9 24 8 25 7 26 6 27 5 28 4 29 3 30 2 31 1 32
REMARK H PARENT
REMARK Flexibility Score: inf
ROOT
ATOM      1  C   UNL     1      -4.247   4.855  -4.236  1.00  0.00     0.000 C 
ENDROOT
BRANCH   1   2
ATOM      2  C   UNL     1      -2.968   5.126  -3.421  1.00  0.00     0.000 C 
BRANCH   2   3
ATOM      3  C   UNL     1      -2.992   4.471  -2.029  1.00  0.00     0.000 C 
BRANCH   3   4
ATOM      4  C   UNL     1      -3.639   5.369  -0.962  1.00  0.00     0.000 C 
BRANCH   4   5
ATOM      5  C   UNL     1      -2.741   5.576   0.270  1.00  0.00     0.000 C 
BRANCH   5   6
ATOM      6  C   UNL     1      -2.286   4.244   0.893  1.00  0.00     0.000 C 
BRANCH   6   7
ATOM      7  C   UNL     1      -3.390   3.173   0.858  1.00  0.00     0.000 C 
BRANCH   7   8
ATOM      8  C   UNL     1      -2.852   1.778   0.495  1.00  0.00     0.000 C 
BRANCH   8   9
ATOM      9  C   UNL     1      -3.560   1.164  -0.723  1.00  0.00     0.000 C 
BRANCH   9  10
ATOM     10  C   UNL     1      -3.932  -0.302  -0.466  1.00  0.00     0.000 C 
BRANCH  10  11
ATOM     11  C   UNL     1      -3.247  -1.227  -1.484  1.00  0.00     0.000 C 
BRANCH  11  12
ATOM     12  C   UNL     1      -4.252  -1.974  -2.375  1.00  0.00     0.000 C 
BRANCH  12  13
ATOM     13  C   UNL     1      -4.172  -3.500  -2.202  1.00  0.00     0.006 C 
BRANCH  13  14
ATOM     14  C   UNL     1      -3.503  -3.899  -0.880  1.00  0.00     0.053 C 
BRANCH  14  15
ATOM     15  C   UNL     1      -4.502  -4.362   0.135  1.00  0.00     0.041 C 
ATOM     16  O   UNL     1      -4.813  -5.580   0.207  1.00  0.00    -0.550 OA
ATOM     17  O   UNL     1      -5.109  -3.444   0.986  1.00  0.00    -0.550 OA
ENDBRANCH  14  15
ENDBRANCH  13  14
ENDBRANCH  12  13
ENDBRANCH  11  12
ENDBRANCH  10  11
ENDBRANCH   9  10
ENDBRANCH   8   9
ENDBRANCH   7   8
ENDBRANCH   6   7
ENDBRANCH   5   6
ENDBRANCH   4   5
ENDBRANCH   3   4
ENDBRANCH   2   3
ENDBRANCH   1   2
BRANCH   1  18
ATOM     18  C   UNL     1      -5.243   6.033  -4.309  1.00  0.00     0.000 C 
BRANCH  18  19
ATOM     19  C   UNL     1      -6.482   5.794  -5.195  1.00  0.00     0.000 C 
BRANCH  19  20
ATOM     20  C   UNL     1      -6.506   6.590  -6.515  1.00  0.00     0.000 C 
BRANCH  20  21
ATOM     21  C   UNL     1      -7.919   6.782  -7.103  1.00  0.00     0.000 C 
BRANCH  21  22
ATOM     22  C   UNL     1      -7.970   6.544  -8.623  1.00  0.00     0.000 C 
BRANCH  22  23
ATOM     23  C   UNL     1      -8.671   7.684  -9.389  1.00  0.00     0.000 C 
BRANCH  23  24
ATOM     24  C   UNL     1      -9.009   8.929  -8.549  1.00  0.00    -0.000 C 
BRANCH  24  25
ATOM     25  C   UNL     1      -7.793   9.498  -7.796  1.00  0.00    -0.000 C 
BRANCH  25  26
ATOM     26  C   UNL     1      -6.755  10.123  -8.743  1.00  0.00    -0.000 C 
BRANCH  26  27
ATOM     27  C   UNL     1      -5.319   9.662  -8.442  1.00  0.00    -0.000 C 
BRANCH  27  28
ATOM     28  C   UNL     1      -4.410   9.696  -9.685  1.00  0.00    -0.000 C 
BRANCH  28  29
ATOM     29  C   UNL     1      -3.408   8.530  -9.788  1.00  0.00    -0.000 C 
BRANCH  29  30
ATOM     30  C   UNL     1      -4.091   7.156  -9.876  1.00  0.00    -0.000 C 
BRANCH  30  31
ATOM     31  C   UNL     1      -3.055   6.040 -10.056  1.00  0.00    -0.003 C 
ATOM     32  C   UNL     1      -3.424   4.805  -9.241  1.00  0.00     0.004 C 
ENDBRANCH  30  31
ENDBRANCH  29  30
ENDBRANCH  28  29
ENDBRANCH  27  28
ENDBRANCH  26  27
ENDBRANCH  25  26
ENDBRANCH  24  25
ENDBRANCH  23  24
ENDBRANCH  22  23
ENDBRANCH  21  22
ENDBRANCH  20  21
ENDBRANCH  19  20
ENDBRANCH  18  19
ENDBRANCH   1  18
TORSDOF 28
ENDMDL
MODEL 2
REMARK VINA RESULT:    -0.920      1.293      2.954
REMARK INTER + INTRA:          -3.579
REMARK INTER:                  -1.951
REMARK INTRA:                  -1.628
REMARK UNBOUND:                -1.153
REMARK SMILES CCCCCCCCCCCCCCCCCCCCCCCCCCCCCC(=O)[O-]
REMARK SMILES IDX 16 1 17 2 18 3 19 4 20 5 21 6 22 7 23 8 24 9 25 10 26 11
REMARK SMILES IDX 27 12 28 13 29 14 30 15 31 16 32 17 15 18 14 19 13 20 12 21
REMARK SMILES IDX 11 22 10 23 9 24 8 25 7 26 6 27 5 28 4 29 3 30 2 31 1 32
REMARK H PARENT
REMARK Flexibility Score: inf
ROOT
ATOM      1  C   UNL     1      -2.456   4.892  -2.014  1.00  0.00     0.000 C 
ENDROOT
BRANCH   1   2
ATOM      2  C   UNL     1      -3.135   5.490  -0.767  1.00  0.00     0.000 C 
BRANCH   2   3
ATOM      3  C   UNL     1      -3.088   4.553   0.452  1.00  0.00     0.000 C 
BRANCH   3   4
ATOM      4  C   UNL     1      -3.481   3.107   0.105  1.00  0.00     0.000 C 
BRANCH   4   5
ATOM      5  C   UNL     1      -2.663   2.062   0.884  1.00  0.00     0.000 C 
BRANCH   5   6
ATOM      6  C   UNL     1      -1.269   1.839   0.273  1.00  0.00     0.000 C 
BRANCH   6   7
ATOM      7  C   UNL     1      -1.091   0.414  -0.281  1.00  0.00     0.000 C 
BRANCH   7   8
ATOM      8  C   UNL     1      -2.158   0.047  -1.327  1.00  0.00     0.000 C 
BRANCH   8   9
ATOM      9  C   UNL     1      -3.377  -0.659  -0.712  1.00  0.00     0.000 C 
BRANCH   9  10
ATOM     10  C   UNL     1      -4.433  -0.970  -1.780  1.00  0.00     0.000 C 
BRANCH  10  11
ATOM     11  C   UNL     1      -3.783  -1.582  -3.031  1.00  0.00     0.000 C 
BRANCH  11  12
ATOM     12  C   UNL     1      -3.242  -3.000  -2.783  1.00  0.00     0.000 C 
BRANCH  12  13
ATOM     13  C   UNL     1      -4.199  -3.855  -1.935  1.00  0.00     0.006 C 
BRANCH  13  14
ATOM     14  C   UNL     1      -3.703  -4.023  -0.493  1.00  0.00     0.053 C 
BRANCH  14  15
ATOM     15  C   UNL     1      -4.706  -4.732   0.364  1.00  0.00     0.041 C 
ATOM     16  O   UNL     1      -5.040  -5.916   0.100  1.00  0.00    -0.550 OA
ATOM     17  O   UNL     1      -5.292  -4.075   1.442  1.00  0.00    -0.550 OA
ENDBRANCH  14  15
ENDBRANCH  13  14
ENDBRANCH  12  13
ENDBRANCH  11  12
ENDBRANCH  10  11
ENDBRANCH   9  10
ENDBRANCH   8   9
ENDBRANCH   7   8
ENDBRANCH   6   7
ENDBRANCH   5   6
ENDBRANCH   4   5
ENDBRANCH   3   4
ENDBRANCH   2   3
ENDBRANCH   1   2
BRANCH   1  18
ATOM     18  C   UNL     1      -3.383   4.077  -2.942  1.00  0.00     0.000 C 
BRANCH  18  19
ATOM     19  C   UNL     1      -3.987   4.862  -4.123  1.00  0.00     0.000 C 
BRANCH  19  20
ATOM     20  C   UNL     1      -5.222   5.717  -3.776  1.00  0.00     0.000 C 
BRANCH  20  21
ATOM     21  C   UNL     1      -5.738   6.575  -4.950  1.00  0.00     0.000 C 
BRANCH  21  22
ATOM     22  C   UNL     1      -6.972   5.965  -5.639  1.00  0.00     0.000 C 
BRANCH  22  23
ATOM     23  C   UNL     1      -7.405   6.742  -6.897  1.00  0.00     0.000 C 
BRANCH  23  24
ATOM     24  C   UNL     1      -8.199   5.926  -7.934  1.00  0.00    -0.000 C 
BRANCH  24  25
ATOM     25  C   UNL     1      -8.605   6.750  -9.168  1.00  0.00    -0.000 C 
BRANCH  25  26
ATOM     26  C   UNL     1      -9.933   7.499  -8.963  1.00  0.00    -0.000 C 
BRANCH  26  27
ATOM     27  C   UNL     1      -9.819   9.004  -9.258  1.00  0.00    -0.000 C 
BRANCH  27  28
ATOM     28  C   UNL     1      -8.688   9.683  -8.462  1.00  0.00    -0.000 C 
BRANCH  28  29
ATOM     29  C   UNL     1      -7.475  10.122  -9.305  1.00  0.00    -0.000 C 
BRANCH  29  30
ATOM     30  C   UNL     1      -6.130   9.840  -8.617  1.00  0.00    -0.000 C 
BRANCH  30  31
ATOM     31  C   UNL     1      -5.396   8.683  -9.304  1.00  0.00    -0.003 C 
ATOM     32  C   UNL     1      -3.988   9.091  -9.723  1.00  0.00     0.004 C 
ENDBRANCH  30  31
ENDBRANCH  29  30
ENDBRANCH  28  29
ENDBRANCH  27  28
ENDBRANCH  26  27
ENDBRANCH  25  26
ENDBRANCH  24  25
ENDBRANCH  23  24
ENDBRANCH  22  23
ENDBRANCH  21  22
ENDBRANCH  20  21
ENDBRANCH  19  20
ENDBRANCH  18  19
ENDBRANCH   1  18
TORSDOF 28
ENDMDL
MODEL 3
REMARK VINA RESULT:    -0.888      1.309      2.575
REMARK INTER + INTRA:          -3.494
REMARK INTER:                  -1.442
REMARK INTRA:                  -2.052
REMARK UNBOUND:                -1.153
REMARK SMILES CCCCCCCCCCCCCCCCCCCCCCCCCCCCCC(=O)[O-]
REMARK SMILES IDX 16 1 17 2 18 3 19 4 20 5 21 6 22 7 23 8 24 9 25 10 26 11
REMARK SMILES IDX 27 12 28 13 29 14 30 15 31 16 32 17 15 18 14 19 13 20 12 21
REMARK SMILES IDX 11 22 10 23 9 24 8 25 7 26 6 27 5 28 4 29 3 30 2 31 1 32
REMARK H PARENT
REMARK Flexibility Score: inf
ROOT
ATOM      1  C   UNL     1      -6.397   6.411  -5.715  1.00  0.00     0.000 C 
ENDROOT
BRANCH   1   2
ATOM      2  C   UNL     1      -6.217   5.462  -4.514  1.00  0.00     0.000 C 
BRANCH   2   3
ATOM      3  C   UNL     1      -4.998   5.816  -3.646  1.00  0.00     0.000 C 
BRANCH   3   4
ATOM      4  C   UNL     1      -3.810   4.867  -3.873  1.00  0.00     0.000 C 
BRANCH   4   5
ATOM      5  C   UNL     1      -3.047   4.543  -2.577  1.00  0.00     0.000 C 
BRANCH   5   6
ATOM      6  C   UNL     1      -3.681   5.208  -1.343  1.00  0.00     0.000 C 
BRANCH   6   7
ATOM      7  C   UNL     1      -2.675   5.392  -0.193  1.00  0.00     0.000 C 
BRANCH   7   8
ATOM      8  C   UNL     1      -2.730   4.246   0.832  1.00  0.00     0.000 C 
BRANCH   8   9
ATOM      9  C   UNL     1      -3.284   2.941   0.239  1.00  0.00     0.000 C 
BRANCH   9  10
ATOM     10  C   UNL     1      -2.453   1.732   0.687  1.00  0.00     0.000 C 
BRANCH  10  11
ATOM     11  C   UNL     1      -1.697   1.117  -0.501  1.00  0.00     0.000 C 
BRANCH  11  12
ATOM     12  C   UNL     1      -2.166  -0.311  -0.825  1.00  0.00     0.000 C 
BRANCH  12  13
ATOM     13  C   UNL     1      -3.494  -0.332  -1.601  1.00  0.00     0.006 C 
BRANCH  13  14
ATOM     14  C   UNL     1      -4.284  -1.626  -1.363  1.00  0.00     0.053 C 
BRANCH  14  15
ATOM     15  C   UNL     1      -3.656  -2.800  -2.049  1.00  0.00     0.041 C 
ATOM     16  O   UNL     1      -3.005  -2.637  -3.114  1.00  0.00    -0.550 OA
ATOM     17  O   UNL     1      -3.810  -4.079  -1.524  1.00  0.00    -0.550 OA
ENDBRANCH  14  15
ENDBRANCH  13  14
ENDBRANCH  12  13
ENDBRANCH  11  12
ENDBRANCH  10  11
ENDBRANCH   9  10
ENDBRANCH   8   9
ENDBRANCH   7   8
ENDBRANCH   6   7
ENDBRANCH   5   6
ENDBRANCH   4   5
ENDBRANCH   3   4
ENDBRANCH   2   3
ENDBRANCH   1   2
BRANCH   1  18
ATOM     18  C   UNL     1      -6.745   5.722  -7.053  1.00  0.00     0.000 C 
BRANCH  18  19
ATOM     19  C   UNL     1      -8.170   5.986  -7.578  1.00  0.00     0.000 C 
BRANCH  19  20
ATOM     20  C   UNL     1      -8.248   6.839  -8.859  1.00  0.00     0.000 C 
BRANCH  20  21
ATOM     21  C   UNL     1      -9.682   7.030  -9.398  1.00  0.00     0.000 C 
BRANCH  21  22
ATOM     22  C   UNL     1      -9.967   8.478  -9.835  1.00  0.00     0.000 C 
BRANCH  22  23
ATOM     23  C   UNL     1      -8.870   9.467  -9.397  1.00  0.00     0.000 C 
BRANCH  23  24
ATOM     24  C   UNL     1      -8.900   9.868  -7.911  1.00  0.00    -0.000 C 
BRANCH  24  25
ATOM     25  C   UNL     1      -7.720   9.294  -7.107  1.00  0.00    -0.000 C 
BRANCH  25  26
ATOM     26  C   UNL     1      -6.437  10.125  -7.272  1.00  0.00    -0.000 C 
BRANCH  26  27
ATOM     27  C   UNL     1      -5.256   9.297  -7.807  1.00  0.00    -0.000 C 
BRANCH  27  28
ATOM     28  C   UNL     1      -5.325   9.078  -9.331  1.00  0.00    -0.000 C 
BRANCH  28  29
ATOM     29  C   UNL     1      -4.820   7.705  -9.812  1.00  0.00    -0.000 C 
BRANCH  29  30
ATOM     30  C   UNL     1      -3.310   7.512  -9.605  1.00  0.00    -0.000 C 
BRANCH  30  31
ATOM     31  C   UNL     1      -2.895   6.068  -9.908  1.00  0.00    -0.003 C 
ATOM     32  C   UNL     1      -3.876   5.071  -9.299  1.00  0.00     0.004 C 
ENDBRANCH  30  31
ENDBRANCH  29  30
ENDBRANCH  28  29
ENDBRANCH  27  28
ENDBRANCH  26  27
ENDBRANCH  25  26
ENDBRANCH  24  25
ENDBRANCH  23  24
ENDBRANCH  22  23
ENDBRANCH  21  22
ENDBRANCH  20  21
ENDBRANCH  19  20
ENDBRANCH  18  19
ENDBRANCH   1  18
TORSDOF 28
ENDMDL
MODEL 4
REMARK VINA RESULT:    -0.208      1.065      2.383
REMARK INTER + INTRA:          -1.701
REMARK INTER:                   0.133
REMARK INTRA:                  -1.833
REMARK UNBOUND:                -1.153
REMARK SMILES CCCCCCCCCCCCCCCCCCCCCCCCCCCCCC(=O)[O-]
REMARK SMILES IDX 16 1 17 2 18 3 19 4 20 5 21 6 22 7 23 8 24 9 25 10 26 11
REMARK SMILES IDX 27 12 28 13 29 14 30 15 31 16 32 17 15 18 14 19 13 20 12 21
REMARK SMILES IDX 11 22 10 23 9 24 8 25 7 26 6 27 5 28 4 29 3 30 2 31 1 32
REMARK H PARENT
REMARK Flexibility Score: inf
ROOT
ATOM      1  C   UNL     1      -3.013   5.359  -1.735  1.00  0.00     0.000 C 
ENDROOT
BRANCH   1   2
ATOM      2  C   UNL     1      -2.466   4.070  -1.092  1.00  0.00     0.000 C 
BRANCH   2   3
ATOM      3  C   UNL     1      -3.499   3.355  -0.206  1.00  0.00     0.000 C 
BRANCH   3   4
ATOM      4  C   UNL     1      -2.857   2.341   0.755  1.00  0.00     0.000 C 
BRANCH   4   5
ATOM      5  C   UNL     1      -1.678   1.582   0.123  1.00  0.00     0.000 C 
BRANCH   5   6
ATOM      6  C   UNL     1      -2.123   0.281  -0.569  1.00  0.00     0.000 C 
BRANCH   6   7
ATOM      7  C   UNL     1      -3.555  -0.128  -0.184  1.00  0.00     0.000 C 
BRANCH   7   8
ATOM      8  C   UNL     1      -4.541  -0.011  -1.359  1.00  0.00     0.000 C 
BRANCH   8   9
ATOM      9  C   UNL     1      -4.573  -1.271  -2.239  1.00  0.00     0.000 C 
BRANCH   9  10
ATOM     10  C   UNL     1      -3.220  -1.501  -2.925  1.00  0.00     0.000 C 
BRANCH  10  11
ATOM     11  C   UNL     1      -3.106  -2.944  -3.441  1.00  0.00     0.000 C 
BRANCH  11  12
ATOM     12  C   UNL     1      -4.157  -3.879  -2.819  1.00  0.00     0.000 C 
BRANCH  12  13
ATOM     13  C   UNL     1      -3.601  -4.680  -1.630  1.00  0.00     0.006 C 
BRANCH  13  14
ATOM     14  C   UNL     1      -3.730  -3.916  -0.305  1.00  0.00     0.053 C 
BRANCH  14  15
ATOM     15  C   UNL     1      -4.810  -4.482   0.565  1.00  0.00     0.041 C 
ATOM     16  O   UNL     1      -5.421  -3.740   1.378  1.00  0.00    -0.550 OA
ATOM     17  O   UNL     1      -5.125  -5.835   0.494  1.00  0.00    -0.550 OA
ENDBRANCH  14  15
ENDBRANCH  13  14
ENDBRANCH  12  13
ENDBRANCH  11  12
ENDBRANCH  10  11
ENDBRANCH   9  10
ENDBRANCH   8   9
ENDBRANCH   7   8
ENDBRANCH   6   7
ENDBRANCH   5   6
ENDBRANCH   4   5
ENDBRANCH   3   4
ENDBRANCH   2   3
ENDBRANCH   1   2
BRANCH   1  18
ATOM     18  C   UNL     1      -3.607   5.189  -3.150  1.00  0.00     0.000 C 
BRANCH  18  19
ATOM     19  C   UNL     1      -5.048   5.707  -3.327  1.00  0.00     0.000 C 
BRANCH  19  20
ATOM     20  C   UNL     1      -5.472   5.979  -4.784  1.00  0.00     0.000 C 
BRANCH  20  21
ATOM     21  C   UNL     1      -6.955   5.665  -5.072  1.00  0.00     0.000 C 
BRANCH  21  22
ATOM     22  C   UNL     1      -7.379   6.044  -6.502  1.00  0.00     0.000 C 
BRANCH  22  23
ATOM     23  C   UNL     1      -7.012   7.493  -6.875  1.00  0.00     0.000 C 
BRANCH  23  24
ATOM     24  C   UNL     1      -7.361   7.911  -8.315  1.00  0.00    -0.000 C 
BRANCH  24  25
ATOM     25  C   UNL     1      -6.851   9.317  -8.676  1.00  0.00    -0.000 C 
BRANCH  25  26
ATOM     26  C   UNL     1      -5.361   9.505  -8.344  1.00  0.00    -0.000 C 
BRANCH  26  27
ATOM     27  C   UNL     1      -4.565  10.122  -9.506  1.00  0.00    -0.000 C 
BRANCH  27  28
ATOM     28  C   UNL     1      -3.554   9.136 -10.124  1.00  0.00    -0.000 C 
BRANCH  28  29
ATOM     29  C   UNL     1      -3.929   7.649  -9.982  1.00  0.00    -0.000 C 
BRANCH  29  30
ATOM     30  C   UNL     1      -2.704   6.723  -9.924  1.00  0.00    -0.000 C 
BRANCH  30  31
ATOM     31  C   UNL     1      -3.133   5.255  -9.805  1.00  0.00    -0.003 C 
ATOM     32  C   UNL     1      -4.243   5.085  -8.772  1.00  0.00     0.004 C 
ENDBRANCH  30  31
ENDBRANCH  29  30
ENDBRANCH  28  29
ENDBRANCH  27  28
ENDBRANCH  26  27
ENDBRANCH  25  26
ENDBRANCH  24  25
ENDBRANCH  23  24
ENDBRANCH  22  23
ENDBRANCH  21  22
ENDBRANCH  20  21
ENDBRANCH  19  20
ENDBRANCH  18  19
ENDBRANCH   1  18
TORSDOF 28
ENDMDL
MODEL 5
REMARK VINA RESULT:     0.156      3.598     11.556
REMARK INTER + INTRA:          -0.740
REMARK INTER:                   0.534
REMARK INTRA:                  -1.274
REMARK UNBOUND:                -1.153
REMARK SMILES CCCCCCCCCCCCCCCCCCCCCCCCCCCCCC(=O)[O-]
REMARK SMILES IDX 16 1 17 2 18 3 19 4 20 5 21 6 22 7 23 8 24 9 25 10 26 11
REMARK SMILES IDX 27 12 28 13 29 14 30 15 31 16 32 17 15 18 14 19 13 20 12 21
REMARK SMILES IDX 11 22 10 23 9 24 8 25 7 26 6 27 5 28 4 29 3 30 2 31 1 32
REMARK H PARENT
REMARK Flexibility Score: inf
ROOT
ATOM      1  C   UNL     1      -3.205   4.820  -2.772  1.00  0.00     0.000 C 
ENDROOT
BRANCH   1   2
ATOM      2  C   UNL     1      -3.650   4.888  -4.245  1.00  0.00     0.000 C 
BRANCH   2   3
ATOM      3  C   UNL     1      -5.178   4.938  -4.410  1.00  0.00     0.000 C 
BRANCH   3   4
ATOM      4  C   UNL     1      -5.662   6.235  -5.079  1.00  0.00     0.000 C 
BRANCH   4   5
ATOM      5  C   UNL     1      -6.524   5.979  -6.327  1.00  0.00     0.000 C 
BRANCH   5   6
ATOM      6  C   UNL     1      -7.567   7.087  -6.555  1.00  0.00     0.000 C 
BRANCH   6   7
ATOM      7  C   UNL     1      -7.957   7.232  -8.037  1.00  0.00     0.000 C 
BRANCH   7   8
ATOM      8  C   UNL     1      -8.209   8.694  -8.444  1.00  0.00     0.000 C 
BRANCH   8   9
ATOM      9  C   UNL     1      -7.551   9.062  -9.783  1.00  0.00     0.000 C 
BRANCH   9  10
ATOM     10  C   UNL     1      -6.462  10.125  -9.592  1.00  0.00     0.000 C 
BRANCH  10  11
ATOM     11  C   UNL     1      -5.510   9.735  -8.451  1.00  0.00     0.000 C 
BRANCH  11  12
ATOM     12  C   UNL     1      -4.152   9.226  -8.961  1.00  0.00     0.000 C 
BRANCH  12  13
ATOM     13  C   UNL     1      -4.297   8.090  -9.987  1.00  0.00     0.006 C 
BRANCH  13  14
ATOM     14  C   UNL     1      -3.067   7.174 -10.017  1.00  0.00     0.053 C 
BRANCH  14  15
ATOM     15  C   UNL     1      -3.413   5.760  -9.663  1.00  0.00     0.041 C 
ATOM     16  O   UNL     1      -2.568   4.841  -9.828  1.00  0.00    -0.550 OA
ATOM     17  O   UNL     1      -4.678   5.453  -9.173  1.00  0.00    -0.550 OA
ENDBRANCH  14  15
ENDBRANCH  13  14
ENDBRANCH  12  13
ENDBRANCH  11  12
ENDBRANCH  10  11
ENDBRANCH   9  10
ENDBRANCH   8   9
ENDBRANCH   7   8
ENDBRANCH   6   7
ENDBRANCH   5   6
ENDBRANCH   4   5
ENDBRANCH   3   4
ENDBRANCH   2   3
ENDBRANCH   1   2
BRANCH   1  18
ATOM     18  C   UNL     1      -3.759   5.939  -1.863  1.00  0.00     0.000 C 
BRANCH  18  19
ATOM     19  C   UNL     1      -3.803   5.605  -0.359  1.00  0.00     0.000 C 
BRANCH  19  20
ATOM     20  C   UNL     1      -2.494   5.874   0.409  1.00  0.00     0.000 C 
BRANCH  20  21
ATOM     21  C   UNL     1      -2.020   4.685   1.272  1.00  0.00     0.000 C 
BRANCH  21  22
ATOM     22  C   UNL     1      -2.772   3.380   0.954  1.00  0.00     0.000 C 
BRANCH  22  23
ATOM     23  C   UNL     1      -2.283   2.703  -0.341  1.00  0.00     0.000 C 
BRANCH  23  24
ATOM     24  C   UNL     1      -1.318   1.520  -0.142  1.00  0.00    -0.000 C 
BRANCH  24  25
ATOM     25  C   UNL     1      -1.970   0.155  -0.428  1.00  0.00    -0.000 C 
BRANCH  25  26
ATOM     26  C   UNL     1      -3.412   0.291  -0.947  1.00  0.00    -0.000 C 
BRANCH  26  27
ATOM     27  C   UNL     1      -4.027  -1.059  -1.354  1.00  0.00    -0.000 C 
BRANCH  27  28
ATOM     28  C   UNL     1      -3.134  -1.851  -2.329  1.00  0.00    -0.000 C 
BRANCH  28  29
ATOM     29  C   UNL     1      -3.800  -3.087  -2.961  1.00  0.00    -0.000 C 
BRANCH  29  30
ATOM     30  C   UNL     1      -4.140  -4.179  -1.933  1.00  0.00    -0.000 C 
BRANCH  30  31
ATOM     31  C   UNL     1      -3.536  -3.848  -0.564  1.00  0.00    -0.003 C 
ATOM     32  C   UNL     1      -4.462  -4.281   0.568  1.00  0.00     0.004 C 
ENDBRANCH  30  31
ENDBRANCH  29  30
ENDBRANCH  28  29
ENDBRANCH  27  28
ENDBRANCH  26  27
ENDBRANCH  25  26
ENDBRANCH  24  25
ENDBRANCH  23  24
ENDBRANCH  22  23
ENDBRANCH  21  22
ENDBRANCH  20  21
ENDBRANCH  19  20
ENDBRANCH  18  19
ENDBRANCH   1  18
TORSDOF 28
ENDMDL
MODEL 6
REMARK VINA RESULT:     0.175      4.206     12.263
REMARK INTER + INTRA:          -0.690
REMARK INTER:                   1.025
REMARK INTRA:                  -1.715
REMARK UNBOUND:                -1.153
REMARK SMILES CCCCCCCCCCCCCCCCCCCCCCCCCCCCCC(=O)[O-]
REMARK SMILES IDX 16 1 17 2 18 3 19 4 20 5 21 6 22 7 23 8 24 9 25 10 26 11
REMARK SMILES IDX 27 12 28 13 29 14 30 15 31 16 32 17 15 18 14 19 13 20 12 21
REMARK SMILES IDX 11 22 10 23 9 24 8 25 7 26 6 27 5 28 4 29 3 30 2 31 1 32
REMARK H PARENT
REMARK Flexibility Score: inf
ROOT
ATOM      1  C   UNL     1      -2.530   4.063  -0.469  1.00  0.00     0.000 C 
ENDROOT
BRANCH   1   2
ATOM      2  C   UNL     1      -3.023   4.948  -1.630  1.00  0.00     0.000 C 
BRANCH   2   3
ATOM      3  C   UNL     1      -3.003   4.226  -2.988  1.00  0.00     0.000 C 
BRANCH   3   4
ATOM      4  C   UNL     1      -3.885   4.917  -4.041  1.00  0.00     0.000 C 
BRANCH   4   5
ATOM      5  C   UNL     1      -5.115   5.610  -3.430  1.00  0.00     0.000 C 
BRANCH   5   6
ATOM      6  C   UNL     1      -5.831   6.526  -4.438  1.00  0.00     0.000 C 
BRANCH   6   7
ATOM      7  C   UNL     1      -6.181   5.797  -5.748  1.00  0.00     0.000 C 
BRANCH   7   8
ATOM      8  C   UNL     1      -7.435   6.371  -6.429  1.00  0.00     0.000 C 
BRANCH   8   9
ATOM      9  C   UNL     1      -7.271   6.524  -7.950  1.00  0.00     0.000 C 
BRANCH   9  10
ATOM     10  C   UNL     1      -8.255   7.556  -8.512  1.00  0.00     0.000 C 
BRANCH  10  11
ATOM     11  C   UNL     1      -8.076   8.917  -7.822  1.00  0.00     0.000 C 
BRANCH  11  12
ATOM     12  C   UNL     1      -6.725   9.574  -8.151  1.00  0.00     0.000 C 
BRANCH  12  13
ATOM     13  C   UNL     1      -6.366   9.464  -9.643  1.00  0.00     0.006 C 
BRANCH  13  14
ATOM     14  C   UNL     1      -4.940   9.950  -9.933  1.00  0.00     0.053 C 
BRANCH  14  15
ATOM     15  C   UNL     1      -3.951   8.826  -9.911  1.00  0.00     0.041 C 
ATOM     16  O   UNL     1      -2.731   9.052 -10.124  1.00  0.00    -0.550 OA
ATOM     17  O   UNL     1      -4.380   7.523  -9.678  1.00  0.00    -0.550 OA
ENDBRANCH  14  15
ENDBRANCH  13  14
ENDBRANCH  12  13
ENDBRANCH  11  12
ENDBRANCH  10  11
ENDBRANCH   9  10
ENDBRANCH   8   9
ENDBRANCH   7   8
ENDBRANCH   6   7
ENDBRANCH   5   6
ENDBRANCH   4   5
ENDBRANCH   3   4
ENDBRANCH   2   3
ENDBRANCH   1   2
BRANCH   1  18
ATOM     18  C   UNL     1      -3.538   3.867   0.684  1.00  0.00     0.000 C 
BRANCH  18  19
ATOM     19  C   UNL     1      -4.019   2.418   0.900  1.00  0.00     0.000 C 
BRANCH  19  20
ATOM     20  C   UNL     1      -3.375   1.370  -0.030  1.00  0.00     0.000 C 
BRANCH  20  21
ATOM     21  C   UNL     1      -4.395   0.448  -0.731  1.00  0.00     0.000 C 
BRANCH  21  22
ATOM     22  C   UNL     1      -3.784  -0.899  -1.159  1.00  0.00     0.000 C 
BRANCH  22  23
ATOM     23  C   UNL     1      -3.963  -1.191  -2.662  1.00  0.00     0.000 C 
BRANCH  23  24
ATOM     24  C   UNL     1      -2.768  -1.880  -3.345  1.00  0.00    -0.000 C 
BRANCH  24  25
ATOM     25  C   UNL     1      -2.985  -3.388  -3.564  1.00  0.00    -0.000 C 
BRANCH  25  26
ATOM     26  C   UNL     1      -4.320  -3.880  -2.980  1.00  0.00    -0.000 C 
BRANCH  26  27
ATOM     27  C   UNL     1      -4.142  -4.684  -1.681  1.00  0.00    -0.000 C 
BRANCH  27  28
ATOM     28  C   UNL     1      -3.310  -3.932  -0.625  1.00  0.00    -0.000 C 
BRANCH  28  29
ATOM     29  C   UNL     1      -3.700  -4.224   0.836  1.00  0.00    -0.000 C 
BRANCH  29  30
ATOM     30  C   UNL     1      -5.217  -4.164   1.078  1.00  0.00    -0.000 C 
BRANCH  30  31
ATOM     31  C   UNL     1      -5.622  -2.812   1.677  1.00  0.00    -0.003 C 
ATOM     32  C   UNL     1      -5.785  -2.904   3.191  1.00  0.00     0.004 C 
ENDBRANCH  30  31
ENDBRANCH  29  30
ENDBRANCH  28  29
ENDBRANCH  27  28
ENDBRANCH  26  27
ENDBRANCH  25  26
ENDBRANCH  24  25
ENDBRANCH  23  24
ENDBRANCH  22  23
ENDBRANCH  21  22
ENDBRANCH  20  21
ENDBRANCH  19  20
ENDBRANCH  18  19
ENDBRANCH   1  18
TORSDOF 28
ENDMDL
MODEL 7
REMARK VINA RESULT:     0.335      4.406     11.869
REMARK INTER + INTRA:          -0.271
REMARK INTER:                   1.464
REMARK INTRA:                  -1.735
REMARK UNBOUND:                -1.153
REMARK SMILES CCCCCCCCCCCCCCCCCCCCCCCCCCCCCC(=O)[O-]
REMARK SMILES IDX 16 1 17 2 18 3 19 4 20 5 21 6 22 7 23 8 24 9 25 10 26 11
REMARK SMILES IDX 27 12 28 13 29 14 30 15 31 16 32 17 15 18 14 19 13 20 12 21
REMARK SMILES IDX 11 22 10 23 9 24 8 25 7 26 6 27 5 28 4 29 3 30 2 31 1 32
REMARK H PARENT
REMARK Flexibility Score: inf
ROOT
ATOM      1  C   UNL     1      -4.120   4.386  -0.155  1.00  0.00     0.000 C 
ENDROOT
BRANCH   1   2
ATOM      2  C   UNL     1      -3.007   5.428  -0.380  1.00  0.00     0.000 C 
BRANCH   2   3
ATOM      3  C   UNL     1      -2.648   5.614  -1.864  1.00  0.00     0.000 C 
BRANCH   3   4
ATOM      4  C   UNL     1      -3.110   4.438  -2.739  1.00  0.00     0.000 C 
BRANCH   4   5
ATOM      5  C   UNL     1      -3.828   4.892  -4.022  1.00  0.00     0.000 C 
BRANCH   5   6
ATOM      6  C   UNL     1      -5.128   5.659  -3.723  1.00  0.00     0.000 C 
BRANCH   6   7
ATOM      7  C   UNL     1      -5.623   6.470  -4.934  1.00  0.00     0.000 C 
BRANCH   7   8
ATOM      8  C   UNL     1      -6.804   5.797  -5.656  1.00  0.00     0.000 C 
BRANCH   8   9
ATOM      9  C   UNL     1      -6.863   6.145  -7.152  1.00  0.00     0.000 C 
BRANCH   9  10
ATOM     10  C   UNL     1      -8.285   6.534  -7.574  1.00  0.00     0.000 C 
BRANCH  10  11
ATOM     11  C   UNL     1      -8.279   7.231  -8.944  1.00  0.00     0.000 C 
BRANCH  11  12
ATOM     12  C   UNL     1      -9.192   8.467  -8.982  1.00  0.00     0.000 C 
BRANCH  12  13
ATOM     13  C   UNL     1      -8.405   9.783  -8.867  1.00  0.00     0.006 C 
BRANCH  13  14
ATOM     14  C   UNL     1      -6.995   9.670  -9.461  1.00  0.00     0.053 C 
BRANCH  14  15
ATOM     15  C   UNL     1      -5.934   9.789  -8.411  1.00  0.00     0.041 C 
ATOM     16  O   UNL     1      -4.719   9.831  -8.740  1.00  0.00    -0.550 OA
ATOM     17  O   UNL     1      -6.285   9.829  -7.065  1.00  0.00    -0.550 OA
ENDBRANCH  14  15
ENDBRANCH  13  14
ENDBRANCH  12  13
ENDBRANCH  11  12
ENDBRANCH  10  11
ENDBRANCH   9  10
ENDBRANCH   8   9
ENDBRANCH   7   8
ENDBRANCH   6   7
ENDBRANCH   5   6
ENDBRANCH   4   5
ENDBRANCH   3   4
ENDBRANCH   2   3
ENDBRANCH   1   2
BRANCH   1  18
ATOM     18  C   UNL     1      -3.732   3.189   0.740  1.00  0.00     0.000 C 
BRANCH  18  19
ATOM     19  C   UNL     1      -2.223   2.882   0.811  1.00  0.00     0.000 C 
BRANCH  19  20
ATOM     20  C   UNL     1      -1.608   2.321  -0.486  1.00  0.00     0.000 C 
BRANCH  20  21
ATOM     21  C   UNL     1      -0.830   1.002  -0.291  1.00  0.00     0.000 C 
BRANCH  21  22
ATOM     22  C   UNL     1      -1.733  -0.242  -0.383  1.00  0.00     0.000 C 
BRANCH  22  23
ATOM     23  C   UNL     1      -3.233   0.106  -0.453  1.00  0.00     0.000 C 
BRANCH  23  24
ATOM     24  C   UNL     1      -4.136  -0.995  -1.039  1.00  0.00    -0.000 C 
BRANCH  24  25
ATOM     25  C   UNL     1      -4.416  -0.810  -2.541  1.00  0.00    -0.000 C 
BRANCH  25  26
ATOM     26  C   UNL     1      -3.357  -1.493  -3.423  1.00  0.00    -0.000 C 
BRANCH  26  27
ATOM     27  C   UNL     1      -2.949  -2.880  -2.898  1.00  0.00    -0.000 C 
BRANCH  27  28
ATOM     28  C   UNL     1      -4.150  -3.833  -2.737  1.00  0.00    -0.000 C 
BRANCH  28  29
ATOM     29  C   UNL     1      -4.102  -4.731  -1.487  1.00  0.00    -0.000 C 
BRANCH  29  30
ATOM     30  C   UNL     1      -3.713  -3.967  -0.211  1.00  0.00    -0.000 C 
BRANCH  30  31
ATOM     31  C   UNL     1      -4.458  -4.522   1.008  1.00  0.00    -0.003 C 
ATOM     32  C   UNL     1      -5.523  -3.546   1.498  1.00  0.00     0.004 C 
ENDBRANCH  30  31
ENDBRANCH  29  30
ENDBRANCH  28  29
ENDBRANCH  27  28
ENDBRANCH  26  27
ENDBRANCH  25  26
ENDBRANCH  24  25
ENDBRANCH  23  24
ENDBRANCH  22  23
ENDBRANCH  21  22
ENDBRANCH  20  21
ENDBRANCH  19  20
ENDBRANCH  18  19
ENDBRANCH   1  18
TORSDOF 28
ENDMDL
MODEL 8
REMARK VINA RESULT:     0.412      3.363     11.275
REMARK INTER + INTRA:          -0.066
REMARK INTER:                   1.188
REMARK INTRA:                  -1.254
REMARK UNBOUND:                -1.153
REMARK SMILES CCCCCCCCCCCCCCCCCCCCCCCCCCCCCC(=O)[O-]
REMARK SMILES IDX 16 1 17 2 18 3 19 4 20 5 21 6 22 7 23 8 24 9 25 10 26 11
REMARK SMILES IDX 27 12 28 13 29 14 30 15 31 16 32 17 15 18 14 19 13 20 12 21
REMARK SMILES IDX 11 22 10 23 9 24 8 25 7 26 6 27 5 28 4 29 3 30 2 31 1 32
REMARK H PARENT
REMARK Flexibility Score: inf
ROOT
ATOM      1  C   UNL     1      -5.572   5.937  -4.370  1.00  0.00     0.000 C 
ENDROOT
BRANCH   1   2
ATOM      2  C   UNL     1      -6.737   5.896  -5.377  1.00  0.00     0.000 C 
BRANCH   2   3
ATOM      3  C   UNL     1      -6.679   7.034  -6.410  1.00  0.00     0.000 C 
BRANCH   3   4
ATOM      4  C   UNL     1      -8.021   7.253  -7.129  1.00  0.00     0.000 C 
BRANCH   4   5
ATOM      5  C   UNL     1      -8.129   6.465  -8.446  1.00  0.00     0.000 C 
BRANCH   5   6
ATOM      6  C   UNL     1      -9.151   7.084  -9.415  1.00  0.00     0.000 C 
BRANCH   6   7
ATOM      7  C   UNL     1      -8.769   8.514  -9.837  1.00  0.00     0.000 C 
BRANCH   7   8
ATOM      8  C   UNL     1      -7.822   9.195  -8.834  1.00  0.00     0.000 C 
BRANCH   8   9
ATOM      9  C   UNL     1      -6.411   9.418  -9.403  1.00  0.00     0.000 C 
BRANCH   9  10
ATOM     10  C   UNL     1      -5.452   9.927  -8.321  1.00  0.00     0.000 C 
BRANCH  10  11
ATOM     11  C   UNL     1      -3.991   9.657  -8.713  1.00  0.00     0.000 C 
BRANCH  11  12
ATOM     12  C   UNL     1      -3.858   9.061 -10.124  1.00  0.00     0.000 C 
BRANCH  12  13
ATOM     13  C   UNL     1      -3.222   7.661 -10.114  1.00  0.00     0.006 C 
BRANCH  13  14
ATOM     14  C   UNL     1      -4.229   6.569  -9.728  1.00  0.00     0.053 C 
BRANCH  14  15
ATOM     15  C   UNL     1      -3.548   5.322  -9.256  1.00  0.00     0.041 C 
ATOM     16  O   UNL     1      -2.578   4.846  -9.904  1.00  0.00    -0.550 OA
ATOM     17  O   UNL     1      -4.000   4.669  -8.113  1.00  0.00    -0.550 OA
ENDBRANCH  14  15
ENDBRANCH  13  14
ENDBRANCH  12  13
ENDBRANCH  11  12
ENDBRANCH  10  11
ENDBRANCH   9  10
ENDBRANCH   8   9
ENDBRANCH   7   8
ENDBRANCH   6   7
ENDBRANCH   5   6
ENDBRANCH   4   5
ENDBRANCH   3   4
ENDBRANCH   2   3
ENDBRANCH   1   2
BRANCH   1  18
ATOM     18  C   UNL     1      -4.254   5.300  -4.860  1.00  0.00     0.000 C 
BRANCH  18  19
ATOM     19  C   UNL     1      -3.571   4.346  -3.860  1.00  0.00     0.000 C 
BRANCH  19  20
ATOM     20  C   UNL     1      -3.751   4.718  -2.375  1.00  0.00     0.000 C 
BRANCH  20  21
ATOM     21  C   UNL     1      -2.426   5.005  -1.638  1.00  0.00     0.000 C 
BRANCH  21  22
ATOM     22  C   UNL     1      -2.641   5.557  -0.217  1.00  0.00     0.000 C 
BRANCH  22  23
ATOM     23  C   UNL     1      -2.670   4.454   0.859  1.00  0.00     0.000 C 
BRANCH  23  24
ATOM     24  C   UNL     1      -4.071   3.932   1.229  1.00  0.00    -0.000 C 
BRANCH  24  25
ATOM     25  C   UNL     1      -4.261   2.438   0.913  1.00  0.00    -0.000 C 
BRANCH  25  26
ATOM     26  C   UNL     1      -3.127   1.874   0.041  1.00  0.00    -0.000 C 
BRANCH  26  27
ATOM     27  C   UNL     1      -3.641   0.962  -1.086  1.00  0.00    -0.000 C 
BRANCH  27  28
ATOM     28  C   UNL     1      -4.146  -0.398  -0.567  1.00  0.00    -0.000 C 
BRANCH  28  29
ATOM     29  C   UNL     1      -4.024  -1.561  -1.571  1.00  0.00    -0.000 C 
BRANCH  29  30
ATOM     30  C   UNL     1      -3.965  -2.938  -0.891  1.00  0.00    -0.000 C 
BRANCH  30  31
ATOM     31  C   UNL     1      -3.897  -4.060  -1.934  1.00  0.00    -0.003 C 
ATOM     32  C   UNL     1      -3.552  -3.513  -3.314  1.00  0.00     0.004 C 
ENDBRANCH  30  31
ENDBRANCH  29  30
ENDBRANCH  28  29
ENDBRANCH  27  28
ENDBRANCH  26  27
ENDBRANCH  25  26
ENDBRANCH  24  25
ENDBRANCH  23  24
ENDBRANCH  22  23
ENDBRANCH  21  22
ENDBRANCH  20  21
ENDBRANCH  19  20
ENDBRANCH  18  19
ENDBRANCH   1  18
TORSDOF 28
ENDMDL
