MODEL 1
REMARK VINA RESULT:    -4.430      0.000      0.000
REMARK INTER + INTRA:          -8.647
REMARK INTER:                  -7.538
REMARK INTRA:                  -1.109
REMARK UNBOUND:                -1.109
REMARK SMILES CCCCCCCCCCCCCC(=O)[O-]
REMARK SMILES IDX 8 1 9 2 10 3 11 4 12 5 13 6 14 7 15 8 16 9 7 10 6 11 5 12
REMARK SMILES IDX 4 13 3 14 2 15 1 16
REMARK H PARENT
REMARK Flexibility Score: inf
ROOT
ATOM      1  C   UNL     1      -4.227  -3.702  -2.228  1.00  0.00     0.000 C 
ENDROOT
BRANCH   1   2
ATOM      2  C   UNL     1      -5.206  -4.224  -3.296  1.00  0.00     0.000 C 
BRANCH   2   3
ATOM      3  C   UNL     1      -5.159  -3.492  -4.649  1.00  0.00     0.000 C 
BRANCH   3   4
ATOM      4  C   UNL     1      -3.795  -2.843  -4.935  1.00  0.00     0.000 C 
BRANCH   4   5
ATOM      5  C   UNL     1      -3.801  -1.976  -6.208  1.00  0.00     0.006 C 
BRANCH   5   6
ATOM      6  C   UNL     1      -5.122  -1.231  -6.461  1.00  0.00     0.053 C 
BRANCH   6   7
ATOM      7  C   UNL     1      -5.037   0.211  -6.064  1.00  0.00     0.041 C 
ATOM      8  O   UNL     1      -5.940   1.018  -6.408  1.00  0.00    -0.550 OA
ATOM      9  O   UNL     1      -3.944   0.669  -5.339  1.00  0.00    -0.550 OA
ENDBRANCH   6   7
ENDBRANCH   5   6
ENDBRANCH   4   5
ENDBRANCH   3   4
ENDBRANCH   2   3
ENDBRANCH   1   2
BRANCH   1  10
ATOM     10  C   UNL     1      -4.733  -3.916  -0.792  1.00  0.00     0.000 C 
BRANCH  10  11
ATOM     11  C   UNL     1      -5.329  -2.639  -0.171  1.00  0.00    -0.000 C 
BRANCH  11  12
ATOM     12  C   UNL     1      -6.716  -2.807   0.484  1.00  0.00    -0.000 C 
BRANCH  12  13
ATOM     13  C   UNL     1      -7.783  -3.481  -0.398  1.00  0.00    -0.000 C 
BRANCH  13  14
ATOM     14  C   UNL     1      -8.568  -4.574   0.347  1.00  0.00    -0.000 C 
BRANCH  14  15
ATOM     15  C   UNL     1      -7.666  -5.722   0.826  1.00  0.00    -0.003 C 
ATOM     16  C   UNL     1      -7.230  -6.648  -0.311  1.00  0.00     0.004 C 
ENDBRANCH  14  15
ENDBRANCH  13  14
ENDBRANCH  12  13
ENDBRANCH  11  12
ENDBRANCH  10  11
ENDBRANCH   1  10
TORSDOF 12
ENDMDL
MODEL 2
REMARK VINA RESULT:    -4.415      1.051      2.266
REMARK INTER + INTRA:          -8.621
REMARK INTER:                  -7.564
REMARK INTRA:                  -1.057
REMARK UNBOUND:                -1.109
REMARK SMILES CCCCCCCCCCCCCC(=O)[O-]
REMARK SMILES IDX 8 1 9 2 10 3 11 4 12 5 13 6 14 7 15 8 16 9 7 10 6 11 5 12
REMARK SMILES IDX 4 13 3 14 2 15 1 16
REMARK H PARENT
REMARK Flexibility Score: inf
ROOT
ATOM      1  C   UNL     1      -5.305  -2.938  -0.564  1.00  0.00     0.000 C 
ENDROOT
BRANCH   1   2
ATOM      2  C   UNL     1      -5.102  -4.316  -1.222  1.00  0.00     0.000 C 
BRANCH   2   3
ATOM      3  C   UNL     1      -5.497  -4.403  -2.708  1.00  0.00     0.000 C 
BRANCH   3   4
ATOM      4  C   UNL     1      -4.526  -3.650  -3.632  1.00  0.00     0.000 C 
BRANCH   4   5
ATOM      5  C   UNL     1      -5.036  -3.558  -5.084  1.00  0.00     0.006 C 
BRANCH   5   6
ATOM      6  C   UNL     1      -4.106  -2.785  -6.034  1.00  0.00     0.053 C 
BRANCH   6   7
ATOM      7  C   UNL     1      -4.618  -1.407  -6.320  1.00  0.00     0.041 C 
ATOM      8  O   UNL     1      -3.820  -0.484  -6.628  1.00  0.00    -0.550 OA
ATOM      9  O   UNL     1      -5.977  -1.135  -6.218  1.00  0.00    -0.550 OA
ENDBRANCH   6   7
ENDBRANCH   5   6
ENDBRANCH   4   5
ENDBRANCH   3   4
ENDBRANCH   2   3
ENDBRANCH   1   2
BRANCH   1  10
ATOM     10  C   UNL     1      -6.485  -2.911   0.422  1.00  0.00     0.000 C 
BRANCH  10  11
ATOM     11  C   UNL     1      -7.816  -3.334  -0.225  1.00  0.00    -0.000 C 
BRANCH  11  12
ATOM     12  C   UNL     1      -8.498  -4.566   0.406  1.00  0.00    -0.000 C 
BRANCH  12  13
ATOM     13  C   UNL     1      -7.756  -5.185   1.605  1.00  0.00    -0.000 C 
BRANCH  13  14
ATOM     14  C   UNL     1      -6.886  -6.391   1.209  1.00  0.00    -0.000 C 
BRANCH  14  15
ATOM     15  C   UNL     1      -7.378  -7.074  -0.076  1.00  0.00    -0.003 C 
ATOM     16  C   UNL     1      -7.390  -8.600   0.031  1.00  0.00     0.004 C 
ENDBRANCH  14  15
ENDBRANCH  13  14
ENDBRANCH  12  13
ENDBRANCH  11  12
ENDBRANCH  10  11
ENDBRANCH   1  10
TORSDOF 12
ENDMDL
MODEL 3
REMARK VINA RESULT:    -4.308      1.514      2.499
REMARK INTER + INTRA:          -8.439
REMARK INTER:                  -7.052
REMARK INTRA:                  -1.387
REMARK UNBOUND:                -1.109
REMARK SMILES CCCCCCCCCCCCCC(=O)[O-]
REMARK SMILES IDX 8 1 9 2 10 3 11 4 12 5 13 6 14 7 15 8 16 9 7 10 6 11 5 12
REMARK SMILES IDX 4 13 3 14 2 15 1 16
REMARK H PARENT
REMARK Flexibility Score: inf
ROOT
ATOM      1  C   UNL     1      -2.892  -3.780  -3.836  1.00  0.00     0.000 C 
ENDROOT
BRANCH   1   2
ATOM      2  C   UNL     1      -4.398  -4.100  -3.834  1.00  0.00     0.000 C 
BRANCH   2   3
ATOM      3  C   UNL     1      -5.196  -3.529  -5.021  1.00  0.00     0.000 C 
BRANCH   3   4
ATOM      4  C   UNL     1      -4.311  -2.794  -6.042  1.00  0.00     0.000 C 
BRANCH   4   5
ATOM      5  C   UNL     1      -4.836  -1.386  -6.381  1.00  0.00     0.006 C 
BRANCH   5   6
ATOM      6  C   UNL     1      -4.168  -0.252  -5.584  1.00  0.00     0.053 C 
BRANCH   6   7
ATOM      7  C   UNL     1      -4.930   1.032  -5.691  1.00  0.00     0.041 C 
ATOM      8  O   UNL     1      -4.516   2.067  -5.105  1.00  0.00    -0.550 OA
ATOM      9  O   UNL     1      -6.116   1.079  -6.413  1.00  0.00    -0.550 OA
ENDBRANCH   6   7
ENDBRANCH   5   6
ENDBRANCH   4   5
ENDBRANCH   3   4
ENDBRANCH   2   3
ENDBRANCH   1   2
BRANCH   1  10
ATOM     10  C   UNL     1      -2.461  -2.910  -2.643  1.00  0.00     0.000 C 
BRANCH  10  11
ATOM     11  C   UNL     1      -3.553  -1.920  -2.198  1.00  0.00    -0.000 C 
BRANCH  11  12
ATOM     12  C   UNL     1      -3.847  -1.896  -0.684  1.00  0.00    -0.000 C 
BRANCH  12  13
ATOM     13  C   UNL     1      -3.864  -3.273   0.006  1.00  0.00    -0.000 C 
BRANCH  13  14
ATOM     14  C   UNL     1      -5.258  -3.660   0.528  1.00  0.00    -0.000 C 
BRANCH  14  15
ATOM     15  C   UNL     1      -6.338  -3.582  -0.563  1.00  0.00    -0.003 C 
ATOM     16  C   UNL     1      -7.647  -2.974  -0.059  1.00  0.00     0.004 C 
ENDBRANCH  14  15
ENDBRANCH  13  14
ENDBRANCH  12  13
ENDBRANCH  11  12
ENDBRANCH  10  11
ENDBRANCH   1  10
TORSDOF 12
ENDMDL
MODEL 4
REMARK VINA RESULT:    -4.238      3.591      7.597
REMARK INTER + INTRA:          -8.320
REMARK INTER:                  -7.735
REMARK INTRA:                  -0.585
REMARK UNBOUND:                -1.109
REMARK SMILES CCCCCCCCCCCCCC(=O)[O-]
REMARK SMILES IDX 8 1 9 2 10 3 11 4 12 5 13 6 14 7 15 8 16 9 7 10 6 11 5 12
REMARK SMILES IDX 4 13 3 14 2 15 1 16
REMARK H PARENT
REMARK Flexibility Score: inf
ROOT
ATOM      1  C   UNL     1      -5.263  -3.388  -4.443  1.00  0.00     0.000 C 
ENDROOT
BRANCH   1   2
ATOM      2  C   UNL     1      -4.490  -3.646  -3.137  1.00  0.00     0.000 C 
BRANCH   2   3
ATOM      3  C   UNL     1      -5.360  -3.957  -1.905  1.00  0.00     0.000 C 
BRANCH   3   4
ATOM      4  C   UNL     1      -5.180  -2.936  -0.770  1.00  0.00     0.000 C 
BRANCH   4   5
ATOM      5  C   UNL     1      -6.197  -3.128   0.372  1.00  0.00     0.006 C 
BRANCH   5   6
ATOM      6  C   UNL     1      -7.657  -3.254  -0.094  1.00  0.00     0.053 C 
BRANCH   6   7
ATOM      7  C   UNL     1      -8.273  -4.548   0.340  1.00  0.00     0.041 C 
ATOM      8  O   UNL     1      -9.354  -4.551   0.987  1.00  0.00    -0.550 OA
ATOM      9  O   UNL     1      -7.639  -5.751   0.057  1.00  0.00    -0.550 OA
ENDBRANCH   6   7
ENDBRANCH   5   6
ENDBRANCH   4   5
ENDBRANCH   3   4
ENDBRANCH   2   3
ENDBRANCH   1   2
BRANCH   1  10
ATOM     10  C   UNL     1      -4.421  -3.655  -5.703  1.00  0.00     0.000 C 
BRANCH  10  11
ATOM     11  C   UNL     1      -4.058  -2.367  -6.464  1.00  0.00    -0.000 C 
BRANCH  11  12
ATOM     12  C   UNL     1      -4.973  -1.155  -6.190  1.00  0.00    -0.000 C 
BRANCH  12  13
ATOM     13  C   UNL     1      -4.276   0.070  -5.571  1.00  0.00    -0.000 C 
BRANCH  13  14
ATOM     14  C   UNL     1      -5.086   1.366  -5.742  1.00  0.00    -0.000 C 
BRANCH  14  15
ATOM     15  C   UNL     1      -4.193   2.615  -5.798  1.00  0.00    -0.003 C 
ATOM     16  C   UNL     1      -4.214   3.298  -7.166  1.00  0.00     0.004 C 
ENDBRANCH  14  15
ENDBRANCH  13  14
ENDBRANCH  12  13
ENDBRANCH  11  12
ENDBRANCH  10  11
ENDBRANCH   1  10
TORSDOF 12
ENDMDL
MODEL 5
REMARK VINA RESULT:    -4.168      1.188      1.932
REMARK INTER + INTRA:          -8.201
REMARK INTER:                  -7.304
REMARK INTRA:                  -0.896
REMARK UNBOUND:                -1.109
REMARK SMILES CCCCCCCCCCCCCC(=O)[O-]
REMARK SMILES IDX 8 1 9 2 10 3 11 4 12 5 13 6 14 7 15 8 16 9 7 10 6 11 5 12
REMARK SMILES IDX 4 13 3 14 2 15 1 16
REMARK H PARENT
REMARK Flexibility Score: inf
ROOT
ATOM      1  C   UNL     1      -5.014  -4.057  -3.447  1.00  0.00     0.000 C 
ENDROOT
BRANCH   1   2
ATOM      2  C   UNL     1      -5.434  -3.369  -4.759  1.00  0.00     0.000 C 
BRANCH   2   3
ATOM      3  C   UNL     1      -4.376  -3.378  -5.878  1.00  0.00     0.000 C 
BRANCH   3   4
ATOM      4  C   UNL     1      -4.110  -1.982  -6.464  1.00  0.00     0.000 C 
BRANCH   4   5
ATOM      5  C   UNL     1      -5.242  -0.981  -6.160  1.00  0.00     0.006 C 
BRANCH   5   6
ATOM      6  C   UNL     1      -4.767   0.466  -5.948  1.00  0.00     0.053 C 
BRANCH   6   7
ATOM      7  C   UNL     1      -3.583   0.539  -5.034  1.00  0.00     0.041 C 
ATOM      8  O   UNL     1      -3.645   0.054  -3.874  1.00  0.00    -0.550 OA
ATOM      9  O   UNL     1      -2.419   1.172  -5.453  1.00  0.00    -0.550 OA
ENDBRANCH   6   7
ENDBRANCH   5   6
ENDBRANCH   4   5
ENDBRANCH   3   4
ENDBRANCH   2   3
ENDBRANCH   1   2
BRANCH   1  10
ATOM     10  C   UNL     1      -3.922  -3.286  -2.687  1.00  0.00     0.000 C 
BRANCH  10  11
ATOM     11  C   UNL     1      -3.991  -3.496  -1.163  1.00  0.00    -0.000 C 
BRANCH  11  12
ATOM     12  C   UNL     1      -5.019  -2.618  -0.420  1.00  0.00    -0.000 C 
BRANCH  12  13
ATOM     13  C   UNL     1      -6.014  -3.383   0.472  1.00  0.00    -0.000 C 
BRANCH  13  14
ATOM     14  C   UNL     1      -7.478  -2.992   0.204  1.00  0.00    -0.000 C 
BRANCH  14  15
ATOM     15  C   UNL     1      -8.426  -4.200   0.244  1.00  0.00    -0.003 C 
ATOM     16  C   UNL     1      -7.688  -5.536   0.160  1.00  0.00     0.004 C 
ENDBRANCH  14  15
ENDBRANCH  13  14
ENDBRANCH  12  13
ENDBRANCH  11  12
ENDBRANCH  10  11
ENDBRANCH   1  10
TORSDOF 12
ENDMDL
MODEL 6
REMARK VINA RESULT:    -4.155      1.297      2.045
REMARK INTER + INTRA:          -8.178
REMARK INTER:                  -6.947
REMARK INTRA:                  -1.231
REMARK UNBOUND:                -1.109
REMARK SMILES CCCCCCCCCCCCCC(=O)[O-]
REMARK SMILES IDX 8 1 9 2 10 3 11 4 12 5 13 6 14 7 15 8 16 9 7 10 6 11 5 12
REMARK SMILES IDX 4 13 3 14 2 15 1 16
REMARK H PARENT
REMARK Flexibility Score: inf
ROOT
ATOM      1  C   UNL     1      -2.846  -3.423  -2.258  1.00  0.00     0.000 C 
ENDROOT
BRANCH   1   2
ATOM      2  C   UNL     1      -3.551  -3.988  -3.505  1.00  0.00     0.000 C 
BRANCH   2   3
ATOM      3  C   UNL     1      -5.057  -3.685  -3.607  1.00  0.00     0.000 C 
BRANCH   3   4
ATOM      4  C   UNL     1      -5.510  -3.364  -5.041  1.00  0.00     0.000 C 
BRANCH   4   5
ATOM      5  C   UNL     1      -4.362  -2.840  -5.926  1.00  0.00     0.006 C 
BRANCH   5   6
ATOM      6  C   UNL     1      -4.621  -1.456  -6.544  1.00  0.00     0.053 C 
BRANCH   6   7
ATOM      7  C   UNL     1      -3.633  -0.436  -6.067  1.00  0.00     0.041 C 
ATOM      8  O   UNL     1      -2.674  -0.087  -6.805  1.00  0.00    -0.550 OA
ATOM      9  O   UNL     1      -3.754   0.107  -4.794  1.00  0.00    -0.550 OA
ENDBRANCH   6   7
ENDBRANCH   5   6
ENDBRANCH   4   5
ENDBRANCH   3   4
ENDBRANCH   2   3
ENDBRANCH   1   2
BRANCH   1  10
ATOM     10  C   UNL     1      -3.346  -2.021  -1.868  1.00  0.00     0.000 C 
BRANCH  10  11
ATOM     11  C   UNL     1      -4.006  -1.986  -0.478  1.00  0.00    -0.000 C 
BRANCH  11  12
ATOM     12  C   UNL     1      -4.141  -3.352   0.226  1.00  0.00    -0.000 C 
BRANCH  12  13
ATOM     13  C   UNL     1      -5.575  -3.750   0.620  1.00  0.00    -0.000 C 
BRANCH  13  14
ATOM     14  C   UNL     1      -6.609  -2.661   0.284  1.00  0.00    -0.000 C 
BRANCH  14  15
ATOM     15  C   UNL     1      -7.990  -3.245  -0.051  1.00  0.00    -0.003 C 
ATOM     16  C   UNL     1      -8.101  -4.734   0.283  1.00  0.00     0.004 C 
ENDBRANCH  14  15
ENDBRANCH  13  14
ENDBRANCH  12  13
ENDBRANCH  11  12
ENDBRANCH  10  11
ENDBRANCH   1  10
TORSDOF 12
ENDMDL
MODEL 7
REMARK VINA RESULT:    -4.126      3.598      6.854
REMARK INTER + INTRA:          -8.130
REMARK INTER:                  -6.709
REMARK INTRA:                  -1.421
REMARK UNBOUND:                -1.109
REMARK SMILES CCCCCCCCCCCCCC(=O)[O-]
REMARK SMILES IDX 8 1 9 2 10 3 11 4 12 5 13 6 14 7 15 8 16 9 7 10 6 11 5 12
REMARK SMILES IDX 4 13 3 14 2 15 1 16
REMARK H PARENT
REMARK Flexibility Score: inf
ROOT
ATOM      1  C   UNL     1      -4.381  -3.620  -5.716  1.00  0.00     0.000 C 
ENDROOT
BRANCH   1   2
ATOM      2  C   UNL     1      -5.205  -3.381  -4.438  1.00  0.00     0.000 C 
BRANCH   2   3
ATOM      3  C   UNL     1      -4.540  -3.841  -3.128  1.00  0.00     0.000 C 
BRANCH   3   4
ATOM      4  C   UNL     1      -5.547  -4.389  -2.102  1.00  0.00     0.000 C 
BRANCH   4   5
ATOM      5  C   UNL     1      -5.754  -3.441  -0.905  1.00  0.00     0.006 C 
BRANCH   5   6
ATOM      6  C   UNL     1      -7.226  -3.225  -0.515  1.00  0.00     0.053 C 
BRANCH   6   7
ATOM      7  C   UNL     1      -7.710  -4.267   0.445  1.00  0.00     0.041 C 
ATOM      8  O   UNL     1      -8.944  -4.469   0.593  1.00  0.00    -0.550 OA
ATOM      9  O   UNL     1      -6.799  -4.996   1.199  1.00  0.00    -0.550 OA
ENDBRANCH   6   7
ENDBRANCH   5   6
ENDBRANCH   4   5
ENDBRANCH   3   4
ENDBRANCH   2   3
ENDBRANCH   1   2
BRANCH   1  10
ATOM     10  C   UNL     1      -4.067  -2.323  -6.481  1.00  0.00     0.000 C 
BRANCH  10  11
ATOM     11  C   UNL     1      -5.119  -1.223  -6.251  1.00  0.00    -0.000 C 
BRANCH  11  12
ATOM     12  C   UNL     1      -4.554   0.177  -5.932  1.00  0.00    -0.000 C 
BRANCH  12  13
ATOM     13  C   UNL     1      -3.165   0.190  -5.268  1.00  0.00    -0.000 C 
BRANCH  13  14
ATOM     14  C   UNL     1      -3.229  -0.038  -3.748  1.00  0.00    -0.000 C 
BRANCH  14  15
ATOM     15  C   UNL     1      -2.149  -1.013  -3.255  1.00  0.00    -0.003 C 
ATOM     16  C   UNL     1      -1.197  -1.457  -4.366  1.00  0.00     0.004 C 
ENDBRANCH  14  15
ENDBRANCH  13  14
ENDBRANCH  12  13
ENDBRANCH  11  12
ENDBRANCH  10  11
ENDBRANCH   1  10
TORSDOF 12
ENDMDL
MODEL 8
REMARK VINA RESULT:    -4.071      1.703      3.168
REMARK INTER + INTRA:          -8.037
REMARK INTER:                  -7.328
REMARK INTRA:                  -0.708
REMARK UNBOUND:                -1.109
REMARK SMILES CCCCCCCCCCCCCC(=O)[O-]
REMARK SMILES IDX 8 1 9 2 10 3 11 4 12 5 13 6 14 7 15 8 16 9 7 10 6 11 5 12
REMARK SMILES IDX 4 13 3 14 2 15 1 16
REMARK H PARENT
REMARK Flexibility Score: inf
ROOT
ATOM      1  C   UNL     1      -3.988  -3.214  -5.423  1.00  0.00     0.000 C 
ENDROOT
BRANCH   1   2
ATOM      2  C   UNL     1      -4.555  -2.269  -6.499  1.00  0.00     0.000 C 
BRANCH   2   3
ATOM      3  C   UNL     1      -4.544  -0.773  -6.136  1.00  0.00     0.000 C 
BRANCH   3   4
ATOM      4  C   UNL     1      -3.516  -0.427  -5.046  1.00  0.00     0.000 C 
BRANCH   4   5
ATOM      5  C   UNL     1      -3.519   1.069  -4.676  1.00  0.00     0.006 C 
BRANCH   5   6
ATOM      6  C   UNL     1      -4.438   1.937  -5.554  1.00  0.00     0.053 C 
BRANCH   6   7
ATOM      7  C   UNL     1      -3.660   2.884  -6.413  1.00  0.00     0.041 C 
ATOM      8  O   UNL     1      -2.431   3.067  -6.206  1.00  0.00    -0.550 OA
ATOM      9  O   UNL     1      -4.298   3.591  -7.425  1.00  0.00    -0.550 OA
ENDBRANCH   6   7
ENDBRANCH   5   6
ENDBRANCH   4   5
ENDBRANCH   3   4
ENDBRANCH   2   3
ENDBRANCH   1   2
BRANCH   1  10
ATOM     10  C   UNL     1      -5.057  -3.709  -4.435  1.00  0.00     0.000 C 
BRANCH  10  11
ATOM     11  C   UNL     1      -4.638  -3.536  -2.963  1.00  0.00    -0.000 C 
BRANCH  11  12
ATOM     12  C   UNL     1      -5.694  -3.955  -1.920  1.00  0.00    -0.000 C 
BRANCH  12  13
ATOM     13  C   UNL     1      -5.393  -3.531  -0.471  1.00  0.00    -0.000 C 
BRANCH  13  14
ATOM     14  C   UNL     1      -6.577  -2.811   0.197  1.00  0.00    -0.000 C 
BRANCH  14  15
ATOM     15  C   UNL     1      -7.936  -3.349  -0.277  1.00  0.00    -0.003 C 
ATOM     16  C   UNL     1      -8.505  -4.425   0.650  1.00  0.00     0.004 C 
ENDBRANCH  14  15
ENDBRANCH  13  14
ENDBRANCH  12  13
ENDBRANCH  11  12
ENDBRANCH  10  11
ENDBRANCH   1  10
TORSDOF 12
ENDMDL
MODEL 9
REMARK VINA RESULT:    -4.054      3.124      6.496
REMARK INTER + INTRA:          -8.007
REMARK INTER:                  -6.473
REMARK INTRA:                  -1.534
REMARK UNBOUND:                -1.109
REMARK SMILES CCCCCCCCCCCCCC(=O)[O-]
REMARK SMILES IDX 8 1 9 2 10 3 11 4 12 5 13 6 14 7 15 8 16 9 7 10 6 11 5 12
REMARK SMILES IDX 4 13 3 14 2 15 1 16
REMARK H PARENT
REMARK Flexibility Score: inf
ROOT
ATOM      1  C   UNL     1      -2.212  -2.541  -2.373  1.00  0.00     0.000 C 
ENDROOT
BRANCH   1   2
ATOM      2  C   UNL     1      -3.179  -1.403  -1.997  1.00  0.00     0.000 C 
BRANCH   2   3
ATOM      3  C   UNL     1      -3.692  -1.425  -0.546  1.00  0.00     0.000 C 
BRANCH   3   4
ATOM      4  C   UNL     1      -3.363  -2.735   0.188  1.00  0.00     0.000 C 
BRANCH   4   5
ATOM      5  C   UNL     1      -4.613  -3.591   0.471  1.00  0.00     0.006 C 
BRANCH   5   6
ATOM      6  C   UNL     1      -5.938  -2.939   0.041  1.00  0.00     0.053 C 
BRANCH   6   7
ATOM      7  C   UNL     1      -6.973  -3.959  -0.320  1.00  0.00     0.041 C 
ATOM      8  O   UNL     1      -6.634  -5.042  -0.865  1.00  0.00    -0.550 OA
ATOM      9  O   UNL     1      -8.317  -3.700  -0.083  1.00  0.00    -0.550 OA
ENDBRANCH   6   7
ENDBRANCH   5   6
ENDBRANCH   4   5
ENDBRANCH   3   4
ENDBRANCH   2   3
ENDBRANCH   1   2
BRANCH   1  10
ATOM     10  C   UNL     1      -2.799  -3.509  -3.414  1.00  0.00     0.000 C 
BRANCH  10  11
ATOM     11  C   UNL     1      -4.321  -3.690  -3.273  1.00  0.00    -0.000 C 
BRANCH  11  12
ATOM     12  C   UNL     1      -5.147  -3.360  -4.534  1.00  0.00    -0.000 C 
BRANCH  12  13
ATOM     13  C   UNL     1      -4.391  -3.495  -5.869  1.00  0.00    -0.000 C 
BRANCH  13  14
ATOM     14  C   UNL     1      -4.066  -2.135  -6.510  1.00  0.00    -0.000 C 
BRANCH  14  15
ATOM     15  C   UNL     1      -5.094  -1.052  -6.145  1.00  0.00    -0.003 C 
ATOM     16  C   UNL     1      -4.448   0.211  -5.575  1.00  0.00     0.004 C 
ENDBRANCH  14  15
ENDBRANCH  13  14
ENDBRANCH  12  13
ENDBRANCH  11  12
ENDBRANCH  10  11
ENDBRANCH   1  10
TORSDOF 12
ENDMDL
