MODEL 1
REMARK VINA RESULT:     7.717      0.000      0.000
REMARK INTER + INTRA:          14.394
REMARK INTER:                  14.485
REMARK INTRA:                  -0.091
REMARK UNBOUND:                -0.091
REMARK SMILES CCCCCCCCC=CCCCCCCCC(=O)[O-]
REMARK SMILES IDX 10 1 9 2 11 3 12 4 13 5 14 6 15 7 16 8 17 9 18 10 19 11
REMARK SMILES IDX 20 12 8 13 7 14 6 15 5 16 4 17 3 18 2 19 1 20
REMARK H PARENT
REMARK Flexibility Score: inf
ROOT
ATOM      1  C   UNL     1       3.751  23.810  42.753  1.00  0.00    -0.031 C 
ATOM      2  C   UNL     1       4.769  23.320  43.486  1.00  0.00    -0.031 C 
ENDROOT
BRANCH   1   3
ATOM      3  C   UNL     1       3.479  25.273  42.494  1.00  0.00     0.027 C 
BRANCH   3   4
ATOM      4  C   UNL     1       1.974  25.568  42.452  1.00  0.00     0.004 C 
BRANCH   4   5
ATOM      5  C   UNL     1       1.149  24.343  42.035  1.00  0.00     0.000 C 
BRANCH   5   6
ATOM      6  C   UNL     1       1.274  24.082  40.529  1.00  0.00     0.000 C 
BRANCH   6   7
ATOM      7  C   UNL     1       1.981  25.250  39.827  1.00  0.00     0.000 C 
BRANCH   7   8
ATOM      8  C   UNL     1       0.996  26.281  39.246  1.00  0.00     0.006 C 
BRANCH   8   9
ATOM      9  C   UNL     1       0.685  27.458  40.185  1.00  0.00     0.053 C 
BRANCH   9  10
ATOM     10  C   UNL     1      -0.158  28.501  39.518  1.00  0.00     0.041 C 
ATOM     11  O   UNL     1      -0.719  28.254  38.417  1.00  0.00    -0.550 OA
ATOM     12  O   UNL     1      -0.295  29.758  40.093  1.00  0.00    -0.550 OA
ENDBRANCH   9  10
ENDBRANCH   8   9
ENDBRANCH   7   8
ENDBRANCH   6   7
ENDBRANCH   5   6
ENDBRANCH   4   5
ENDBRANCH   3   4
ENDBRANCH   1   3
BRANCH   2  13
ATOM     13  C   UNL     1       5.856  24.139  44.141  1.00  0.00     0.027 C 
BRANCH  13  14
ATOM     14  C   UNL     1       7.179  23.363  44.223  1.00  0.00     0.004 C 
BRANCH  14  15
ATOM     15  C   UNL     1       8.250  23.935  43.284  1.00  0.00     0.000 C 
BRANCH  15  16
ATOM     16  C   UNL     1       8.258  25.470  43.328  1.00  0.00     0.000 C 
BRANCH  16  17
ATOM     17  C   UNL     1       9.676  26.059  43.265  1.00  0.00    -0.000 C 
BRANCH  17  18
ATOM     18  C   UNL     1      10.587  25.529  44.387  1.00  0.00    -0.000 C 
BRANCH  18  19
ATOM     19  C   UNL     1      11.872  26.357  44.541  1.00  0.00    -0.003 C 
ATOM     20  C   UNL     1      13.121  25.606  44.080  1.00  0.00     0.004 C 
ENDBRANCH  18  19
ENDBRANCH  17  18
ENDBRANCH  16  17
ENDBRANCH  15  16
ENDBRANCH  14  15
ENDBRANCH  13  14
ENDBRANCH   2  13
TORSDOF 15
ENDMDL
MODEL 2
REMARK VINA RESULT:     8.129      4.511      9.578
REMARK INTER + INTRA:          15.167
REMARK INTER:                  16.102
REMARK INTRA:                  -0.935
REMARK UNBOUND:                -0.091
REMARK SMILES CCCCCCCCC=CCCCCCCCC(=O)[O-]
REMARK SMILES IDX 10 1 9 2 11 3 12 4 13 5 14 6 15 7 16 8 17 9 18 10 19 11
REMARK SMILES IDX 20 12 8 13 7 14 6 15 5 16 4 17 3 18 2 19 1 20
REMARK H PARENT
REMARK Flexibility Score: inf
ROOT
ATOM      1  C   UNL     1       4.150  24.816  43.074  1.00  0.00    -0.031 C 
ATOM      2  C   UNL     1       2.986  24.765  42.399  1.00  0.00    -0.031 C 
ENDROOT
BRANCH   1   3
ATOM      3  C   UNL     1       5.073  23.648  43.328  1.00  0.00     0.027 C 
BRANCH   3   4
ATOM      4  C   UNL     1       6.165  24.001  44.345  1.00  0.00     0.004 C 
BRANCH   4   5
ATOM      5  C   UNL     1       7.491  23.286  44.053  1.00  0.00     0.000 C 
BRANCH   5   6
ATOM      6  C   UNL     1       8.328  24.073  43.037  1.00  0.00     0.000 C 
BRANCH   6   7
ATOM      7  C   UNL     1       8.172  25.586  43.252  1.00  0.00     0.000 C 
BRANCH   7   8
ATOM      8  C   UNL     1       9.470  26.257  43.734  1.00  0.00     0.006 C 
BRANCH   8   9
ATOM      9  C   UNL     1      10.682  25.315  43.805  1.00  0.00     0.053 C 
BRANCH   9  10
ATOM     10  C   UNL     1      11.847  25.948  44.503  1.00  0.00     0.041 C 
ATOM     11  O   UNL     1      11.679  26.551  45.595  1.00  0.00    -0.550 OA
ATOM     12  O   UNL     1      13.111  25.902  43.929  1.00  0.00    -0.550 OA
ENDBRANCH   9  10
ENDBRANCH   8   9
ENDBRANCH   7   8
ENDBRANCH   6   7
ENDBRANCH   5   6
ENDBRANCH   4   5
ENDBRANCH   3   4
ENDBRANCH   1   3
BRANCH   2  13
ATOM     13  C   UNL     1       2.414  23.540  41.724  1.00  0.00     0.027 C 
BRANCH  13  14
ATOM     14  C   UNL     1       1.560  23.912  40.504  1.00  0.00     0.004 C 
BRANCH  14  15
ATOM     15  C   UNL     1       1.810  25.351  40.033  1.00  0.00     0.000 C 
BRANCH  15  16
ATOM     16  C   UNL     1       0.665  26.279  40.464  1.00  0.00     0.000 C 
BRANCH  16  17
ATOM     17  C   UNL     1       1.071  27.761  40.474  1.00  0.00    -0.000 C 
BRANCH  17  18
ATOM     18  C   UNL     1       0.019  28.667  39.812  1.00  0.00    -0.000 C 
BRANCH  18  19
ATOM     19  C   UNL     1      -0.736  27.960  38.676  1.00  0.00    -0.003 C 
ATOM     20  C   UNL     1      -0.358  28.488  37.292  1.00  0.00     0.004 C 
ENDBRANCH  18  19
ENDBRANCH  17  18
ENDBRANCH  16  17
ENDBRANCH  15  16
ENDBRANCH  14  15
ENDBRANCH  13  14
ENDBRANCH   2  13
TORSDOF 15
ENDMDL
MODEL 3
REMARK VINA RESULT:     8.278      4.728      9.303
REMARK INTER + INTRA:          15.447
REMARK INTER:                  15.768
REMARK INTRA:                  -0.321
REMARK UNBOUND:                -0.091
REMARK SMILES CCCCCCCCC=CCCCCCCCC(=O)[O-]
REMARK SMILES IDX 10 1 9 2 11 3 12 4 13 5 14 6 15 7 16 8 17 9 18 10 19 11
REMARK SMILES IDX 20 12 8 13 7 14 6 15 5 16 4 17 3 18 2 19 1 20
REMARK H PARENT
REMARK Flexibility Score: inf
ROOT
ATOM      1  C   UNL     1       4.415  23.756  43.093  1.00  0.00    -0.031 C 
ATOM      2  C   UNL     1       3.421  24.515  42.591  1.00  0.00    -0.031 C 
ENDROOT
BRANCH   1   3
ATOM      3  C   UNL     1       5.354  24.159  44.205  1.00  0.00     0.027 C 
BRANCH   3   4
ATOM      4  C   UNL     1       6.264  22.997  44.624  1.00  0.00     0.004 C 
BRANCH   4   5
ATOM      5  C   UNL     1       7.714  23.194  44.161  1.00  0.00     0.000 C 
BRANCH   5   6
ATOM      6  C   UNL     1       7.872  24.510  43.391  1.00  0.00     0.000 C 
BRANCH   6   7
ATOM      7  C   UNL     1       9.323  24.704  42.928  1.00  0.00     0.000 C 
BRANCH   7   8
ATOM      8  C   UNL     1       9.955  26.000  43.468  1.00  0.00     0.006 C 
BRANCH   8   9
ATOM      9  C   UNL     1      10.834  25.805  44.713  1.00  0.00     0.053 C 
BRANCH   9  10
ATOM     10  C   UNL     1      12.283  26.043  44.421  1.00  0.00     0.041 C 
ATOM     11  O   UNL     1      12.932  25.219  43.723  1.00  0.00    -0.550 OA
ATOM     12  O   UNL     1      12.927  27.155  44.948  1.00  0.00    -0.550 OA
ENDBRANCH   9  10
ENDBRANCH   8   9
ENDBRANCH   7   8
ENDBRANCH   6   7
ENDBRANCH   5   6
ENDBRANCH   4   5
ENDBRANCH   3   4
ENDBRANCH   1   3
BRANCH   2  13
ATOM     13  C   UNL     1       3.028  25.887  43.084  1.00  0.00     0.027 C 
BRANCH  13  14
ATOM     14  C   UNL     1       2.625  26.811  41.926  1.00  0.00     0.004 C 
BRANCH  14  15
ATOM     15  C   UNL     1       1.146  26.658  41.544  1.00  0.00     0.000 C 
BRANCH  15  16
ATOM     16  C   UNL     1       0.994  26.340  40.049  1.00  0.00     0.000 C 
BRANCH  16  17
ATOM     17  C   UNL     1       1.967  25.252  39.570  1.00  0.00    -0.000 C 
BRANCH  17  18
ATOM     18  C   UNL     1       1.807  23.932  40.344  1.00  0.00    -0.000 C 
BRANCH  18  19
ATOM     19  C   UNL     1       0.336  23.517  40.501  1.00  0.00    -0.003 C 
ATOM     20  C   UNL     1      -0.069  23.302  41.959  1.00  0.00     0.004 C 
ENDBRANCH  18  19
ENDBRANCH  17  18
ENDBRANCH  16  17
ENDBRANCH  15  16
ENDBRANCH  14  15
ENDBRANCH  13  14
ENDBRANCH   2  13
TORSDOF 15
ENDMDL
MODEL 4
REMARK VINA RESULT:     8.371      2.070      2.822
REMARK INTER + INTRA:          15.621
REMARK INTER:                  14.872
REMARK INTRA:                   0.749
REMARK UNBOUND:                -0.091
REMARK SMILES CCCCCCCCC=CCCCCCCCC(=O)[O-]
REMARK SMILES IDX 10 1 9 2 11 3 12 4 13 5 14 6 15 7 16 8 17 9 18 10 19 11
REMARK SMILES IDX 20 12 8 13 7 14 6 15 5 16 4 17 3 18 2 19 1 20
REMARK H PARENT
REMARK Flexibility Score: inf
ROOT
ATOM      1  C   UNL     1       3.509  24.423  42.750  1.00  0.00    -0.031 C 
ATOM      2  C   UNL     1       4.582  23.742  43.196  1.00  0.00    -0.031 C 
ENDROOT
BRANCH   1   3
ATOM      3  C   UNL     1       3.274  25.905  42.918  1.00  0.00     0.027 C 
BRANCH   3   4
ATOM      4  C   UNL     1       1.874  26.313  42.442  1.00  0.00     0.004 C 
BRANCH   4   5
ATOM      5  C   UNL     1       1.920  27.364  41.324  1.00  0.00     0.000 C 
BRANCH   5   6
ATOM      6  C   UNL     1       0.717  27.220  40.384  1.00  0.00     0.000 C 
BRANCH   6   7
ATOM      7  C   UNL     1       0.713  25.842  39.706  1.00  0.00     0.000 C 
BRANCH   7   8
ATOM      8  C   UNL     1       1.994  25.036  39.985  1.00  0.00     0.006 C 
BRANCH   8   9
ATOM      9  C   UNL     1       1.747  23.568  40.369  1.00  0.00     0.053 C 
BRANCH   9  10
ATOM     10  C   UNL     1       0.379  23.359  40.940  1.00  0.00     0.041 C 
ATOM     11  O   UNL     1       0.108  23.768  42.100  1.00  0.00    -0.550 OA
ATOM     12  O   UNL     1      -0.587  22.682  40.207  1.00  0.00    -0.550 OA
ENDBRANCH   9  10
ENDBRANCH   8   9
ENDBRANCH   7   8
ENDBRANCH   6   7
ENDBRANCH   5   6
ENDBRANCH   4   5
ENDBRANCH   3   4
ENDBRANCH   1   3
BRANCH   2  13
ATOM     13  C   UNL     1       5.776  24.345  43.899  1.00  0.00     0.027 C 
BRANCH  13  14
ATOM     14  C   UNL     1       6.757  23.265  44.376  1.00  0.00     0.004 C 
BRANCH  14  15
ATOM     15  C   UNL     1       8.178  23.488  43.839  1.00  0.00     0.000 C 
BRANCH  15  16
ATOM     16  C   UNL     1       8.238  24.733  42.943  1.00  0.00     0.000 C 
BRANCH  16  17
ATOM     17  C   UNL     1       9.118  25.847  43.532  1.00  0.00    -0.000 C 
BRANCH  17  18
ATOM     18  C   UNL     1      10.326  25.298  44.311  1.00  0.00    -0.000 C 
BRANCH  18  19
ATOM     19  C   UNL     1      11.499  26.289  44.352  1.00  0.00    -0.003 C 
ATOM     20  C   UNL     1      12.839  25.638  44.011  1.00  0.00     0.004 C 
ENDBRANCH  18  19
ENDBRANCH  17  18
ENDBRANCH  16  17
ENDBRANCH  15  16
ENDBRANCH  14  15
ENDBRANCH  13  14
ENDBRANCH   2  13
TORSDOF 15
ENDMDL
MODEL 5
REMARK VINA RESULT:     8.851      3.512      4.222
REMARK INTER + INTRA:          16.522
REMARK INTER:                  17.119
REMARK INTRA:                  -0.597
REMARK UNBOUND:                -0.091
REMARK SMILES CCCCCCCCC=CCCCCCCCC(=O)[O-]
REMARK SMILES IDX 10 1 9 2 11 3 12 4 13 5 14 6 15 7 16 8 17 9 18 10 19 11
REMARK SMILES IDX 20 12 8 13 7 14 6 15 5 16 4 17 3 18 2 19 1 20
REMARK H PARENT
REMARK Flexibility Score: inf
ROOT
ATOM      1  C   UNL     1       6.796  23.964  43.854  1.00  0.00    -0.031 C 
ATOM      2  C   UNL     1       7.778  23.335  44.528  1.00  0.00    -0.031 C 
ENDROOT
BRANCH   1   3
ATOM      3  C   UNL     1       5.319  23.673  43.975  1.00  0.00     0.027 C 
BRANCH   3   4
ATOM      4  C   UNL     1       4.484  24.622  43.105  1.00  0.00     0.004 C 
BRANCH   4   5
ATOM      5  C   UNL     1       3.342  23.898  42.380  1.00  0.00     0.000 C 
BRANCH   5   6
ATOM      6  C   UNL     1       2.274  24.890  41.905  1.00  0.00     0.000 C 
BRANCH   6   7
ATOM      7  C   UNL     1       1.645  24.428  40.583  1.00  0.00     0.000 C 
BRANCH   7   8
ATOM      8  C   UNL     1       0.763  25.509  39.931  1.00  0.00     0.006 C 
BRANCH   8   9
ATOM      9  C   UNL     1       1.143  26.949  40.310  1.00  0.00     0.053 C 
BRANCH   9  10
ATOM     10  C   UNL     1       0.230  27.956  39.681  1.00  0.00     0.041 C 
ATOM     11  O   UNL     1      -0.331  27.702  38.582  1.00  0.00    -0.550 OA
ATOM     12  O   UNL     1       0.025  29.187  40.290  1.00  0.00    -0.550 OA
ENDBRANCH   9  10
ENDBRANCH   8   9
ENDBRANCH   7   8
ENDBRANCH   6   7
ENDBRANCH   5   6
ENDBRANCH   4   5
ENDBRANCH   3   4
ENDBRANCH   1   3
BRANCH   2  13
ATOM     13  C   UNL     1       7.580  22.258  45.569  1.00  0.00     0.027 C 
BRANCH  13  14
ATOM     14  C   UNL     1       8.851  22.032  46.399  1.00  0.00     0.004 C 
BRANCH  14  15
ATOM     15  C   UNL     1       8.547  21.821  47.889  1.00  0.00     0.000 C 
BRANCH  15  16
ATOM     16  C   UNL     1       9.449  22.702  48.765  1.00  0.00     0.000 C 
BRANCH  16  17
ATOM     17  C   UNL     1       9.414  22.301  50.247  1.00  0.00    -0.000 C 
BRANCH  17  18
ATOM     18  C   UNL     1       8.771  23.378  51.138  1.00  0.00    -0.000 C 
BRANCH  18  19
ATOM     19  C   UNL     1       9.036  24.801  50.622  1.00  0.00    -0.003 C 
ATOM     20  C   UNL     1      10.216  25.476  51.322  1.00  0.00     0.004 C 
ENDBRANCH  18  19
ENDBRANCH  17  18
ENDBRANCH  16  17
ENDBRANCH  15  16
ENDBRANCH  14  15
ENDBRANCH  13  14
ENDBRANCH   2  13
TORSDOF 15
ENDMDL
MODEL 6
REMARK VINA RESULT:     8.857      1.479      2.532
REMARK INTER + INTRA:          16.532
REMARK INTER:                  17.316
REMARK INTRA:                  -0.783
REMARK UNBOUND:                -0.091
REMARK SMILES CCCCCCCCC=CCCCCCCCC(=O)[O-]
REMARK SMILES IDX 10 1 9 2 11 3 12 4 13 5 14 6 15 7 16 8 17 9 18 10 19 11
REMARK SMILES IDX 20 12 8 13 7 14 6 15 5 16 4 17 3 18 2 19 1 20
REMARK H PARENT
REMARK Flexibility Score: inf
ROOT
ATOM      1  C   UNL     1       6.372  23.718  44.207  1.00  0.00    -0.031 C 
ATOM      2  C   UNL     1       7.677  23.624  43.888  1.00  0.00    -0.031 C 
ENDROOT
BRANCH   1   3
ATOM      3  C   UNL     1       5.353  24.582  43.503  1.00  0.00     0.027 C 
BRANCH   3   4
ATOM      4  C   UNL     1       4.150  23.760  43.022  1.00  0.00     0.004 C 
BRANCH   4   5
ATOM      5  C   UNL     1       3.137  24.608  42.242  1.00  0.00     0.000 C 
BRANCH   5   6
ATOM      6  C   UNL     1       2.413  23.765  41.184  1.00  0.00     0.000 C 
BRANCH   6   7
ATOM      7  C   UNL     1       1.213  24.528  40.604  1.00  0.00     0.000 C 
BRANCH   7   8
ATOM      8  C   UNL     1       1.599  25.906  40.037  1.00  0.00     0.006 C 
BRANCH   8   9
ATOM      9  C   UNL     1       0.960  27.095  40.773  1.00  0.00     0.053 C 
BRANCH   9  10
ATOM     10  C   UNL     1       0.185  27.979  39.846  1.00  0.00     0.041 C 
ATOM     11  O   UNL     1      -0.292  27.514  38.778  1.00  0.00    -0.550 OA
ATOM     12  O   UNL     1       0.019  29.326  40.144  1.00  0.00    -0.550 OA
ENDBRANCH   9  10
ENDBRANCH   8   9
ENDBRANCH   7   8
ENDBRANCH   6   7
ENDBRANCH   5   6
ENDBRANCH   4   5
ENDBRANCH   3   4
ENDBRANCH   1   3
BRANCH   2  13
ATOM     13  C   UNL     1       8.352  24.325  42.733  1.00  0.00     0.027 C 
BRANCH  13  14
ATOM     14  C   UNL     1       8.885  25.706  43.141  1.00  0.00     0.004 C 
BRANCH  14  15
ATOM     15  C   UNL     1       9.837  25.633  44.343  1.00  0.00     0.000 C 
BRANCH  15  16
ATOM     16  C   UNL     1      11.271  25.998  43.932  1.00  0.00     0.000 C 
BRANCH  16  17
ATOM     17  C   UNL     1      12.216  26.141  45.135  1.00  0.00    -0.000 C 
BRANCH  17  18
ATOM     18  C   UNL     1      11.462  26.381  46.455  1.00  0.00    -0.000 C 
BRANCH  18  19
ATOM     19  C   UNL     1      11.632  25.221  47.448  1.00  0.00    -0.003 C 
ATOM     20  C   UNL     1      11.172  25.578  48.862  1.00  0.00     0.004 C 
ENDBRANCH  18  19
ENDBRANCH  17  18
ENDBRANCH  16  17
ENDBRANCH  15  16
ENDBRANCH  14  15
ENDBRANCH  13  14
ENDBRANCH   2  13
TORSDOF 15
ENDMDL
MODEL 7
REMARK VINA RESULT:     8.930      3.703      9.318
REMARK INTER + INTRA:          16.671
REMARK INTER:                  17.282
REMARK INTRA:                  -0.611
REMARK UNBOUND:                -0.091
REMARK SMILES CCCCCCCCC=CCCCCCCCC(=O)[O-]
REMARK SMILES IDX 10 1 9 2 11 3 12 4 13 5 14 6 15 7 16 8 17 9 18 10 19 11
REMARK SMILES IDX 20 12 8 13 7 14 6 15 5 16 4 17 3 18 2 19 1 20
REMARK H PARENT
REMARK Flexibility Score: inf
ROOT
ATOM      1  C   UNL     1       1.538  23.790  42.000  1.00  0.00    -0.031 C 
ATOM      2  C   UNL     1       0.548  24.142  41.157  1.00  0.00    -0.031 C 
ENDROOT
BRANCH   1   3
ATOM      3  C   UNL     1       3.015  23.814  41.682  1.00  0.00     0.027 C 
BRANCH   3   4
ATOM      4  C   UNL     1       3.827  24.448  42.819  1.00  0.00     0.004 C 
BRANCH   4   5
ATOM      5  C   UNL     1       4.769  23.443  43.495  1.00  0.00     0.000 C 
BRANCH   5   6
ATOM      6  C   UNL     1       5.936  24.161  44.184  1.00  0.00     0.000 C 
BRANCH   6   7
ATOM      7  C   UNL     1       7.037  23.164  44.577  1.00  0.00     0.000 C 
BRANCH   7   8
ATOM      8  C   UNL     1       8.361  23.414  43.832  1.00  0.00     0.006 C 
BRANCH   8   9
ATOM      9  C   UNL     1       8.318  24.586  42.840  1.00  0.00     0.053 C 
BRANCH   9  10
ATOM     10  C   UNL     1       9.117  25.759  43.320  1.00  0.00     0.041 C 
ATOM     11  O   UNL     1      10.155  25.578  44.009  1.00  0.00    -0.550 OA
ATOM     12  O   UNL     1       8.696  27.051  43.036  1.00  0.00    -0.550 OA
ENDBRANCH   9  10
ENDBRANCH   8   9
ENDBRANCH   7   8
ENDBRANCH   6   7
ENDBRANCH   5   6
ENDBRANCH   4   5
ENDBRANCH   3   4
ENDBRANCH   1   3
BRANCH   2  13
ATOM     13  C   UNL     1       0.734  24.677  39.756  1.00  0.00     0.027 C 
BRANCH  13  14
ATOM     14  C   UNL     1       1.581  25.957  39.746  1.00  0.00     0.004 C 
BRANCH  14  15
ATOM     15  C   UNL     1       1.120  26.971  40.803  1.00  0.00     0.000 C 
BRANCH  15  16
ATOM     16  C   UNL     1       0.406  28.163  40.147  1.00  0.00     0.000 C 
BRANCH  16  17
ATOM     17  C   UNL     1      -0.470  27.749  38.955  1.00  0.00    -0.000 C 
BRANCH  17  18
ATOM     18  C   UNL     1      -0.220  28.615  37.708  1.00  0.00    -0.000 C 
BRANCH  18  19
ATOM     19  C   UNL     1      -1.106  28.207  36.521  1.00  0.00    -0.003 C 
ATOM     20  C   UNL     1      -2.432  27.584  36.957  1.00  0.00     0.004 C 
ENDBRANCH  18  19
ENDBRANCH  17  18
ENDBRANCH  16  17
ENDBRANCH  15  16
ENDBRANCH  14  15
ENDBRANCH  13  14
ENDBRANCH   2  13
TORSDOF 15
ENDMDL
MODEL 8
REMARK VINA RESULT:     8.963      3.454      8.361
REMARK INTER + INTRA:          16.733
REMARK INTER:                  17.973
REMARK INTRA:                  -1.240
REMARK UNBOUND:                -0.091
REMARK SMILES CCCCCCCCC=CCCCCCCCC(=O)[O-]
REMARK SMILES IDX 10 1 9 2 11 3 12 4 13 5 14 6 15 7 16 8 17 9 18 10 19 11
REMARK SMILES IDX 20 12 8 13 7 14 6 15 5 16 4 17 3 18 2 19 1 20
REMARK H PARENT
REMARK Flexibility Score: inf
ROOT
ATOM      1  C   UNL     1       2.773  25.367  43.304  1.00  0.00    -0.031 C 
ATOM      2  C   UNL     1       2.060  26.420  42.862  1.00  0.00    -0.031 C 
ENDROOT
BRANCH   1   3
ATOM      3  C   UNL     1       3.896  24.689  42.555  1.00  0.00     0.027 C 
BRANCH   3   4
ATOM      4  C   UNL     1       4.580  23.616  43.414  1.00  0.00     0.004 C 
BRANCH   4   5
ATOM      5  C   UNL     1       5.790  24.165  44.181  1.00  0.00     0.000 C 
BRANCH   5   6
ATOM      6  C   UNL     1       6.743  23.034  44.587  1.00  0.00     0.000 C 
BRANCH   6   7
ATOM      7  C   UNL     1       8.182  23.346  44.148  1.00  0.00     0.000 C 
BRANCH   7   8
ATOM      8  C   UNL     1       8.243  24.164  42.845  1.00  0.00     0.006 C 
BRANCH   8   9
ATOM      9  C   UNL     1       9.349  25.231  42.819  1.00  0.00     0.053 C 
BRANCH   9  10
ATOM     10  C   UNL     1       8.799  26.616  42.976  1.00  0.00     0.041 C 
ATOM     11  O   UNL     1       8.774  27.403  41.993  1.00  0.00    -0.550 OA
ATOM     12  O   UNL     1       8.346  27.048  44.216  1.00  0.00    -0.550 OA
ENDBRANCH   9  10
ENDBRANCH   8   9
ENDBRANCH   7   8
ENDBRANCH   6   7
ENDBRANCH   5   6
ENDBRANCH   4   5
ENDBRANCH   3   4
ENDBRANCH   1   3
BRANCH   2  13
ATOM     13  C   UNL     1       2.286  27.153  41.560  1.00  0.00     0.027 C 
BRANCH  13  14
ATOM     14  C   UNL     1       0.999  27.243  40.729  1.00  0.00     0.004 C 
BRANCH  14  15
ATOM     15  C   UNL     1       0.889  26.112  39.697  1.00  0.00     0.000 C 
BRANCH  15  16
ATOM     16  C   UNL     1       2.154  25.243  39.697  1.00  0.00     0.000 C 
BRANCH  16  17
ATOM     17  C   UNL     1       1.901  23.823  40.228  1.00  0.00    -0.000 C 
BRANCH  17  18
ATOM     18  C   UNL     1       0.430  23.591  40.617  1.00  0.00    -0.000 C 
BRANCH  18  19
ATOM     19  C   UNL     1       0.249  23.378  42.128  1.00  0.00    -0.003 C 
ATOM     20  C   UNL     1      -1.152  22.887  42.494  1.00  0.00     0.004 C 
ENDBRANCH  18  19
ENDBRANCH  17  18
ENDBRANCH  16  17
ENDBRANCH  15  16
ENDBRANCH  14  15
ENDBRANCH  13  14
ENDBRANCH   2  13
TORSDOF 15
ENDMDL
MODEL 9
REMARK VINA RESULT:     8.979      4.639      9.919
REMARK INTER + INTRA:          16.762
REMARK INTER:                  16.633
REMARK INTRA:                   0.129
REMARK UNBOUND:                -0.091
REMARK SMILES CCCCCCCCC=CCCCCCCCC(=O)[O-]
REMARK SMILES IDX 10 1 9 2 11 3 12 4 13 5 14 6 15 7 16 8 17 9 18 10 19 11
REMARK SMILES IDX 20 12 8 13 7 14 6 15 5 16 4 17 3 18 2 19 1 20
REMARK H PARENT
REMARK Flexibility Score: inf
ROOT
ATOM      1  C   UNL     1       0.081  23.321  41.531  1.00  0.00    -0.031 C 
ATOM      2  C   UNL     1      -0.993  22.511  41.600  1.00  0.00    -0.031 C 
ENDROOT
BRANCH   1   3
ATOM      3  C   UNL     1       0.783  23.745  40.263  1.00  0.00     0.027 C 
BRANCH   3   4
ATOM      4  C   UNL     1       2.266  24.047  40.512  1.00  0.00     0.004 C 
BRANCH   4   5
ATOM      5  C   UNL     1       2.594  24.176  42.005  1.00  0.00     0.000 C 
BRANCH   5   6
ATOM      6  C   UNL     1       2.818  25.643  42.395  1.00  0.00     0.000 C 
BRANCH   6   7
ATOM      7  C   UNL     1       1.514  26.445  42.283  1.00  0.00     0.000 C 
BRANCH   7   8
ATOM      8  C   UNL     1       1.544  27.477  41.140  1.00  0.00     0.006 C 
BRANCH   8   9
ATOM      9  C   UNL     1       0.746  27.063  39.893  1.00  0.00     0.053 C 
BRANCH   9  10
ATOM     10  C   UNL     1      -0.073  28.193  39.349  1.00  0.00     0.041 C 
ATOM     11  O   UNL     1      -0.734  28.042  38.287  1.00  0.00    -0.550 OA
ATOM     12  O   UNL     1      -0.080  29.422  39.995  1.00  0.00    -0.550 OA
ENDBRANCH   9  10
ENDBRANCH   8   9
ENDBRANCH   7   8
ENDBRANCH   6   7
ENDBRANCH   5   6
ENDBRANCH   4   5
ENDBRANCH   3   4
ENDBRANCH   1   3
BRANCH   2  13
ATOM     13  C   UNL     1      -1.727  21.921  40.419  1.00  0.00     0.027 C 
BRANCH  13  14
ATOM     14  C   UNL     1      -1.209  22.486  39.090  1.00  0.00     0.004 C 
BRANCH  14  15
ATOM     15  C   UNL     1      -2.143  22.166  37.915  1.00  0.00     0.000 C 
BRANCH  15  16
ATOM     16  C   UNL     1      -3.339  23.129  37.885  1.00  0.00     0.000 C 
BRANCH  16  17
ATOM     17  C   UNL     1      -4.652  22.460  38.323  1.00  0.00    -0.000 C 
BRANCH  17  18
ATOM     18  C   UNL     1      -5.860  22.926  37.492  1.00  0.00    -0.000 C 
BRANCH  18  19
ATOM     19  C   UNL     1      -7.067  23.298  38.367  1.00  0.00    -0.003 C 
ATOM     20  C   UNL     1      -6.663  23.811  39.749  1.00  0.00     0.004 C 
ENDBRANCH  18  19
ENDBRANCH  17  18
ENDBRANCH  16  17
ENDBRANCH  15  16
ENDBRANCH  14  15
ENDBRANCH  13  14
ENDBRANCH   2  13
TORSDOF 15
ENDMDL
