MODEL 1
REMARK VINA RESULT:    -4.794      0.000      0.000
REMARK INTER + INTRA:          -9.192
REMARK INTER:                  -7.596
REMARK INTRA:                  -1.596
REMARK UNBOUND:                -1.596
REMARK SMILES CCCCCCCCCCCC(=O)[O-]
REMARK SMILES IDX 7 1 8 2 9 3 10 4 11 5 12 6 13 7 14 8 6 9 5 10 4 11 3 12 2 13
REMARK SMILES IDX 1 14
REMARK H PARENT
REMARK Flexibility Score: inf
ROOT
ATOM      1  C   UNL     1      18.172  -6.733  36.241  1.00  0.00     0.000 C 
ENDROOT
BRANCH   1   2
ATOM      2  C   UNL     1      18.074  -5.272  36.704  1.00  0.00     0.000 C 
BRANCH   2   3
ATOM      3  C   UNL     1      17.058  -4.449  35.891  1.00  0.00     0.000 C 
BRANCH   3   4
ATOM      4  C   UNL     1      15.909  -5.264  35.269  1.00  0.00     0.006 C 
BRANCH   4   5
ATOM      5  C   UNL     1      15.925  -5.248  33.735  1.00  0.00     0.053 C 
BRANCH   5   6
ATOM      6  C   UNL     1      15.853  -6.641  33.198  1.00  0.00     0.041 C 
ATOM      7  O   UNL     1      16.231  -6.888  32.021  1.00  0.00    -0.550 OA
ATOM      8  O   UNL     1      15.417  -7.680  34.011  1.00  0.00    -0.550 OA
ENDBRANCH   5   6
ENDBRANCH   4   5
ENDBRANCH   3   4
ENDBRANCH   2   3
ENDBRANCH   1   2
BRANCH   1   9
ATOM      9  C   UNL     1      19.457  -6.968  35.434  1.00  0.00     0.000 C 
BRANCH   9  10
ATOM     10  C   UNL     1      19.183  -7.289  33.954  1.00  0.00    -0.000 C 
BRANCH  10  11
ATOM     11  C   UNL     1      19.800  -6.298  32.946  1.00  0.00    -0.000 C 
BRANCH  11  12
ATOM     12  C   UNL     1      19.405  -4.821  33.153  1.00  0.00    -0.000 C 
BRANCH  12  13
ATOM     13  C   UNL     1      20.556  -3.903  33.601  1.00  0.00    -0.003 C 
ATOM     14  C   UNL     1      20.133  -2.895  34.669  1.00  0.00     0.004 C 
ENDBRANCH  12  13
ENDBRANCH  11  12
ENDBRANCH  10  11
ENDBRANCH   9  10
ENDBRANCH   1   9
TORSDOF 10
ENDMDL
MODEL 2
REMARK VINA RESULT:    -4.781      0.691      2.718
REMARK INTER + INTRA:          -9.171
REMARK INTER:                  -7.503
REMARK INTRA:                  -1.668
REMARK UNBOUND:                -1.596
REMARK SMILES CCCCCCCCCCCC(=O)[O-]
REMARK SMILES IDX 7 1 8 2 9 3 10 4 11 5 12 6 13 7 14 8 6 9 5 10 4 11 3 12 2 13
REMARK SMILES IDX 1 14
REMARK H PARENT
REMARK Flexibility Score: inf
ROOT
ATOM      1  C   UNL     1      19.653  -3.479  35.076  1.00  0.00     0.000 C 
ENDROOT
BRANCH   1   2
ATOM      2  C   UNL     1      18.122  -3.407  34.981  1.00  0.00     0.000 C 
BRANCH   2   3
ATOM      3  C   UNL     1      17.411  -4.236  36.067  1.00  0.00     0.000 C 
BRANCH   3   4
ATOM      4  C   UNL     1      16.228  -5.085  35.568  1.00  0.00     0.006 C 
BRANCH   4   5
ATOM      5  C   UNL     1      15.956  -4.911  34.068  1.00  0.00     0.053 C 
BRANCH   5   6
ATOM      6  C   UNL     1      15.848  -6.244  33.400  1.00  0.00     0.041 C 
ATOM      7  O   UNL     1      15.437  -7.246  34.044  1.00  0.00    -0.550 OA
ATOM      8  O   UNL     1      16.152  -6.373  32.050  1.00  0.00    -0.550 OA
ENDBRANCH   5   6
ENDBRANCH   4   5
ENDBRANCH   3   4
ENDBRANCH   2   3
ENDBRANCH   1   2
BRANCH   1   9
ATOM      9  C   UNL     1      20.269  -3.872  33.726  1.00  0.00     0.000 C 
BRANCH   9  10
ATOM     10  C   UNL     1      19.384  -4.847  32.927  1.00  0.00    -0.000 C 
BRANCH  10  11
ATOM     11  C   UNL     1      19.875  -6.309  32.909  1.00  0.00    -0.000 C 
BRANCH  11  12
ATOM     12  C   UNL     1      19.122  -7.265  33.856  1.00  0.00    -0.000 C 
BRANCH  12  13
ATOM     13  C   UNL     1      19.507  -7.137  35.341  1.00  0.00    -0.003 C 
ATOM     14  C   UNL     1      18.529  -7.851  36.273  1.00  0.00     0.004 C 
ENDBRANCH  12  13
ENDBRANCH  11  12
ENDBRANCH  10  11
ENDBRANCH   9  10
ENDBRANCH   1   9
TORSDOF 10
ENDMDL
MODEL 3
REMARK VINA RESULT:    -4.778     18.700     20.237
REMARK INTER + INTRA:          -9.167
REMARK INTER:                  -7.747
REMARK INTRA:                  -1.420
REMARK UNBOUND:                -1.596
REMARK SMILES CCCCCCCCCCCC(=O)[O-]
REMARK SMILES IDX 7 1 8 2 9 3 10 4 11 5 12 6 13 7 14 8 6 9 5 10 4 11 3 12 2 13
REMARK SMILES IDX 1 14
REMARK H PARENT
REMARK Flexibility Score: inf
ROOT
ATOM      1  C   UNL     1      10.317   4.674  20.921  1.00  0.00     0.000 C 
ENDROOT
BRANCH   1   2
ATOM      2  C   UNL     1      10.485   3.317  20.220  1.00  0.00     0.000 C 
BRANCH   2   3
ATOM      3  C   UNL     1      10.913   3.450  18.747  1.00  0.00     0.000 C 
BRANCH   3   4
ATOM      4  C   UNL     1      10.023   2.699  17.739  1.00  0.00     0.006 C 
BRANCH   4   5
ATOM      5  C   UNL     1       8.675   2.271  18.334  1.00  0.00     0.053 C 
BRANCH   5   6
ATOM      6  C   UNL     1       8.474   0.799  18.163  1.00  0.00     0.041 C 
ATOM      7  O   UNL     1       8.726   0.009  19.112  1.00  0.00    -0.550 OA
ATOM      8  O   UNL     1       7.959   0.300  16.973  1.00  0.00    -0.550 OA
ENDBRANCH   5   6
ENDBRANCH   4   5
ENDBRANCH   3   4
ENDBRANCH   2   3
ENDBRANCH   1   2
BRANCH   1   9
ATOM      9  C   UNL     1      11.627   5.474  20.888  1.00  0.00     0.000 C 
BRANCH   9  10
ATOM     10  C   UNL     1      11.457   6.874  20.272  1.00  0.00    -0.000 C 
BRANCH  10  11
ATOM     11  C   UNL     1      11.997   7.025  18.835  1.00  0.00    -0.000 C 
BRANCH  11  12
ATOM     12  C   UNL     1      10.938   6.903  17.720  1.00  0.00    -0.000 C 
BRANCH  12  13
ATOM     13  C   UNL     1       9.510   7.288  18.143  1.00  0.00    -0.003 C 
ATOM     14  C   UNL     1       8.507   6.150  17.959  1.00  0.00     0.004 C 
ENDBRANCH  12  13
ENDBRANCH  11  12
ENDBRANCH  10  11
ENDBRANCH   9  10
ENDBRANCH   1   9
TORSDOF 10
ENDMDL
MODEL 4
REMARK VINA RESULT:    -4.742      1.675      3.047
REMARK INTER + INTRA:          -9.110
REMARK INTER:                  -7.632
REMARK INTRA:                  -1.478
REMARK UNBOUND:                -1.596
REMARK SMILES CCCCCCCCCCCC(=O)[O-]
REMARK SMILES IDX 7 1 8 2 9 3 10 4 11 5 12 6 13 7 14 8 6 9 5 10 4 11 3 12 2 13
REMARK SMILES IDX 1 14
REMARK H PARENT
REMARK Flexibility Score: inf
ROOT
ATOM      1  C   UNL     1      18.295  -6.127  36.527  1.00  0.00     0.000 C 
ENDROOT
BRANCH   1   2
ATOM      2  C   UNL     1      18.062  -7.193  35.445  1.00  0.00     0.000 C 
BRANCH   2   3
ATOM      3  C   UNL     1      19.252  -7.338  34.478  1.00  0.00     0.000 C 
BRANCH   3   4
ATOM      4  C   UNL     1      18.870  -7.628  33.015  1.00  0.00     0.006 C 
BRANCH   4   5
ATOM      5  C   UNL     1      17.353  -7.697  32.795  1.00  0.00     0.053 C 
BRANCH   5   6
ATOM      6  C   UNL     1      17.019  -8.756  31.794  1.00  0.00     0.041 C 
ATOM      7  O   UNL     1      15.881  -8.783  31.254  1.00  0.00    -0.550 OA
ATOM      8  O   UNL     1      17.980  -9.687  31.418  1.00  0.00    -0.550 OA
ENDBRANCH   5   6
ENDBRANCH   4   5
ENDBRANCH   3   4
ENDBRANCH   2   3
ENDBRANCH   1   2
BRANCH   1   9
ATOM      9  C   UNL     1      17.329  -4.947  36.350  1.00  0.00     0.000 C 
BRANCH   9  10
ATOM     10  C   UNL     1      16.274  -5.197  35.256  1.00  0.00    -0.000 C 
BRANCH  10  11
ATOM     11  C   UNL     1      16.291  -4.187  34.091  1.00  0.00    -0.000 C 
BRANCH  11  12
ATOM     12  C   UNL     1      17.614  -4.118  33.302  1.00  0.00    -0.000 C 
BRANCH  12  13
ATOM     13  C   UNL     1      18.582  -3.012  33.761  1.00  0.00    -0.003 C 
ATOM     14  C   UNL     1      19.980  -3.539  34.079  1.00  0.00     0.004 C 
ENDBRANCH  12  13
ENDBRANCH  11  12
ENDBRANCH  10  11
ENDBRANCH   9  10
ENDBRANCH   1   9
TORSDOF 10
ENDMDL
MODEL 5
REMARK VINA RESULT:    -4.712      1.398      2.989
REMARK INTER + INTRA:          -9.062
REMARK INTER:                  -7.458
REMARK INTRA:                  -1.604
REMARK UNBOUND:                -1.596
REMARK SMILES CCCCCCCCCCCC(=O)[O-]
REMARK SMILES IDX 7 1 8 2 9 3 10 4 11 5 12 6 13 7 14 8 6 9 5 10 4 11 3 12 2 13
REMARK SMILES IDX 1 14
REMARK H PARENT
REMARK Flexibility Score: inf
ROOT
ATOM      1  C   UNL     1      17.659  -3.963  35.275  1.00  0.00     0.000 C 
ENDROOT
BRANCH   1   2
ATOM      2  C   UNL     1      16.543  -5.000  35.478  1.00  0.00     0.000 C 
BRANCH   2   3
ATOM      3  C   UNL     1      15.771  -5.313  34.184  1.00  0.00     0.000 C 
BRANCH   3   4
ATOM      4  C   UNL     1      15.687  -6.808  33.822  1.00  0.00     0.006 C 
BRANCH   4   5
ATOM      5  C   UNL     1      16.198  -7.111  32.407  1.00  0.00     0.053 C 
BRANCH   5   6
ATOM      6  C   UNL     1      16.196  -8.585  32.156  1.00  0.00     0.041 C 
ATOM      7  O   UNL     1      15.207  -9.286  32.499  1.00  0.00    -0.550 OA
ATOM      8  O   UNL     1      17.265  -9.181  31.498  1.00  0.00    -0.550 OA
ENDBRANCH   5   6
ENDBRANCH   4   5
ENDBRANCH   3   4
ENDBRANCH   2   3
ENDBRANCH   1   2
BRANCH   1   9
ATOM      9  C   UNL     1      18.316  -4.128  33.897  1.00  0.00     0.000 C 
BRANCH   9  10
ATOM     10  C   UNL     1      19.609  -4.963  33.949  1.00  0.00    -0.000 C 
BRANCH  10  11
ATOM     11  C   UNL     1      19.497  -6.377  33.343  1.00  0.00    -0.000 C 
BRANCH  11  12
ATOM     12  C   UNL     1      19.250  -7.509  34.361  1.00  0.00    -0.000 C 
BRANCH  12  13
ATOM     13  C   UNL     1      19.546  -7.135  35.824  1.00  0.00    -0.003 C 
ATOM     14  C   UNL     1      18.535  -7.726  36.805  1.00  0.00     0.004 C 
ENDBRANCH  12  13
ENDBRANCH  11  12
ENDBRANCH  10  11
ENDBRANCH   9  10
ENDBRANCH   1   9
TORSDOF 10
ENDMDL
MODEL 6
REMARK VINA RESULT:    -4.709      1.628      2.998
REMARK INTER + INTRA:          -9.057
REMARK INTER:                  -7.655
REMARK INTRA:                  -1.402
REMARK UNBOUND:                -1.596
REMARK SMILES CCCCCCCCCCCC(=O)[O-]
REMARK SMILES IDX 7 1 8 2 9 3 10 4 11 5 12 6 13 7 14 8 6 9 5 10 4 11 3 12 2 13
REMARK SMILES IDX 1 14
REMARK H PARENT
REMARK Flexibility Score: inf
ROOT
ATOM      1  C   UNL     1      16.029  -5.179  34.949  1.00  0.00     0.000 C 
ENDROOT
BRANCH   1   2
ATOM      2  C   UNL     1      16.372  -4.595  33.570  1.00  0.00     0.000 C 
BRANCH   2   3
ATOM      3  C   UNL     1      16.596  -5.678  32.498  1.00  0.00     0.000 C 
BRANCH   3   4
ATOM      4  C   UNL     1      16.973  -7.068  33.045  1.00  0.00     0.006 C 
BRANCH   4   5
ATOM      5  C   UNL     1      15.886  -8.122  32.800  1.00  0.00     0.053 C 
BRANCH   5   6
ATOM      6  C   UNL     1      16.236  -8.967  31.617  1.00  0.00     0.041 C 
ATOM      7  O   UNL     1      17.421  -9.361  31.447  1.00  0.00    -0.550 OA
ATOM      8  O   UNL     1      15.246  -9.363  30.726  1.00  0.00    -0.550 OA
ENDBRANCH   5   6
ENDBRANCH   4   5
ENDBRANCH   3   4
ENDBRANCH   2   3
ENDBRANCH   1   2
BRANCH   1   9
ATOM      9  C   UNL     1      16.995  -4.656  36.022  1.00  0.00     0.000 C 
BRANCH   9  10
ATOM     10  C   UNL     1      18.092  -5.674  36.385  1.00  0.00    -0.000 C 
BRANCH  10  11
ATOM     11  C   UNL     1      19.422  -5.500  35.622  1.00  0.00    -0.000 C 
BRANCH  11  12
ATOM     12  C   UNL     1      19.768  -4.049  35.230  1.00  0.00    -0.000 C 
BRANCH  12  13
ATOM     13  C   UNL     1      20.038  -3.833  33.731  1.00  0.00    -0.003 C 
ATOM     14  C   UNL     1      20.124  -5.142  32.947  1.00  0.00     0.004 C 
ENDBRANCH  12  13
ENDBRANCH  11  12
ENDBRANCH  10  11
ENDBRANCH   9  10
ENDBRANCH   1   9
TORSDOF 10
ENDMDL
MODEL 7
REMARK VINA RESULT:    -4.685      1.540      3.629
REMARK INTER + INTRA:          -9.019
REMARK INTER:                  -7.647
REMARK INTRA:                  -1.372
REMARK UNBOUND:                -1.596
REMARK SMILES CCCCCCCCCCCC(=O)[O-]
REMARK SMILES IDX 7 1 8 2 9 3 10 4 11 5 12 6 13 7 14 8 6 9 5 10 4 11 3 12 2 13
REMARK SMILES IDX 1 14
REMARK H PARENT
REMARK Flexibility Score: inf
ROOT
ATOM      1  C   UNL     1      19.515  -5.162  32.733  1.00  0.00     0.000 C 
ENDROOT
BRANCH   1   2
ATOM      2  C   UNL     1      19.684  -6.489  33.488  1.00  0.00     0.000 C 
BRANCH   2   3
ATOM      3  C   UNL     1      18.753  -7.600  32.969  1.00  0.00     0.000 C 
BRANCH   3   4
ATOM      4  C   UNL     1      17.284  -7.480  33.416  1.00  0.00     0.006 C 
BRANCH   4   5
ATOM      5  C   UNL     1      16.316  -7.271  32.244  1.00  0.00     0.053 C 
BRANCH   5   6
ATOM      6  C   UNL     1      15.864  -8.589  31.701  1.00  0.00     0.041 C 
ATOM      7  O   UNL     1      15.339  -9.443  32.463  1.00  0.00    -0.550 OA
ATOM      8  O   UNL     1      15.973  -8.856  30.342  1.00  0.00    -0.550 OA
ENDBRANCH   5   6
ENDBRANCH   4   5
ENDBRANCH   3   4
ENDBRANCH   2   3
ENDBRANCH   1   2
BRANCH   1   9
ATOM      9  C   UNL     1      19.859  -3.969  33.636  1.00  0.00     0.000 C 
BRANCH   9  10
ATOM     10  C   UNL     1      18.636  -3.092  33.960  1.00  0.00    -0.000 C 
BRANCH  10  11
ATOM     11  C   UNL     1      17.270  -3.786  33.780  1.00  0.00    -0.000 C 
BRANCH  11  12
ATOM     12  C   UNL     1      16.696  -4.443  35.052  1.00  0.00    -0.000 C 
BRANCH  12  13
ATOM     13  C   UNL     1      17.575  -4.295  36.307  1.00  0.00    -0.003 C 
ATOM     14  C   UNL     1      18.205  -5.614  36.751  1.00  0.00     0.004 C 
ENDBRANCH  12  13
ENDBRANCH  11  12
ENDBRANCH  10  11
ENDBRANCH   9  10
ENDBRANCH   1   9
TORSDOF 10
ENDMDL
MODEL 8
REMARK VINA RESULT:    -4.673      2.249      4.565
REMARK INTER + INTRA:          -9.000
REMARK INTER:                  -7.577
REMARK INTRA:                  -1.423
REMARK UNBOUND:                -1.596
REMARK SMILES CCCCCCCCCCCC(=O)[O-]
REMARK SMILES IDX 7 1 8 2 9 3 10 4 11 5 12 6 13 7 14 8 6 9 5 10 4 11 3 12 2 13
REMARK SMILES IDX 1 14
REMARK H PARENT
REMARK Flexibility Score: inf
ROOT
ATOM      1  C   UNL     1      19.146  -6.565  35.484  1.00  0.00     0.000 C 
ENDROOT
BRANCH   1   2
ATOM      2  C   UNL     1      19.242  -7.193  34.085  1.00  0.00     0.000 C 
BRANCH   2   3
ATOM      3  C   UNL     1      19.888  -6.256  33.048  1.00  0.00     0.000 C 
BRANCH   3   4
ATOM      4  C   UNL     1      19.159  -4.916  32.838  1.00  0.00     0.006 C 
BRANCH   4   5
ATOM      5  C   UNL     1      19.779  -3.764  33.639  1.00  0.00     0.053 C 
BRANCH   5   6
ATOM      6  C   UNL     1      18.727  -2.778  34.034  1.00  0.00     0.041 C 
ATOM      7  O   UNL     1      18.860  -2.095  35.085  1.00  0.00    -0.550 OA
ATOM      8  O   UNL     1      17.623  -2.572  33.217  1.00  0.00    -0.550 OA
ENDBRANCH   5   6
ENDBRANCH   4   5
ENDBRANCH   3   4
ENDBRANCH   2   3
ENDBRANCH   1   2
BRANCH   1   9
ATOM      9  C   UNL     1      17.707  -6.627  36.015  1.00  0.00     0.000 C 
BRANCH   9  10
ATOM     10  C   UNL     1      16.953  -5.294  35.858  1.00  0.00    -0.000 C 
BRANCH  10  11
ATOM     11  C   UNL     1      15.871  -5.282  34.758  1.00  0.00    -0.000 C 
BRANCH  11  12
ATOM     12  C   UNL     1      15.658  -6.626  34.033  1.00  0.00    -0.000 C 
BRANCH  12  13
ATOM     13  C   UNL     1      16.058  -6.626  32.546  1.00  0.00    -0.003 C 
ATOM     14  C   UNL     1      16.329  -8.028  32.003  1.00  0.00     0.004 C 
ENDBRANCH  12  13
ENDBRANCH  11  12
ENDBRANCH  10  11
ENDBRANCH   9  10
ENDBRANCH   1   9
TORSDOF 10
ENDMDL
MODEL 9
REMARK VINA RESULT:    -4.673     19.126     20.557
REMARK INTER + INTRA:          -9.000
REMARK INTER:                  -7.669
REMARK INTRA:                  -1.331
REMARK UNBOUND:                -1.596
REMARK SMILES CCCCCCCCCCCC(=O)[O-]
REMARK SMILES IDX 7 1 8 2 9 3 10 4 11 5 12 6 13 7 14 8 6 9 5 10 4 11 3 12 2 13
REMARK SMILES IDX 1 14
REMARK H PARENT
REMARK Flexibility Score: inf
ROOT
ATOM      1  C   UNL     1       8.503   6.001  18.377  1.00  0.00     0.000 C 
ENDROOT
BRANCH   1   2
ATOM      2  C   UNL     1       8.297   4.531  18.773  1.00  0.00     0.000 C 
BRANCH   2   3
ATOM      3  C   UNL     1       9.451   3.969  19.623  1.00  0.00     0.000 C 
BRANCH   3   4
ATOM      4  C   UNL     1      10.127   2.709  19.051  1.00  0.00     0.006 C 
BRANCH   4   5
ATOM      5  C   UNL     1       9.460   2.202  17.766  1.00  0.00     0.053 C 
BRANCH   5   6
ATOM      6  C   UNL     1       8.713   0.934  18.032  1.00  0.00     0.041 C 
ATOM      7  O   UNL     1       8.732   0.415  19.180  1.00  0.00    -0.550 OA
ATOM      8  O   UNL     1       7.952   0.350  17.026  1.00  0.00    -0.550 OA
ENDBRANCH   5   6
ENDBRANCH   4   5
ENDBRANCH   3   4
ENDBRANCH   2   3
ENDBRANCH   1   2
BRANCH   1   9
ATOM      9  C   UNL     1       9.572   6.129  17.283  1.00  0.00     0.000 C 
BRANCH   9  10
ATOM     10  C   UNL     1      10.638   7.191  17.609  1.00  0.00    -0.000 C 
BRANCH  10  11
ATOM     11  C   UNL     1      11.873   6.664  18.369  1.00  0.00    -0.000 C 
BRANCH  11  12
ATOM     12  C   UNL     1      12.181   7.382  19.699  1.00  0.00    -0.000 C 
BRANCH  12  13
ATOM     13  C   UNL     1      11.636   6.677  20.953  1.00  0.00    -0.003 C 
ATOM     14  C   UNL     1      10.270   7.207  21.388  1.00  0.00     0.004 C 
ENDBRANCH  12  13
ENDBRANCH  11  12
ENDBRANCH  10  11
ENDBRANCH   9  10
ENDBRANCH   1   9
TORSDOF 10
ENDMDL
