MODEL 1
REMARK VINA RESULT:    -4.204      0.000      0.000
REMARK INTER + INTRA:         -12.545
REMARK INTER:                 -11.086
REMARK INTRA:                  -1.459
REMARK UNBOUND:                -1.459
REMARK SMILES CCCCCCCCCCCCCCCCCCCCCCCCCCCCCC(=O)[O-]
REMARK SMILES IDX 16 1 17 2 18 3 19 4 20 5 21 6 22 7 23 8 24 9 25 10 26 11
REMARK SMILES IDX 27 12 28 13 29 14 30 15 31 16 32 17 15 18 14 19 13 20 12 21
REMARK SMILES IDX 11 22 10 23 9 24 8 25 7 26 6 27 5 28 4 29 3 30 2 31 1 32
REMARK H PARENT
REMARK Flexibility Score: inf
ROOT
ATOM      1  C   UNL     1      44.619   7.299  15.209  1.00  0.00     0.000 C 
ENDROOT
BRANCH   1   2
ATOM      2  C   UNL     1      45.399   7.476  13.889  1.00  0.00     0.000 C 
BRANCH   2   3
ATOM      3  C   UNL     1      46.371   8.668  13.937  1.00  0.00     0.000 C 
BRANCH   3   4
ATOM      4  C   UNL     1      45.734   9.928  14.541  1.00  0.00     0.000 C 
BRANCH   4   5
ATOM      5  C   UNL     1      46.722  10.749  15.386  1.00  0.00     0.000 C 
BRANCH   5   6
ATOM      6  C   UNL     1      46.212  11.034  16.810  1.00  0.00     0.000 C 
BRANCH   6   7
ATOM      7  C   UNL     1      44.745  10.618  17.058  1.00  0.00     0.000 C 
BRANCH   7   8
ATOM      8  C   UNL     1      44.143  11.073  18.405  1.00  0.00     0.000 C 
BRANCH   8   9
ATOM      9  C   UNL     1      44.749  10.434  19.672  1.00  0.00     0.000 C 
BRANCH   9  10
ATOM     10  C   UNL     1      44.635   8.897  19.731  1.00  0.00     0.000 C 
BRANCH  10  11
ATOM     11  C   UNL     1      44.563   8.361  21.170  1.00  0.00     0.000 C 
BRANCH  11  12
ATOM     12  C   UNL     1      45.952   8.336  21.819  1.00  0.00     0.000 C 
BRANCH  12  13
ATOM     13  C   UNL     1      45.857   8.612  23.327  1.00  0.00     0.006 C 
BRANCH  13  14
ATOM     14  C   UNL     1      45.417  10.049  23.629  1.00  0.00     0.053 C 
BRANCH  14  15
ATOM     15  C   UNL     1      44.414  10.101  24.741  1.00  0.00     0.041 C 
ATOM     16  O   UNL     1      43.196  10.307  24.490  1.00  0.00    -0.550 OA
ATOM     17  O   UNL     1      44.820   9.888  26.053  1.00  0.00    -0.550 OA
ENDBRANCH  14  15
ENDBRANCH  13  14
ENDBRANCH  12  13
ENDBRANCH  11  12
ENDBRANCH  10  11
ENDBRANCH   9  10
ENDBRANCH   8   9
ENDBRANCH   7   8
ENDBRANCH   6   7
ENDBRANCH   5   6
ENDBRANCH   4   5
ENDBRANCH   3   4
ENDBRANCH   2   3
ENDBRANCH   1   2
BRANCH   1  18
ATOM     18  C   UNL     1      45.519   7.073  16.440  1.00  0.00     0.000 C 
BRANCH  18  19
ATOM     19  C   UNL     1      46.856   6.372  16.152  1.00  0.00     0.000 C 
BRANCH  19  20
ATOM     20  C   UNL     1      46.725   5.243  15.116  1.00  0.00     0.000 C 
BRANCH  20  21
ATOM     21  C   UNL     1      47.964   4.336  15.071  1.00  0.00     0.000 C 
BRANCH  21  22
ATOM     22  C   UNL     1      47.918   3.330  13.906  1.00  0.00     0.000 C 
BRANCH  22  23
ATOM     23  C   UNL     1      46.621   2.503  13.891  1.00  0.00     0.000 C 
BRANCH  23  24
ATOM     24  C   UNL     1      46.806   1.108  14.520  1.00  0.00    -0.000 C 
BRANCH  24  25
ATOM     25  C   UNL     1      45.897   0.047  13.880  1.00  0.00    -0.000 C 
BRANCH  25  26
ATOM     26  C   UNL     1      44.482   0.043  14.480  1.00  0.00    -0.000 C 
BRANCH  26  27
ATOM     27  C   UNL     1      44.150  -1.327  15.085  1.00  0.00    -0.000 C 
BRANCH  27  28
ATOM     28  C   UNL     1      45.037  -2.428  14.485  1.00  0.00    -0.000 C 
BRANCH  28  29
ATOM     29  C   UNL     1      45.867  -3.172  15.548  1.00  0.00    -0.000 C 
BRANCH  29  30
ATOM     30  C   UNL     1      47.326  -2.702  15.675  1.00  0.00    -0.000 C 
BRANCH  30  31
ATOM     31  C   UNL     1      48.020  -3.242  16.934  1.00  0.00    -0.003 C 
ATOM     32  C   UNL     1      48.546  -4.657  16.706  1.00  0.00     0.004 C 
ENDBRANCH  30  31
ENDBRANCH  29  30
ENDBRANCH  28  29
ENDBRANCH  27  28
ENDBRANCH  26  27
ENDBRANCH  25  26
ENDBRANCH  24  25
ENDBRANCH  23  24
ENDBRANCH  22  23
ENDBRANCH  21  22
ENDBRANCH  20  21
ENDBRANCH  19  20
ENDBRANCH  18  19
ENDBRANCH   1  18
TORSDOF 28
ENDMDL
MODEL 2
REMARK VINA RESULT:    -4.136      4.488     11.468
REMARK INTER + INTRA:         -12.364
REMARK INTER:                 -11.001
REMARK INTRA:                  -1.363
REMARK UNBOUND:                -1.459
REMARK SMILES CCCCCCCCCCCCCCCCCCCCCCCCCCCCCC(=O)[O-]
REMARK SMILES IDX 16 1 17 2 18 3 19 4 20 5 21 6 22 7 23 8 24 9 25 10 26 11
REMARK SMILES IDX 27 12 28 13 29 14 30 15 31 16 32 17 15 18 14 19 13 20 12 21
REMARK SMILES IDX 11 22 10 23 9 24 8 25 7 26 6 27 5 28 4 29 3 30 2 31 1 32
REMARK H PARENT
REMARK Flexibility Score: inf
ROOT
ATOM      1  C   UNL     1      46.046   9.610  16.628  1.00  0.00     0.000 C 
ENDROOT
BRANCH   1   2
ATOM      2  C   UNL     1      44.894   8.629  16.325  1.00  0.00     0.000 C 
BRANCH   2   3
ATOM      3  C   UNL     1      45.309   7.159  16.520  1.00  0.00     0.000 C 
BRANCH   3   4
ATOM      4  C   UNL     1      45.565   6.435  15.190  1.00  0.00     0.000 C 
BRANCH   4   5
ATOM      5  C   UNL     1      46.873   5.627  15.193  1.00  0.00     0.000 C 
BRANCH   5   6
ATOM      6  C   UNL     1      46.918   4.540  14.105  1.00  0.00     0.000 C 
BRANCH   6   7
ATOM      7  C   UNL     1      47.134   3.107  14.641  1.00  0.00     0.000 C 
BRANCH   7   8
ATOM      8  C   UNL     1      46.392   1.991  13.875  1.00  0.00     0.000 C 
BRANCH   8   9
ATOM      9  C   UNL     1      44.903   1.796  14.229  1.00  0.00     0.000 C 
BRANCH   9  10
ATOM     10  C   UNL     1      44.337   0.406  13.875  1.00  0.00     0.000 C 
BRANCH  10  11
ATOM     11  C   UNL     1      44.649  -0.653  14.945  1.00  0.00     0.000 C 
BRANCH  11  12
ATOM     12  C   UNL     1      45.795  -1.569  14.497  1.00  0.00     0.000 C 
BRANCH  12  13
ATOM     13  C   UNL     1      46.079  -2.648  15.553  1.00  0.00     0.006 C 
BRANCH  13  14
ATOM     14  C   UNL     1      47.299  -2.309  16.418  1.00  0.00     0.053 C 
BRANCH  14  15
ATOM     15  C   UNL     1      48.056  -3.539  16.815  1.00  0.00     0.041 C 
ATOM     16  O   UNL     1      47.685  -4.222  17.808  1.00  0.00    -0.550 OA
ATOM     17  O   UNL     1      49.153  -3.951  16.068  1.00  0.00    -0.550 OA
ENDBRANCH  14  15
ENDBRANCH  13  14
ENDBRANCH  12  13
ENDBRANCH  11  12
ENDBRANCH  10  11
ENDBRANCH   9  10
ENDBRANCH   8   9
ENDBRANCH   7   8
ENDBRANCH   6   7
ENDBRANCH   5   6
ENDBRANCH   4   5
ENDBRANCH   3   4
ENDBRANCH   2   3
ENDBRANCH   1   2
BRANCH   1  18
ATOM     18  C   UNL     1      46.086  10.094  18.091  1.00  0.00     0.000 C 
BRANCH  18  19
ATOM     19  C   UNL     1      44.760  10.658  18.629  1.00  0.00     0.000 C 
BRANCH  19  20
ATOM     20  C   UNL     1      44.309   9.977  19.931  1.00  0.00     0.000 C 
BRANCH  20  21
ATOM     21  C   UNL     1      44.566   8.462  19.925  1.00  0.00     0.000 C 
BRANCH  21  22
ATOM     22  C   UNL     1      45.537   8.023  21.036  1.00  0.00     0.000 C 
BRANCH  22  23
ATOM     23  C   UNL     1      46.813   7.370  20.481  1.00  0.00     0.000 C 
BRANCH  23  24
ATOM     24  C   UNL     1      47.757   6.879  21.597  1.00  0.00    -0.000 C 
BRANCH  24  25
ATOM     25  C   UNL     1      47.546   7.631  22.920  1.00  0.00    -0.000 C 
BRANCH  25  26
ATOM     26  C   UNL     1      48.073   9.074  22.870  1.00  0.00    -0.000 C 
BRANCH  26  27
ATOM     27  C   UNL     1      47.152  10.020  23.651  1.00  0.00    -0.000 C 
BRANCH  27  28
ATOM     28  C   UNL     1      45.675   9.722  23.357  1.00  0.00    -0.000 C 
BRANCH  28  29
ATOM     29  C   UNL     1      44.990   8.925  24.483  1.00  0.00    -0.000 C 
BRANCH  29  30
ATOM     30  C   UNL     1      43.822   9.652  25.173  1.00  0.00    -0.000 C 
BRANCH  30  31
ATOM     31  C   UNL     1      42.496   9.507  24.414  1.00  0.00    -0.003 C 
ATOM     32  C   UNL     1      41.322   9.992  25.261  1.00  0.00     0.004 C 
ENDBRANCH  30  31
ENDBRANCH  29  30
ENDBRANCH  28  29
ENDBRANCH  27  28
ENDBRANCH  26  27
ENDBRANCH  25  26
ENDBRANCH  24  25
ENDBRANCH  23  24
ENDBRANCH  22  23
ENDBRANCH  21  22
ENDBRANCH  20  21
ENDBRANCH  19  20
ENDBRANCH  18  19
ENDBRANCH   1  18
TORSDOF 28
ENDMDL
MODEL 3
REMARK VINA RESULT:    -4.128      1.365      3.326
REMARK INTER + INTRA:         -12.344
REMARK INTER:                 -10.912
REMARK INTRA:                  -1.433
REMARK UNBOUND:                -1.459
REMARK SMILES CCCCCCCCCCCCCCCCCCCCCCCCCCCCCC(=O)[O-]
REMARK SMILES IDX 16 1 17 2 18 3 19 4 20 5 21 6 22 7 23 8 24 9 25 10 26 11
REMARK SMILES IDX 27 12 28 13 29 14 30 15 31 16 32 17 15 18 14 19 13 20 12 21
REMARK SMILES IDX 11 22 10 23 9 24 8 25 7 26 6 27 5 28 4 29 3 30 2 31 1 32
REMARK H PARENT
REMARK Flexibility Score: inf
ROOT
ATOM      1  C   UNL     1      47.701   4.884  14.252  1.00  0.00     0.000 C 
ENDROOT
BRANCH   1   2
ATOM      2  C   UNL     1      46.413   5.521  14.816  1.00  0.00     0.000 C 
BRANCH   2   3
ATOM      3  C   UNL     1      45.926   6.709  13.967  1.00  0.00     0.000 C 
BRANCH   3   4
ATOM      4  C   UNL     1      46.368   8.065  14.538  1.00  0.00     0.000 C 
BRANCH   4   5
ATOM      5  C   UNL     1      45.978   8.246  16.015  1.00  0.00     0.000 C 
BRANCH   5   6
ATOM      6  C   UNL     1      44.470   8.469  16.221  1.00  0.00     0.000 C 
BRANCH   6   7
ATOM      7  C   UNL     1      44.113   9.778  16.961  1.00  0.00     0.000 C 
BRANCH   7   8
ATOM      8  C   UNL     1      44.112   9.693  18.502  1.00  0.00     0.000 C 
BRANCH   8   9
ATOM      9  C   UNL     1      45.453   9.312  19.163  1.00  0.00     0.000 C 
BRANCH   9  10
ATOM     10  C   UNL     1      45.520   9.585  20.680  1.00  0.00     0.000 C 
BRANCH  10  11
ATOM     11  C   UNL     1      46.431   8.595  21.423  1.00  0.00     0.000 C 
BRANCH  11  12
ATOM     12  C   UNL     1      46.423   8.864  22.933  1.00  0.00     0.000 C 
BRANCH  12  13
ATOM     13  C   UNL     1      44.996   8.777  23.497  1.00  0.00     0.006 C 
BRANCH  13  14
ATOM     14  C   UNL     1      44.965   8.190  24.913  1.00  0.00     0.053 C 
BRANCH  14  15
ATOM     15  C   UNL     1      44.519   9.201  25.924  1.00  0.00     0.041 C 
ATOM     16  O   UNL     1      44.035   8.827  27.026  1.00  0.00    -0.550 OA
ATOM     17  O   UNL     1      44.668  10.558  25.663  1.00  0.00    -0.550 OA
ENDBRANCH  14  15
ENDBRANCH  13  14
ENDBRANCH  12  13
ENDBRANCH  11  12
ENDBRANCH  10  11
ENDBRANCH   9  10
ENDBRANCH   8   9
ENDBRANCH   7   8
ENDBRANCH   6   7
ENDBRANCH   5   6
ENDBRANCH   4   5
ENDBRANCH   3   4
ENDBRANCH   2   3
ENDBRANCH   1   2
BRANCH   1  18
ATOM     18  C   UNL     1      47.647   3.346  14.160  1.00  0.00     0.000 C 
BRANCH  18  19
ATOM     19  C   UNL     1      46.256   2.757  13.875  1.00  0.00     0.000 C 
BRANCH  19  20
ATOM     20  C   UNL     1      46.250   1.219  13.876  1.00  0.00     0.000 C 
BRANCH  20  21
ATOM     21  C   UNL     1      44.832   0.634  13.951  1.00  0.00     0.000 C 
BRANCH  21  22
ATOM     22  C   UNL     1      44.601  -0.191  15.231  1.00  0.00     0.000 C 
BRANCH  22  23
ATOM     23  C   UNL     1      44.150  -1.631  14.933  1.00  0.00     0.000 C 
BRANCH  23  24
ATOM     24  C   UNL     1      45.042  -2.320  13.881  1.00  0.00    -0.000 C 
BRANCH  24  25
ATOM     25  C   UNL     1      46.475  -2.554  14.385  1.00  0.00    -0.000 C 
BRANCH  25  26
ATOM     26  C   UNL     1      46.531  -3.526  15.574  1.00  0.00    -0.000 C 
BRANCH  26  27
ATOM     27  C   UNL     1      47.221  -2.876  16.779  1.00  0.00    -0.000 C 
BRANCH  27  28
ATOM     28  C   UNL     1      48.255  -3.824  17.404  1.00  0.00    -0.000 C 
BRANCH  28  29
ATOM     29  C   UNL     1      48.942  -4.730  16.366  1.00  0.00    -0.000 C 
BRANCH  29  30
ATOM     30  C   UNL     1      49.310  -6.135  16.875  1.00  0.00    -0.000 C 
BRANCH  30  31
ATOM     31  C   UNL     1      50.628  -6.656  16.287  1.00  0.00    -0.003 C 
ATOM     32  C   UNL     1      51.300  -7.646  17.235  1.00  0.00     0.004 C 
ENDBRANCH  30  31
ENDBRANCH  29  30
ENDBRANCH  28  29
ENDBRANCH  27  28
ENDBRANCH  26  27
ENDBRANCH  25  26
ENDBRANCH  24  25
ENDBRANCH  23  24
ENDBRANCH  22  23
ENDBRANCH  21  22
ENDBRANCH  20  21
ENDBRANCH  19  20
ENDBRANCH  18  19
ENDBRANCH   1  18
TORSDOF 28
ENDMDL
MODEL 4
REMARK VINA RESULT:    -3.977      1.851      2.359
REMARK INTER + INTRA:         -11.946
REMARK INTER:                 -10.698
REMARK INTRA:                  -1.248
REMARK UNBOUND:                -1.459
REMARK SMILES CCCCCCCCCCCCCCCCCCCCCCCCCCCCCC(=O)[O-]
REMARK SMILES IDX 16 1 17 2 18 3 19 4 20 5 21 6 22 7 23 8 24 9 25 10 26 11
REMARK SMILES IDX 27 12 28 13 29 14 30 15 31 16 32 17 15 18 14 19 13 20 12 21
REMARK SMILES IDX 11 22 10 23 9 24 8 25 7 26 6 27 5 28 4 29 3 30 2 31 1 32
REMARK H PARENT
REMARK Flexibility Score: inf
ROOT
ATOM      1  C   UNL     1      43.967   6.561  14.501  1.00  0.00     0.000 C 
ENDROOT
BRANCH   1   2
ATOM      2  C   UNL     1      44.460   8.007  14.283  1.00  0.00     0.000 C 
BRANCH   2   3
ATOM      3  C   UNL     1      44.655   8.767  15.608  1.00  0.00     0.000 C 
BRANCH   3   4
ATOM      4  C   UNL     1      46.130   9.076  15.901  1.00  0.00     0.000 C 
BRANCH   4   5
ATOM      5  C   UNL     1      46.325  10.422  16.620  1.00  0.00     0.000 C 
BRANCH   5   6
ATOM      6  C   UNL     1      45.851  10.402  18.084  1.00  0.00     0.000 C 
BRANCH   6   7
ATOM      7  C   UNL     1      46.030   9.042  18.795  1.00  0.00     0.000 C 
BRANCH   7   8
ATOM      8  C   UNL     1      44.917   8.662  19.795  1.00  0.00     0.000 C 
BRANCH   8   9
ATOM      9  C   UNL     1      44.077   9.829  20.355  1.00  0.00     0.000 C 
BRANCH   9  10
ATOM     10  C   UNL     1      43.823   9.763  21.875  1.00  0.00     0.000 C 
BRANCH  10  11
ATOM     11  C   UNL     1      44.493   8.548  22.537  1.00  0.00     0.000 C 
BRANCH  11  12
ATOM     12  C   UNL     1      45.087   8.921  23.901  1.00  0.00     0.000 C 
BRANCH  12  13
ATOM     13  C   UNL     1      46.432   9.644  23.733  1.00  0.00     0.006 C 
BRANCH  13  14
ATOM     14  C   UNL     1      47.157   9.233  22.446  1.00  0.00     0.053 C 
BRANCH  14  15
ATOM     15  C   UNL     1      48.085   8.080  22.678  1.00  0.00     0.041 C 
ATOM     16  O   UNL     1      49.220   8.270  23.192  1.00  0.00    -0.550 OA
ATOM     17  O   UNL     1      47.684   6.789  22.356  1.00  0.00    -0.550 OA
ENDBRANCH  14  15
ENDBRANCH  13  14
ENDBRANCH  12  13
ENDBRANCH  11  12
ENDBRANCH  10  11
ENDBRANCH   9  10
ENDBRANCH   8   9
ENDBRANCH   7   8
ENDBRANCH   6   7
ENDBRANCH   5   6
ENDBRANCH   4   5
ENDBRANCH   3   4
ENDBRANCH   2   3
ENDBRANCH   1   2
BRANCH   1  18
ATOM     18  C   UNL     1      45.083   5.501  14.410  1.00  0.00     0.000 C 
BRANCH  18  19
ATOM     19  C   UNL     1      46.043   5.459  15.611  1.00  0.00     0.000 C 
BRANCH  19  20
ATOM     20  C   UNL     1      47.517   5.335  15.189  1.00  0.00     0.000 C 
BRANCH  20  21
ATOM     21  C   UNL     1      47.877   3.920  14.710  1.00  0.00     0.000 C 
BRANCH  21  22
ATOM     22  C   UNL     1      46.755   3.277  13.875  1.00  0.00     0.000 C 
BRANCH  22  23
ATOM     23  C   UNL     1      46.792   1.740  13.922  1.00  0.00     0.000 C 
BRANCH  23  24
ATOM     24  C   UNL     1      45.383   1.116  13.877  1.00  0.00    -0.000 C 
BRANCH  24  25
ATOM     25  C   UNL     1      45.255  -0.119  14.781  1.00  0.00    -0.000 C 
BRANCH  25  26
ATOM     26  C   UNL     1      44.763  -1.360  14.019  1.00  0.00    -0.000 C 
BRANCH  26  27
ATOM     27  C   UNL     1      45.023  -2.637  14.829  1.00  0.00    -0.000 C 
BRANCH  27  28
ATOM     28  C   UNL     1      45.925  -2.352  16.039  1.00  0.00    -0.000 C 
BRANCH  28  29
ATOM     29  C   UNL     1      47.425  -2.437  15.700  1.00  0.00    -0.000 C 
BRANCH  29  30
ATOM     30  C   UNL     1      48.326  -2.893  16.862  1.00  0.00    -0.000 C 
BRANCH  30  31
ATOM     31  C   UNL     1      48.111  -4.364  17.242  1.00  0.00    -0.003 C 
ATOM     32  C   UNL     1      49.038  -5.279  16.445  1.00  0.00     0.004 C 
ENDBRANCH  30  31
ENDBRANCH  29  30
ENDBRANCH  28  29
ENDBRANCH  27  28
ENDBRANCH  26  27
ENDBRANCH  25  26
ENDBRANCH  24  25
ENDBRANCH  23  24
ENDBRANCH  22  23
ENDBRANCH  21  22
ENDBRANCH  20  21
ENDBRANCH  19  20
ENDBRANCH  18  19
ENDBRANCH   1  18
TORSDOF 28
ENDMDL
MODEL 5
REMARK VINA RESULT:    -3.924      2.150      3.300
REMARK INTER + INTRA:         -11.808
REMARK INTER:                 -10.051
REMARK INTRA:                  -1.756
REMARK UNBOUND:                -1.459
REMARK SMILES CCCCCCCCCCCCCCCCCCCCCCCCCCCCCC(=O)[O-]
REMARK SMILES IDX 16 1 17 2 18 3 19 4 20 5 21 6 22 7 23 8 24 9 25 10 26 11
REMARK SMILES IDX 27 12 28 13 29 14 30 15 31 16 32 17 15 18 14 19 13 20 12 21
REMARK SMILES IDX 11 22 10 23 9 24 8 25 7 26 6 27 5 28 4 29 3 30 2 31 1 32
REMARK H PARENT
REMARK Flexibility Score: inf
ROOT
ATOM      1  C   UNL     1      46.491   6.999  17.113  1.00  0.00     0.000 C 
ENDROOT
BRANCH   1   2
ATOM      2  C   UNL     1      46.205   8.339  17.824  1.00  0.00     0.000 C 
BRANCH   2   3
ATOM      3  C   UNL     1      45.630   9.400  16.868  1.00  0.00     0.000 C 
BRANCH   3   4
ATOM      4  C   UNL     1      44.177   9.770  17.200  1.00  0.00     0.000 C 
BRANCH   4   5
ATOM      5  C   UNL     1      43.886   9.744  18.710  1.00  0.00     0.000 C 
BRANCH   5   6
ATOM      6  C   UNL     1      44.511  10.928  19.469  1.00  0.00     0.000 C 
BRANCH   6   7
ATOM      7  C   UNL     1      44.753  10.666  20.973  1.00  0.00     0.000 C 
BRANCH   7   8
ATOM      8  C   UNL     1      43.584  11.039  21.910  1.00  0.00     0.000 C 
BRANCH   8   9
ATOM      9  C   UNL     1      43.492  10.248  23.232  1.00  0.00     0.000 C 
BRANCH   9  10
ATOM     10  C   UNL     1      44.177   8.867  23.200  1.00  0.00     0.000 C 
BRANCH  10  11
ATOM     11  C   UNL     1      45.261   8.716  24.280  1.00  0.00     0.000 C 
BRANCH  11  12
ATOM     12  C   UNL     1      46.445   9.653  24.008  1.00  0.00     0.000 C 
BRANCH  12  13
ATOM     13  C   UNL     1      47.568   8.915  23.265  1.00  0.00     0.006 C 
BRANCH  13  14
ATOM     14  C   UNL     1      47.156   8.505  21.847  1.00  0.00     0.053 C 
BRANCH  14  15
ATOM     15  C   UNL     1      47.344   7.037  21.617  1.00  0.00     0.041 C 
ATOM     16  O   UNL     1      46.774   6.467  20.648  1.00  0.00    -0.550 OA
ATOM     17  O   UNL     1      48.176   6.303  22.454  1.00  0.00    -0.550 OA
ENDBRANCH  14  15
ENDBRANCH  13  14
ENDBRANCH  12  13
ENDBRANCH  11  12
ENDBRANCH  10  11
ENDBRANCH   9  10
ENDBRANCH   8   9
ENDBRANCH   7   8
ENDBRANCH   6   7
ENDBRANCH   5   6
ENDBRANCH   4   5
ENDBRANCH   3   4
ENDBRANCH   2   3
ENDBRANCH   1   2
BRANCH   1  18
ATOM     18  C   UNL     1      46.605   7.117  15.581  1.00  0.00     0.000 C 
BRANCH  18  19
ATOM     19  C   UNL     1      46.095   5.900  14.791  1.00  0.00     0.000 C 
BRANCH  19  20
ATOM     20  C   UNL     1      47.233   4.993  14.295  1.00  0.00     0.000 C 
BRANCH  20  21
ATOM     21  C   UNL     1      46.782   3.538  14.094  1.00  0.00     0.000 C 
BRANCH  21  22
ATOM     22  C   UNL     1      45.263   3.415  13.875  1.00  0.00     0.000 C 
BRANCH  22  23
ATOM     23  C   UNL     1      44.732   2.007  14.191  1.00  0.00     0.000 C 
BRANCH  23  24
ATOM     24  C   UNL     1      45.795   0.913  13.964  1.00  0.00    -0.000 C 
BRANCH  24  25
ATOM     25  C   UNL     1      46.088   0.103  15.236  1.00  0.00    -0.000 C 
BRANCH  25  26
ATOM     26  C   UNL     1      46.238  -1.401  14.956  1.00  0.00    -0.000 C 
BRANCH  26  27
ATOM     27  C   UNL     1      46.507  -2.174  16.253  1.00  0.00    -0.000 C 
BRANCH  27  28
ATOM     28  C   UNL     1      47.906  -2.807  16.242  1.00  0.00    -0.000 C 
BRANCH  28  29
ATOM     29  C   UNL     1      47.904  -4.273  16.715  1.00  0.00    -0.000 C 
BRANCH  29  30
ATOM     30  C   UNL     1      49.292  -4.850  17.043  1.00  0.00    -0.000 C 
BRANCH  30  31
ATOM     31  C   UNL     1      49.719  -5.964  16.078  1.00  0.00    -0.003 C 
ATOM     32  C   UNL     1      50.502  -7.052  16.808  1.00  0.00     0.004 C 
ENDBRANCH  30  31
ENDBRANCH  29  30
ENDBRANCH  28  29
ENDBRANCH  27  28
ENDBRANCH  26  27
ENDBRANCH  25  26
ENDBRANCH  24  25
ENDBRANCH  23  24
ENDBRANCH  22  23
ENDBRANCH  21  22
ENDBRANCH  20  21
ENDBRANCH  19  20
ENDBRANCH  18  19
ENDBRANCH   1  18
TORSDOF 28
ENDMDL
MODEL 6
REMARK VINA RESULT:    -3.905      2.633      4.873
REMARK INTER + INTRA:         -11.755
REMARK INTER:                  -9.945
REMARK INTRA:                  -1.810
REMARK UNBOUND:                -1.459
REMARK SMILES CCCCCCCCCCCCCCCCCCCCCCCCCCCCCC(=O)[O-]
REMARK SMILES IDX 16 1 17 2 18 3 19 4 20 5 21 6 22 7 23 8 24 9 25 10 26 11
REMARK SMILES IDX 27 12 28 13 29 14 30 15 31 16 32 17 15 18 14 19 13 20 12 21
REMARK SMILES IDX 11 22 10 23 9 24 8 25 7 26 6 27 5 28 4 29 3 30 2 31 1 32
REMARK H PARENT
REMARK Flexibility Score: inf
ROOT
ATOM      1  C   UNL     1      44.394   4.049  14.160  1.00  0.00     0.000 C 
ENDROOT
BRANCH   1   2
ATOM      2  C   UNL     1      44.934   5.476  13.926  1.00  0.00     0.000 C 
BRANCH   2   3
ATOM      3  C   UNL     1      43.861   6.555  14.157  1.00  0.00     0.000 C 
BRANCH   3   4
ATOM      4  C   UNL     1      44.337   7.670  15.100  1.00  0.00     0.000 C 
BRANCH   4   5
ATOM      5  C   UNL     1      45.098   7.132  16.323  1.00  0.00     0.000 C 
BRANCH   5   6
ATOM      6  C   UNL     1      46.025   8.177  16.969  1.00  0.00     0.000 C 
BRANCH   6   7
ATOM      7  C   UNL     1      45.915   9.592  16.359  1.00  0.00     0.000 C 
BRANCH   7   8
ATOM      8  C   UNL     1      45.109  10.614  17.190  1.00  0.00     0.000 C 
BRANCH   8   9
ATOM      9  C   UNL     1      43.581  10.407  17.228  1.00  0.00     0.000 C 
BRANCH   9  10
ATOM     10  C   UNL     1      42.923  10.742  18.582  1.00  0.00     0.000 C 
BRANCH  10  11
ATOM     11  C   UNL     1      43.948  11.109  19.667  1.00  0.00     0.000 C 
BRANCH  11  12
ATOM     12  C   UNL     1      44.022  10.021  20.746  1.00  0.00     0.000 C 
BRANCH  12  13
ATOM     13  C   UNL     1      45.213   9.083  20.498  1.00  0.00     0.006 C 
BRANCH  13  14
ATOM     14  C   UNL     1      45.547   8.229  21.727  1.00  0.00     0.053 C 
BRANCH  14  15
ATOM     15  C   UNL     1      46.920   7.638  21.634  1.00  0.00     0.041 C 
ATOM     16  O   UNL     1      47.743   7.791  22.576  1.00  0.00    -0.550 OA
ATOM     17  O   UNL     1      47.281   6.888  20.521  1.00  0.00    -0.550 OA
ENDBRANCH  14  15
ENDBRANCH  13  14
ENDBRANCH  12  13
ENDBRANCH  11  12
ENDBRANCH  10  11
ENDBRANCH   9  10
ENDBRANCH   8   9
ENDBRANCH   7   8
ENDBRANCH   6   7
ENDBRANCH   5   6
ENDBRANCH   4   5
ENDBRANCH   3   4
ENDBRANCH   2   3
ENDBRANCH   1   2
BRANCH   1  18
ATOM     18  C   UNL     1      45.426   2.938  13.884  1.00  0.00     0.000 C 
BRANCH  18  19
ATOM     19  C   UNL     1      44.867   1.506  13.906  1.00  0.00     0.000 C 
BRANCH  19  20
ATOM     20  C   UNL     1      45.965   0.441  14.063  1.00  0.00     0.000 C 
BRANCH  20  21
ATOM     21  C   UNL     1      45.395  -0.981  14.189  1.00  0.00     0.000 C 
BRANCH  21  22
ATOM     22  C   UNL     1      45.134  -1.384  15.652  1.00  0.00     0.000 C 
BRANCH  22  23
ATOM     23  C   UNL     1      46.434  -1.631  16.437  1.00  0.00     0.000 C 
BRANCH  23  24
ATOM     24  C   UNL     1      47.288  -2.757  15.821  1.00  0.00    -0.000 C 
BRANCH  24  25
ATOM     25  C   UNL     1      48.332  -3.310  16.804  1.00  0.00    -0.000 C 
BRANCH  25  26
ATOM     26  C   UNL     1      48.383  -4.846  16.808  1.00  0.00    -0.000 C 
BRANCH  26  27
ATOM     27  C   UNL     1      49.767  -5.345  17.242  1.00  0.00    -0.000 C 
BRANCH  27  28
ATOM     28  C   UNL     1      50.195  -6.573  16.426  1.00  0.00    -0.000 C 
BRANCH  28  29
ATOM     29  C   UNL     1      51.573  -7.120  16.844  1.00  0.00    -0.000 C 
BRANCH  29  30
ATOM     30  C   UNL     1      51.570  -8.581  17.326  1.00  0.00    -0.000 C 
BRANCH  30  31
ATOM     31  C   UNL     1      51.746  -8.709  18.845  1.00  0.00    -0.003 C 
ATOM     32  C   UNL     1      52.869  -7.804  19.346  1.00  0.00     0.004 C 
ENDBRANCH  30  31
ENDBRANCH  29  30
ENDBRANCH  28  29
ENDBRANCH  27  28
ENDBRANCH  26  27
ENDBRANCH  25  26
ENDBRANCH  24  25
ENDBRANCH  23  24
ENDBRANCH  22  23
ENDBRANCH  21  22
ENDBRANCH  20  21
ENDBRANCH  19  20
ENDBRANCH  18  19
ENDBRANCH   1  18
TORSDOF 28
ENDMDL
MODEL 7
REMARK VINA RESULT:    -3.891      4.864     11.419
REMARK INTER + INTRA:         -11.720
REMARK INTER:                  -9.819
REMARK INTRA:                  -1.901
REMARK UNBOUND:                -1.459
REMARK SMILES CCCCCCCCCCCCCCCCCCCCCCCCCCCCCC(=O)[O-]
REMARK SMILES IDX 16 1 17 2 18 3 19 4 20 5 21 6 22 7 23 8 24 9 25 10 26 11
REMARK SMILES IDX 27 12 28 13 29 14 30 15 31 16 32 17 15 18 14 19 13 20 12 21
REMARK SMILES IDX 11 22 10 23 9 24 8 25 7 26 6 27 5 28 4 29 3 30 2 31 1 32
REMARK H PARENT
REMARK Flexibility Score: inf
ROOT
ATOM      1  C   UNL     1      47.276   5.652  15.695  1.00  0.00     0.000 C 
ENDROOT
BRANCH   1   2
ATOM      2  C   UNL     1      46.710   4.815  14.528  1.00  0.00     0.000 C 
BRANCH   2   3
ATOM      3  C   UNL     1      47.573   3.578  14.220  1.00  0.00     0.000 C 
BRANCH   3   4
ATOM      4  C   UNL     1      46.731   2.331  13.911  1.00  0.00     0.000 C 
BRANCH   4   5
ATOM      5  C   UNL     1      45.221   2.626  13.875  1.00  0.00     0.000 C 
BRANCH   5   6
ATOM      6  C   UNL     1      44.354   1.356  13.929  1.00  0.00     0.000 C 
BRANCH   6   7
ATOM      7  C   UNL     1      45.156   0.034  13.935  1.00  0.00     0.000 C 
BRANCH   7   8
ATOM      8  C   UNL     1      44.312  -1.256  13.875  1.00  0.00     0.000 C 
BRANCH   8   9
ATOM      9  C   UNL     1      44.990  -2.538  14.404  1.00  0.00     0.000 C 
BRANCH   9  10
ATOM     10  C   UNL     1      46.333  -2.301  15.124  1.00  0.00     0.000 C 
BRANCH  10  11
ATOM     11  C   UNL     1      46.154  -1.831  16.577  1.00  0.00     0.000 C 
BRANCH  11  12
ATOM     12  C   UNL     1      47.363  -2.220  17.436  1.00  0.00     0.000 C 
BRANCH  12  13
ATOM     13  C   UNL     1      48.464  -2.859  16.575  1.00  0.00     0.006 C 
BRANCH  13  14
ATOM     14  C   UNL     1      49.171  -4.013  17.296  1.00  0.00     0.053 C 
BRANCH  14  15
ATOM     15  C   UNL     1      48.833  -5.338  16.686  1.00  0.00     0.041 C 
ATOM     16  O   UNL     1      47.738  -5.902  16.956  1.00  0.00    -0.550 OA
ATOM     17  O   UNL     1      49.713  -5.937  15.792  1.00  0.00    -0.550 OA
ENDBRANCH  14  15
ENDBRANCH  13  14
ENDBRANCH  12  13
ENDBRANCH  11  12
ENDBRANCH  10  11
ENDBRANCH   9  10
ENDBRANCH   8   9
ENDBRANCH   7   8
ENDBRANCH   6   7
ENDBRANCH   5   6
ENDBRANCH   4   5
ENDBRANCH   3   4
ENDBRANCH   2   3
ENDBRANCH   1   2
BRANCH   1  18
ATOM     18  C   UNL     1      46.394   6.853  16.088  1.00  0.00     0.000 C 
BRANCH  18  19
ATOM     19  C   UNL     1      45.062   6.963  15.326  1.00  0.00     0.000 C 
BRANCH  19  20
ATOM     20  C   UNL     1      44.913   8.298  14.579  1.00  0.00     0.000 C 
BRANCH  20  21
ATOM     21  C   UNL     1      46.267   8.944  14.246  1.00  0.00     0.000 C 
BRANCH  21  22
ATOM     22  C   UNL     1      46.226  10.481  14.336  1.00  0.00     0.000 C 
BRANCH  22  23
ATOM     23  C   UNL     1      46.334  10.991  15.782  1.00  0.00     0.000 C 
BRANCH  23  24
ATOM     24  C   UNL     1      44.976  10.978  16.513  1.00  0.00    -0.000 C 
BRANCH  24  25
ATOM     25  C   UNL     1      45.094  10.500  17.969  1.00  0.00    -0.000 C 
BRANCH  25  26
ATOM     26  C   UNL     1      43.766  10.605  18.734  1.00  0.00    -0.000 C 
BRANCH  26  27
ATOM     27  C   UNL     1      43.976  10.346  20.231  1.00  0.00    -0.000 C 
BRANCH  27  28
ATOM     28  C   UNL     1      45.404   9.858  20.514  1.00  0.00    -0.000 C 
BRANCH  28  29
ATOM     29  C   UNL     1      45.505   9.015  21.799  1.00  0.00    -0.000 C 
BRANCH  29  30
ATOM     30  C   UNL     1      46.137   7.624  21.613  1.00  0.00    -0.000 C 
BRANCH  30  31
ATOM     31  C   UNL     1      47.635   7.601  21.947  1.00  0.00    -0.003 C 
ATOM     32  C   UNL     1      48.038   6.268  22.572  1.00  0.00     0.004 C 
ENDBRANCH  30  31
ENDBRANCH  29  30
ENDBRANCH  28  29
ENDBRANCH  27  28
ENDBRANCH  26  27
ENDBRANCH  25  26
ENDBRANCH  24  25
ENDBRANCH  23  24
ENDBRANCH  22  23
ENDBRANCH  21  22
ENDBRANCH  20  21
ENDBRANCH  19  20
ENDBRANCH  18  19
ENDBRANCH   1  18
TORSDOF 28
ENDMDL
MODEL 8
REMARK VINA RESULT:    -3.823      1.974      3.700
REMARK INTER + INTRA:         -11.539
REMARK INTER:                  -9.920
REMARK INTRA:                  -1.618
REMARK UNBOUND:                -1.459
REMARK SMILES CCCCCCCCCCCCCCCCCCCCCCCCCCCCCC(=O)[O-]
REMARK SMILES IDX 16 1 17 2 18 3 19 4 20 5 21 6 22 7 23 8 24 9 25 10 26 11
REMARK SMILES IDX 27 12 28 13 29 14 30 15 31 16 32 17 15 18 14 19 13 20 12 21
REMARK SMILES IDX 11 22 10 23 9 24 8 25 7 26 6 27 5 28 4 29 3 30 2 31 1 32
REMARK H PARENT
REMARK Flexibility Score: inf
ROOT
ATOM      1  C   UNL     1      47.742   5.060  14.183  1.00  0.00     0.000 C 
ENDROOT
BRANCH   1   2
ATOM      2  C   UNL     1      46.361   5.596  14.618  1.00  0.00     0.000 C 
BRANCH   2   3
ATOM      3  C   UNL     1      46.166   7.079  14.251  1.00  0.00     0.000 C 
BRANCH   3   4
ATOM      4  C   UNL     1      46.282   8.009  15.468  1.00  0.00     0.000 C 
BRANCH   4   5
ATOM      5  C   UNL     1      44.933   8.620  15.883  1.00  0.00     0.000 C 
BRANCH   5   6
ATOM      6  C   UNL     1      45.073   9.981  16.585  1.00  0.00     0.000 C 
BRANCH   6   7
ATOM      7  C   UNL     1      46.067   9.990  17.769  1.00  0.00     0.000 C 
BRANCH   7   8
ATOM      8  C   UNL     1      45.961   8.791  18.736  1.00  0.00     0.000 C 
BRANCH   8   9
ATOM      9  C   UNL     1      44.561   8.510  19.320  1.00  0.00     0.000 C 
BRANCH   9  10
ATOM     10  C   UNL     1      43.934   9.698  20.078  1.00  0.00     0.000 C 
BRANCH  10  11
ATOM     11  C   UNL     1      44.806  10.185  21.247  1.00  0.00     0.000 C 
BRANCH  11  12
ATOM     12  C   UNL     1      44.457   9.443  22.543  1.00  0.00     0.000 C 
BRANCH  12  13
ATOM     13  C   UNL     1      45.663   8.644  23.058  1.00  0.00     0.006 C 
BRANCH  13  14
ATOM     14  C   UNL     1      46.832   8.650  22.066  1.00  0.00     0.053 C 
BRANCH  14  15
ATOM     15  C   UNL     1      47.989   7.841  22.567  1.00  0.00     0.041 C 
ATOM     16  O   UNL     1      47.991   6.587  22.438  1.00  0.00    -0.550 OA
ATOM     17  O   UNL     1      49.082   8.474  23.146  1.00  0.00    -0.550 OA
ENDBRANCH  14  15
ENDBRANCH  13  14
ENDBRANCH  12  13
ENDBRANCH  11  12
ENDBRANCH  10  11
ENDBRANCH   9  10
ENDBRANCH   8   9
ENDBRANCH   7   8
ENDBRANCH   6   7
ENDBRANCH   5   6
ENDBRANCH   4   5
ENDBRANCH   3   4
ENDBRANCH   2   3
ENDBRANCH   1   2
BRANCH   1  18
ATOM     18  C   UNL     1      47.800   3.526  14.043  1.00  0.00     0.000 C 
BRANCH  18  19
ATOM     19  C   UNL     1      46.436   2.831  13.897  1.00  0.00     0.000 C 
BRANCH  19  20
ATOM     20  C   UNL     1      46.550   1.297  13.877  1.00  0.00     0.000 C 
BRANCH  20  21
ATOM     21  C   UNL     1      45.205   0.602  14.140  1.00  0.00     0.000 C 
BRANCH  21  22
ATOM     22  C   UNL     1      45.207  -0.213  15.446  1.00  0.00     0.000 C 
BRANCH  22  23
ATOM     23  C   UNL     1      44.587  -1.609  15.272  1.00  0.00     0.000 C 
BRANCH  23  24
ATOM     24  C   UNL     1      45.221  -2.393  14.106  1.00  0.00    -0.000 C 
BRANCH  24  25
ATOM     25  C   UNL     1      46.594  -2.981  14.468  1.00  0.00    -0.000 C 
BRANCH  25  26
ATOM     26  C   UNL     1      46.720  -3.309  15.964  1.00  0.00    -0.000 C 
BRANCH  26  27
ATOM     27  C   UNL     1      48.043  -2.779  16.530  1.00  0.00    -0.000 C 
BRANCH  27  28
ATOM     28  C   UNL     1      48.908  -3.922  17.081  1.00  0.00    -0.000 C 
BRANCH  28  29
ATOM     29  C   UNL     1      48.415  -5.313  16.639  1.00  0.00    -0.000 C 
BRANCH  29  30
ATOM     30  C   UNL     1      49.514  -6.253  16.113  1.00  0.00    -0.000 C 
BRANCH  30  31
ATOM     31  C   UNL     1      50.717  -6.352  17.060  1.00  0.00    -0.003 C 
ATOM     32  C   UNL     1      51.224  -7.789  17.155  1.00  0.00     0.004 C 
ENDBRANCH  30  31
ENDBRANCH  29  30
ENDBRANCH  28  29
ENDBRANCH  27  28
ENDBRANCH  26  27
ENDBRANCH  25  26
ENDBRANCH  24  25
ENDBRANCH  23  24
ENDBRANCH  22  23
ENDBRANCH  21  22
ENDBRANCH  20  21
ENDBRANCH  19  20
ENDBRANCH  18  19
ENDBRANCH   1  18
TORSDOF 28
ENDMDL
MODEL 9
REMARK VINA RESULT:    -3.767      5.358     12.303
REMARK INTER + INTRA:         -11.392
REMARK INTER:                  -9.388
REMARK INTRA:                  -2.004
REMARK UNBOUND:                -1.459
REMARK SMILES CCCCCCCCCCCCCCCCCCCCCCCCCCCCCC(=O)[O-]
REMARK SMILES IDX 16 1 17 2 18 3 19 4 20 5 21 6 22 7 23 8 24 9 25 10 26 11
REMARK SMILES IDX 27 12 28 13 29 14 30 15 31 16 32 17 15 18 14 19 13 20 12 21
REMARK SMILES IDX 11 22 10 23 9 24 8 25 7 26 6 27 5 28 4 29 3 30 2 31 1 32
REMARK H PARENT
REMARK Flexibility Score: inf
ROOT
ATOM      1  C   UNL     1      47.126   2.825  14.008  1.00  0.00     0.000 C 
ENDROOT
BRANCH   1   2
ATOM      2  C   UNL     1      46.453   1.435  14.015  1.00  0.00     0.000 C 
BRANCH   2   3
ATOM      3  C   UNL     1      44.922   1.526  14.143  1.00  0.00     0.000 C 
BRANCH   3   4
ATOM      4  C   UNL     1      44.237   0.156  14.029  1.00  0.00     0.000 C 
BRANCH   4   5
ATOM      5  C   UNL     1      44.219  -0.614  15.361  1.00  0.00     0.000 C 
BRANCH   5   6
ATOM      6  C   UNL     1      43.842  -2.097  15.200  1.00  0.00     0.000 C 
BRANCH   6   7
ATOM      7  C   UNL     1      44.373  -2.754  13.906  1.00  0.00     0.000 C 
BRANCH   7   8
ATOM      8  C   UNL     1      45.868  -3.140  13.921  1.00  0.00     0.000 C 
BRANCH   8   9
ATOM      9  C   UNL     1      46.856  -2.019  14.304  1.00  0.00     0.000 C 
BRANCH   9  10
ATOM     10  C   UNL     1      47.894  -2.419  15.373  1.00  0.00     0.000 C 
BRANCH  10  11
ATOM     11  C   UNL     1      47.269  -2.622  16.762  1.00  0.00     0.000 C 
BRANCH  11  12
ATOM     12  C   UNL     1      47.574  -4.025  17.304  1.00  0.00     0.000 C 
BRANCH  12  13
ATOM     13  C   UNL     1      48.782  -4.640  16.582  1.00  0.00     0.006 C 
BRANCH  13  14
ATOM     14  C   UNL     1      48.884  -6.153  16.804  1.00  0.00     0.053 C 
BRANCH  14  15
ATOM     15  C   UNL     1      50.221  -6.686  16.388  1.00  0.00     0.041 C 
ATOM     16  O   UNL     1      50.833  -7.509  17.121  1.00  0.00    -0.550 OA
ATOM     17  O   UNL     1      50.776  -6.300  15.175  1.00  0.00    -0.550 OA
ENDBRANCH  14  15
ENDBRANCH  13  14
ENDBRANCH  12  13
ENDBRANCH  11  12
ENDBRANCH  10  11
ENDBRANCH   9  10
ENDBRANCH   8   9
ENDBRANCH   7   8
ENDBRANCH   6   7
ENDBRANCH   5   6
ENDBRANCH   4   5
ENDBRANCH   3   4
ENDBRANCH   2   3
ENDBRANCH   1   2
BRANCH   1  18
ATOM     18  C   UNL     1      46.130   4.001  14.008  1.00  0.00     0.000 C 
BRANCH  18  19
ATOM     19  C   UNL     1      46.769   5.399  14.024  1.00  0.00     0.000 C 
BRANCH  19  20
ATOM     20  C   UNL     1      47.498   5.704  15.344  1.00  0.00     0.000 C 
BRANCH  20  21
ATOM     21  C   UNL     1      46.543   5.757  16.547  1.00  0.00     0.000 C 
BRANCH  21  22
ATOM     22  C   UNL     1      46.837   6.945  17.482  1.00  0.00     0.000 C 
BRANCH  22  23
ATOM     23  C   UNL     1      45.658   7.927  17.577  1.00  0.00     0.000 C 
BRANCH  23  24
ATOM     24  C   UNL     1      46.120   9.385  17.774  1.00  0.00    -0.000 C 
BRANCH  24  25
ATOM     25  C   UNL     1      45.596   9.998  19.082  1.00  0.00    -0.000 C 
BRANCH  25  26
ATOM     26  C   UNL     1      44.756   9.007  19.903  1.00  0.00    -0.000 C 
BRANCH  26  27
ATOM     27  C   UNL     1      44.051   9.720  21.064  1.00  0.00    -0.000 C 
BRANCH  27  28
ATOM     28  C   UNL     1      44.779   9.472  22.392  1.00  0.00    -0.000 C 
BRANCH  28  29
ATOM     29  C   UNL     1      45.875   8.396  22.282  1.00  0.00    -0.000 C 
BRANCH  29  30
ATOM     30  C   UNL     1      47.253   8.817  22.822  1.00  0.00    -0.000 C 
BRANCH  30  31
ATOM     31  C   UNL     1      48.293   7.692  22.747  1.00  0.00    -0.003 C 
ATOM     32  C   UNL     1      47.830   6.576  21.814  1.00  0.00     0.004 C 
ENDBRANCH  30  31
ENDBRANCH  29  30
ENDBRANCH  28  29
ENDBRANCH  27  28
ENDBRANCH  26  27
ENDBRANCH  25  26
ENDBRANCH  24  25
ENDBRANCH  23  24
ENDBRANCH  22  23
ENDBRANCH  21  22
ENDBRANCH  20  21
ENDBRANCH  19  20
ENDBRANCH  18  19
ENDBRANCH   1  18
TORSDOF 28
ENDMDL
