MODEL 1
REMARK VINA RESULT:    -4.105      0.000      0.000
REMARK INTER + INTRA:          -8.105
REMARK INTER:                  -6.505
REMARK INTRA:                  -1.599
REMARK UNBOUND:                -1.599
REMARK SMILES CCCCCCCCCCCC(=O)[O-]
REMARK SMILES IDX 7 1 8 2 9 3 10 4 11 5 12 6 13 7 14 8 6 9 5 10 4 11 3 12 2 13
REMARK SMILES IDX 1 14
REMARK H PARENT
REMARK Flexibility Score: inf
ROOT
ATOM      1  C   UNL     1     -47.213  27.110 -18.083  1.00  0.00     0.000 C 
ENDROOT
BRANCH   1   2
ATOM      2  C   UNL     1     -48.380  26.309 -17.478  1.00  0.00     0.000 C 
BRANCH   2   3
ATOM      3  C   UNL     1     -48.067  24.833 -17.170  1.00  0.00     0.000 C 
BRANCH   3   4
ATOM      4  C   UNL     1     -48.656  24.363 -15.828  1.00  0.00     0.006 C 
BRANCH   4   5
ATOM      5  C   UNL     1     -49.660  25.369 -15.252  1.00  0.00     0.053 C 
BRANCH   5   6
ATOM      6  C   UNL     1     -50.989  24.732 -14.979  1.00  0.00     0.041 C 
ATOM      7  O   UNL     1     -51.992  25.448 -14.720  1.00  0.00    -0.550 OA
ATOM      8  O   UNL     1     -51.110  23.349 -14.977  1.00  0.00    -0.550 OA
ENDBRANCH   5   6
ENDBRANCH   4   5
ENDBRANCH   3   4
ENDBRANCH   2   3
ENDBRANCH   1   2
BRANCH   1   9
ATOM      9  C   UNL     1     -45.952  26.257 -18.304  1.00  0.00     0.000 C 
BRANCH   9  10
ATOM     10  C   UNL     1     -44.712  26.849 -17.613  1.00  0.00    -0.000 C 
BRANCH  10  11
ATOM     11  C   UNL     1     -45.038  27.462 -16.240  1.00  0.00    -0.000 C 
BRANCH  11  12
ATOM     12  C   UNL     1     -44.974  26.431 -15.103  1.00  0.00    -0.000 C 
BRANCH  12  13
ATOM     13  C   UNL     1     -46.143  26.562 -14.116  1.00  0.00    -0.003 C 
ATOM     14  C   UNL     1     -46.946  27.831 -14.381  1.00  0.00     0.004 C 
ENDBRANCH  12  13
ENDBRANCH  11  12
ENDBRANCH  10  11
ENDBRANCH   9  10
ENDBRANCH   1   9
TORSDOF 10
ENDMDL
MODEL 2
REMARK VINA RESULT:    -4.005      3.309      5.530
REMARK INTER + INTRA:          -7.945
REMARK INTER:                  -6.501
REMARK INTRA:                  -1.444
REMARK UNBOUND:                -1.599
REMARK SMILES CCCCCCCCCCCC(=O)[O-]
REMARK SMILES IDX 7 1 8 2 9 3 10 4 11 5 12 6 13 7 14 8 6 9 5 10 4 11 3 12 2 13
REMARK SMILES IDX 1 14
REMARK H PARENT
REMARK Flexibility Score: inf
ROOT
ATOM      1  C   UNL     1     -45.966  27.528 -13.516  1.00  0.00     0.000 C 
ENDROOT
BRANCH   1   2
ATOM      2  C   UNL     1     -44.990  28.285 -14.434  1.00  0.00     0.000 C 
BRANCH   2   3
ATOM      3  C   UNL     1     -45.546  28.643 -15.825  1.00  0.00     0.000 C 
BRANCH   3   4
ATOM      4  C   UNL     1     -44.658  28.138 -16.974  1.00  0.00     0.006 C 
BRANCH   4   5
ATOM      5  C   UNL     1     -44.694  26.610 -17.107  1.00  0.00     0.053 C 
BRANCH   5   6
ATOM      6  C   UNL     1     -44.669  26.176 -18.541  1.00  0.00     0.041 C 
ATOM      7  O   UNL     1     -43.902  26.747 -19.361  1.00  0.00    -0.550 OA
ATOM      8  O   UNL     1     -45.518  25.168 -18.979  1.00  0.00    -0.550 OA
ENDBRANCH   5   6
ENDBRANCH   4   5
ENDBRANCH   3   4
ENDBRANCH   2   3
ENDBRANCH   1   2
BRANCH   1   9
ATOM      9  C   UNL     1     -45.890  26.001 -13.689  1.00  0.00     0.000 C 
BRANCH   9  10
ATOM     10  C   UNL     1     -47.270  25.366 -13.930  1.00  0.00    -0.000 C 
BRANCH  10  11
ATOM     11  C   UNL     1     -48.185  26.254 -14.789  1.00  0.00    -0.000 C 
BRANCH  11  12
ATOM     12  C   UNL     1     -48.212  25.823 -16.264  1.00  0.00    -0.000 C 
BRANCH  12  13
ATOM     13  C   UNL     1     -49.066  26.752 -17.139  1.00  0.00    -0.003 C 
ATOM     14  C   UNL     1     -48.204  27.502 -18.148  1.00  0.00     0.004 C 
ENDBRANCH  12  13
ENDBRANCH  11  12
ENDBRANCH  10  11
ENDBRANCH   9  10
ENDBRANCH   1   9
TORSDOF 10
ENDMDL
MODEL 3
REMARK VINA RESULT:    -4.002      1.471      3.660
REMARK INTER + INTRA:          -7.940
REMARK INTER:                  -7.189
REMARK INTRA:                  -0.752
REMARK UNBOUND:                -1.599
REMARK SMILES CCCCCCCCCCCC(=O)[O-]
REMARK SMILES IDX 7 1 8 2 9 3 10 4 11 5 12 6 13 7 14 8 6 9 5 10 4 11 3 12 2 13
REMARK SMILES IDX 1 14
REMARK H PARENT
REMARK Flexibility Score: inf
ROOT
ATOM      1  C   UNL     1     -44.997  26.523 -14.816  1.00  0.00     0.000 C 
ENDROOT
BRANCH   1   2
ATOM      2  C   UNL     1     -46.003  26.470 -13.651  1.00  0.00     0.000 C 
BRANCH   2   3
ATOM      3  C   UNL     1     -47.172  25.486 -13.844  1.00  0.00     0.000 C 
BRANCH   3   4
ATOM      4  C   UNL     1     -47.904  25.681 -15.182  1.00  0.00     0.006 C 
BRANCH   4   5
ATOM      5  C   UNL     1     -48.704  24.436 -15.591  1.00  0.00     0.053 C 
BRANCH   5   6
ATOM      6  C   UNL     1     -50.137  24.532 -15.162  1.00  0.00     0.041 C 
ATOM      7  O   UNL     1     -50.803  23.486 -14.946  1.00  0.00    -0.550 OA
ATOM      8  O   UNL     1     -50.744  25.775 -15.036  1.00  0.00    -0.550 OA
ENDBRANCH   5   6
ENDBRANCH   4   5
ENDBRANCH   3   4
ENDBRANCH   2   3
ENDBRANCH   1   2
BRANCH   1   9
ATOM      9  C   UNL     1     -44.890  27.920 -15.451  1.00  0.00     0.000 C 
BRANCH   9  10
ATOM     10  C   UNL     1     -44.699  27.860 -16.976  1.00  0.00    -0.000 C 
BRANCH  10  11
ATOM     11  C   UNL     1     -44.885  26.440 -17.538  1.00  0.00    -0.000 C 
BRANCH  11  12
ATOM     12  C   UNL     1     -44.404  26.312 -18.991  1.00  0.00    -0.000 C 
BRANCH  12  13
ATOM     13  C   UNL     1     -43.138  27.136 -19.272  1.00  0.00    -0.003 C 
ATOM     14  C   UNL     1     -43.127  27.656 -20.706  1.00  0.00     0.004 C 
ENDBRANCH  12  13
ENDBRANCH  11  12
ENDBRANCH  10  11
ENDBRANCH   9  10
ENDBRANCH   1   9
TORSDOF 10
ENDMDL
MODEL 4
REMARK VINA RESULT:    -3.988      1.992      4.030
REMARK INTER + INTRA:          -7.918
REMARK INTER:                  -6.815
REMARK INTRA:                  -1.103
REMARK UNBOUND:                -1.599
REMARK SMILES CCCCCCCCCCCC(=O)[O-]
REMARK SMILES IDX 7 1 8 2 9 3 10 4 11 5 12 6 13 7 14 8 6 9 5 10 4 11 3 12 2 13
REMARK SMILES IDX 1 14
REMARK H PARENT
REMARK Flexibility Score: inf
ROOT
ATOM      1  C   UNL     1     -44.955  26.520 -14.992  1.00  0.00     0.000 C 
ENDROOT
BRANCH   1   2
ATOM      2  C   UNL     1     -46.098  26.507 -13.961  1.00  0.00     0.000 C 
BRANCH   2   3
ATOM      3  C   UNL     1     -47.230  27.515 -14.230  1.00  0.00     0.000 C 
BRANCH   3   4
ATOM      4  C   UNL     1     -48.509  26.850 -14.767  1.00  0.00     0.006 C 
BRANCH   4   5
ATOM      5  C   UNL     1     -48.427  26.568 -16.274  1.00  0.00     0.053 C 
BRANCH   5   6
ATOM      6  C   UNL     1     -48.333  25.100 -16.559  1.00  0.00     0.041 C 
ATOM      7  O   UNL     1     -47.922  24.699 -17.679  1.00  0.00    -0.550 OA
ATOM      8  O   UNL     1     -48.735  24.178 -15.602  1.00  0.00    -0.550 OA
ENDBRANCH   5   6
ENDBRANCH   4   5
ENDBRANCH   3   4
ENDBRANCH   2   3
ENDBRANCH   1   2
BRANCH   1   9
ATOM      9  C   UNL     1     -44.716  27.911 -15.604  1.00  0.00     0.000 C 
BRANCH   9  10
ATOM     10  C   UNL     1     -44.858  27.913 -17.136  1.00  0.00    -0.000 C 
BRANCH  10  11
ATOM     11  C   UNL     1     -44.939  26.493 -17.722  1.00  0.00    -0.000 C 
BRANCH  11  12
ATOM     12  C   UNL     1     -44.280  26.386 -19.105  1.00  0.00    -0.000 C 
BRANCH  12  13
ATOM     13  C   UNL     1     -43.059  27.306 -19.254  1.00  0.00    -0.003 C 
ATOM     14  C   UNL     1     -42.950  27.849 -20.675  1.00  0.00     0.004 C 
ENDBRANCH  12  13
ENDBRANCH  11  12
ENDBRANCH  10  11
ENDBRANCH   9  10
ENDBRANCH   1   9
TORSDOF 10
ENDMDL
MODEL 5
REMARK VINA RESULT:    -3.944      4.144      6.078
REMARK INTER + INTRA:          -7.849
REMARK INTER:                  -6.486
REMARK INTRA:                  -1.363
REMARK UNBOUND:                -1.599
REMARK SMILES CCCCCCCCCCCC(=O)[O-]
REMARK SMILES IDX 7 1 8 2 9 3 10 4 11 5 12 6 13 7 14 8 6 9 5 10 4 11 3 12 2 13
REMARK SMILES IDX 1 14
REMARK H PARENT
REMARK Flexibility Score: inf
ROOT
ATOM      1  C   UNL     1     -45.028  26.471 -14.773  1.00  0.00     0.000 C 
ENDROOT
BRANCH   1   2
ATOM      2  C   UNL     1     -44.876  27.856 -15.429  1.00  0.00     0.000 C 
BRANCH   2   3
ATOM      3  C   UNL     1     -45.023  27.871 -16.962  1.00  0.00     0.000 C 
BRANCH   3   4
ATOM      4  C   UNL     1     -44.709  26.511 -17.608  1.00  0.00     0.006 C 
BRANCH   4   5
ATOM      5  C   UNL     1     -44.879  26.540 -19.133  1.00  0.00     0.053 C 
BRANCH   5   6
ATOM      6  C   UNL     1     -43.641  27.030 -19.820  1.00  0.00     0.041 C 
ATOM      7  O   UNL     1     -42.598  27.262 -19.154  1.00  0.00    -0.550 OA
ATOM      8  O   UNL     1     -43.651  27.265 -21.189  1.00  0.00    -0.550 OA
ENDBRANCH   5   6
ENDBRANCH   4   5
ENDBRANCH   3   4
ENDBRANCH   2   3
ENDBRANCH   1   2
BRANCH   1   9
ATOM      9  C   UNL     1     -46.114  26.441 -13.684  1.00  0.00     0.000 C 
BRANCH   9  10
ATOM     10  C   UNL     1     -47.306  25.548 -14.067  1.00  0.00    -0.000 C 
BRANCH  10  11
ATOM     11  C   UNL     1     -48.203  26.189 -15.139  1.00  0.00    -0.000 C 
BRANCH  11  12
ATOM     12  C   UNL     1     -48.161  25.432 -16.475  1.00  0.00    -0.000 C 
BRANCH  12  13
ATOM     13  C   UNL     1     -48.474  26.333 -17.679  1.00  0.00    -0.003 C 
ATOM     14  C   UNL     1     -48.619  27.790 -17.251  1.00  0.00     0.004 C 
ENDBRANCH  12  13
ENDBRANCH  11  12
ENDBRANCH  10  11
ENDBRANCH   9  10
ENDBRANCH   1   9
TORSDOF 10
ENDMDL
MODEL 6
REMARK VINA RESULT:    -3.933      2.508      4.053
REMARK INTER + INTRA:          -7.831
REMARK INTER:                  -6.353
REMARK INTRA:                  -1.478
REMARK UNBOUND:                -1.599
REMARK SMILES CCCCCCCCCCCC(=O)[O-]
REMARK SMILES IDX 7 1 8 2 9 3 10 4 11 5 12 6 13 7 14 8 6 9 5 10 4 11 3 12 2 13
REMARK SMILES IDX 1 14
REMARK H PARENT
REMARK Flexibility Score: inf
ROOT
ATOM      1  C   UNL     1     -46.028  27.465 -13.246  1.00  0.00     0.000 C 
ENDROOT
BRANCH   1   2
ATOM      2  C   UNL     1     -45.892  26.053 -13.844  1.00  0.00     0.000 C 
BRANCH   2   3
ATOM      3  C   UNL     1     -47.206  25.256 -13.940  1.00  0.00     0.000 C 
BRANCH   3   4
ATOM      4  C   UNL     1     -48.287  25.980 -14.761  1.00  0.00     0.006 C 
BRANCH   4   5
ATOM      5  C   UNL     1     -47.888  26.138 -16.234  1.00  0.00     0.053 C 
BRANCH   5   6
ATOM      6  C   UNL     1     -48.167  27.521 -16.738  1.00  0.00     0.041 C 
ATOM      7  O   UNL     1     -48.414  28.452 -15.928  1.00  0.00    -0.550 OA
ATOM      8  O   UNL     1     -48.190  27.773 -18.104  1.00  0.00    -0.550 OA
ENDBRANCH   5   6
ENDBRANCH   4   5
ENDBRANCH   3   4
ENDBRANCH   2   3
ENDBRANCH   1   2
BRANCH   1   9
ATOM      9  C   UNL     1     -45.352  28.547 -14.105  1.00  0.00     0.000 C 
BRANCH   9  10
ATOM     10  C   UNL     1     -44.539  27.953 -15.268  1.00  0.00    -0.000 C 
BRANCH  10  11
ATOM     11  C   UNL     1     -44.821  28.659 -16.605  1.00  0.00    -0.000 C 
BRANCH  11  12
ATOM     12  C   UNL     1     -44.230  27.906 -17.807  1.00  0.00    -0.000 C 
BRANCH  12  13
ATOM     13  C   UNL     1     -44.577  26.410 -17.798  1.00  0.00    -0.003 C 
ATOM     14  C   UNL     1     -45.319  26.011 -19.070  1.00  0.00     0.004 C 
ENDBRANCH  12  13
ENDBRANCH  11  12
ENDBRANCH  10  11
ENDBRANCH   9  10
ENDBRANCH   1   9
TORSDOF 10
ENDMDL
MODEL 7
REMARK VINA RESULT:    -3.840      1.733      3.435
REMARK INTER + INTRA:          -7.684
REMARK INTER:                  -6.119
REMARK INTRA:                  -1.565
REMARK UNBOUND:                -1.599
REMARK SMILES CCCCCCCCCCCC(=O)[O-]
REMARK SMILES IDX 7 1 8 2 9 3 10 4 11 5 12 6 13 7 14 8 6 9 5 10 4 11 3 12 2 13
REMARK SMILES IDX 1 14
REMARK H PARENT
REMARK Flexibility Score: inf
ROOT
ATOM      1  C   UNL     1     -47.254  25.161 -13.920  1.00  0.00     0.000 C 
ENDROOT
BRANCH   1   2
ATOM      2  C   UNL     1     -48.484  25.211 -14.845  1.00  0.00     0.000 C 
BRANCH   2   3
ATOM      3  C   UNL     1     -48.177  25.060 -16.347  1.00  0.00     0.000 C 
BRANCH   3   4
ATOM      4  C   UNL     1     -48.769  26.197 -17.197  1.00  0.00     0.006 C 
BRANCH   4   5
ATOM      5  C   UNL     1     -49.197  27.397 -16.342  1.00  0.00     0.053 C 
BRANCH   5   6
ATOM      6  C   UNL     1     -50.664  27.676 -16.473  1.00  0.00     0.041 C 
ATOM      7  O   UNL     1     -51.506  26.813 -16.110  1.00  0.00    -0.550 OA
ATOM      8  O   UNL     1     -51.098  28.873 -17.028  1.00  0.00    -0.550 OA
ENDBRANCH   5   6
ENDBRANCH   4   5
ENDBRANCH   3   4
ENDBRANCH   2   3
ENDBRANCH   1   2
BRANCH   1   9
ATOM      9  C   UNL     1     -46.559  26.525 -13.773  1.00  0.00     0.000 C 
BRANCH   9  10
ATOM     10  C   UNL     1     -45.374  26.690 -14.740  1.00  0.00    -0.000 C 
BRANCH  10  11
ATOM     11  C   UNL     1     -45.426  28.017 -15.515  1.00  0.00    -0.000 C 
BRANCH  11  12
ATOM     12  C   UNL     1     -45.320  27.819 -17.034  1.00  0.00    -0.000 C 
BRANCH  12  13
ATOM     13  C   UNL     1     -44.759  26.440 -17.415  1.00  0.00    -0.003 C 
ATOM     14  C   UNL     1     -45.295  25.984 -18.769  1.00  0.00     0.004 C 
ENDBRANCH  12  13
ENDBRANCH  11  12
ENDBRANCH  10  11
ENDBRANCH   9  10
ENDBRANCH   1   9
TORSDOF 10
ENDMDL
MODEL 8
REMARK VINA RESULT:    -3.824      3.281      5.908
REMARK INTER + INTRA:          -7.659
REMARK INTER:                  -6.669
REMARK INTRA:                  -0.990
REMARK UNBOUND:                -1.599
REMARK SMILES CCCCCCCCCCCC(=O)[O-]
REMARK SMILES IDX 7 1 8 2 9 3 10 4 11 5 12 6 13 7 14 8 6 9 5 10 4 11 3 12 2 13
REMARK SMILES IDX 1 14
REMARK H PARENT
REMARK Flexibility Score: inf
ROOT
ATOM      1  C   UNL     1     -49.756  27.429 -14.744  1.00  0.00     0.000 C 
ENDROOT
BRANCH   1   2
ATOM      2  C   UNL     1     -48.397  27.001 -15.327  1.00  0.00     0.000 C 
BRANCH   2   3
ATOM      3  C   UNL     1     -48.306  25.524 -15.754  1.00  0.00     0.000 C 
BRANCH   3   4
ATOM      4  C   UNL     1     -48.136  25.348 -17.272  1.00  0.00     0.006 C 
BRANCH   4   5
ATOM      5  C   UNL     1     -47.605  26.620 -17.947  1.00  0.00     0.053 C 
BRANCH   5   6
ATOM      6  C   UNL     1     -46.166  26.481 -18.339  1.00  0.00     0.041 C 
ATOM      7  O   UNL     1     -45.405  27.484 -18.319  1.00  0.00    -0.550 OA
ATOM      8  O   UNL     1     -45.675  25.252 -18.762  1.00  0.00    -0.550 OA
ENDBRANCH   5   6
ENDBRANCH   4   5
ENDBRANCH   3   4
ENDBRANCH   2   3
ENDBRANCH   1   2
BRANCH   1   9
ATOM      9  C   UNL     1     -50.790  27.779 -15.828  1.00  0.00     0.000 C 
BRANCH   9  10
ATOM     10  C   UNL     1     -51.808  26.649 -16.057  1.00  0.00    -0.000 C 
BRANCH  10  11
ATOM     11  C   UNL     1     -52.141  25.885 -14.765  1.00  0.00    -0.000 C 
BRANCH  11  12
ATOM     12  C   UNL     1     -51.764  24.397 -14.844  1.00  0.00    -0.000 C 
BRANCH  12  13
ATOM     13  C   UNL     1     -52.512  23.539 -13.812  1.00  0.00    -0.003 C 
ATOM     14  C   UNL     1     -53.820  24.202 -13.391  1.00  0.00     0.004 C 
ENDBRANCH  12  13
ENDBRANCH  11  12
ENDBRANCH  10  11
ENDBRANCH   9  10
ENDBRANCH   1   9
TORSDOF 10
ENDMDL
MODEL 9
REMARK VINA RESULT:    -3.712      4.298      5.828
REMARK INTER + INTRA:          -7.482
REMARK INTER:                  -6.199
REMARK INTRA:                  -1.283
REMARK UNBOUND:                -1.599
REMARK SMILES CCCCCCCCCCCC(=O)[O-]
REMARK SMILES IDX 7 1 8 2 9 3 10 4 11 5 12 6 13 7 14 8 6 9 5 10 4 11 3 12 2 13
REMARK SMILES IDX 1 14
REMARK H PARENT
REMARK Flexibility Score: inf
ROOT
ATOM      1  C   UNL     1     -48.256  26.783 -17.668  1.00  0.00     0.000 C 
ENDROOT
BRANCH   1   2
ATOM      2  C   UNL     1     -46.810  27.234 -17.947  1.00  0.00     0.000 C 
BRANCH   2   3
ATOM      3  C   UNL     1     -45.864  26.124 -18.439  1.00  0.00     0.000 C 
BRANCH   3   4
ATOM      4  C   UNL     1     -44.381  26.448 -18.193  1.00  0.00     0.006 C 
BRANCH   4   5
ATOM      5  C   UNL     1     -44.070  27.935 -18.408  1.00  0.00     0.053 C 
BRANCH   5   6
ATOM      6  C   UNL     1     -43.166  28.149 -19.584  1.00  0.00     0.041 C 
ATOM      7  O   UNL     1     -42.357  29.114 -19.594  1.00  0.00    -0.550 OA
ATOM      8  O   UNL     1     -43.243  27.303 -20.684  1.00  0.00    -0.550 OA
ENDBRANCH   5   6
ENDBRANCH   4   5
ENDBRANCH   3   4
ENDBRANCH   2   3
ENDBRANCH   1   2
BRANCH   1   9
ATOM      9  C   UNL     1     -48.334  25.385 -17.030  1.00  0.00     0.000 C 
BRANCH   9  10
ATOM     10  C   UNL     1     -47.991  25.403 -15.530  1.00  0.00    -0.000 C 
BRANCH  10  11
ATOM     11  C   UNL     1     -48.531  26.653 -14.816  1.00  0.00    -0.000 C 
BRANCH  11  12
ATOM     12  C   UNL     1     -47.423  27.464 -14.127  1.00  0.00    -0.000 C 
BRANCH  12  13
ATOM     13  C   UNL     1     -46.063  26.751 -14.149  1.00  0.00    -0.003 C 
ATOM     14  C   UNL     1     -44.983  27.645 -14.749  1.00  0.00     0.004 C 
ENDBRANCH  12  13
ENDBRANCH  11  12
ENDBRANCH  10  11
ENDBRANCH   9  10
ENDBRANCH   1   9
TORSDOF 10
ENDMDL
