MODEL 1
REMARK VINA RESULT:    -7.125      0.000      0.000
REMARK INTER + INTRA:          -9.973
REMARK INTER:                 -10.250
REMARK INTRA:                   0.276
REMARK UNBOUND:                 0.276
REMARK SMILES O=c1c(O[C@H]2O[C@H](CO)[C@H](O)[C@H](O)[C@H]2O)c(-c2ccc(O)cc2)oc2cc(O)cc(O)c12
REMARK SMILES IDX 4 1 3 2 16 3 24 4 2 5 25 6 1 7 32 8 26 9 30 10 27 11 29 12
REMARK SMILES IDX 17 13 18 14 19 15 20 16 23 17 22 18 21 19 31 21 28 23 5 25
REMARK SMILES IDX 14 26 6 27 12 28 7 29 10 30 15 31 13 33 8 35 9 36 11 38
REMARK H PARENT 21 20 31 22 28 24 15 32 13 34 9 37 11 39
REMARK Flexibility Score: inf
ROOT
ATOM      1  O   UNL     1      -0.209  -5.353  -7.637  1.00  0.00    -0.454 OA
ENDROOT
BRANCH   1   2
ATOM      2  C   UNL     1       1.072  -5.855  -7.899  1.00  0.00     0.214 A 
ATOM      3  C   UNL     1       1.357  -7.237  -7.872  1.00  0.00     0.180 A 
ATOM      4  O   UNL     1       2.564  -7.670  -8.222  1.00  0.00    -0.452 OA
ATOM      5  C   UNL     1       2.101  -4.961  -8.212  1.00  0.00     0.239 A 
ATOM      6  C   UNL     1       3.559  -6.858  -8.562  1.00  0.00     0.146 A 
ATOM      7  O   UNL     1       1.862  -3.723  -8.199  1.00  0.00    -0.285 OA
ATOM      8  C   UNL     1       3.376  -5.455  -8.558  1.00  0.00     0.111 A 
ATOM      9  C   UNL     1       4.795  -7.406  -8.915  1.00  0.00     0.094 A 
ATOM     10  C   UNL     1       4.461  -4.617  -8.908  1.00  0.00     0.134 A 
ATOM     11  C   UNL     1       5.863  -6.572  -9.263  1.00  0.00     0.123 A 
ATOM     12  C   UNL     1       5.695  -5.186  -9.257  1.00  0.00     0.093 A 
BRANCH   3  13
ATOM     13  C   UNL     1       0.359  -8.237  -7.441  1.00  0.00     0.021 A 
ATOM     14  C   UNL     1      -0.908  -7.838  -6.979  1.00  0.00     0.016 A 
ATOM     15  C   UNL     1      -1.840  -8.795  -6.567  1.00  0.00     0.047 A 
ATOM     16  C   UNL     1      -1.512 -10.156  -6.595  1.00  0.00     0.115 A 
ATOM     17  C   UNL     1       0.691  -9.600  -7.443  1.00  0.00     0.016 A 
ATOM     18  C   UNL     1      -0.244 -10.554  -7.029  1.00  0.00     0.047 A 
BRANCH  16  19
ATOM     19  O   UNL     1      -2.435 -11.118  -6.191  1.00  0.00    -0.508 OA
ATOM     20  H   UNL     1      -2.660 -11.914  -6.777  1.00  0.00     0.293 HD
ENDBRANCH  16  19
ENDBRANCH   3  13
BRANCH  10  21
ATOM     21  O   UNL     1       4.323  -3.228  -8.915  1.00  0.00    -0.507 OA
ATOM     22  H   UNL     1       4.734  -2.647  -8.193  1.00  0.00     0.293 HD
ENDBRANCH  10  21
BRANCH  11  23
ATOM     23  O   UNL     1       7.099  -7.112  -9.613  1.00  0.00    -0.508 OA
ATOM     24  H   UNL     1       7.189  -8.072  -9.926  1.00  0.00     0.293 HD
ENDBRANCH  11  23
ENDBRANCH   1   2
BRANCH   1  25
ATOM     25  C   UNL     1      -0.638  -4.047  -8.045  1.00  0.00     0.339 C 
ATOM     26  C   UNL     1      -1.249  -3.279  -6.857  1.00  0.00     0.214 C 
ATOM     27  O   UNL     1      -1.548  -4.130  -9.131  1.00  0.00    -0.332 OA
ATOM     28  C   UNL     1      -2.587  -3.919  -6.438  1.00  0.00     0.180 C 
ATOM     29  C   UNL     1      -2.726  -4.836  -8.771  1.00  0.00     0.179 C 
ATOM     30  C   UNL     1      -3.500  -4.085  -7.662  1.00  0.00     0.177 C 
BRANCH  26  31
ATOM     31  O   UNL     1      -0.345  -3.288  -5.784  1.00  0.00    -0.384 OA
ATOM     32  H   UNL     1       0.003  -4.215  -5.706  1.00  0.00     0.211 HD
ENDBRANCH  26  31
BRANCH  28  33
ATOM     33  O   UNL     1      -3.233  -3.118  -5.480  1.00  0.00    -0.387 OA
ATOM     34  H   UNL     1      -3.993  -3.649  -5.125  1.00  0.00     0.211 HD
ENDBRANCH  28  33
BRANCH  29  35
ATOM     35  C   UNL     1      -3.585  -5.067 -10.025  1.00  0.00     0.191 C 
BRANCH  35  36
ATOM     36  O   UNL     1      -2.908  -4.675 -11.190  1.00  0.00    -0.394 OA
ATOM     37  H   UNL     1      -3.439  -5.012 -11.957  1.00  0.00     0.210 HD
ENDBRANCH  35  36
ENDBRANCH  29  35
BRANCH  30  38
ATOM     38  O   UNL     1      -3.908  -2.818  -8.117  1.00  0.00    -0.387 OA
ATOM     39  H   UNL     1      -4.261  -2.937  -9.038  1.00  0.00     0.211 HD
ENDBRANCH  30  38
ENDBRANCH   1  25
TORSDOF 11
ENDMDL
MODEL 2
REMARK VINA RESULT:    -5.613      1.747      5.030
REMARK INTER + INTRA:          -7.798
REMARK INTER:                  -6.198
REMARK INTRA:                  -1.600
REMARK UNBOUND:                 0.276
REMARK SMILES O=c1c(O[C@H]2O[C@H](CO)[C@H](O)[C@H](O)[C@H]2O)c(-c2ccc(O)cc2)oc2cc(O)cc(O)c12
REMARK SMILES IDX 4 1 3 2 16 3 24 4 2 5 25 6 1 7 32 8 26 9 30 10 27 11 29 12
REMARK SMILES IDX 17 13 18 14 19 15 20 16 23 17 22 18 21 19 31 21 28 23 5 25
REMARK SMILES IDX 14 26 6 27 12 28 7 29 10 30 15 31 13 33 8 35 9 36 11 38
REMARK H PARENT 21 20 31 22 28 24 15 32 13 34 9 37 11 39
REMARK Flexibility Score: inf
ROOT
ATOM      1  O   UNL     1       0.284  -7.436  -7.716  1.00  0.00    -0.454 OA
ENDROOT
BRANCH   1   2
ATOM      2  C   UNL     1       1.241  -6.499  -8.126  1.00  0.00     0.214 A 
ATOM      3  C   UNL     1       1.029  -5.109  -8.008  1.00  0.00     0.180 A 
ATOM      4  O   UNL     1       2.006  -4.263  -8.321  1.00  0.00    -0.452 OA
ATOM      5  C   UNL     1       2.453  -6.954  -8.655  1.00  0.00     0.239 A 
ATOM      6  C   UNL     1       3.185  -4.654  -8.792  1.00  0.00     0.146 A 
ATOM      7  O   UNL     1       2.632  -8.194  -8.800  1.00  0.00    -0.285 OA
ATOM      8  C   UNL     1       3.459  -6.028  -8.996  1.00  0.00     0.111 A 
ATOM      9  C   UNL     1       4.152  -3.691  -9.094  1.00  0.00     0.094 A 
ATOM     10  C   UNL     1       4.719  -6.410  -9.515  1.00  0.00     0.134 A 
ATOM     11  C   UNL     1       5.397  -4.075  -9.604  1.00  0.00     0.123 A 
ATOM     12  C   UNL     1       5.675  -5.427  -9.815  1.00  0.00     0.093 A 
BRANCH   3  13
ATOM     13  C   UNL     1      -0.262  -4.545  -7.567  1.00  0.00     0.021 A 
ATOM     14  C   UNL     1      -1.456  -4.869  -8.235  1.00  0.00     0.016 A 
ATOM     15  C   UNL     1      -2.671  -4.321  -7.813  1.00  0.00     0.047 A 
ATOM     16  C   UNL     1      -2.703  -3.432  -6.731  1.00  0.00     0.115 A 
ATOM     17  C   UNL     1      -0.298  -3.633  -6.501  1.00  0.00     0.016 A 
ATOM     18  C   UNL     1      -1.515  -3.087  -6.081  1.00  0.00     0.047 A 
BRANCH  16  19
ATOM     19  O   UNL     1      -3.909  -2.884  -6.297  1.00  0.00    -0.508 OA
ATOM     20  H   UNL     1      -3.934  -2.117  -5.634  1.00  0.00     0.293 HD
ENDBRANCH  16  19
ENDBRANCH   3  13
BRANCH  10  21
ATOM     21  O   UNL     1       5.029  -7.753  -9.733  1.00  0.00    -0.507 OA
ATOM     22  H   UNL     1       4.388  -8.377 -10.209  1.00  0.00     0.293 HD
ENDBRANCH  10  21
BRANCH  11  23
ATOM     23  O   UNL     1       6.364  -3.120  -9.909  1.00  0.00    -0.508 OA
ATOM     24  H   UNL     1       7.351  -3.351  -9.927  1.00  0.00     0.293 HD
ENDBRANCH  11  23
ENDBRANCH   1   2
BRANCH   1  25
ATOM     25  C   UNL     1       0.368  -8.154  -6.478  1.00  0.00     0.339 C 
ATOM     26  C   UNL     1      -0.004  -9.636  -6.682  1.00  0.00     0.214 C 
ATOM     27  O   UNL     1      -0.446  -7.549  -5.486  1.00  0.00    -0.332 OA
ATOM     28  C   UNL     1      -1.504  -9.771  -7.008  1.00  0.00     0.180 C 
ATOM     29  C   UNL     1      -1.817  -7.563  -5.856  1.00  0.00     0.179 C 
ATOM     30  C   UNL     1      -2.341  -9.014  -5.967  1.00  0.00     0.177 C 
BRANCH  26  31
ATOM     31  O   UNL     1       0.773 -10.170  -7.722  1.00  0.00    -0.384 OA
ATOM     32  H   UNL     1       0.611 -11.150  -7.731  1.00  0.00     0.211 HD
ENDBRANCH  26  31
BRANCH  28  33
ATOM     33  O   UNL     1      -1.882 -11.125  -7.015  1.00  0.00    -0.387 OA
ATOM     34  H   UNL     1      -2.872 -11.149  -7.089  1.00  0.00     0.211 HD
ENDBRANCH  28  33
BRANCH  29  35
ATOM     35  C   UNL     1      -2.625  -6.729  -4.849  1.00  0.00     0.191 C 
BRANCH  35  36
ATOM     36  O   UNL     1      -1.796  -5.867  -4.114  1.00  0.00    -0.394 OA
ATOM     37  H   UNL     1      -1.772  -6.216  -3.185  1.00  0.00     0.210 HD
ENDBRANCH  35  36
ENDBRANCH  29  35
BRANCH  30  38
ATOM     38  O   UNL     1      -2.248  -9.668  -4.725  1.00  0.00    -0.387 OA
ATOM     39  H   UNL     1      -1.299  -9.931  -4.602  1.00  0.00     0.211 HD
ENDBRANCH  30  38
ENDBRANCH   1  25
TORSDOF 11
ENDMDL
MODEL 3
REMARK VINA RESULT:    -5.449      1.425      2.578
REMARK INTER + INTRA:          -7.561
REMARK INTER:                  -8.748
REMARK INTRA:                   1.186
REMARK UNBOUND:                 0.276
REMARK SMILES O=c1c(O[C@H]2O[C@H](CO)[C@H](O)[C@H](O)[C@H]2O)c(-c2ccc(O)cc2)oc2cc(O)cc(O)c12
REMARK SMILES IDX 4 1 3 2 16 3 24 4 2 5 25 6 1 7 32 8 26 9 30 10 27 11 29 12
REMARK SMILES IDX 17 13 18 14 19 15 20 16 23 17 22 18 21 19 31 21 28 23 5 25
REMARK SMILES IDX 14 26 6 27 12 28 7 29 10 30 15 31 13 33 8 35 9 36 11 38
REMARK H PARENT 21 20 31 22 28 24 15 32 13 34 9 37 11 39
REMARK Flexibility Score: inf
ROOT
ATOM      1  O   UNL     1      -1.072  -5.355  -6.414  1.00  0.00    -0.454 OA
ENDROOT
BRANCH   1   2
ATOM      2  C   UNL     1       0.010  -5.978  -7.048  1.00  0.00     0.214 A 
ATOM      3  C   UNL     1       0.098  -7.380  -7.179  1.00  0.00     0.180 A 
ATOM      4  O   UNL     1       1.095  -7.918  -7.874  1.00  0.00    -0.452 OA
ATOM      5  C   UNL     1       1.031  -5.186  -7.583  1.00  0.00     0.239 A 
ATOM      6  C   UNL     1       2.066  -7.200  -8.429  1.00  0.00     0.146 A 
ATOM      7  O   UNL     1       0.979  -3.934  -7.433  1.00  0.00    -0.285 OA
ATOM      8  C   UNL     1       2.086  -5.791  -8.295  1.00  0.00     0.111 A 
ATOM      9  C   UNL     1       3.075  -7.854  -9.142  1.00  0.00     0.094 A 
ATOM     10  C   UNL     1       3.143  -5.058  -8.885  1.00  0.00     0.134 A 
ATOM     11  C   UNL     1       4.116  -7.123  -9.724  1.00  0.00     0.123 A 
ATOM     12  C   UNL     1       4.148  -5.734  -9.593  1.00  0.00     0.093 A 
BRANCH   3  13
ATOM     13  C   UNL     1      -0.877  -8.291  -6.546  1.00  0.00     0.021 A 
ATOM     14  C   UNL     1      -1.585  -7.903  -5.395  1.00  0.00     0.016 A 
ATOM     15  C   UNL     1      -2.499  -8.778  -4.801  1.00  0.00     0.047 A 
ATOM     16  C   UNL     1      -2.702 -10.055  -5.340  1.00  0.00     0.115 A 
ATOM     17  C   UNL     1      -1.066  -9.581  -7.065  1.00  0.00     0.016 A 
ATOM     18  C   UNL     1      -1.980 -10.455  -6.469  1.00  0.00     0.047 A 
BRANCH  16  19
ATOM     19  O   UNL     1      -3.614 -10.934  -4.759  1.00  0.00    -0.508 OA
ATOM     20  H   UNL     1      -3.466 -11.937  -4.776  1.00  0.00     0.293 HD
ENDBRANCH  16  19
ENDBRANCH   3  13
BRANCH  10  21
ATOM     21  O   UNL     1       3.201  -3.668  -8.775  1.00  0.00    -0.507 OA
ATOM     22  H   UNL     1       2.861  -3.183  -7.952  1.00  0.00     0.293 HD
ENDBRANCH  10  21
BRANCH  11  23
ATOM     23  O   UNL     1       5.126  -7.770 -10.434  1.00  0.00    -0.508 OA
ATOM     24  H   UNL     1       5.996  -8.039  -9.989  1.00  0.00     0.293 HD
ENDBRANCH  11  23
ENDBRANCH   1   2
BRANCH   1  25
ATOM     25  C   UNL     1      -2.391  -5.311  -6.974  1.00  0.00     0.339 C 
ATOM     26  C   UNL     1      -2.344  -4.854  -8.445  1.00  0.00     0.214 C 
ATOM     27  O   UNL     1      -3.242  -4.479  -6.201  1.00  0.00    -0.332 OA
ATOM     28  C   UNL     1      -1.930  -3.371  -8.531  1.00  0.00     0.180 C 
ATOM     29  C   UNL     1      -2.780  -3.137  -6.180  1.00  0.00     0.179 C 
ATOM     30  C   UNL     1      -2.809  -2.524  -7.599  1.00  0.00     0.177 C 
BRANCH  26  31
ATOM     31  O   UNL     1      -1.435  -5.656  -9.152  1.00  0.00    -0.384 OA
ATOM     32  H   UNL     1      -1.100  -6.343  -8.517  1.00  0.00     0.211 HD
ENDBRANCH  26  31
BRANCH  28  33
ATOM     33  O   UNL     1      -2.062  -2.903  -9.849  1.00  0.00    -0.387 OA
ATOM     34  H   UNL     1      -1.779  -1.952  -9.848  1.00  0.00     0.211 HD
ENDBRANCH  28  33
BRANCH  29  35
ATOM     35  C   UNL     1      -3.617  -2.325  -5.179  1.00  0.00     0.191 C 
BRANCH  35  36
ATOM     36  O   UNL     1      -3.711  -0.979  -5.561  1.00  0.00    -0.394 OA
ATOM     37  H   UNL     1      -3.641  -0.956  -6.550  1.00  0.00     0.210 HD
ENDBRANCH  35  36
ENDBRANCH  29  35
BRANCH  30  38
ATOM     38  O   UNL     1      -4.125  -2.493  -8.096  1.00  0.00    -0.387 OA
ATOM     39  H   UNL     1      -4.272  -3.341  -8.591  1.00  0.00     0.211 HD
ENDBRANCH  30  38
ENDBRANCH   1  25
TORSDOF 11
ENDMDL
MODEL 4
REMARK VINA RESULT:    -4.990      1.755      5.494
REMARK INTER + INTRA:          -6.902
REMARK INTER:                  -8.430
REMARK INTRA:                   1.529
REMARK UNBOUND:                 0.276
REMARK SMILES O=c1c(O[C@H]2O[C@H](CO)[C@H](O)[C@H](O)[C@H]2O)c(-c2ccc(O)cc2)oc2cc(O)cc(O)c12
REMARK SMILES IDX 4 1 3 2 16 3 24 4 2 5 25 6 1 7 32 8 26 9 30 10 27 11 29 12
REMARK SMILES IDX 17 13 18 14 19 15 20 16 23 17 22 18 21 19 31 21 28 23 5 25
REMARK SMILES IDX 14 26 6 27 12 28 7 29 10 30 15 31 13 33 8 35 9 36 11 38
REMARK H PARENT 21 20 31 22 28 24 15 32 13 34 9 37 11 39
REMARK Flexibility Score: inf
ROOT
ATOM      1  O   UNL     1      -0.360  -5.959  -8.716  1.00  0.00    -0.454 OA
ENDROOT
BRANCH   1   2
ATOM      2  C   UNL     1      -0.195  -6.953  -7.742  1.00  0.00     0.214 A 
ATOM      3  C   UNL     1       1.071  -7.491  -7.427  1.00  0.00     0.180 A 
ATOM      4  O   UNL     1       1.189  -8.362  -6.429  1.00  0.00    -0.452 OA
ATOM      5  C   UNL     1      -1.317  -7.418  -7.050  1.00  0.00     0.239 A 
ATOM      6  C   UNL     1       0.154  -8.802  -5.721  1.00  0.00     0.146 A 
ATOM      7  O   UNL     1      -2.456  -6.970  -7.355  1.00  0.00    -0.285 OA
ATOM      8  C   UNL     1      -1.158  -8.358  -6.011  1.00  0.00     0.111 A 
ATOM      9  C   UNL     1       0.376  -9.719  -4.690  1.00  0.00     0.094 A 
ATOM     10  C   UNL     1      -2.239  -8.860  -5.249  1.00  0.00     0.134 A 
ATOM     11  C   UNL     1      -0.697 -10.209  -3.938  1.00  0.00     0.123 A 
ATOM     12  C   UNL     1      -1.997  -9.782  -4.220  1.00  0.00     0.093 A 
BRANCH   3  13
ATOM     13  C   UNL     1       2.287  -7.138  -8.188  1.00  0.00     0.021 A 
ATOM     14  C   UNL     1       2.538  -7.706  -9.449  1.00  0.00     0.016 A 
ATOM     15  C   UNL     1       3.697  -7.370 -10.155  1.00  0.00     0.047 A 
ATOM     16  C   UNL     1       4.625  -6.478  -9.601  1.00  0.00     0.115 A 
ATOM     17  C   UNL     1       3.233  -6.266  -7.627  1.00  0.00     0.016 A 
ATOM     18  C   UNL     1       4.391  -5.932  -8.335  1.00  0.00     0.047 A 
BRANCH  16  19
ATOM     19  O   UNL     1       5.781  -6.132 -10.297  1.00  0.00    -0.508 OA
ATOM     20  H   UNL     1       6.688  -6.499 -10.032  1.00  0.00     0.293 HD
ENDBRANCH  16  19
ENDBRANCH   3  13
BRANCH  10  21
ATOM     21  O   UNL     1      -3.549  -8.449  -5.504  1.00  0.00    -0.507 OA
ATOM     22  H   UNL     1      -4.058  -8.767  -6.320  1.00  0.00     0.293 HD
ENDBRANCH  10  21
BRANCH  11  23
ATOM     23  O   UNL     1      -0.484 -11.125  -2.911  1.00  0.00    -0.508 OA
ATOM     24  H   UNL     1       0.321 -11.056  -2.297  1.00  0.00     0.293 HD
ENDBRANCH  11  23
ENDBRANCH   1   2
BRANCH   1  25
ATOM     25  C   UNL     1      -0.197  -4.561  -8.445  1.00  0.00     0.339 C 
ATOM     26  C   UNL     1      -0.856  -4.184  -7.104  1.00  0.00     0.214 C 
ATOM     27  O   UNL     1      -0.709  -3.776  -9.511  1.00  0.00    -0.332 OA
ATOM     28  C   UNL     1      -2.389  -4.293  -7.212  1.00  0.00     0.180 C 
ATOM     29  C   UNL     1      -2.102  -3.982  -9.687  1.00  0.00     0.179 C 
ATOM     30  C   UNL     1      -2.888  -3.515  -8.439  1.00  0.00     0.177 C 
BRANCH  26  31
ATOM     31  O   UNL     1      -0.375  -5.035  -6.096  1.00  0.00    -0.384 OA
ATOM     32  H   UNL     1      -0.981  -5.821  -6.066  1.00  0.00     0.211 HD
ENDBRANCH  26  31
BRANCH  28  33
ATOM     33  O   UNL     1      -2.999  -3.779  -6.055  1.00  0.00    -0.387 OA
ATOM     34  H   UNL     1      -3.766  -3.224  -6.354  1.00  0.00     0.211 HD
ENDBRANCH  28  33
BRANCH  29  35
ATOM     35  C   UNL     1      -2.566  -3.266 -10.966  1.00  0.00     0.191 C 
BRANCH  35  36
ATOM     36  O   UNL     1      -3.060  -4.176 -11.913  1.00  0.00    -0.394 OA
ATOM     37  H   UNL     1      -4.046  -4.069 -11.926  1.00  0.00     0.210 HD
ENDBRANCH  35  36
ENDBRANCH  29  35
BRANCH  30  38
ATOM     38  O   UNL     1      -2.704  -2.137  -8.227  1.00  0.00    -0.387 OA
ATOM     39  H   UNL     1      -3.419  -1.665  -8.728  1.00  0.00     0.211 HD
ENDBRANCH  30  38
ENDBRANCH   1  25
TORSDOF 11
ENDMDL
MODEL 5
REMARK VINA RESULT:    -4.972      1.984      5.961
REMARK INTER + INTRA:          -6.875
REMARK INTER:                  -8.528
REMARK INTRA:                   1.653
REMARK UNBOUND:                 0.276
REMARK SMILES O=c1c(O[C@H]2O[C@H](CO)[C@H](O)[C@H](O)[C@H]2O)c(-c2ccc(O)cc2)oc2cc(O)cc(O)c12
REMARK SMILES IDX 4 1 3 2 16 3 24 4 2 5 25 6 1 7 32 8 26 9 30 10 27 11 29 12
REMARK SMILES IDX 17 13 18 14 19 15 20 16 23 17 22 18 21 19 31 21 28 23 5 25
REMARK SMILES IDX 14 26 6 27 12 28 7 29 10 30 15 31 13 33 8 35 9 36 11 38
REMARK H PARENT 21 20 31 22 28 24 15 32 13 34 9 37 11 39
REMARK Flexibility Score: inf
ROOT
ATOM      1  O   UNL     1      -0.789  -5.950  -8.610  1.00  0.00    -0.454 OA
ENDROOT
BRANCH   1   2
ATOM      2  C   UNL     1      -0.540  -6.936  -7.647  1.00  0.00     0.214 A 
ATOM      3  C   UNL     1       0.761  -7.414  -7.381  1.00  0.00     0.180 A 
ATOM      4  O   UNL     1       0.958  -8.279  -6.391  1.00  0.00    -0.452 OA
ATOM      5  C   UNL     1      -1.611  -7.455  -6.914  1.00  0.00     0.239 A 
ATOM      6  C   UNL     1      -0.027  -8.770  -5.646  1.00  0.00     0.146 A 
ATOM      7  O   UNL     1      -2.781  -7.062  -7.175  1.00  0.00    -0.285 OA
ATOM      8  C   UNL     1      -1.369  -8.389  -5.885  1.00  0.00     0.111 A 
ATOM      9  C   UNL     1       0.277  -9.677  -4.627  1.00  0.00     0.094 A 
ATOM     10  C   UNL     1      -2.396  -8.942  -5.084  1.00  0.00     0.134 A 
ATOM     11  C   UNL     1      -0.743 -10.219  -3.837  1.00  0.00     0.123 A 
ATOM     12  C   UNL     1      -2.071  -9.854  -4.068  1.00  0.00     0.093 A 
BRANCH   3  13
ATOM     13  C   UNL     1       1.929  -7.002  -8.185  1.00  0.00     0.021 A 
ATOM     14  C   UNL     1       2.283  -7.701  -9.353  1.00  0.00     0.016 A 
ATOM     15  C   UNL     1       3.396  -7.306 -10.100  1.00  0.00     0.047 A 
ATOM     16  C   UNL     1       4.177  -6.222  -9.681  1.00  0.00     0.115 A 
ATOM     17  C   UNL     1       2.731  -5.933  -7.756  1.00  0.00     0.016 A 
ATOM     18  C   UNL     1       3.844  -5.541  -8.506  1.00  0.00     0.047 A 
BRANCH  16  19
ATOM     19  O   UNL     1       5.286  -5.816 -10.421  1.00  0.00    -0.508 OA
ATOM     20  H   UNL     1       6.227  -5.899 -10.052  1.00  0.00     0.293 HD
ENDBRANCH  16  19
ENDBRANCH   3  13
BRANCH  10  21
ATOM     21  O   UNL     1      -3.732  -8.594  -5.288  1.00  0.00    -0.507 OA
ATOM     22  H   UNL     1      -4.125  -8.511  -6.219  1.00  0.00     0.293 HD
ENDBRANCH  10  21
BRANCH  11  23
ATOM     23  O   UNL     1      -0.447 -11.125  -2.821  1.00  0.00    -0.508 OA
ATOM     24  H   UNL     1      -0.623 -12.118  -2.928  1.00  0.00     0.293 HD
ENDBRANCH  11  23
ENDBRANCH   1   2
BRANCH   1  25
ATOM     25  C   UNL     1      -1.869  -5.012  -8.511  1.00  0.00     0.339 C 
ATOM     26  C   UNL     1      -1.517  -3.698  -9.234  1.00  0.00     0.214 C 
ATOM     27  O   UNL     1      -2.215  -4.780  -7.154  1.00  0.00    -0.332 OA
ATOM     28  C   UNL     1      -0.400  -2.953  -8.476  1.00  0.00     0.180 C 
ATOM     29  C   UNL     1      -1.133  -4.212  -6.431  1.00  0.00     0.179 C 
ATOM     30  C   UNL     1      -0.770  -2.817  -6.991  1.00  0.00     0.177 C 
BRANCH  26  31
ATOM     31  O   UNL     1      -1.110  -3.984 -10.546  1.00  0.00    -0.384 OA
ATOM     32  H   UNL     1      -0.249  -4.476 -10.482  1.00  0.00     0.211 HD
ENDBRANCH  26  31
BRANCH  28  33
ATOM     33  O   UNL     1      -0.204  -1.675  -9.026  1.00  0.00    -0.387 OA
ATOM     34  H   UNL     1       0.668  -1.345  -8.688  1.00  0.00     0.211 HD
ENDBRANCH  28  33
BRANCH  29  35
ATOM     35  C   UNL     1      -1.490  -4.162  -4.937  1.00  0.00     0.191 C 
BRANCH  35  36
ATOM     36  O   UNL     1      -1.888  -5.422  -4.462  1.00  0.00    -0.394 OA
ATOM     37  H   UNL     1      -1.114  -5.802  -3.972  1.00  0.00     0.210 HD
ENDBRANCH  35  36
ENDBRANCH  29  35
BRANCH  30  38
ATOM     38  O   UNL     1      -1.857  -1.933  -6.859  1.00  0.00    -0.387 OA
ATOM     39  H   UNL     1      -2.662  -2.484  -6.672  1.00  0.00     0.211 HD
ENDBRANCH  30  38
ENDBRANCH   1  25
TORSDOF 11
ENDMDL
MODEL 6
REMARK VINA RESULT:    -4.647      1.465      2.003
REMARK INTER + INTRA:          -6.409
REMARK INTER:                  -4.906
REMARK INTRA:                  -1.503
REMARK UNBOUND:                 0.276
REMARK SMILES O=c1c(O[C@H]2O[C@H](CO)[C@H](O)[C@H](O)[C@H]2O)c(-c2ccc(O)cc2)oc2cc(O)cc(O)c12
REMARK SMILES IDX 4 1 3 2 16 3 24 4 2 5 25 6 1 7 32 8 26 9 30 10 27 11 29 12
REMARK SMILES IDX 17 13 18 14 19 15 20 16 23 17 22 18 21 19 31 21 28 23 5 25
REMARK SMILES IDX 14 26 6 27 12 28 7 29 10 30 15 31 13 33 8 35 9 36 11 38
REMARK H PARENT 21 20 31 22 28 24 15 32 13 34 9 37 11 39
REMARK Flexibility Score: inf
ROOT
ATOM      1  O   UNL     1       0.522  -5.454  -7.413  1.00  0.00    -0.454 OA
ENDROOT
BRANCH   1   2
ATOM      2  C   UNL     1       1.706  -6.022  -7.899  1.00  0.00     0.214 A 
ATOM      3  C   UNL     1       1.904  -7.419  -7.946  1.00  0.00     0.180 A 
ATOM      4  O   UNL     1       3.006  -7.911  -8.505  1.00  0.00    -0.452 OA
ATOM      5  C   UNL     1       2.721  -5.181  -8.366  1.00  0.00     0.239 A 
ATOM      6  C   UNL     1       3.977  -7.149  -8.994  1.00  0.00     0.146 A 
ATOM      7  O   UNL     1       2.566  -3.932  -8.289  1.00  0.00    -0.285 OA
ATOM      8  C   UNL     1       3.886  -5.738  -8.933  1.00  0.00     0.111 A 
ATOM      9  C   UNL     1       5.100  -7.757  -9.563  1.00  0.00     0.094 A 
ATOM     10  C   UNL     1       4.946  -4.955  -9.447  1.00  0.00     0.134 A 
ATOM     11  C   UNL     1       6.144  -6.978 -10.072  1.00  0.00     0.123 A 
ATOM     12  C   UNL     1       6.066  -5.585 -10.012  1.00  0.00     0.093 A 
BRANCH   3  13
ATOM     13  C   UNL     1       0.933  -8.371  -7.371  1.00  0.00     0.021 A 
ATOM     14  C   UNL     1       0.663  -8.379  -5.991  1.00  0.00     0.016 A 
ATOM     15  C   UNL     1      -0.252  -9.291  -5.458  1.00  0.00     0.047 A 
ATOM     16  C   UNL     1      -0.894 -10.215  -6.294  1.00  0.00     0.115 A 
ATOM     17  C   UNL     1       0.306  -9.315  -8.199  1.00  0.00     0.016 A 
ATOM     18  C   UNL     1      -0.608 -10.226  -7.662  1.00  0.00     0.047 A 
BRANCH  16  19
ATOM     19  O   UNL     1      -1.812 -11.125  -5.774  1.00  0.00    -0.508 OA
ATOM     20  H   UNL     1      -2.571 -11.491  -6.338  1.00  0.00     0.293 HD
ENDBRANCH  16  19
ENDBRANCH   3  13
BRANCH  10  21
ATOM     21  O   UNL     1       4.896  -3.561  -9.405  1.00  0.00    -0.507 OA
ATOM     22  H   UNL     1       5.735  -2.995  -9.453  1.00  0.00     0.293 HD
ENDBRANCH  10  21
BRANCH  11  23
ATOM     23  O   UNL     1       7.266  -7.578 -10.638  1.00  0.00    -0.508 OA
ATOM     24  H   UNL     1       7.921  -8.113 -10.078  1.00  0.00     0.293 HD
ENDBRANCH  11  23
ENDBRANCH   1   2
BRANCH   1  25
ATOM     25  C   UNL     1      -0.669  -5.328  -8.202  1.00  0.00     0.339 C 
ATOM     26  C   UNL     1      -1.158  -3.867  -8.222  1.00  0.00     0.214 C 
ATOM     27  O   UNL     1      -1.681  -6.206  -7.732  1.00  0.00    -0.332 OA
ATOM     28  C   UNL     1      -1.673  -3.456  -6.829  1.00  0.00     0.180 C 
ATOM     29  C   UNL     1      -2.059  -5.899  -6.399  1.00  0.00     0.179 C 
ATOM     30  C   UNL     1      -2.688  -4.488  -6.316  1.00  0.00     0.177 C 
BRANCH  26  31
ATOM     31  O   UNL     1      -0.103  -3.030  -8.619  1.00  0.00    -0.384 OA
ATOM     32  H   UNL     1       0.590  -3.612  -9.029  1.00  0.00     0.211 HD
ENDBRANCH  26  31
BRANCH  28  33
ATOM     33  O   UNL     1      -2.284  -2.191  -6.888  1.00  0.00    -0.387 OA
ATOM     34  H   UNL     1      -2.090  -1.818  -7.786  1.00  0.00     0.211 HD
ENDBRANCH  28  33
BRANCH  29  35
ATOM     35  C   UNL     1      -3.007  -6.989  -5.874  1.00  0.00     0.191 C 
BRANCH  35  36
ATOM     36  O   UNL     1      -2.682  -7.365  -4.562  1.00  0.00    -0.394 OA
ATOM     37  H   UNL     1      -1.766  -7.744  -4.591  1.00  0.00     0.210 HD
ENDBRANCH  35  36
ENDBRANCH  29  35
BRANCH  30  38
ATOM     38  O   UNL     1      -3.857  -4.423  -7.095  1.00  0.00    -0.387 OA
ATOM     39  H   UNL     1      -4.487  -5.103  -6.737  1.00  0.00     0.211 HD
ENDBRANCH  30  38
ENDBRANCH   1  25
TORSDOF 11
ENDMDL
MODEL 7
REMARK VINA RESULT:    -4.417      1.792      5.065
REMARK INTER + INTRA:          -6.078
REMARK INTER:                  -5.031
REMARK INTRA:                  -1.047
REMARK UNBOUND:                 0.276
REMARK SMILES O=c1c(O[C@H]2O[C@H](CO)[C@H](O)[C@H](O)[C@H]2O)c(-c2ccc(O)cc2)oc2cc(O)cc(O)c12
REMARK SMILES IDX 4 1 3 2 16 3 24 4 2 5 25 6 1 7 32 8 26 9 30 10 27 11 29 12
REMARK SMILES IDX 17 13 18 14 19 15 20 16 23 17 22 18 21 19 31 21 28 23 5 25
REMARK SMILES IDX 14 26 6 27 12 28 7 29 10 30 15 31 13 33 8 35 9 36 11 38
REMARK H PARENT 21 20 31 22 28 24 15 32 13 34 9 37 11 39
REMARK Flexibility Score: inf
ROOT
ATOM      1  O   UNL     1       0.109  -6.690  -7.010  1.00  0.00    -0.454 OA
ENDROOT
BRANCH   1   2
ATOM      2  C   UNL     1       1.127  -6.029  -7.708  1.00  0.00     0.214 A 
ATOM      3  C   UNL     1       1.060  -4.651  -8.008  1.00  0.00     0.180 A 
ATOM      4  O   UNL     1       2.095  -4.050  -8.586  1.00  0.00    -0.452 OA
ATOM      5  C   UNL     1       2.254  -6.752  -8.110  1.00  0.00     0.239 A 
ATOM      6  C   UNL     1       3.200  -4.692  -8.951  1.00  0.00     0.146 A 
ATOM      7  O   UNL     1       2.302  -7.991  -7.881  1.00  0.00    -0.285 OA
ATOM      8  C   UNL     1       3.324  -6.085  -8.742  1.00  0.00     0.111 A 
ATOM      9  C   UNL     1       4.237  -3.974  -9.555  1.00  0.00     0.094 A 
ATOM     10  C   UNL     1       4.508  -6.742  -9.157  1.00  0.00     0.134 A 
ATOM     11  C   UNL     1       5.404  -4.628  -9.961  1.00  0.00     0.123 A 
ATOM     12  C   UNL     1       5.536  -6.005  -9.764  1.00  0.00     0.093 A 
BRANCH   3  13
ATOM     13  C   UNL     1      -0.141  -3.841  -7.720  1.00  0.00     0.021 A 
ATOM     14  C   UNL     1      -0.364  -3.314  -6.436  1.00  0.00     0.016 A 
ATOM     15  C   UNL     1      -1.509  -2.556  -6.175  1.00  0.00     0.047 A 
ATOM     16  C   UNL     1      -2.451  -2.332  -7.188  1.00  0.00     0.115 A 
ATOM     17  C   UNL     1      -1.100  -3.635  -8.723  1.00  0.00     0.016 A 
ATOM     18  C   UNL     1      -2.245  -2.877  -8.459  1.00  0.00     0.047 A 
BRANCH  16  19
ATOM     19  O   UNL     1      -3.593  -1.574  -6.941  1.00  0.00    -0.508 OA
ATOM     20  H   UNL     1      -3.967  -0.938  -7.636  1.00  0.00     0.293 HD
ENDBRANCH  16  19
ENDBRANCH   3  13
BRANCH  10  21
ATOM     21  O   UNL     1       4.670  -8.115  -8.971  1.00  0.00    -0.507 OA
ATOM     22  H   UNL     1       4.501  -8.779  -9.718  1.00  0.00     0.293 HD
ENDBRANCH  10  21
BRANCH  11  23
ATOM     23  O   UNL     1       6.440  -3.920 -10.565  1.00  0.00    -0.508 OA
ATOM     24  H   UNL     1       6.933  -4.286 -11.373  1.00  0.00     0.293 HD
ENDBRANCH  11  23
ENDBRANCH   1   2
BRANCH   1  25
ATOM     25  C   UNL     1      -0.843  -7.555  -7.644  1.00  0.00     0.339 C 
ATOM     26  C   UNL     1      -2.243  -7.370  -7.028  1.00  0.00     0.214 C 
ATOM     27  O   UNL     1      -0.421  -8.909  -7.572  1.00  0.00    -0.332 OA
ATOM     28  C   UNL     1      -2.266  -7.903  -5.582  1.00  0.00     0.180 C 
ATOM     29  C   UNL     1      -0.320  -9.353  -6.228  1.00  0.00     0.179 C 
ATOM     30  C   UNL     1      -1.704  -9.332  -5.537  1.00  0.00     0.177 C 
BRANCH  26  31
ATOM     31  O   UNL     1      -2.584  -6.009  -7.053  1.00  0.00    -0.384 OA
ATOM     32  H   UNL     1      -3.349  -5.913  -7.679  1.00  0.00     0.211 HD
ENDBRANCH  26  31
BRANCH  28  33
ATOM     33  O   UNL     1      -3.580  -7.903  -5.082  1.00  0.00    -0.387 OA
ATOM     34  H   UNL     1      -3.632  -7.179  -4.406  1.00  0.00     0.211 HD
ENDBRANCH  28  33
BRANCH  29  35
ATOM     35  C   UNL     1       0.322 -10.748  -6.199  1.00  0.00     0.191 C 
BRANCH  35  36
ATOM     36  O   UNL     1       1.204 -10.930  -7.276  1.00  0.00    -0.394 OA
ATOM     37  H   UNL     1       0.990 -10.229  -7.943  1.00  0.00     0.210 HD
ENDBRANCH  35  36
ENDBRANCH  29  35
BRANCH  30  38
ATOM     38  O   UNL     1      -2.594 -10.206  -6.189  1.00  0.00    -0.387 OA
ATOM     39  H   UNL     1      -3.465 -10.143  -5.716  1.00  0.00     0.211 HD
ENDBRANCH  30  38
ENDBRANCH   1  25
TORSDOF 11
ENDMDL
MODEL 8
REMARK VINA RESULT:    -4.322      1.378      2.693
REMARK INTER + INTRA:          -5.940
REMARK INTER:                  -6.352
REMARK INTRA:                   0.412
REMARK UNBOUND:                 0.276
REMARK SMILES O=c1c(O[C@H]2O[C@H](CO)[C@H](O)[C@H](O)[C@H]2O)c(-c2ccc(O)cc2)oc2cc(O)cc(O)c12
REMARK SMILES IDX 4 1 3 2 16 3 24 4 2 5 25 6 1 7 32 8 26 9 30 10 27 11 29 12
REMARK SMILES IDX 17 13 18 14 19 15 20 16 23 17 22 18 21 19 31 21 28 23 5 25
REMARK SMILES IDX 14 26 6 27 12 28 7 29 10 30 15 31 13 33 8 35 9 36 11 38
REMARK H PARENT 21 20 31 22 28 24 15 32 13 34 9 37 11 39
REMARK Flexibility Score: inf
ROOT
ATOM      1  O   UNL     1      -1.235  -5.934  -8.330  1.00  0.00    -0.454 OA
ENDROOT
BRANCH   1   2
ATOM      2  C   UNL     1       0.117  -6.165  -8.045  1.00  0.00     0.214 A 
ATOM      3  C   UNL     1       0.556  -7.333  -7.387  1.00  0.00     0.180 A 
ATOM      4  O   UNL     1       1.857  -7.551  -7.225  1.00  0.00    -0.452 OA
ATOM      5  C   UNL     1       1.065  -5.214  -8.436  1.00  0.00     0.239 A 
ATOM      6  C   UNL     1       2.793  -6.692  -7.614  1.00  0.00     0.146 A 
ATOM      7  O   UNL     1       0.675  -4.149  -8.988  1.00  0.00    -0.285 OA
ATOM      8  C   UNL     1       2.436  -5.468  -8.229  1.00  0.00     0.111 A 
ATOM      9  C   UNL     1       4.138  -7.007  -7.401  1.00  0.00     0.094 A 
ATOM     10  C   UNL     1       3.457  -4.568  -8.617  1.00  0.00     0.134 A 
ATOM     11  C   UNL     1       5.143  -6.114  -7.789  1.00  0.00     0.123 A 
ATOM     12  C   UNL     1       4.801  -4.901  -8.391  1.00  0.00     0.093 A 
BRANCH   3  13
ATOM     13  C   UNL     1      -0.387  -8.330  -6.841  1.00  0.00     0.021 A 
ATOM     14  C   UNL     1      -0.708  -9.491  -7.566  1.00  0.00     0.016 A 
ATOM     15  C   UNL     1      -1.609 -10.423  -7.042  1.00  0.00     0.047 A 
ATOM     16  C   UNL     1      -2.211 -10.196  -5.797  1.00  0.00     0.115 A 
ATOM     17  C   UNL     1      -1.014  -8.096  -5.607  1.00  0.00     0.016 A 
ATOM     18  C   UNL     1      -1.915  -9.030  -5.086  1.00  0.00     0.047 A 
BRANCH  16  19
ATOM     19  O   UNL     1      -3.106 -11.120  -5.262  1.00  0.00    -0.508 OA
ATOM     20  H   UNL     1      -3.220 -12.042  -5.668  1.00  0.00     0.293 HD
ENDBRANCH  16  19
ENDBRANCH   3  13
BRANCH  10  21
ATOM     21  O   UNL     1       3.148  -3.350  -9.225  1.00  0.00    -0.507 OA
ATOM     22  H   UNL     1       3.328  -3.184 -10.208  1.00  0.00     0.293 HD
ENDBRANCH  10  21
BRANCH  11  23
ATOM     23  O   UNL     1       6.485  -6.421  -7.577  1.00  0.00    -0.508 OA
ATOM     24  H   UNL     1       7.179  -6.296  -8.306  1.00  0.00     0.293 HD
ENDBRANCH  11  23
ENDBRANCH   1   2
BRANCH   1  25
ATOM     25  C   UNL     1      -2.248  -5.855  -7.319  1.00  0.00     0.339 C 
ATOM     26  C   UNL     1      -3.432  -4.994  -7.800  1.00  0.00     0.214 C 
ATOM     27  O   UNL     1      -1.710  -5.361  -6.102  1.00  0.00    -0.332 OA
ATOM     28  C   UNL     1      -3.007  -3.517  -7.917  1.00  0.00     0.180 C 
ATOM     29  C   UNL     1      -1.203  -4.044  -6.253  1.00  0.00     0.179 C 
ATOM     30  C   UNL     1      -2.336  -3.056  -6.615  1.00  0.00     0.177 C 
BRANCH  26  31
ATOM     31  O   UNL     1      -3.881  -5.473  -9.041  1.00  0.00    -0.384 OA
ATOM     32  H   UNL     1      -3.348  -6.285  -9.247  1.00  0.00     0.211 HD
ENDBRANCH  26  31
BRANCH  28  33
ATOM     33  O   UNL     1      -4.125  -2.706  -8.178  1.00  0.00    -0.387 OA
ATOM     34  H   UNL     1      -4.351  -2.243  -7.330  1.00  0.00     0.211 HD
ENDBRANCH  28  33
BRANCH  29  35
ATOM     35  C   UNL     1      -0.462  -3.633  -4.970  1.00  0.00     0.191 C 
BRANCH  35  36
ATOM     36  O   UNL     1      -0.896  -4.381  -3.865  1.00  0.00    -0.394 OA
ATOM     37  H   UNL     1      -1.568  -5.027  -4.202  1.00  0.00     0.210 HD
ENDBRANCH  35  36
ENDBRANCH  29  35
BRANCH  30  38
ATOM     38  O   UNL     1      -3.295  -3.007  -5.586  1.00  0.00    -0.387 OA
ATOM     39  H   UNL     1      -3.558  -3.943  -5.385  1.00  0.00     0.211 HD
ENDBRANCH  30  38
ENDBRANCH   1  25
TORSDOF 11
ENDMDL
