MODEL 1
REMARK VINA RESULT:    -5.934      0.000      0.000
REMARK INTER + INTRA:         -15.970
REMARK INTER:                 -13.566
REMARK INTRA:                  -2.404
REMARK UNBOUND:                -2.404
REMARK SMILES CCCCCCCCCCCCCCCCCCCCCCCC(=O)[O-]
REMARK SMILES IDX 13 1 14 2 15 3 16 4 17 5 18 6 19 7 20 8 21 9 22 10 23 11
REMARK SMILES IDX 24 12 25 13 26 14 12 15 11 16 10 17 9 18 8 19 7 20 6 21 5 22
REMARK SMILES IDX 4 23 3 24 2 25 1 26
REMARK H PARENT
REMARK Flexibility Score: inf
ROOT
ATOM      1  C   UNL     1      88.867 324.717 201.987  1.00  0.00     0.000 C 
ENDROOT
BRANCH   1   2
ATOM      2  C   UNL     1      87.690 323.795 201.623  1.00  0.00     0.000 C 
BRANCH   2   3
ATOM      3  C   UNL     1      86.602 323.766 202.708  1.00  0.00     0.000 C 
BRANCH   3   4
ATOM      4  C   UNL     1      87.011 322.938 203.938  1.00  0.00     0.000 C 
BRANCH   4   5
ATOM      5  C   UNL     1      86.551 323.571 205.261  1.00  0.00     0.000 C 
BRANCH   5   6
ATOM      6  C   UNL     1      87.098 325.000 205.404  1.00  0.00     0.000 C 
BRANCH   6   7
ATOM      7  C   UNL     1      88.589 325.026 205.774  1.00  0.00     0.000 C 
BRANCH   7   8
ATOM      8  C   UNL     1      88.991 326.318 206.507  1.00  0.00     0.000 C 
BRANCH   8   9
ATOM      9  C   UNL     1      89.277 327.479 205.541  1.00  0.00     0.000 C 
BRANCH   9  10
ATOM     10  C   UNL     1      90.780 327.712 205.328  1.00  0.00     0.006 C 
BRANCH  10  11
ATOM     11  C   UNL     1      91.168 327.484 203.865  1.00  0.00     0.053 C 
BRANCH  11  12
ATOM     12  C   UNL     1      91.915 326.195 203.715  1.00  0.00     0.041 C 
ATOM     13  O   UNL     1      92.389 325.862 202.596  1.00  0.00    -0.550 OA
ATOM     14  O   UNL     1      92.048 325.339 204.800  1.00  0.00    -0.550 OA
ENDBRANCH  11  12
ENDBRANCH  10  11
ENDBRANCH   9  10
ENDBRANCH   8   9
ENDBRANCH   7   8
ENDBRANCH   6   7
ENDBRANCH   5   6
ENDBRANCH   4   5
ENDBRANCH   3   4
ENDBRANCH   2   3
ENDBRANCH   1   2
BRANCH   1  15
ATOM     15  C   UNL     1      88.692 326.171 201.495  1.00  0.00     0.000 C 
BRANCH  15  16
ATOM     16  C   UNL     1      89.694 326.534 200.385  1.00  0.00     0.000 C 
BRANCH  16  17
ATOM     17  C   UNL     1      89.102 326.401 198.969  1.00  0.00     0.000 C 
BRANCH  17  18
ATOM     18  C   UNL     1      89.183 324.993 198.350  1.00  0.00    -0.000 C 
BRANCH  18  19
ATOM     19  C   UNL     1      88.789 324.966 196.864  1.00  0.00    -0.000 C 
BRANCH  19  20
ATOM     20  C   UNL     1      88.354 326.344 196.331  1.00  0.00    -0.000 C 
BRANCH  20  21
ATOM     21  C   UNL     1      86.901 326.428 195.829  1.00  0.00    -0.000 C 
BRANCH  21  22
ATOM     22  C   UNL     1      86.678 325.679 194.504  1.00  0.00    -0.000 C 
BRANCH  22  23
ATOM     23  C   UNL     1      87.853 325.852 193.527  1.00  0.00    -0.000 C 
BRANCH  23  24
ATOM     24  C   UNL     1      88.306 324.521 192.906  1.00  0.00    -0.000 C 
BRANCH  24  25
ATOM     25  C   UNL     1      87.703 324.333 191.510  1.00  0.00    -0.003 C 
ATOM     26  C   UNL     1      88.792 324.107 190.464  1.00  0.00     0.004 C 
ENDBRANCH  24  25
ENDBRANCH  23  24
ENDBRANCH  22  23
ENDBRANCH  21  22
ENDBRANCH  20  21
ENDBRANCH  19  20
ENDBRANCH  18  19
ENDBRANCH  17  18
ENDBRANCH  16  17
ENDBRANCH  15  16
ENDBRANCH   1  15
TORSDOF 22
ENDMDL
MODEL 2
REMARK VINA RESULT:    -5.876      1.904      3.986
REMARK INTER + INTRA:         -15.839
REMARK INTER:                 -13.920
REMARK INTRA:                  -1.919
REMARK UNBOUND:                -2.404
REMARK SMILES CCCCCCCCCCCCCCCCCCCCCCCC(=O)[O-]
REMARK SMILES IDX 13 1 14 2 15 3 16 4 17 5 18 6 19 7 20 8 21 9 22 10 23 11
REMARK SMILES IDX 24 12 25 13 26 14 12 15 11 16 10 17 9 18 8 19 7 20 6 21 5 22
REMARK SMILES IDX 4 23 3 24 2 25 1 26
REMARK H PARENT
REMARK Flexibility Score: inf
ROOT
ATOM      1  C   UNL     1      89.195 325.542 199.145  1.00  0.00     0.000 C 
ENDROOT
BRANCH   1   2
ATOM      2  C   UNL     1      89.984 326.020 200.376  1.00  0.00     0.000 C 
BRANCH   2   3
ATOM      3  C   UNL     1      89.071 326.476 201.526  1.00  0.00     0.000 C 
BRANCH   3   4
ATOM      4  C   UNL     1      89.858 327.020 202.730  1.00  0.00     0.000 C 
BRANCH   4   5
ATOM      5  C   UNL     1      88.946 327.552 203.846  1.00  0.00     0.000 C 
BRANCH   5   6
ATOM      6  C   UNL     1      89.629 327.433 205.217  1.00  0.00     0.000 C 
BRANCH   6   7
ATOM      7  C   UNL     1      88.827 326.567 206.201  1.00  0.00     0.000 C 
BRANCH   7   8
ATOM      8  C   UNL     1      88.398 325.222 205.588  1.00  0.00     0.000 C 
BRANCH   8   9
ATOM      9  C   UNL     1      86.893 324.954 205.751  1.00  0.00     0.000 C 
BRANCH   9  10
ATOM     10  C   UNL     1      86.391 323.835 204.826  1.00  0.00     0.006 C 
BRANCH  10  11
ATOM     11  C   UNL     1      86.836 324.078 203.381  1.00  0.00     0.053 C 
BRANCH  11  12
ATOM     12  C   UNL     1      87.472 322.848 202.814  1.00  0.00     0.041 C 
ATOM     13  O   UNL     1      87.340 321.738 203.396  1.00  0.00    -0.550 OA
ATOM     14  O   UNL     1      88.252 322.933 201.667  1.00  0.00    -0.550 OA
ENDBRANCH  11  12
ENDBRANCH  10  11
ENDBRANCH   9  10
ENDBRANCH   8   9
ENDBRANCH   7   8
ENDBRANCH   6   7
ENDBRANCH   5   6
ENDBRANCH   4   5
ENDBRANCH   3   4
ENDBRANCH   2   3
ENDBRANCH   1   2
BRANCH   1  15
ATOM     15  C   UNL     1      88.889 326.666 198.129  1.00  0.00     0.000 C 
BRANCH  15  16
ATOM     16  C   UNL     1      88.185 326.134 196.868  1.00  0.00     0.000 C 
BRANCH  16  17
ATOM     17  C   UNL     1      88.842 326.615 195.561  1.00  0.00     0.000 C 
BRANCH  17  18
ATOM     18  C   UNL     1      87.866 326.971 194.424  1.00  0.00    -0.000 C 
BRANCH  18  19
ATOM     19  C   UNL     1      86.512 326.251 194.546  1.00  0.00    -0.000 C 
BRANCH  19  20
ATOM     20  C   UNL     1      86.361 325.083 193.553  1.00  0.00    -0.000 C 
BRANCH  20  21
ATOM     21  C   UNL     1      87.181 323.824 193.887  1.00  0.00    -0.000 C 
BRANCH  21  22
ATOM     22  C   UNL     1      88.270 323.521 192.842  1.00  0.00    -0.000 C 
BRANCH  22  23
ATOM     23  C   UNL     1      88.364 324.609 191.759  1.00  0.00    -0.000 C 
BRANCH  23  24
ATOM     24  C   UNL     1      88.715 324.037 190.377  1.00  0.00    -0.000 C 
BRANCH  24  25
ATOM     25  C   UNL     1      87.660 323.024 189.918  1.00  0.00    -0.003 C 
ATOM     26  C   UNL     1      87.889 322.607 188.468  1.00  0.00     0.004 C 
ENDBRANCH  24  25
ENDBRANCH  23  24
ENDBRANCH  22  23
ENDBRANCH  21  22
ENDBRANCH  20  21
ENDBRANCH  19  20
ENDBRANCH  18  19
ENDBRANCH  17  18
ENDBRANCH  16  17
ENDBRANCH  15  16
ENDBRANCH   1  15
TORSDOF 22
ENDMDL
MODEL 3
REMARK VINA RESULT:    -5.866      1.599      3.806
REMARK INTER + INTRA:         -15.815
REMARK INTER:                 -14.138
REMARK INTRA:                  -1.676
REMARK UNBOUND:                -2.404
REMARK SMILES CCCCCCCCCCCCCCCCCCCCCCCC(=O)[O-]
REMARK SMILES IDX 13 1 14 2 15 3 16 4 17 5 18 6 19 7 20 8 21 9 22 10 23 11
REMARK SMILES IDX 24 12 25 13 26 14 12 15 11 16 10 17 9 18 8 19 7 20 6 21 5 22
REMARK SMILES IDX 4 23 3 24 2 25 1 26
REMARK H PARENT
REMARK Flexibility Score: inf
ROOT
ATOM      1  C   UNL     1      89.260 325.839 198.971  1.00  0.00     0.000 C 
ENDROOT
BRANCH   1   2
ATOM      2  C   UNL     1      88.883 325.733 200.459  1.00  0.00     0.000 C 
BRANCH   2   3
ATOM      3  C   UNL     1      89.641 326.743 201.336  1.00  0.00     0.000 C 
BRANCH   3   4
ATOM      4  C   UNL     1      91.152 326.764 201.047  1.00  0.00     0.000 C 
BRANCH   4   5
ATOM      5  C   UNL     1      91.979 327.267 202.241  1.00  0.00     0.000 C 
BRANCH   5   6
ATOM      6  C   UNL     1      91.068 327.636 203.422  1.00  0.00     0.000 C 
BRANCH   6   7
ATOM      7  C   UNL     1      91.692 327.278 204.781  1.00  0.00     0.000 C 
BRANCH   7   8
ATOM      8  C   UNL     1      90.754 327.590 205.960  1.00  0.00     0.000 C 
BRANCH   8   9
ATOM      9  C   UNL     1      89.270 327.436 205.588  1.00  0.00     0.000 C 
BRANCH   9  10
ATOM     10  C   UNL     1      88.531 326.452 206.507  1.00  0.00     0.006 C 
BRANCH  10  11
ATOM     11  C   UNL     1      87.875 325.332 205.695  1.00  0.00     0.053 C 
BRANCH  11  12
ATOM     12  C   UNL     1      88.901 324.334 205.253  1.00  0.00     0.041 C 
ATOM     13  O   UNL     1      89.298 323.439 206.045  1.00  0.00    -0.550 OA
ATOM     14  O   UNL     1      89.453 324.422 203.982  1.00  0.00    -0.550 OA
ENDBRANCH  11  12
ENDBRANCH  10  11
ENDBRANCH   9  10
ENDBRANCH   8   9
ENDBRANCH   7   8
ENDBRANCH   6   7
ENDBRANCH   5   6
ENDBRANCH   4   5
ENDBRANCH   3   4
ENDBRANCH   2   3
ENDBRANCH   1   2
BRANCH   1  15
ATOM     15  C   UNL     1      89.218 324.489 198.221  1.00  0.00     0.000 C 
BRANCH  15  16
ATOM     16  C   UNL     1      88.697 324.639 196.781  1.00  0.00     0.000 C 
BRANCH  16  17
ATOM     17  C   UNL     1      88.488 326.106 196.363  1.00  0.00     0.000 C 
BRANCH  17  18
ATOM     18  C   UNL     1      87.021 326.532 196.164  1.00  0.00    -0.000 C 
BRANCH  18  19
ATOM     19  C   UNL     1      86.684 326.865 194.701  1.00  0.00    -0.000 C 
BRANCH  19  20
ATOM     20  C   UNL     1      87.683 326.255 193.700  1.00  0.00    -0.000 C 
BRANCH  20  21
ATOM     21  C   UNL     1      87.324 324.850 193.182  1.00  0.00    -0.000 C 
BRANCH  21  22
ATOM     22  C   UNL     1      88.500 324.148 192.483  1.00  0.00    -0.000 C 
BRANCH  22  23
ATOM     23  C   UNL     1      88.567 324.468 190.980  1.00  0.00    -0.000 C 
BRANCH  23  24
ATOM     24  C   UNL     1      87.945 323.363 190.112  1.00  0.00    -0.000 C 
BRANCH  24  25
ATOM     25  C   UNL     1      88.987 322.760 189.163  1.00  0.00    -0.003 C 
ATOM     26  C   UNL     1      89.962 323.824 188.667  1.00  0.00     0.004 C 
ENDBRANCH  24  25
ENDBRANCH  23  24
ENDBRANCH  22  23
ENDBRANCH  21  22
ENDBRANCH  20  21
ENDBRANCH  19  20
ENDBRANCH  18  19
ENDBRANCH  17  18
ENDBRANCH  16  17
ENDBRANCH  15  16
ENDBRANCH   1  15
TORSDOF 22
ENDMDL
MODEL 4
REMARK VINA RESULT:    -5.829      2.019      3.886
REMARK INTER + INTRA:         -15.730
REMARK INTER:                 -13.180
REMARK INTRA:                  -2.550
REMARK UNBOUND:                -2.404
REMARK SMILES CCCCCCCCCCCCCCCCCCCCCCCC(=O)[O-]
REMARK SMILES IDX 13 1 14 2 15 3 16 4 17 5 18 6 19 7 20 8 21 9 22 10 23 11
REMARK SMILES IDX 24 12 25 13 26 14 12 15 11 16 10 17 9 18 8 19 7 20 6 21 5 22
REMARK SMILES IDX 4 23 3 24 2 25 1 26
REMARK H PARENT
REMARK Flexibility Score: inf
ROOT
ATOM      1  C   UNL     1      90.013 326.067 200.582  1.00  0.00     0.000 C 
ENDROOT
BRANCH   1   2
ATOM      2  C   UNL     1      89.199 326.507 201.812  1.00  0.00     0.000 C 
BRANCH   2   3
ATOM      3  C   UNL     1      90.079 327.102 202.924  1.00  0.00     0.000 C 
BRANCH   3   4
ATOM      4  C   UNL     1      89.257 327.654 204.100  1.00  0.00     0.000 C 
BRANCH   4   5
ATOM      5  C   UNL     1      89.866 327.306 205.467  1.00  0.00     0.000 C 
BRANCH   5   6
ATOM      6  C   UNL     1      89.268 326.002 206.018  1.00  0.00     0.000 C 
BRANCH   6   7
ATOM      7  C   UNL     1      87.731 326.021 206.037  1.00  0.00     0.000 C 
BRANCH   7   8
ATOM      8  C   UNL     1      87.121 324.659 205.660  1.00  0.00     0.000 C 
BRANCH   8   9
ATOM      9  C   UNL     1      87.748 324.065 204.389  1.00  0.00     0.000 C 
BRANCH   9  10
ATOM     10  C   UNL     1      86.724 323.315 203.522  1.00  0.00     0.006 C 
BRANCH  10  11
ATOM     11  C   UNL     1      86.707 323.868 202.094  1.00  0.00     0.053 C 
BRANCH  11  12
ATOM     12  C   UNL     1      87.424 322.940 201.163  1.00  0.00     0.041 C 
ATOM     13  O   UNL     1      86.779 322.265 200.318  1.00  0.00    -0.550 OA
ATOM     14  O   UNL     1      88.801 322.786 201.260  1.00  0.00    -0.550 OA
ENDBRANCH  11  12
ENDBRANCH  10  11
ENDBRANCH   9  10
ENDBRANCH   8   9
ENDBRANCH   7   8
ENDBRANCH   6   7
ENDBRANCH   5   6
ENDBRANCH   4   5
ENDBRANCH   3   4
ENDBRANCH   2   3
ENDBRANCH   1   2
BRANCH   1  15
ATOM     15  C   UNL     1      89.241 326.189 199.250  1.00  0.00     0.000 C 
BRANCH  15  16
ATOM     16  C   UNL     1      89.237 324.869 198.457  1.00  0.00     0.000 C 
BRANCH  16  17
ATOM     17  C   UNL     1      88.858 325.056 196.976  1.00  0.00     0.000 C 
BRANCH  17  18
ATOM     18  C   UNL     1      88.367 326.465 196.593  1.00  0.00    -0.000 C 
BRANCH  18  19
ATOM     19  C   UNL     1      86.947 326.467 196.001  1.00  0.00    -0.000 C 
BRANCH  19  20
ATOM     20  C   UNL     1      86.937 326.577 194.465  1.00  0.00    -0.000 C 
BRANCH  20  21
ATOM     21  C   UNL     1      85.917 325.675 193.746  1.00  0.00    -0.000 C 
BRANCH  21  22
ATOM     22  C   UNL     1      86.546 324.831 192.624  1.00  0.00    -0.000 C 
BRANCH  22  23
ATOM     23  C   UNL     1      88.083 324.876 192.646  1.00  0.00    -0.000 C 
BRANCH  23  24
ATOM     24  C   UNL     1      88.715 323.475 192.690  1.00  0.00    -0.000 C 
BRANCH  24  25
ATOM     25  C   UNL     1      88.844 322.977 194.134  1.00  0.00    -0.003 C 
ATOM     26  C   UNL     1      87.852 321.854 194.421  1.00  0.00     0.004 C 
ENDBRANCH  24  25
ENDBRANCH  23  24
ENDBRANCH  22  23
ENDBRANCH  21  22
ENDBRANCH  20  21
ENDBRANCH  19  20
ENDBRANCH  18  19
ENDBRANCH  17  18
ENDBRANCH  16  17
ENDBRANCH  15  16
ENDBRANCH   1  15
TORSDOF 22
ENDMDL
MODEL 5
REMARK VINA RESULT:    -5.823      4.399     10.665
REMARK INTER + INTRA:         -15.717
REMARK INTER:                 -13.616
REMARK INTRA:                  -2.102
REMARK UNBOUND:                -2.404
REMARK SMILES CCCCCCCCCCCCCCCCCCCCCCCC(=O)[O-]
REMARK SMILES IDX 13 1 14 2 15 3 16 4 17 5 18 6 19 7 20 8 21 9 22 10 23 11
REMARK SMILES IDX 24 12 25 13 26 14 12 15 11 16 10 17 9 18 8 19 7 20 6 21 5 22
REMARK SMILES IDX 4 23 3 24 2 25 1 26
REMARK H PARENT
REMARK Flexibility Score: inf
ROOT
ATOM      1  C   UNL     1      89.647 325.093 199.672  1.00  0.00     0.000 C 
ENDROOT
BRANCH   1   2
ATOM      2  C   UNL     1      89.125 325.051 198.225  1.00  0.00     0.000 C 
BRANCH   2   3
ATOM      3  C   UNL     1      88.804 326.448 197.671  1.00  0.00     0.000 C 
BRANCH   3   4
ATOM      4  C   UNL     1      88.477 326.430 196.168  1.00  0.00     0.000 C 
BRANCH   4   5
ATOM      5  C   UNL     1      86.975 326.267 195.887  1.00  0.00     0.000 C 
BRANCH   5   6
ATOM      6  C   UNL     1      86.625 326.756 194.473  1.00  0.00     0.000 C 
BRANCH   6   7
ATOM      7  C   UNL     1      85.954 325.666 193.622  1.00  0.00     0.000 C 
BRANCH   7   8
ATOM      8  C   UNL     1      86.943 324.574 193.178  1.00  0.00     0.000 C 
BRANCH   8   9
ATOM      9  C   UNL     1      88.201 325.153 192.512  1.00  0.00     0.000 C 
BRANCH   9  10
ATOM     10  C   UNL     1      88.495 324.510 191.148  1.00  0.00     0.006 C 
BRANCH  10  11
ATOM     11  C   UNL     1      88.074 323.038 191.135  1.00  0.00     0.053 C 
BRANCH  11  12
ATOM     12  C   UNL     1      87.244 322.740 189.926  1.00  0.00     0.041 C 
ATOM     13  O   UNL     1      87.756 322.788 188.776  1.00  0.00    -0.550 OA
ATOM     14  O   UNL     1      85.892 322.454 190.064  1.00  0.00    -0.550 OA
ENDBRANCH  11  12
ENDBRANCH  10  11
ENDBRANCH   9  10
ENDBRANCH   8   9
ENDBRANCH   7   8
ENDBRANCH   6   7
ENDBRANCH   5   6
ENDBRANCH   4   5
ENDBRANCH   3   4
ENDBRANCH   2   3
ENDBRANCH   1   2
BRANCH   1  15
ATOM     15  C   UNL     1      89.607 326.500 200.307  1.00  0.00     0.000 C 
BRANCH  15  16
ATOM     16  C   UNL     1      88.911 326.500 201.680  1.00  0.00     0.000 C 
BRANCH  16  17
ATOM     17  C   UNL     1      89.853 326.891 202.834  1.00  0.00     0.000 C 
BRANCH  17  18
ATOM     18  C   UNL     1      89.171 327.553 204.046  1.00  0.00    -0.000 C 
BRANCH  18  19
ATOM     19  C   UNL     1      89.957 327.369 205.354  1.00  0.00    -0.000 C 
BRANCH  19  20
ATOM     20  C   UNL     1      89.249 326.437 206.356  1.00  0.00    -0.000 C 
BRANCH  20  21
ATOM     21  C   UNL     1      87.783 326.106 206.025  1.00  0.00    -0.000 C 
BRANCH  21  22
ATOM     22  C   UNL     1      87.538 324.601 205.817  1.00  0.00    -0.000 C 
BRANCH  22  23
ATOM     23  C   UNL     1      87.269 324.248 204.345  1.00  0.00    -0.000 C 
BRANCH  23  24
ATOM     24  C   UNL     1      87.971 322.951 203.910  1.00  0.00    -0.000 C 
BRANCH  24  25
ATOM     25  C   UNL     1      87.909 322.778 202.388  1.00  0.00    -0.003 C 
ATOM     26  C   UNL     1      86.690 323.486 201.802  1.00  0.00     0.004 C 
ENDBRANCH  24  25
ENDBRANCH  23  24
ENDBRANCH  22  23
ENDBRANCH  21  22
ENDBRANCH  20  21
ENDBRANCH  19  20
ENDBRANCH  18  19
ENDBRANCH  17  18
ENDBRANCH  16  17
ENDBRANCH  15  16
ENDBRANCH   1  15
TORSDOF 22
ENDMDL
MODEL 6
REMARK VINA RESULT:    -5.789      4.514     11.199
REMARK INTER + INTRA:         -15.639
REMARK INTER:                 -13.158
REMARK INTRA:                  -2.481
REMARK UNBOUND:                -2.404
REMARK SMILES CCCCCCCCCCCCCCCCCCCCCCCC(=O)[O-]
REMARK SMILES IDX 13 1 14 2 15 3 16 4 17 5 18 6 19 7 20 8 21 9 22 10 23 11
REMARK SMILES IDX 24 12 25 13 26 14 12 15 11 16 10 17 9 18 8 19 7 20 6 21 5 22
REMARK SMILES IDX 4 23 3 24 2 25 1 26
REMARK H PARENT
REMARK Flexibility Score: inf
ROOT
ATOM      1  C   UNL     1      89.132 324.887 196.643  1.00  0.00     0.000 C 
ENDROOT
BRANCH   1   2
ATOM      2  C   UNL     1      88.632 326.315 196.365  1.00  0.00     0.000 C 
BRANCH   2   3
ATOM      3  C   UNL     1      87.172 326.350 195.885  1.00  0.00     0.000 C 
BRANCH   3   4
ATOM      4  C   UNL     1      87.043 326.730 194.400  1.00  0.00     0.000 C 
BRANCH   4   5
ATOM      5  C   UNL     1      86.091 325.803 193.628  1.00  0.00     0.000 C 
BRANCH   5   6
ATOM      6  C   UNL     1      86.795 324.492 193.243  1.00  0.00     0.000 C 
BRANCH   6   7
ATOM      7  C   UNL     1      88.259 324.709 192.829  1.00  0.00     0.000 C 
BRANCH   7   8
ATOM      8  C   UNL     1      88.454 324.655 191.304  1.00  0.00     0.000 C 
BRANCH   8   9
ATOM      9  C   UNL     1      87.704 323.479 190.656  1.00  0.00     0.000 C 
BRANCH   9  10
ATOM     10  C   UNL     1      88.335 323.040 189.326  1.00  0.00     0.006 C 
BRANCH  10  11
ATOM     11  C   UNL     1      89.545 323.912 188.979  1.00  0.00     0.053 C 
BRANCH  11  12
ATOM     12  C   UNL     1      90.618 323.089 188.336  1.00  0.00     0.041 C 
ATOM     13  O   UNL     1      91.827 323.420 188.452  1.00  0.00    -0.550 OA
ATOM     14  O   UNL     1      90.278 321.982 187.569  1.00  0.00    -0.550 OA
ENDBRANCH  11  12
ENDBRANCH  10  11
ENDBRANCH   9  10
ENDBRANCH   8   9
ENDBRANCH   7   8
ENDBRANCH   6   7
ENDBRANCH   5   6
ENDBRANCH   4   5
ENDBRANCH   3   4
ENDBRANCH   2   3
ENDBRANCH   1   2
BRANCH   1  15
ATOM     15  C   UNL     1      88.705 324.337 198.023  1.00  0.00     0.000 C 
BRANCH  15  16
ATOM     16  C   UNL     1      89.653 324.790 199.147  1.00  0.00     0.000 C 
BRANCH  16  17
ATOM     17  C   UNL     1      89.065 325.917 200.017  1.00  0.00     0.000 C 
BRANCH  17  18
ATOM     18  C   UNL     1      88.315 325.452 201.280  1.00  0.00    -0.000 C 
BRANCH  18  19
ATOM     19  C   UNL     1      89.074 324.370 202.066  1.00  0.00    -0.000 C 
BRANCH  19  20
ATOM     20  C   UNL     1      88.808 324.429 203.581  1.00  0.00    -0.000 C 
BRANCH  20  21
ATOM     21  C   UNL     1      89.760 325.336 204.383  1.00  0.00    -0.000 C 
BRANCH  21  22
ATOM     22  C   UNL     1      89.243 326.778 204.520  1.00  0.00    -0.000 C 
BRANCH  22  23
ATOM     23  C   UNL     1      90.082 327.783 203.712  1.00  0.00    -0.000 C 
BRANCH  23  24
ATOM     24  C   UNL     1      91.511 327.284 203.450  1.00  0.00    -0.000 C 
BRANCH  24  25
ATOM     25  C   UNL     1      91.806 327.228 201.947  1.00  0.00    -0.003 C 
ATOM     26  C   UNL     1      92.505 325.925 201.570  1.00  0.00     0.004 C 
ENDBRANCH  24  25
ENDBRANCH  23  24
ENDBRANCH  22  23
ENDBRANCH  21  22
ENDBRANCH  20  21
ENDBRANCH  19  20
ENDBRANCH  18  19
ENDBRANCH  17  18
ENDBRANCH  16  17
ENDBRANCH  15  16
ENDBRANCH   1  15
TORSDOF 22
ENDMDL
MODEL 7
REMARK VINA RESULT:    -5.785      4.509     11.457
REMARK INTER + INTRA:         -15.629
REMARK INTER:                 -13.662
REMARK INTRA:                  -1.967
REMARK UNBOUND:                -2.404
REMARK SMILES CCCCCCCCCCCCCCCCCCCCCCCC(=O)[O-]
REMARK SMILES IDX 13 1 14 2 15 3 16 4 17 5 18 6 19 7 20 8 21 9 22 10 23 11
REMARK SMILES IDX 24 12 25 13 26 14 12 15 11 16 10 17 9 18 8 19 7 20 6 21 5 22
REMARK SMILES IDX 4 23 3 24 2 25 1 26
REMARK H PARENT
REMARK Flexibility Score: inf
ROOT
ATOM      1  C   UNL     1      89.271 326.418 198.629  1.00  0.00     0.000 C 
ENDROOT
BRANCH   1   2
ATOM      2  C   UNL     1      88.767 327.001 197.297  1.00  0.00     0.000 C 
BRANCH   2   3
ATOM      3  C   UNL     1      88.044 325.958 196.429  1.00  0.00     0.000 C 
BRANCH   3   4
ATOM      4  C   UNL     1      86.725 326.487 195.841  1.00  0.00     0.000 C 
BRANCH   4   5
ATOM      5  C   UNL     1      86.727 326.511 194.304  1.00  0.00     0.000 C 
BRANCH   5   6
ATOM      6  C   UNL     1      88.129 326.212 193.752  1.00  0.00     0.000 C 
BRANCH   6   7
ATOM      7  C   UNL     1      88.092 325.323 192.498  1.00  0.00     0.000 C 
BRANCH   7   8
ATOM      8  C   UNL     1      88.517 323.873 192.791  1.00  0.00     0.000 C 
BRANCH   8   9
ATOM      9  C   UNL     1      88.950 323.119 191.523  1.00  0.00     0.000 C 
BRANCH   9  10
ATOM     10  C   UNL     1      88.388 323.752 190.241  1.00  0.00     0.006 C 
BRANCH  10  11
ATOM     11  C   UNL     1      89.513 324.081 189.255  1.00  0.00     0.053 C 
BRANCH  11  12
ATOM     12  C   UNL     1      89.957 322.845 188.535  1.00  0.00     0.041 C 
ATOM     13  O   UNL     1      91.163 322.703 188.202  1.00  0.00    -0.550 OA
ATOM     14  O   UNL     1      89.029 321.871 188.190  1.00  0.00    -0.550 OA
ENDBRANCH  11  12
ENDBRANCH  10  11
ENDBRANCH   9  10
ENDBRANCH   8   9
ENDBRANCH   7   8
ENDBRANCH   6   7
ENDBRANCH   5   6
ENDBRANCH   4   5
ENDBRANCH   3   4
ENDBRANCH   2   3
ENDBRANCH   1   2
BRANCH   1  15
ATOM     15  C   UNL     1      89.019 324.901 198.778  1.00  0.00     0.000 C 
BRANCH  15  16
ATOM     16  C   UNL     1      88.864 324.479 200.250  1.00  0.00     0.000 C 
BRANCH  16  17
ATOM     17  C   UNL     1      88.452 325.641 201.172  1.00  0.00     0.000 C 
BRANCH  17  18
ATOM     18  C   UNL     1      89.075 325.617 202.581  1.00  0.00    -0.000 C 
BRANCH  18  19
ATOM     19  C   UNL     1      89.403 327.021 203.117  1.00  0.00    -0.000 C 
BRANCH  19  20
ATOM     20  C   UNL     1      90.442 327.003 204.254  1.00  0.00    -0.000 C 
BRANCH  20  21
ATOM     21  C   UNL     1      89.971 327.612 205.587  1.00  0.00    -0.000 C 
BRANCH  21  22
ATOM     22  C   UNL     1      88.868 326.785 206.269  1.00  0.00    -0.000 C 
BRANCH  22  23
ATOM     23  C   UNL     1      89.346 325.378 206.664  1.00  0.00    -0.000 C 
BRANCH  23  24
ATOM     24  C   UNL     1      88.540 324.264 205.976  1.00  0.00    -0.000 C 
BRANCH  24  25
ATOM     25  C   UNL     1      87.125 324.744 205.635  1.00  0.00    -0.003 C 
ATOM     26  C   UNL     1      86.454 323.811 204.631  1.00  0.00     0.004 C 
ENDBRANCH  24  25
ENDBRANCH  23  24
ENDBRANCH  22  23
ENDBRANCH  21  22
ENDBRANCH  20  21
ENDBRANCH  19  20
ENDBRANCH  18  19
ENDBRANCH  17  18
ENDBRANCH  16  17
ENDBRANCH  15  16
ENDBRANCH   1  15
TORSDOF 22
ENDMDL
MODEL 8
REMARK VINA RESULT:    -5.767      1.058      2.640
REMARK INTER + INTRA:         -15.588
REMARK INTER:                 -13.315
REMARK INTRA:                  -2.273
REMARK UNBOUND:                -2.404
REMARK SMILES CCCCCCCCCCCCCCCCCCCCCCCC(=O)[O-]
REMARK SMILES IDX 13 1 14 2 15 3 16 4 17 5 18 6 19 7 20 8 21 9 22 10 23 11
REMARK SMILES IDX 24 12 25 13 26 14 12 15 11 16 10 17 9 18 8 19 7 20 6 21 5 22
REMARK SMILES IDX 4 23 3 24 2 25 1 26
REMARK H PARENT
REMARK Flexibility Score: inf
ROOT
ATOM      1  C   UNL     1      89.161 324.592 199.503  1.00  0.00     0.000 C 
ENDROOT
BRANCH   1   2
ATOM      2  C   UNL     1      89.014 325.834 200.401  1.00  0.00     0.000 C 
BRANCH   2   3
ATOM      3  C   UNL     1      88.397 325.506 201.770  1.00  0.00     0.000 C 
BRANCH   3   4
ATOM      4  C   UNL     1      87.905 324.053 201.867  1.00  0.00     0.000 C 
BRANCH   4   5
ATOM      5  C   UNL     1      86.703 323.893 202.813  1.00  0.00     0.000 C 
BRANCH   5   6
ATOM      6  C   UNL     1      86.966 322.791 203.851  1.00  0.00     0.000 C 
BRANCH   6   7
ATOM      7  C   UNL     1      87.434 323.355 205.203  1.00  0.00     0.000 C 
BRANCH   7   8
ATOM      8  C   UNL     1      86.672 324.631 205.604  1.00  0.00     0.000 C 
BRANCH   8   9
ATOM      9  C   UNL     1      87.614 325.785 205.984  1.00  0.00     0.000 C 
BRANCH   9  10
ATOM     10  C   UNL     1      89.000 325.651 205.335  1.00  0.00     0.006 C 
BRANCH  10  11
ATOM     11  C   UNL     1      89.698 327.012 205.250  1.00  0.00     0.053 C 
BRANCH  11  12
ATOM     12  C   UNL     1      90.791 326.978 204.228  1.00  0.00     0.041 C 
ATOM     13  O   UNL     1      90.842 327.853 203.324  1.00  0.00    -0.550 OA
ATOM     14  O   UNL     1      91.728 325.953 204.247  1.00  0.00    -0.550 OA
ENDBRANCH  11  12
ENDBRANCH  10  11
ENDBRANCH   9  10
ENDBRANCH   8   9
ENDBRANCH   7   8
ENDBRANCH   6   7
ENDBRANCH   5   6
ENDBRANCH   4   5
ENDBRANCH   3   4
ENDBRANCH   2   3
ENDBRANCH   1   2
BRANCH   1  15
ATOM     15  C   UNL     1      89.648 324.914 198.073  1.00  0.00     0.000 C 
BRANCH  15  16
ATOM     16  C   UNL     1      88.517 324.807 197.035  1.00  0.00     0.000 C 
BRANCH  16  17
ATOM     17  C   UNL     1      88.008 326.178 196.553  1.00  0.00     0.000 C 
BRANCH  17  18
ATOM     18  C   UNL     1      88.468 326.594 195.144  1.00  0.00    -0.000 C 
BRANCH  18  19
ATOM     19  C   UNL     1      87.306 327.030 194.235  1.00  0.00    -0.000 C 
BRANCH  19  20
ATOM     20  C   UNL     1      86.137 326.028 194.232  1.00  0.00    -0.000 C 
BRANCH  20  21
ATOM     21  C   UNL     1      86.133 325.023 193.065  1.00  0.00    -0.000 C 
BRANCH  21  22
ATOM     22  C   UNL     1      86.922 323.739 193.375  1.00  0.00    -0.000 C 
BRANCH  22  23
ATOM     23  C   UNL     1      88.359 323.786 192.829  1.00  0.00    -0.000 C 
BRANCH  23  24
ATOM     24  C   UNL     1      88.455 324.518 191.480  1.00  0.00    -0.000 C 
BRANCH  24  25
ATOM     25  C   UNL     1      88.331 323.533 190.313  1.00  0.00    -0.003 C 
ATOM     26  C   UNL     1      89.226 323.945 189.147  1.00  0.00     0.004 C 
ENDBRANCH  24  25
ENDBRANCH  23  24
ENDBRANCH  22  23
ENDBRANCH  21  22
ENDBRANCH  20  21
ENDBRANCH  19  20
ENDBRANCH  18  19
ENDBRANCH  17  18
ENDBRANCH  16  17
ENDBRANCH  15  16
ENDBRANCH   1  15
TORSDOF 22
ENDMDL
MODEL 9
REMARK VINA RESULT:    -5.747      1.212      2.077
REMARK INTER + INTRA:         -15.544
REMARK INTER:                 -13.178
REMARK INTRA:                  -2.366
REMARK UNBOUND:                -2.404
REMARK SMILES CCCCCCCCCCCCCCCCCCCCCCCC(=O)[O-]
REMARK SMILES IDX 13 1 14 2 15 3 16 4 17 5 18 6 19 7 20 8 21 9 22 10 23 11
REMARK SMILES IDX 24 12 25 13 26 14 12 15 11 16 10 17 9 18 8 19 7 20 6 21 5 22
REMARK SMILES IDX 4 23 3 24 2 25 1 26
REMARK H PARENT
REMARK Flexibility Score: inf
ROOT
ATOM      1  C   UNL     1      88.496 325.757 201.262  1.00  0.00     0.000 C 
ENDROOT
BRANCH   1   2
ATOM      2  C   UNL     1      88.708 324.246 201.468  1.00  0.00     0.000 C 
BRANCH   2   3
ATOM      3  C   UNL     1      87.391 323.454 201.442  1.00  0.00     0.000 C 
BRANCH   3   4
ATOM      4  C   UNL     1      86.483 323.772 202.641  1.00  0.00     0.000 C 
BRANCH   4   5
ATOM      5  C   UNL     1      87.056 323.265 203.973  1.00  0.00     0.000 C 
BRANCH   5   6
ATOM      6  C   UNL     1      86.903 324.324 205.075  1.00  0.00     0.000 C 
BRANCH   6   7
ATOM      7  C   UNL     1      88.256 324.820 205.609  1.00  0.00     0.000 C 
BRANCH   7   8
ATOM      8  C   UNL     1      88.134 326.143 206.386  1.00  0.00     0.000 C 
BRANCH   8   9
ATOM      9  C   UNL     1      89.194 327.173 205.964  1.00  0.00     0.000 C 
BRANCH   9  10
ATOM     10  C   UNL     1      89.291 327.328 204.439  1.00  0.00     0.006 C 
BRANCH  10  11
ATOM     11  C   UNL     1      90.658 327.884 204.030  1.00  0.00     0.053 C 
BRANCH  11  12
ATOM     12  C   UNL     1      91.427 326.865 203.249  1.00  0.00     0.041 C 
ATOM     13  O   UNL     1      91.367 325.646 203.563  1.00  0.00    -0.550 OA
ATOM     14  O   UNL     1      92.246 327.265 202.202  1.00  0.00    -0.550 OA
ENDBRANCH  11  12
ENDBRANCH  10  11
ENDBRANCH   9  10
ENDBRANCH   8   9
ENDBRANCH   7   8
ENDBRANCH   6   7
ENDBRANCH   5   6
ENDBRANCH   4   5
ENDBRANCH   3   4
ENDBRANCH   2   3
ENDBRANCH   1   2
BRANCH   1  15
ATOM     15  C   UNL     1      89.430 326.375 200.198  1.00  0.00     0.000 C 
BRANCH  15  16
ATOM     16  C   UNL     1      89.236 325.735 198.811  1.00  0.00     0.000 C 
BRANCH  16  17
ATOM     17  C   UNL     1      88.639 326.706 197.776  1.00  0.00     0.000 C 
BRANCH  17  18
ATOM     18  C   UNL     1      88.320 326.089 196.401  1.00  0.00    -0.000 C 
BRANCH  18  19
ATOM     19  C   UNL     1      86.964 326.546 195.837  1.00  0.00    -0.000 C 
BRANCH  19  20
ATOM     20  C   UNL     1      87.015 326.861 194.330  1.00  0.00    -0.000 C 
BRANCH  20  21
ATOM     21  C   UNL     1      88.179 326.212 193.560  1.00  0.00    -0.000 C 
BRANCH  21  22
ATOM     22  C   UNL     1      87.717 325.111 192.589  1.00  0.00    -0.000 C 
BRANCH  22  23
ATOM     23  C   UNL     1      88.579 323.841 192.687  1.00  0.00    -0.000 C 
BRANCH  23  24
ATOM     24  C   UNL     1      88.691 323.312 194.125  1.00  0.00    -0.000 C 
BRANCH  24  25
ATOM     25  C   UNL     1      87.319 322.886 194.661  1.00  0.00    -0.003 C 
ATOM     26  C   UNL     1      87.004 321.442 194.281  1.00  0.00     0.004 C 
ENDBRANCH  24  25
ENDBRANCH  23  24
ENDBRANCH  22  23
ENDBRANCH  21  22
ENDBRANCH  20  21
ENDBRANCH  19  20
ENDBRANCH  18  19
ENDBRANCH  17  18
ENDBRANCH  16  17
ENDBRANCH  15  16
ENDBRANCH   1  15
TORSDOF 22
ENDMDL
