MODEL 1
REMARK VINA RESULT:     1.894      0.000      0.000
REMARK INTER + INTRA:           3.681
REMARK INTER:                   4.995
REMARK INTRA:                  -1.315
REMARK UNBOUND:                -1.315
REMARK SMILES CCCCCCCCCCCCCCCCCCCCCCCCCCCCCC(=O)[O-]
REMARK SMILES IDX 16 1 17 2 18 3 19 4 20 5 21 6 22 7 23 8 24 9 25 10 26 11
REMARK SMILES IDX 27 12 28 13 29 14 30 15 31 16 32 17 15 18 14 19 13 20 12 21
REMARK SMILES IDX 11 22 10 23 9 24 8 25 7 26 6 27 5 28 4 29 3 30 2 31 1 32
REMARK H PARENT
REMARK Flexibility Score: inf
ROOT
ATOM      1  C   UNL     1      44.907  12.282 -31.950  1.00  0.00     0.000 C 
ENDROOT
BRANCH   1   2
ATOM      2  C   UNL     1      44.836  12.849 -33.383  1.00  0.00     0.000 C 
BRANCH   2   3
ATOM      3  C   UNL     1      44.522  11.757 -34.415  1.00  0.00     0.000 C 
BRANCH   3   4
ATOM      4  C   UNL     1      44.305  12.357 -35.816  1.00  0.00     0.000 C 
BRANCH   4   5
ATOM      5  C   UNL     1      42.928  12.013 -36.407  1.00  0.00     0.000 C 
BRANCH   5   6
ATOM      6  C   UNL     1      41.782  12.311 -35.428  1.00  0.00     0.000 C 
BRANCH   6   7
ATOM      7  C   UNL     1      41.116  13.655 -35.746  1.00  0.00     0.000 C 
BRANCH   7   8
ATOM      8  C   UNL     1      39.588  13.525 -35.741  1.00  0.00     0.000 C 
BRANCH   8   9
ATOM      9  C   UNL     1      38.929  14.779 -35.152  1.00  0.00     0.000 C 
BRANCH   9  10
ATOM     10  C   UNL     1      37.460  14.511 -34.799  1.00  0.00     0.000 C 
BRANCH  10  11
ATOM     11  C   UNL     1      37.314  13.217 -33.990  1.00  0.00     0.000 C 
BRANCH  11  12
ATOM     12  C   UNL     1      36.890  13.515 -32.544  1.00  0.00     0.000 C 
BRANCH  12  13
ATOM     13  C   UNL     1      37.989  13.181 -31.523  1.00  0.00     0.006 C 
BRANCH  13  14
ATOM     14  C   UNL     1      37.534  12.150 -30.480  1.00  0.00     0.053 C 
BRANCH  14  15
ATOM     15  C   UNL     1      37.302  12.804 -29.153  1.00  0.00     0.041 C 
ATOM     16  O   UNL     1      37.309  14.060 -29.056  1.00  0.00    -0.550 OA
ATOM     17  O   UNL     1      37.100  12.028 -28.017  1.00  0.00    -0.550 OA
ENDBRANCH  14  15
ENDBRANCH  13  14
ENDBRANCH  12  13
ENDBRANCH  11  12
ENDBRANCH  10  11
ENDBRANCH   9  10
ENDBRANCH   8   9
ENDBRANCH   7   8
ENDBRANCH   6   7
ENDBRANCH   5   6
ENDBRANCH   4   5
ENDBRANCH   3   4
ENDBRANCH   2   3
ENDBRANCH   1   2
BRANCH   1  18
ATOM     18  C   UNL     1      46.346  12.208 -31.419  1.00  0.00     0.000 C 
BRANCH  18  19
ATOM     19  C   UNL     1      46.489  11.151 -30.308  1.00  0.00     0.000 C 
BRANCH  19  20
ATOM     20  C   UNL     1      45.398  11.286 -29.227  1.00  0.00     0.000 C 
BRANCH  20  21
ATOM     21  C   UNL     1      45.887  10.913 -27.818  1.00  0.00     0.000 C 
BRANCH  21  22
ATOM     22  C   UNL     1      45.497  11.959 -26.762  1.00  0.00     0.000 C 
BRANCH  22  23
ATOM     23  C   UNL     1      44.551  11.404 -25.681  1.00  0.00     0.000 C 
BRANCH  23  24
ATOM     24  C   UNL     1      44.113  12.412 -24.604  1.00  0.00    -0.000 C 
BRANCH  24  25
ATOM     25  C   UNL     1      44.849  12.222 -23.265  1.00  0.00    -0.000 C 
BRANCH  25  26
ATOM     26  C   UNL     1      46.259  11.639 -23.451  1.00  0.00    -0.000 C 
BRANCH  26  27
ATOM     27  C   UNL     1      47.215  12.017 -22.307  1.00  0.00    -0.000 C 
BRANCH  27  28
ATOM     28  C   UNL     1      47.173  11.016 -21.140  1.00  0.00    -0.000 C 
BRANCH  28  29
ATOM     29  C   UNL     1      48.508  10.920 -20.370  1.00  0.00    -0.000 C 
BRANCH  29  30
ATOM     30  C   UNL     1      48.473  11.708 -19.050  1.00  0.00    -0.000 C 
BRANCH  30  31
ATOM     31  C   UNL     1      49.621  12.721 -18.931  1.00  0.00    -0.003 C 
ATOM     32  C   UNL     1      51.000  12.063 -18.960  1.00  0.00     0.004 C 
ENDBRANCH  30  31
ENDBRANCH  29  30
ENDBRANCH  28  29
ENDBRANCH  27  28
ENDBRANCH  26  27
ENDBRANCH  25  26
ENDBRANCH  24  25
ENDBRANCH  23  24
ENDBRANCH  22  23
ENDBRANCH  21  22
ENDBRANCH  20  21
ENDBRANCH  19  20
ENDBRANCH  18  19
ENDBRANCH   1  18
TORSDOF 28
ENDMDL
