MODEL 1
REMARK VINA RESULT:    -7.741      0.000      0.000
REMARK INTER + INTRA:          -9.409
REMARK INTER:                  -9.098
REMARK INTRA:                  -0.311
REMARK UNBOUND:                -0.311
REMARK SMILES O=c1cc(-c2ccc(O)c(O)c2)oc2cc(O)cc(O)c12
REMARK SMILES IDX 4 1 3 2 2 3 1 4 21 5 19 6 18 7 16 8 15 9 14 10 13 11 5 12
REMARK SMILES IDX 6 13 7 14 8 15 12 16 10 17 9 18 11 20 20 22 17 24
REMARK H PARENT 9 19 11 21 20 23 17 25
REMARK Flexibility Score: inf
ROOT
ATOM      1  C   UNL     1      23.198   6.615  23.810  1.00  0.00     0.138 A 
ATOM      2  C   UNL     1      24.237   7.368  23.244  1.00  0.00     0.100 A 
ATOM      3  C   UNL     1      25.287   7.809  24.049  1.00  0.00     0.197 A 
ATOM      4  O   UNL     1      26.231   8.434  23.500  1.00  0.00    -0.289 OA
ATOM      5  C   UNL     1      25.280   7.524  25.435  1.00  0.00     0.107 A 
ATOM      6  C   UNL     1      26.280   7.952  26.360  1.00  0.00     0.134 A 
ATOM      7  C   UNL     1      26.216   7.525  27.692  1.00  0.00     0.093 A 
ATOM      8  C   UNL     1      25.160   6.736  28.146  1.00  0.00     0.123 A 
ATOM      9  C   UNL     1      24.149   6.355  27.263  1.00  0.00     0.094 A 
ATOM     10  C   UNL     1      24.203   6.734  25.920  1.00  0.00     0.146 A 
ATOM     11  O   UNL     1      23.231   6.335  25.108  1.00  0.00    -0.456 OA
ENDROOT
BRANCH   1  12
ATOM     12  C   UNL     1      22.054   6.123  23.001  1.00  0.00     0.021 A 
ATOM     13  C   UNL     1      22.203   5.977  21.614  1.00  0.00     0.016 A 
ATOM     14  C   UNL     1      21.139   5.523  20.830  1.00  0.00     0.051 A 
ATOM     15  C   UNL     1      19.906   5.216  21.410  1.00  0.00     0.157 A 
ATOM     16  C   UNL     1      20.808   5.828  23.584  1.00  0.00     0.062 A 
ATOM     17  C   UNL     1      19.735   5.375  22.805  1.00  0.00     0.158 A 
BRANCH  15  18
ATOM     18  O   UNL     1      18.886   4.761  20.570  1.00  0.00    -0.504 OA
ATOM     19  H   UNL     1      17.915   5.020  20.671  1.00  0.00     0.293 HD
ENDBRANCH  15  18
BRANCH  17  20
ATOM     20  O   UNL     1      18.527   5.104  23.452  1.00  0.00    -0.504 OA
ATOM     21  H   UNL     1      17.824   5.801  23.651  1.00  0.00     0.293 HD
ENDBRANCH  17  20
ENDBRANCH   1  12
BRANCH   6  22
ATOM     22  O   UNL     1      27.337   8.806  26.032  1.00  0.00    -0.507 OA
ATOM     23  H   UNL     1      28.114   9.025  26.636  1.00  0.00     0.293 HD
ENDBRANCH   6  22
BRANCH   8  24
ATOM     24  O   UNL     1      25.121   6.343  29.483  1.00  0.00    -0.508 OA
ATOM     25  H   UNL     1      24.265   6.387  30.023  1.00  0.00     0.293 HD
ENDBRANCH   8  24
TORSDOF 5
ENDMDL
MODEL 2
REMARK VINA RESULT:    -7.698      2.505      7.374
REMARK INTER + INTRA:          -9.359
REMARK INTER:                  -9.064
REMARK INTRA:                  -0.294
REMARK UNBOUND:                -0.311
REMARK SMILES O=c1cc(-c2ccc(O)c(O)c2)oc2cc(O)cc(O)c12
REMARK SMILES IDX 4 1 3 2 2 3 1 4 21 5 19 6 18 7 16 8 15 9 14 10 13 11 5 12
REMARK SMILES IDX 6 13 7 14 8 15 12 16 10 17 9 18 11 20 20 22 17 24
REMARK H PARENT 9 19 11 21 20 23 17 25
REMARK Flexibility Score: inf
ROOT
ATOM      1  C   UNL     1      23.903   4.868  24.839  1.00  0.00     0.138 A 
ATOM      2  C   UNL     1      23.587   3.572  25.273  1.00  0.00     0.100 A 
ATOM      3  C   UNL     1      22.903   2.706  24.420  1.00  0.00     0.197 A 
ATOM      4  O   UNL     1      22.684   1.533  24.818  1.00  0.00    -0.289 OA
ATOM      5  C   UNL     1      22.503   3.152  23.137  1.00  0.00     0.107 A 
ATOM      6  C   UNL     1      21.770   2.369  22.195  1.00  0.00     0.134 A 
ATOM      7  C   UNL     1      21.516   2.885  20.918  1.00  0.00     0.093 A 
ATOM      8  C   UNL     1      21.914   4.175  20.569  1.00  0.00     0.123 A 
ATOM      9  C   UNL     1      22.586   4.969  21.500  1.00  0.00     0.094 A 
ATOM     10  C   UNL     1      22.886   4.470  22.769  1.00  0.00     0.146 A 
ATOM     11  O   UNL     1      23.543   5.251  23.619  1.00  0.00    -0.456 OA
ENDROOT
BRANCH   1  12
ATOM     12  C   UNL     1      24.626   5.832  25.707  1.00  0.00     0.021 A 
ATOM     13  C   UNL     1      25.229   6.960  25.132  1.00  0.00     0.016 A 
ATOM     14  C   UNL     1      25.920   7.878  25.925  1.00  0.00     0.051 A 
ATOM     15  C   UNL     1      26.034   7.686  27.305  1.00  0.00     0.157 A 
ATOM     16  C   UNL     1      24.751   5.630  27.095  1.00  0.00     0.062 A 
ATOM     17  C   UNL     1      25.446   6.544  27.897  1.00  0.00     0.158 A 
BRANCH  15  18
ATOM     18  O   UNL     1      26.733   8.644  28.041  1.00  0.00    -0.504 OA
ATOM     19  H   UNL     1      26.485   9.623  28.074  1.00  0.00     0.293 HD
ENDBRANCH  15  18
BRANCH  17  20
ATOM     20  O   UNL     1      25.532   6.276  29.265  1.00  0.00    -0.504 OA
ATOM     21  H   UNL     1      25.519   5.347  29.661  1.00  0.00     0.293 HD
ENDBRANCH  17  20
ENDBRANCH   1  12
BRANCH   6  22
ATOM     22  O   UNL     1      21.254   1.098  22.464  1.00  0.00    -0.507 OA
ATOM     23  H   UNL     1      21.551   0.501  23.220  1.00  0.00     0.293 HD
ENDBRANCH   6  22
BRANCH   8  24
ATOM     24  O   UNL     1      21.630   4.662  19.295  1.00  0.00    -0.508 OA
ATOM     25  H   UNL     1      21.913   5.591  19.006  1.00  0.00     0.293 HD
ENDBRANCH   8  24
TORSDOF 5
ENDMDL
MODEL 3
REMARK VINA RESULT:    -7.519      1.330      6.744
REMARK INTER + INTRA:          -9.149
REMARK INTER:                  -8.835
REMARK INTRA:                  -0.314
REMARK UNBOUND:                -0.311
REMARK SMILES O=c1cc(-c2ccc(O)c(O)c2)oc2cc(O)cc(O)c12
REMARK SMILES IDX 4 1 3 2 2 3 1 4 21 5 19 6 18 7 16 8 15 9 14 10 13 11 5 12
REMARK SMILES IDX 6 13 7 14 8 15 12 16 10 17 9 18 11 20 20 22 17 24
REMARK H PARENT 9 19 11 21 20 23 17 25
REMARK Flexibility Score: inf
ROOT
ATOM      1  C   UNL     1      23.976   6.855  24.568  1.00  0.00     0.138 A 
ATOM      2  C   UNL     1      24.505   7.121  23.296  1.00  0.00     0.100 A 
ATOM      3  C   UNL     1      23.733   6.869  22.162  1.00  0.00     0.197 A 
ATOM      4  O   UNL     1      24.215   7.172  21.040  1.00  0.00    -0.289 OA
ATOM      5  C   UNL     1      22.438   6.314  22.300  1.00  0.00     0.107 A 
ATOM      6  C   UNL     1      21.575   5.983  21.212  1.00  0.00     0.134 A 
ATOM      7  C   UNL     1      20.276   5.529  21.476  1.00  0.00     0.093 A 
ATOM      8  C   UNL     1      19.830   5.339  22.783  1.00  0.00     0.123 A 
ATOM      9  C   UNL     1      20.684   5.611  23.854  1.00  0.00     0.094 A 
ATOM     10  C   UNL     1      21.972   6.098  23.625  1.00  0.00     0.146 A 
ATOM     11  O   UNL     1      22.746   6.362  24.671  1.00  0.00    -0.456 OA
ENDROOT
BRANCH   1  12
ATOM     12  C   UNL     1      24.754   7.100  25.808  1.00  0.00     0.021 A 
ATOM     13  C   UNL     1      25.881   7.935  25.762  1.00  0.00     0.016 A 
ATOM     14  C   UNL     1      26.633   8.176  26.914  1.00  0.00     0.051 A 
ATOM     15  C   UNL     1      26.286   7.584  28.131  1.00  0.00     0.157 A 
ATOM     16  C   UNL     1      24.411   6.491  27.030  1.00  0.00     0.062 A 
ATOM     17  C   UNL     1      25.163   6.726  28.189  1.00  0.00     0.158 A 
BRANCH  15  18
ATOM     18  O   UNL     1      27.076   7.871  29.245  1.00  0.00    -0.504 OA
ATOM     19  H   UNL     1      27.243   7.224  30.002  1.00  0.00     0.293 HD
ENDBRANCH  15  18
BRANCH  17  20
ATOM     20  O   UNL     1      24.765   6.085  29.365  1.00  0.00    -0.504 OA
ATOM     21  H   UNL     1      23.801   5.952  29.638  1.00  0.00     0.293 HD
ENDBRANCH  17  20
ENDBRANCH   1  12
BRANCH   6  22
ATOM     22  O   UNL     1      21.944   6.058  19.866  1.00  0.00    -0.507 OA
ATOM     23  H   UNL     1      22.889   6.154  19.529  1.00  0.00     0.293 HD
ENDBRANCH   6  22
BRANCH   8  24
ATOM     24  O   UNL     1      18.537   4.871  23.008  1.00  0.00    -0.508 OA
ATOM     25  H   UNL     1      18.329   4.230  23.765  1.00  0.00     0.293 HD
ENDBRANCH   8  24
TORSDOF 5
ENDMDL
MODEL 4
REMARK VINA RESULT:    -7.474      9.707     13.054
REMARK INTER + INTRA:          -9.095
REMARK INTER:                  -8.802
REMARK INTRA:                  -0.293
REMARK UNBOUND:                -0.311
REMARK SMILES O=c1cc(-c2ccc(O)c(O)c2)oc2cc(O)cc(O)c12
REMARK SMILES IDX 4 1 3 2 2 3 1 4 21 5 19 6 18 7 16 8 15 9 14 10 13 11 5 12
REMARK SMILES IDX 6 13 7 14 8 15 12 16 10 17 9 18 11 20 20 22 17 24
REMARK H PARENT 9 19 11 21 20 23 17 25
REMARK Flexibility Score: inf
ROOT
ATOM      1  C   UNL     1      22.342  -3.019  19.543  1.00  0.00     0.138 A 
ATOM      2  C   UNL     1      21.966  -3.406  20.837  1.00  0.00     0.100 A 
ATOM      3  C   UNL     1      21.280  -4.606  21.026  1.00  0.00     0.197 A 
ATOM      4  O   UNL     1      21.007  -4.952  22.205  1.00  0.00    -0.289 OA
ATOM      5  C   UNL     1      20.938  -5.405  19.909  1.00  0.00     0.107 A 
ATOM      6  C   UNL     1      20.210  -6.632  19.978  1.00  0.00     0.134 A 
ATOM      7  C   UNL     1      20.015  -7.385  18.814  1.00  0.00     0.093 A 
ATOM      8  C   UNL     1      20.470  -6.930  17.577  1.00  0.00     0.123 A 
ATOM      9  C   UNL     1      21.139  -5.708  17.490  1.00  0.00     0.094 A 
ATOM     10  C   UNL     1      21.380  -4.951  18.638  1.00  0.00     0.146 A 
ATOM     11  O   UNL     1      22.035  -3.802  18.514  1.00  0.00    -0.456 OA
ENDROOT
BRANCH   1  12
ATOM     12  C   UNL     1      23.070  -1.751  19.283  1.00  0.00     0.021 A 
ATOM     13  C   UNL     1      23.794  -1.603  18.090  1.00  0.00     0.016 A 
ATOM     14  C   UNL     1      24.492  -0.423  17.825  1.00  0.00     0.051 A 
ATOM     15  C   UNL     1      24.492   0.628  18.745  1.00  0.00     0.157 A 
ATOM     16  C   UNL     1      23.081  -0.698  20.217  1.00  0.00     0.062 A 
ATOM     17  C   UNL     1      23.781   0.488  19.960  1.00  0.00     0.158 A 
BRANCH  15  18
ATOM     18  O   UNL     1      25.205   1.783  18.417  1.00  0.00    -0.504 OA
ATOM     19  H   UNL     1      25.893   2.212  19.019  1.00  0.00     0.293 HD
ENDBRANCH  15  18
BRANCH  17  20
ATOM     20  O   UNL     1      23.749   1.487  20.935  1.00  0.00    -0.504 OA
ATOM     21  H   UNL     1      23.385   1.356  21.868  1.00  0.00     0.293 HD
ENDBRANCH  17  20
ENDBRANCH   1  12
BRANCH   6  22
ATOM     22  O   UNL     1      19.641  -7.141  21.149  1.00  0.00    -0.507 OA
ATOM     23  H   UNL     1      19.426  -6.600  21.972  1.00  0.00     0.293 HD
ENDBRANCH   6  22
BRANCH   8  24
ATOM     24  O   UNL     1      20.244  -7.699  16.436  1.00  0.00    -0.508 OA
ATOM     25  H   UNL     1      20.475  -7.356  15.511  1.00  0.00     0.293 HD
ENDBRANCH   8  24
TORSDOF 5
ENDMDL
MODEL 5
REMARK VINA RESULT:    -7.464      2.900      7.094
REMARK INTER + INTRA:          -9.084
REMARK INTER:                  -8.814
REMARK INTRA:                  -0.270
REMARK UNBOUND:                -0.311
REMARK SMILES O=c1cc(-c2ccc(O)c(O)c2)oc2cc(O)cc(O)c12
REMARK SMILES IDX 4 1 3 2 2 3 1 4 21 5 19 6 18 7 16 8 15 9 14 10 13 11 5 12
REMARK SMILES IDX 6 13 7 14 8 15 12 16 10 17 9 18 11 20 20 22 17 24
REMARK H PARENT 9 19 11 21 20 23 17 25
REMARK Flexibility Score: inf
ROOT
ATOM      1  C   UNL     1      23.623   5.222  24.722  1.00  0.00     0.138 A 
ATOM      2  C   UNL     1      22.461   5.723  24.118  1.00  0.00     0.100 A 
ATOM      3  C   UNL     1      21.724   4.908  23.259  1.00  0.00     0.197 A 
ATOM      4  O   UNL     1      20.656   5.368  22.778  1.00  0.00    -0.289 OA
ATOM      5  C   UNL     1      22.173   3.596  22.976  1.00  0.00     0.107 A 
ATOM      6  C   UNL     1      21.521   2.686  22.088  1.00  0.00     0.134 A 
ATOM      7  C   UNL     1      22.006   1.379  21.963  1.00  0.00     0.093 A 
ATOM      8  C   UNL     1      23.150   0.965  22.645  1.00  0.00     0.123 A 
ATOM      9  C   UNL     1      23.824   1.861  23.476  1.00  0.00     0.094 A 
ATOM     10  C   UNL     1      23.345   3.161  23.650  1.00  0.00     0.146 A 
ATOM     11  O   UNL     1      24.006   3.977  24.464  1.00  0.00    -0.456 OA
ENDROOT
BRANCH   1  12
ATOM     12  C   UNL     1      24.448   6.047  25.642  1.00  0.00     0.021 A 
ATOM     13  C   UNL     1      25.175   7.131  25.130  1.00  0.00     0.016 A 
ATOM     14  C   UNL     1      25.963   7.918  25.972  1.00  0.00     0.051 A 
ATOM     15  C   UNL     1      26.051   7.635  27.338  1.00  0.00     0.157 A 
ATOM     16  C   UNL     1      24.546   5.752  27.015  1.00  0.00     0.062 A 
ATOM     17  C   UNL     1      25.337   6.534  27.866  1.00  0.00     0.158 A 
BRANCH  15  18
ATOM     18  O   UNL     1      26.852   8.465  28.126  1.00  0.00    -0.504 OA
ATOM     19  H   UNL     1      27.585   9.055  27.759  1.00  0.00     0.293 HD
ENDBRANCH  15  18
BRANCH  17  20
ATOM     20  O   UNL     1      25.389   6.180  29.216  1.00  0.00    -0.504 OA
ATOM     21  H   UNL     1      25.978   6.636  29.898  1.00  0.00     0.293 HD
ENDBRANCH  17  20
ENDBRANCH   1  12
BRANCH   6  22
ATOM     22  O   UNL     1      20.418   3.018  21.296  1.00  0.00    -0.507 OA
ATOM     23  H   UNL     1      20.423   3.072  20.289  1.00  0.00     0.293 HD
ENDBRANCH   6  22
BRANCH   8  24
ATOM     24  O   UNL     1      23.612  -0.340  22.483  1.00  0.00    -0.508 OA
ATOM     25  H   UNL     1      24.034  -0.649  21.616  1.00  0.00     0.293 HD
ENDBRANCH   8  24
TORSDOF 5
ENDMDL
MODEL 6
REMARK VINA RESULT:    -7.445     10.438     11.449
REMARK INTER + INTRA:          -9.061
REMARK INTER:                  -8.755
REMARK INTRA:                  -0.306
REMARK UNBOUND:                -0.311
REMARK SMILES O=c1cc(-c2ccc(O)c(O)c2)oc2cc(O)cc(O)c12
REMARK SMILES IDX 4 1 3 2 2 3 1 4 21 5 19 6 18 7 16 8 15 9 14 10 13 11 5 12
REMARK SMILES IDX 6 13 7 14 8 15 12 16 10 17 9 18 11 20 20 22 17 24
REMARK H PARENT 9 19 11 21 20 23 17 25
REMARK Flexibility Score: inf
ROOT
ATOM      1  C   UNL     1      24.367  -3.285  19.358  1.00  0.00     0.138 A 
ATOM      2  C   UNL     1      24.627  -1.915  19.206  1.00  0.00     0.100 A 
ATOM      3  C   UNL     1      25.760  -1.358  19.799  1.00  0.00     0.197 A 
ATOM      4  O   UNL     1      25.995  -0.138  19.597  1.00  0.00    -0.289 OA
ATOM      5  C   UNL     1      26.619  -2.170  20.578  1.00  0.00     0.107 A 
ATOM      6  C   UNL     1      27.784  -1.704  21.259  1.00  0.00     0.134 A 
ATOM      7  C   UNL     1      28.611  -2.621  21.919  1.00  0.00     0.093 A 
ATOM      8  C   UNL     1      28.285  -3.976  21.974  1.00  0.00     0.123 A 
ATOM      9  C   UNL     1      27.121  -4.435  21.355  1.00  0.00     0.094 A 
ATOM     10  C   UNL     1      26.295  -3.551  20.659  1.00  0.00     0.146 A 
ATOM     11  O   UNL     1      25.206  -4.031  20.069  1.00  0.00    -0.456 OA
ENDROOT
BRANCH   1  12
ATOM     12  C   UNL     1      23.175  -3.930  18.752  1.00  0.00     0.021 A 
ATOM     13  C   UNL     1      22.002  -3.181  18.576  1.00  0.00     0.016 A 
ATOM     14  C   UNL     1      20.864  -3.766  18.014  1.00  0.00     0.051 A 
ATOM     15  C   UNL     1      20.869  -5.109  17.627  1.00  0.00     0.157 A 
ATOM     16  C   UNL     1      23.177  -5.286  18.376  1.00  0.00     0.062 A 
ATOM     17  C   UNL     1      22.039  -5.881  17.815  1.00  0.00     0.158 A 
BRANCH  15  18
ATOM     18  O   UNL     1      19.701  -5.630  17.068  1.00  0.00    -0.504 OA
ATOM     19  H   UNL     1      19.495  -6.617  17.008  1.00  0.00     0.293 HD
ENDBRANCH  15  18
BRANCH  17  20
ATOM     20  O   UNL     1      22.114  -7.232  17.469  1.00  0.00    -0.504 OA
ATOM     21  H   UNL     1      21.755  -7.615  16.606  1.00  0.00     0.293 HD
ENDBRANCH  17  20
ENDBRANCH   1  12
BRANCH   6  22
ATOM     22  O   UNL     1      28.162  -0.360  21.336  1.00  0.00    -0.507 OA
ATOM     23  H   UNL     1      28.236   0.173  22.189  1.00  0.00     0.293 HD
ENDBRANCH   6  22
BRANCH   8  24
ATOM     24  O   UNL     1      29.123  -4.858  22.654  1.00  0.00    -0.508 OA
ATOM     25  H   UNL     1      29.754  -4.537  23.379  1.00  0.00     0.293 HD
ENDBRANCH   8  24
TORSDOF 5
ENDMDL
MODEL 7
REMARK VINA RESULT:    -7.395     10.826     13.124
REMARK INTER + INTRA:          -9.002
REMARK INTER:                  -8.718
REMARK INTRA:                  -0.284
REMARK UNBOUND:                -0.311
REMARK SMILES O=c1cc(-c2ccc(O)c(O)c2)oc2cc(O)cc(O)c12
REMARK SMILES IDX 4 1 3 2 2 3 1 4 21 5 19 6 18 7 16 8 15 9 14 10 13 11 5 12
REMARK SMILES IDX 6 13 7 14 8 15 12 16 10 17 9 18 11 20 20 22 17 24
REMARK H PARENT 9 19 11 21 20 23 17 25
REMARK Flexibility Score: inf
ROOT
ATOM      1  C   UNL     1      23.803  -4.702  23.724  1.00  0.00     0.138 A 
ATOM      2  C   UNL     1      24.424  -3.600  23.118  1.00  0.00     0.100 A 
ATOM      3  C   UNL     1      23.897  -3.073  21.938  1.00  0.00     0.197 A 
ATOM      4  O   UNL     1      24.444  -2.051  21.451  1.00  0.00    -0.289 OA
ATOM      5  C   UNL     1      22.763  -3.676  21.343  1.00  0.00     0.107 A 
ATOM      6  C   UNL     1      22.160  -3.247  20.122  1.00  0.00     0.134 A 
ATOM      7  C   UNL     1      20.981  -3.861  19.682  1.00  0.00     0.093 A 
ATOM      8  C   UNL     1      20.417  -4.926  20.385  1.00  0.00     0.123 A 
ATOM      9  C   UNL     1      21.027  -5.387  21.552  1.00  0.00     0.094 A 
ATOM     10  C   UNL     1      22.183  -4.772  22.036  1.00  0.00     0.146 A 
ATOM     11  O   UNL     1      22.722  -5.230  23.161  1.00  0.00    -0.456 OA
ENDROOT
BRANCH   1  12
ATOM     12  C   UNL     1      24.323  -5.305  24.977  1.00  0.00     0.021 A 
ATOM     13  C   UNL     1      24.250  -6.694  25.156  1.00  0.00     0.016 A 
ATOM     14  C   UNL     1      24.726  -7.285  26.328  1.00  0.00     0.051 A 
ATOM     15  C   UNL     1      25.274  -6.505  27.349  1.00  0.00     0.157 A 
ATOM     16  C   UNL     1      24.862  -4.516  26.011  1.00  0.00     0.062 A 
ATOM     17  C   UNL     1      25.338  -5.101  27.192  1.00  0.00     0.158 A 
BRANCH  15  18
ATOM     18  O   UNL     1      25.736  -7.159  28.493  1.00  0.00    -0.504 OA
ATOM     19  H   UNL     1      26.556  -6.878  29.012  1.00  0.00     0.293 HD
ENDBRANCH  15  18
BRANCH  17  20
ATOM     20  O   UNL     1      25.857  -4.255  28.175  1.00  0.00    -0.504 OA
ATOM     21  H   UNL     1      25.683  -4.364  29.164  1.00  0.00     0.293 HD
ENDBRANCH  17  20
ENDBRANCH   1  12
BRANCH   6  22
ATOM     22  O   UNL     1      22.683  -2.246  19.298  1.00  0.00    -0.507 OA
ATOM     23  H   UNL     1      23.432  -1.620  19.551  1.00  0.00     0.293 HD
ENDBRANCH   6  22
BRANCH   8  24
ATOM     24  O   UNL     1      19.251  -5.524  19.908  1.00  0.00    -0.508 OA
ATOM     25  H   UNL     1      18.382  -5.477  20.426  1.00  0.00     0.293 HD
ENDBRANCH   8  24
TORSDOF 5
ENDMDL
MODEL 8
REMARK VINA RESULT:    -7.363      1.959      7.273
REMARK INTER + INTRA:          -8.965
REMARK INTER:                  -8.677
REMARK INTRA:                  -0.288
REMARK UNBOUND:                -0.311
REMARK SMILES O=c1cc(-c2ccc(O)c(O)c2)oc2cc(O)cc(O)c12
REMARK SMILES IDX 4 1 3 2 2 3 1 4 21 5 19 6 18 7 16 8 15 9 14 10 13 11 5 12
REMARK SMILES IDX 6 13 7 14 8 15 12 16 10 17 9 18 11 20 20 22 17 24
REMARK H PARENT 9 19 11 21 20 23 17 25
REMARK Flexibility Score: inf
ROOT
ATOM      1  C   UNL     1      24.007   5.495  25.272  1.00  0.00     0.138 A 
ATOM      2  C   UNL     1      24.136   4.129  24.981  1.00  0.00     0.100 A 
ATOM      3  C   UNL     1      23.300   3.544  24.030  1.00  0.00     0.197 A 
ATOM      4  O   UNL     1      23.479   2.330  23.752  1.00  0.00    -0.289 OA
ATOM      5  C   UNL     1      22.306   4.324  23.392  1.00  0.00     0.107 A 
ATOM      6  C   UNL     1      21.373   3.827  22.432  1.00  0.00     0.134 A 
ATOM      7  C   UNL     1      20.498   4.716  21.796  1.00  0.00     0.093 A 
ATOM      8  C   UNL     1      20.480   6.071  22.127  1.00  0.00     0.123 A 
ATOM      9  C   UNL     1      21.352   6.558  23.101  1.00  0.00     0.094 A 
ATOM     10  C   UNL     1      22.261   5.704  23.728  1.00  0.00     0.146 A 
ATOM     11  O   UNL     1      23.086   6.211  24.637  1.00  0.00    -0.456 OA
ENDROOT
BRANCH   1  12
ATOM     12  C   UNL     1      24.868   6.168  26.278  1.00  0.00     0.021 A 
ATOM     13  C   UNL     1      24.994   5.613  27.560  1.00  0.00     0.016 A 
ATOM     14  C   UNL     1      25.792   6.230  28.525  1.00  0.00     0.051 A 
ATOM     15  C   UNL     1      26.471   7.417  28.238  1.00  0.00     0.157 A 
ATOM     16  C   UNL     1      25.540   7.371  25.991  1.00  0.00     0.062 A 
ATOM     17  C   UNL     1      26.340   7.998  26.955  1.00  0.00     0.158 A 
BRANCH  15  18
ATOM     18  O   UNL     1      27.256   7.979  29.246  1.00  0.00    -0.504 OA
ATOM     19  H   UNL     1      28.098   7.555  29.609  1.00  0.00     0.293 HD
ENDBRANCH  15  18
BRANCH  17  20
ATOM     20  O   UNL     1      26.974   9.191  26.600  1.00  0.00    -0.504 OA
ATOM     21  H   UNL     1      27.765   9.246  25.974  1.00  0.00     0.293 HD
ENDBRANCH  17  20
ENDBRANCH   1  12
BRANCH   6  22
ATOM     22  O   UNL     1      21.250   2.478  22.083  1.00  0.00    -0.507 OA
ATOM     23  H   UNL     1      21.488   2.089  21.185  1.00  0.00     0.293 HD
ENDBRANCH   6  22
BRANCH   8  24
ATOM     24  O   UNL     1      19.584   6.923  21.484  1.00  0.00    -0.508 OA
ATOM     25  H   UNL     1      18.586   6.865  21.648  1.00  0.00     0.293 HD
ENDBRANCH   8  24
TORSDOF 5
ENDMDL
MODEL 9
REMARK VINA RESULT:    -7.325     11.006     13.958
REMARK INTER + INTRA:          -8.920
REMARK INTER:                  -8.654
REMARK INTRA:                  -0.266
REMARK UNBOUND:                -0.311
REMARK SMILES O=c1cc(-c2ccc(O)c(O)c2)oc2cc(O)cc(O)c12
REMARK SMILES IDX 4 1 3 2 2 3 1 4 21 5 19 6 18 7 16 8 15 9 14 10 13 11 5 12
REMARK SMILES IDX 6 13 7 14 8 15 12 16 10 17 9 18 11 20 20 22 17 24
REMARK H PARENT 9 19 11 21 20 23 17 25
REMARK Flexibility Score: inf
ROOT
ATOM      1  C   UNL     1      23.987  -4.435  20.362  1.00  0.00     0.138 A 
ATOM      2  C   UNL     1      23.318  -4.731  21.558  1.00  0.00     0.100 A 
ATOM      3  C   UNL     1      22.178  -5.535  21.531  1.00  0.00     0.197 A 
ATOM      4  O   UNL     1      21.634  -5.827  22.627  1.00  0.00    -0.289 OA
ATOM      5  C   UNL     1      21.685  -6.015  20.295  1.00  0.00     0.107 A 
ATOM      6  C   UNL     1      20.511  -6.814  20.142  1.00  0.00     0.134 A 
ATOM      7  C   UNL     1      20.176  -7.313  18.876  1.00  0.00     0.093 A 
ATOM      8  C   UNL     1      20.937  -6.995  17.751  1.00  0.00     0.123 A 
ATOM      9  C   UNL     1      22.057  -6.172  17.881  1.00  0.00     0.094 A 
ATOM     10  C   UNL     1      22.438  -5.689  19.135  1.00  0.00     0.146 A 
ATOM     11  O   UNL     1      23.521  -4.924  19.218  1.00  0.00    -0.456 OA
ENDROOT
BRANCH   1  12
ATOM     12  C   UNL     1      25.202  -3.582  20.332  1.00  0.00     0.021 A 
ATOM     13  C   UNL     1      26.425  -4.109  20.775  1.00  0.00     0.016 A 
ATOM     14  C   UNL     1      27.580  -3.325  20.763  1.00  0.00     0.051 A 
ATOM     15  C   UNL     1      27.541  -2.000  20.320  1.00  0.00     0.157 A 
ATOM     16  C   UNL     1      25.157  -2.244  19.899  1.00  0.00     0.062 A 
ATOM     17  C   UNL     1      26.312  -1.450  19.887  1.00  0.00     0.158 A 
BRANCH  15  18
ATOM     18  O   UNL     1      28.733  -1.273  20.329  1.00  0.00    -0.504 OA
ATOM     19  H   UNL     1      29.373  -1.249  21.109  1.00  0.00     0.293 HD
ENDBRANCH  15  18
BRANCH  17  20
ATOM     20  O   UNL     1      26.190  -0.130  19.447  1.00  0.00    -0.504 OA
ATOM     21  H   UNL     1      26.653   0.238  18.628  1.00  0.00     0.293 HD
ENDBRANCH  17  20
ENDBRANCH   1  12
BRANCH   6  22
ATOM     22  O   UNL     1      19.634  -7.128  21.184  1.00  0.00    -0.507 OA
ATOM     23  H   UNL     1      19.421  -8.061  21.501  1.00  0.00     0.293 HD
ENDBRANCH   6  22
BRANCH   8  24
ATOM     24  O   UNL     1      20.564  -7.496  16.505  1.00  0.00    -0.508 OA
ATOM     25  H   UNL     1      19.599  -7.484  16.197  1.00  0.00     0.293 HD
ENDBRANCH   8  24
TORSDOF 5
ENDMDL
