MODEL 1
REMARK VINA RESULT:    -5.548      0.000      0.000
REMARK INTER + INTRA:         -12.220
REMARK INTER:                 -10.737
REMARK INTRA:                  -1.482
REMARK UNBOUND:                -1.482
REMARK SMILES CCCCCCCCCCCCCCCCCC(=O)[O-]
REMARK SMILES IDX 10 1 11 2 12 3 13 4 14 5 15 6 16 7 17 8 18 9 19 10 20 11
REMARK SMILES IDX 9 12 8 13 7 14 6 15 5 16 4 17 3 18 2 19 1 20
REMARK H PARENT
REMARK Flexibility Score: inf
ROOT
ATOM      1  C   UNL     1      20.110  -0.555 -19.005  1.00  0.00     0.000 C 
ENDROOT
BRANCH   1   2
ATOM      2  C   UNL     1      20.737  -1.795 -18.342  1.00  0.00     0.000 C 
BRANCH   2   3
ATOM      3  C   UNL     1      19.853  -2.356 -17.208  1.00  0.00     0.000 C 
BRANCH   3   4
ATOM      4  C   UNL     1      20.115  -1.698 -15.841  1.00  0.00     0.000 C 
BRANCH   4   5
ATOM      5  C   UNL     1      21.522  -1.090 -15.732  1.00  0.00     0.000 C 
BRANCH   5   6
ATOM      6  C   UNL     1      21.502   0.420 -15.431  1.00  0.00     0.000 C 
BRANCH   6   7
ATOM      7  C   UNL     1      20.159   0.969 -14.905  1.00  0.00     0.006 C 
BRANCH   7   8
ATOM      8  C   UNL     1      19.363   1.796 -15.927  1.00  0.00     0.053 C 
BRANCH   8   9
ATOM      9  C   UNL     1      17.904   1.454 -15.912  1.00  0.00     0.041 C 
ATOM     10  O   UNL     1      17.424   0.765 -14.974  1.00  0.00    -0.550 OA
ATOM     11  O   UNL     1      17.082   1.872 -16.951  1.00  0.00    -0.550 OA
ENDBRANCH   8   9
ENDBRANCH   7   8
ENDBRANCH   6   7
ENDBRANCH   5   6
ENDBRANCH   4   5
ENDBRANCH   3   4
ENDBRANCH   2   3
ENDBRANCH   1   2
BRANCH   1  12
ATOM     12  C   UNL     1      21.134   0.565 -19.251  1.00  0.00     0.000 C 
BRANCH  12  13
ATOM     13  C   UNL     1      20.951   1.242 -20.620  1.00  0.00    -0.000 C 
BRANCH  13  14
ATOM     14  C   UNL     1      19.507   1.141 -21.137  1.00  0.00    -0.000 C 
BRANCH  14  15
ATOM     15  C   UNL     1      19.430   0.572 -22.564  1.00  0.00    -0.000 C 
BRANCH  15  16
ATOM     16  C   UNL     1      18.759   1.541 -23.550  1.00  0.00    -0.000 C 
BRANCH  16  17
ATOM     17  C   UNL     1      17.226   1.555 -23.412  1.00  0.00    -0.000 C 
BRANCH  17  18
ATOM     18  C   UNL     1      16.586   0.210 -23.791  1.00  0.00    -0.000 C 
BRANCH  18  19
ATOM     19  C   UNL     1      15.744   0.298 -25.070  1.00  0.00    -0.003 C 
ATOM     20  C   UNL     1      16.045   1.579 -25.841  1.00  0.00     0.004 C 
ENDBRANCH  18  19
ENDBRANCH  17  18
ENDBRANCH  16  17
ENDBRANCH  15  16
ENDBRANCH  14  15
ENDBRANCH  13  14
ENDBRANCH  12  13
ENDBRANCH   1  12
TORSDOF 16
ENDMDL
MODEL 2
REMARK VINA RESULT:    -5.464      2.485      5.422
REMARK INTER + INTRA:         -12.058
REMARK INTER:                  -9.854
REMARK INTRA:                  -2.204
REMARK UNBOUND:                -1.482
REMARK SMILES CCCCCCCCCCCCCCCCCC(=O)[O-]
REMARK SMILES IDX 10 1 11 2 12 3 13 4 14 5 15 6 16 7 17 8 18 9 19 10 20 11
REMARK SMILES IDX 9 12 8 13 7 14 6 15 5 16 4 17 3 18 2 19 1 20
REMARK H PARENT
REMARK Flexibility Score: inf
ROOT
ATOM      1  C   UNL     1      16.702  -0.126 -23.510  1.00  0.00     0.000 C 
ENDROOT
BRANCH   1   2
ATOM      2  C   UNL     1      17.049   1.257 -22.929  1.00  0.00     0.000 C 
BRANCH   2   3
ATOM      3  C   UNL     1      18.555   1.395 -22.620  1.00  0.00     0.000 C 
BRANCH   3   4
ATOM      4  C   UNL     1      19.151   0.175 -21.896  1.00  0.00     0.000 C 
BRANCH   4   5
ATOM      5  C   UNL     1      20.299   0.548 -20.945  1.00  0.00     0.000 C 
BRANCH   5   6
ATOM      6  C   UNL     1      19.970   0.266 -19.467  1.00  0.00     0.000 C 
BRANCH   6   7
ATOM      7  C   UNL     1      21.175  -0.127 -18.588  1.00  0.00     0.006 C 
BRANCH   7   8
ATOM      8  C   UNL     1      21.217  -1.610 -18.188  1.00  0.00     0.053 C 
BRANCH   8   9
ATOM      9  C   UNL     1      19.961  -2.042 -17.495  1.00  0.00     0.041 C 
ATOM     10  O   UNL     1      19.227  -2.926 -18.008  1.00  0.00    -0.550 OA
ATOM     11  O   UNL     1      19.587  -1.445 -16.297  1.00  0.00    -0.550 OA
ENDBRANCH   8   9
ENDBRANCH   7   8
ENDBRANCH   6   7
ENDBRANCH   5   6
ENDBRANCH   4   5
ENDBRANCH   3   4
ENDBRANCH   2   3
ENDBRANCH   1   2
BRANCH   1  12
ATOM     12  C   UNL     1      16.005  -0.036 -24.877  1.00  0.00     0.000 C 
BRANCH  12  13
ATOM     13  C   UNL     1      16.112   1.366 -25.502  1.00  0.00    -0.000 C 
BRANCH  13  14
ATOM     14  C   UNL     1      17.207   1.448 -26.578  1.00  0.00    -0.000 C 
BRANCH  14  15
ATOM     15  C   UNL     1      17.444   0.100 -27.281  1.00  0.00    -0.000 C 
BRANCH  15  16
ATOM     16  C   UNL     1      18.916  -0.340 -27.230  1.00  0.00    -0.000 C 
BRANCH  16  17
ATOM     17  C   UNL     1      19.630   0.135 -25.953  1.00  0.00    -0.000 C 
BRANCH  17  18
ATOM     18  C   UNL     1      20.261  -1.022 -25.163  1.00  0.00    -0.000 C 
BRANCH  18  19
ATOM     19  C   UNL     1      19.339  -2.245 -25.071  1.00  0.00    -0.003 C 
ATOM     20  C   UNL     1      20.078  -3.521 -25.464  1.00  0.00     0.004 C 
ENDBRANCH  18  19
ENDBRANCH  17  18
ENDBRANCH  16  17
ENDBRANCH  15  16
ENDBRANCH  14  15
ENDBRANCH  13  14
ENDBRANCH  12  13
ENDBRANCH   1  12
TORSDOF 16
ENDMDL
MODEL 3
REMARK VINA RESULT:    -5.402      1.237      2.086
REMARK INTER + INTRA:         -11.936
REMARK INTER:                 -10.138
REMARK INTRA:                  -1.799
REMARK UNBOUND:                -1.482
REMARK SMILES CCCCCCCCCCCCCCCCCC(=O)[O-]
REMARK SMILES IDX 10 1 11 2 12 3 13 4 14 5 15 6 16 7 17 8 18 9 19 10 20 11
REMARK SMILES IDX 9 12 8 13 7 14 6 15 5 16 4 17 3 18 2 19 1 20
REMARK H PARENT
REMARK Flexibility Score: inf
ROOT
ATOM      1  C   UNL     1      19.691   0.249 -20.925  1.00  0.00     0.000 C 
ENDROOT
BRANCH   1   2
ATOM      2  C   UNL     1      20.516   0.016 -19.646  1.00  0.00     0.000 C 
BRANCH   2   3
ATOM      3  C   UNL     1      20.258  -1.377 -19.035  1.00  0.00     0.000 C 
BRANCH   3   4
ATOM      4  C   UNL     1      20.987  -1.609 -17.699  1.00  0.00     0.000 C 
BRANCH   4   5
ATOM      5  C   UNL     1      20.029  -1.649 -16.498  1.00  0.00     0.000 C 
BRANCH   5   6
ATOM      6  C   UNL     1      20.570  -0.886 -15.274  1.00  0.00     0.000 C 
BRANCH   6   7
ATOM      7  C   UNL     1      20.177   0.604 -15.200  1.00  0.00     0.006 C 
BRANCH   7   8
ATOM      8  C   UNL     1      19.287   1.088 -16.355  1.00  0.00     0.053 C 
BRANCH   8   9
ATOM      9  C   UNL     1      17.874   1.322 -15.916  1.00  0.00     0.041 C 
ATOM     10  O   UNL     1      17.466   0.857 -14.819  1.00  0.00    -0.550 OA
ATOM     11  O   UNL     1      16.999   2.027 -16.734  1.00  0.00    -0.550 OA
ENDBRANCH   8   9
ENDBRANCH   7   8
ENDBRANCH   6   7
ENDBRANCH   5   6
ENDBRANCH   4   5
ENDBRANCH   3   4
ENDBRANCH   2   3
ENDBRANCH   1   2
BRANCH   1  12
ATOM     12  C   UNL     1      20.571   0.524 -22.155  1.00  0.00     0.000 C 
BRANCH  12  13
ATOM     13  C   UNL     1      20.479   1.983 -22.633  1.00  0.00    -0.000 C 
BRANCH  13  14
ATOM     14  C   UNL     1      19.029   2.489 -22.700  1.00  0.00    -0.000 C 
BRANCH  14  15
ATOM     15  C   UNL     1      18.309   2.043 -23.985  1.00  0.00    -0.000 C 
BRANCH  15  16
ATOM     16  C   UNL     1      16.836   1.680 -23.738  1.00  0.00    -0.000 C 
BRANCH  16  17
ATOM     17  C   UNL     1      16.669   0.280 -23.120  1.00  0.00    -0.000 C 
BRANCH  17  18
ATOM     18  C   UNL     1      16.871  -0.847 -24.145  1.00  0.00    -0.000 C 
BRANCH  18  19
ATOM     19  C   UNL     1      18.105  -1.706 -23.841  1.00  0.00    -0.003 C 
ATOM     20  C   UNL     1      19.171  -1.541 -24.920  1.00  0.00     0.004 C 
ENDBRANCH  18  19
ENDBRANCH  17  18
ENDBRANCH  16  17
ENDBRANCH  15  16
ENDBRANCH  14  15
ENDBRANCH  13  14
ENDBRANCH  12  13
ENDBRANCH   1  12
TORSDOF 16
ENDMDL
MODEL 4
REMARK VINA RESULT:    -5.393      1.755      4.696
REMARK INTER + INTRA:         -11.919
REMARK INTER:                  -9.667
REMARK INTRA:                  -2.252
REMARK UNBOUND:                -1.482
REMARK SMILES CCCCCCCCCCCCCCCCCC(=O)[O-]
REMARK SMILES IDX 10 1 11 2 12 3 13 4 14 5 15 6 16 7 17 8 18 9 19 10 20 11
REMARK SMILES IDX 9 12 8 13 7 14 6 15 5 16 4 17 3 18 2 19 1 20
REMARK H PARENT
REMARK Flexibility Score: inf
ROOT
ATOM      1  C   UNL     1      16.757   0.360 -23.154  1.00  0.00     0.000 C 
ENDROOT
BRANCH   1   2
ATOM      2  C   UNL     1      18.025  -0.221 -22.501  1.00  0.00     0.000 C 
BRANCH   2   3
ATOM      3  C   UNL     1      18.832   0.855 -21.743  1.00  0.00     0.000 C 
BRANCH   3   4
ATOM      4  C   UNL     1      20.027   0.288 -20.955  1.00  0.00     0.000 C 
BRANCH   4   5
ATOM      5  C   UNL     1      19.716   0.092 -19.463  1.00  0.00     0.000 C 
BRANCH   5   6
ATOM      6  C   UNL     1      20.428  -1.133 -18.857  1.00  0.00     0.000 C 
BRANCH   6   7
ATOM      7  C   UNL     1      19.641  -1.875 -17.757  1.00  0.00     0.006 C 
BRANCH   7   8
ATOM      8  C   UNL     1      20.233  -1.739 -16.346  1.00  0.00     0.053 C 
BRANCH   8   9
ATOM      9  C   UNL     1      19.884  -0.426 -15.713  1.00  0.00     0.041 C 
ATOM     10  O   UNL     1      18.707  -0.201 -15.329  1.00  0.00    -0.550 OA
ATOM     11  O   UNL     1      20.854   0.559 -15.576  1.00  0.00    -0.550 OA
ENDBRANCH   8   9
ENDBRANCH   7   8
ENDBRANCH   6   7
ENDBRANCH   5   6
ENDBRANCH   4   5
ENDBRANCH   3   4
ENDBRANCH   2   3
ENDBRANCH   1   2
BRANCH   1  12
ATOM     12  C   UNL     1      16.375  -0.366 -24.453  1.00  0.00     0.000 C 
BRANCH  12  13
ATOM     13  C   UNL     1      15.680   0.561 -25.465  1.00  0.00    -0.000 C 
BRANCH  13  14
ATOM     14  C   UNL     1      16.083   2.033 -25.286  1.00  0.00    -0.000 C 
BRANCH  14  15
ATOM     15  C   UNL     1      17.356   2.396 -26.070  1.00  0.00    -0.000 C 
BRANCH  15  16
ATOM     16  C   UNL     1      18.495   2.872 -25.156  1.00  0.00    -0.000 C 
BRANCH  16  17
ATOM     17  C   UNL     1      19.707   1.923 -25.179  1.00  0.00    -0.000 C 
BRANCH  17  18
ATOM     18  C   UNL     1      19.509   0.735 -26.134  1.00  0.00    -0.000 C 
BRANCH  18  19
ATOM     19  C   UNL     1      19.987  -0.592 -25.530  1.00  0.00    -0.003 C 
ATOM     20  C   UNL     1      21.165  -0.375 -24.586  1.00  0.00     0.004 C 
ENDBRANCH  18  19
ENDBRANCH  17  18
ENDBRANCH  16  17
ENDBRANCH  15  16
ENDBRANCH  14  15
ENDBRANCH  13  14
ENDBRANCH  12  13
ENDBRANCH   1  12
TORSDOF 16
ENDMDL
MODEL 5
REMARK VINA RESULT:    -5.373      1.461      2.592
REMARK INTER + INTRA:         -11.882
REMARK INTER:                 -10.030
REMARK INTRA:                  -1.852
REMARK UNBOUND:                -1.482
REMARK SMILES CCCCCCCCCCCCCCCCCC(=O)[O-]
REMARK SMILES IDX 10 1 11 2 12 3 13 4 14 5 15 6 16 7 17 8 18 9 19 10 20 11
REMARK SMILES IDX 9 12 8 13 7 14 6 15 5 16 4 17 3 18 2 19 1 20
REMARK H PARENT
REMARK Flexibility Score: inf
ROOT
ATOM      1  C   UNL     1      20.957   1.166 -20.881  1.00  0.00     0.000 C 
ENDROOT
BRANCH   1   2
ATOM      2  C   UNL     1      20.237   0.677 -19.611  1.00  0.00     0.000 C 
BRANCH   2   3
ATOM      3  C   UNL     1      20.920  -0.564 -18.999  1.00  0.00     0.000 C 
BRANCH   3   4
ATOM      4  C   UNL     1      19.954  -1.734 -18.738  1.00  0.00     0.000 C 
BRANCH   4   5
ATOM      5  C   UNL     1      19.913  -2.155 -17.260  1.00  0.00     0.000 C 
BRANCH   5   6
ATOM      6  C   UNL     1      20.819  -1.290 -16.364  1.00  0.00     0.000 C 
BRANCH   6   7
ATOM      7  C   UNL     1      20.186  -0.834 -15.033  1.00  0.00     0.006 C 
BRANCH   7   8
ATOM      8  C   UNL     1      19.896   0.673 -14.947  1.00  0.00     0.053 C 
BRANCH   8   9
ATOM      9  C   UNL     1      18.577   1.028 -15.562  1.00  0.00     0.041 C 
ATOM     10  O   UNL     1      17.506   0.783 -14.948  1.00  0.00    -0.550 OA
ATOM     11  O   UNL     1      18.531   1.603 -16.827  1.00  0.00    -0.550 OA
ENDBRANCH   8   9
ENDBRANCH   7   8
ENDBRANCH   6   7
ENDBRANCH   5   6
ENDBRANCH   4   5
ENDBRANCH   3   4
ENDBRANCH   2   3
ENDBRANCH   1   2
BRANCH   1  12
ATOM     12  C   UNL     1      20.373   0.555 -22.165  1.00  0.00     0.000 C 
BRANCH  12  13
ATOM     13  C   UNL     1      18.912   0.106 -21.994  1.00  0.00    -0.000 C 
BRANCH  13  14
ATOM     14  C   UNL     1      17.914   1.119 -22.578  1.00  0.00    -0.000 C 
BRANCH  14  15
ATOM     15  C   UNL     1      16.695   0.438 -23.225  1.00  0.00    -0.000 C 
BRANCH  15  16
ATOM     16  C   UNL     1      16.318   1.066 -24.576  1.00  0.00    -0.000 C 
BRANCH  16  17
ATOM     17  C   UNL     1      17.547   1.357 -25.455  1.00  0.00    -0.000 C 
BRANCH  17  18
ATOM     18  C   UNL     1      18.008   0.127 -26.254  1.00  0.00    -0.000 C 
BRANCH  18  19
ATOM     19  C   UNL     1      19.338  -0.443 -25.742  1.00  0.00    -0.003 C 
ATOM     20  C   UNL     1      19.140  -1.818 -25.111  1.00  0.00     0.004 C 
ENDBRANCH  18  19
ENDBRANCH  17  18
ENDBRANCH  16  17
ENDBRANCH  15  16
ENDBRANCH  14  15
ENDBRANCH  13  14
ENDBRANCH  12  13
ENDBRANCH   1  12
TORSDOF 16
ENDMDL
MODEL 6
REMARK VINA RESULT:    -5.307      4.733     10.272
REMARK INTER + INTRA:         -11.753
REMARK INTER:                 -10.306
REMARK INTRA:                  -1.447
REMARK UNBOUND:                -1.482
REMARK SMILES CCCCCCCCCCCCCCCCCC(=O)[O-]
REMARK SMILES IDX 10 1 11 2 12 3 13 4 14 5 15 6 16 7 17 8 18 9 19 10 20 11
REMARK SMILES IDX 9 12 8 13 7 14 6 15 5 16 4 17 3 18 2 19 1 20
REMARK H PARENT
REMARK Flexibility Score: inf
ROOT
ATOM      1  C   UNL     1      23.767  -0.931 -14.865  1.00  0.00     0.000 C 
ENDROOT
BRANCH   1   2
ATOM      2  C   UNL     1      22.359  -0.594 -15.389  1.00  0.00     0.000 C 
BRANCH   2   3
ATOM      3  C   UNL     1      21.329  -1.685 -15.028  1.00  0.00     0.000 C 
BRANCH   3   4
ATOM      4  C   UNL     1      20.093  -1.694 -15.946  1.00  0.00     0.000 C 
BRANCH   4   5
ATOM      5  C   UNL     1      20.403  -1.198 -17.367  1.00  0.00     0.000 C 
BRANCH   5   6
ATOM      6  C   UNL     1      19.444  -0.089 -17.838  1.00  0.00     0.000 C 
BRANCH   6   7
ATOM      7  C   UNL     1      19.890   1.351 -17.512  1.00  0.00     0.006 C 
BRANCH   7   8
ATOM      8  C   UNL     1      19.348   1.903 -16.184  1.00  0.00     0.053 C 
BRANCH   8   9
ATOM      9  C   UNL     1      17.907   1.549 -15.974  1.00  0.00     0.041 C 
ATOM     10  O   UNL     1      17.026   1.988 -16.759  1.00  0.00    -0.550 OA
ATOM     11  O   UNL     1      17.534   0.760 -14.892  1.00  0.00    -0.550 OA
ENDBRANCH   8   9
ENDBRANCH   7   8
ENDBRANCH   6   7
ENDBRANCH   5   6
ENDBRANCH   4   5
ENDBRANCH   3   4
ENDBRANCH   2   3
ENDBRANCH   1   2
BRANCH   1  12
ATOM     12  C   UNL     1      24.525   0.310 -14.367  1.00  0.00     0.000 C 
BRANCH  12  13
ATOM     13  C   UNL     1      25.394   0.014 -13.133  1.00  0.00    -0.000 C 
BRANCH  13  14
ATOM     14  C   UNL     1      26.036  -1.381 -13.186  1.00  0.00    -0.000 C 
BRANCH  14  15
ATOM     15  C   UNL     1      26.710  -1.772 -11.859  1.00  0.00    -0.000 C 
BRANCH  15  16
ATOM     16  C   UNL     1      25.747  -1.694 -10.664  1.00  0.00    -0.000 C 
BRANCH  16  17
ATOM     17  C   UNL     1      26.269  -0.777  -9.545  1.00  0.00    -0.000 C 
BRANCH  17  18
ATOM     18  C   UNL     1      27.787  -0.903  -9.336  1.00  0.00    -0.000 C 
BRANCH  18  19
ATOM     19  C   UNL     1      28.503   0.453  -9.389  1.00  0.00    -0.003 C 
ATOM     20  C   UNL     1      27.717   1.459 -10.224  1.00  0.00     0.004 C 
ENDBRANCH  18  19
ENDBRANCH  17  18
ENDBRANCH  16  17
ENDBRANCH  15  16
ENDBRANCH  14  15
ENDBRANCH  13  14
ENDBRANCH  12  13
ENDBRANCH   1  12
TORSDOF 16
ENDMDL
MODEL 7
REMARK VINA RESULT:    -5.264      3.435      8.742
REMARK INTER + INTRA:         -11.669
REMARK INTER:                 -10.136
REMARK INTRA:                  -1.533
REMARK UNBOUND:                -1.482
REMARK SMILES CCCCCCCCCCCCCCCCCC(=O)[O-]
REMARK SMILES IDX 10 1 11 2 12 3 13 4 14 5 15 6 16 7 17 8 18 9 19 10 20 11
REMARK SMILES IDX 9 12 8 13 7 14 6 15 5 16 4 17 3 18 2 19 1 20
REMARK H PARENT
REMARK Flexibility Score: inf
ROOT
ATOM      1  C   UNL     1      19.182   0.363 -21.814  1.00  0.00     0.000 C 
ENDROOT
BRANCH   1   2
ATOM      2  C   UNL     1      18.677   1.683 -22.425  1.00  0.00     0.000 C 
BRANCH   2   3
ATOM      3  C   UNL     1      17.178   1.620 -22.784  1.00  0.00     0.000 C 
BRANCH   3   4
ATOM      4  C   UNL     1      16.705   0.220 -23.216  1.00  0.00     0.000 C 
BRANCH   4   5
ATOM      5  C   UNL     1      16.040   0.217 -24.602  1.00  0.00     0.000 C 
BRANCH   5   6
ATOM      6  C   UNL     1      16.068   1.597 -25.285  1.00  0.00     0.000 C 
BRANCH   6   7
ATOM      7  C   UNL     1      17.135   1.765 -26.386  1.00  0.00     0.006 C 
BRANCH   7   8
ATOM      8  C   UNL     1      17.612   0.450 -27.021  1.00  0.00     0.053 C 
BRANCH   8   9
ATOM      9  C   UNL     1      19.062   0.187 -26.749  1.00  0.00     0.041 C 
ATOM     10  O   UNL     1      19.868   0.032 -27.703  1.00  0.00    -0.550 OA
ATOM     11  O   UNL     1      19.517   0.082 -25.439  1.00  0.00    -0.550 OA
ENDBRANCH   8   9
ENDBRANCH   7   8
ENDBRANCH   6   7
ENDBRANCH   5   6
ENDBRANCH   4   5
ENDBRANCH   3   4
ENDBRANCH   2   3
ENDBRANCH   1   2
BRANCH   1  12
ATOM     12  C   UNL     1      20.423   0.557 -20.929  1.00  0.00     0.000 C 
BRANCH  12  13
ATOM     13  C   UNL     1      20.113   0.387 -19.432  1.00  0.00    -0.000 C 
BRANCH  13  14
ATOM     14  C   UNL     1      20.817  -0.835 -18.822  1.00  0.00    -0.000 C 
BRANCH  14  15
ATOM     15  C   UNL     1      19.863  -2.025 -18.619  1.00  0.00    -0.000 C 
BRANCH  15  16
ATOM     16  C   UNL     1      19.930  -2.599 -17.195  1.00  0.00    -0.000 C 
BRANCH  16  17
ATOM     17  C   UNL     1      20.752  -1.714 -16.241  1.00  0.00    -0.000 C 
BRANCH  17  18
ATOM     18  C   UNL     1      19.887  -1.045 -15.162  1.00  0.00    -0.000 C 
BRANCH  18  19
ATOM     19  C   UNL     1      19.820   0.480 -15.322  1.00  0.00    -0.003 C 
ATOM     20  C   UNL     1      18.383   0.949 -15.525  1.00  0.00     0.004 C 
ENDBRANCH  18  19
ENDBRANCH  17  18
ENDBRANCH  16  17
ENDBRANCH  15  16
ENDBRANCH  14  15
ENDBRANCH  13  14
ENDBRANCH  12  13
ENDBRANCH   1  12
TORSDOF 16
ENDMDL
MODEL 8
REMARK VINA RESULT:    -5.212      1.921      3.963
REMARK INTER + INTRA:         -11.569
REMARK INTER:                  -9.502
REMARK INTRA:                  -2.067
REMARK UNBOUND:                -1.482
REMARK SMILES CCCCCCCCCCCCCCCCCC(=O)[O-]
REMARK SMILES IDX 10 1 11 2 12 3 13 4 14 5 15 6 16 7 17 8 18 9 19 10 20 11
REMARK SMILES IDX 9 12 8 13 7 14 6 15 5 16 4 17 3 18 2 19 1 20
REMARK H PARENT
REMARK Flexibility Score: inf
ROOT
ATOM      1  C   UNL     1      18.506  -0.568 -22.526  1.00  0.00     0.000 C 
ENDROOT
BRANCH   1   2
ATOM      2  C   UNL     1      19.665   0.425 -22.724  1.00  0.00     0.000 C 
BRANCH   2   3
ATOM      3  C   UNL     1      20.476   0.636 -21.428  1.00  0.00     0.000 C 
BRANCH   3   4
ATOM      4  C   UNL     1      19.680   0.328 -20.146  1.00  0.00     0.000 C 
BRANCH   4   5
ATOM      5  C   UNL     1      20.570  -0.185 -19.002  1.00  0.00     0.000 C 
BRANCH   5   6
ATOM      6  C   UNL     1      19.894  -1.285 -18.163  1.00  0.00     0.000 C 
BRANCH   6   7
ATOM      7  C   UNL     1      19.631  -0.920 -16.688  1.00  0.00     0.006 C 
BRANCH   7   8
ATOM      8  C   UNL     1      19.624   0.588 -16.393  1.00  0.00     0.053 C 
BRANCH   8   9
ATOM      9  C   UNL     1      18.234   1.124 -16.238  1.00  0.00     0.041 C 
ATOM     10  O   UNL     1      17.564   0.859 -15.206  1.00  0.00    -0.550 OA
ATOM     11  O   UNL     1      17.667   1.892 -17.249  1.00  0.00    -0.550 OA
ENDBRANCH   8   9
ENDBRANCH   7   8
ENDBRANCH   6   7
ENDBRANCH   5   6
ENDBRANCH   4   5
ENDBRANCH   3   4
ENDBRANCH   2   3
ENDBRANCH   1   2
BRANCH   1  12
ATOM     12  C   UNL     1      17.186  -0.066 -23.133  1.00  0.00     0.000 C 
BRANCH  12  13
ATOM     13  C   UNL     1      17.128   1.467 -23.233  1.00  0.00    -0.000 C 
BRANCH  13  14
ATOM     14  C   UNL     1      16.612   1.947 -24.599  1.00  0.00    -0.000 C 
BRANCH  14  15
ATOM     15  C   UNL     1      17.654   1.773 -25.718  1.00  0.00    -0.000 C 
BRANCH  15  16
ATOM     16  C   UNL     1      17.265   0.676 -26.720  1.00  0.00    -0.000 C 
BRANCH  16  17
ATOM     17  C   UNL     1      18.481  -0.124 -27.221  1.00  0.00    -0.000 C 
BRANCH  17  18
ATOM     18  C   UNL     1      19.763   0.195 -26.436  1.00  0.00    -0.000 C 
BRANCH  18  19
ATOM     19  C   UNL     1      20.505  -1.069 -25.981  1.00  0.00    -0.003 C 
ATOM     20  C   UNL     1      19.527  -2.191 -25.647  1.00  0.00     0.004 C 
ENDBRANCH  18  19
ENDBRANCH  17  18
ENDBRANCH  16  17
ENDBRANCH  15  16
ENDBRANCH  14  15
ENDBRANCH  13  14
ENDBRANCH  12  13
ENDBRANCH   1  12
TORSDOF 16
ENDMDL
MODEL 9
REMARK VINA RESULT:    -5.137      3.734      8.641
REMARK INTER + INTRA:         -11.424
REMARK INTER:                  -9.474
REMARK INTRA:                  -1.950
REMARK UNBOUND:                -1.482
REMARK SMILES CCCCCCCCCCCCCCCCCC(=O)[O-]
REMARK SMILES IDX 10 1 11 2 12 3 13 4 14 5 15 6 16 7 17 8 18 9 19 10 20 11
REMARK SMILES IDX 9 12 8 13 7 14 6 15 5 16 4 17 3 18 2 19 1 20
REMARK H PARENT
REMARK Flexibility Score: inf
ROOT
ATOM      1  C   UNL     1      16.819   0.135 -23.219  1.00  0.00     0.000 C 
ENDROOT
BRANCH   1   2
ATOM      2  C   UNL     1      16.108   0.108 -24.584  1.00  0.00     0.000 C 
BRANCH   2   3
ATOM      3  C   UNL     1      16.141   1.484 -25.282  1.00  0.00     0.000 C 
BRANCH   3   4
ATOM      4  C   UNL     1      17.111   1.548 -26.475  1.00  0.00     0.000 C 
BRANCH   4   5
ATOM      5  C   UNL     1      17.545   0.157 -26.965  1.00  0.00     0.000 C 
BRANCH   5   6
ATOM      6  C   UNL     1      19.074  -0.020 -26.994  1.00  0.00     0.000 C 
BRANCH   6   7
ATOM      7  C   UNL     1      19.736  -0.259 -25.621  1.00  0.00     0.006 C 
BRANCH   7   8
ATOM      8  C   UNL     1      20.382  -1.644 -25.455  1.00  0.00     0.053 C 
BRANCH   8   9
ATOM      9  C   UNL     1      19.362  -2.741 -25.438  1.00  0.00     0.041 C 
ATOM     10  O   UNL     1      18.412  -2.710 -24.613  1.00  0.00    -0.550 OA
ATOM     11  O   UNL     1      19.480  -3.815 -26.313  1.00  0.00    -0.550 OA
ENDBRANCH   8   9
ENDBRANCH   7   8
ENDBRANCH   6   7
ENDBRANCH   5   6
ENDBRANCH   4   5
ENDBRANCH   3   4
ENDBRANCH   2   3
ENDBRANCH   1   2
BRANCH   1  12
ATOM     12  C   UNL     1      17.162   1.560 -22.758  1.00  0.00     0.000 C 
BRANCH  12  13
ATOM     13  C   UNL     1      18.666   1.753 -22.505  1.00  0.00    -0.000 C 
BRANCH  13  14
ATOM     14  C   UNL     1      19.382   0.432 -22.183  1.00  0.00    -0.000 C 
BRANCH  14  15
ATOM     15  C   UNL     1      19.461   0.156 -20.672  1.00  0.00    -0.000 C 
BRANCH  15  16
ATOM     16  C   UNL     1      20.828   0.527 -20.075  1.00  0.00    -0.000 C 
BRANCH  16  17
ATOM     17  C   UNL     1      21.170  -0.301 -18.825  1.00  0.00    -0.000 C 
BRANCH  17  18
ATOM     18  C   UNL     1      20.230  -0.009 -17.645  1.00  0.00    -0.000 C 
BRANCH  18  19
ATOM     19  C   UNL     1      19.722  -1.287 -16.965  1.00  0.00    -0.003 C 
ATOM     20  C   UNL     1      19.717  -2.463 -17.937  1.00  0.00     0.004 C 
ENDBRANCH  18  19
ENDBRANCH  17  18
ENDBRANCH  16  17
ENDBRANCH  15  16
ENDBRANCH  14  15
ENDBRANCH  13  14
ENDBRANCH  12  13
ENDBRANCH   1  12
TORSDOF 16
ENDMDL
