MODEL 1
REMARK VINA RESULT:    -5.509      0.000      0.000
REMARK INTER + INTRA:          -7.180
REMARK INTER:                  -6.797
REMARK INTRA:                  -0.383
REMARK UNBOUND:                -0.383
REMARK SMILES Oc1cc(O)c2cc(O)c(-c3cc(O)c(O)c(O)c3)[o+]c2c1
REMARK SMILES IDX 10 1 20 2 21 3 22 4 2 5 3 6 4 7 6 8 7 9 8 10 11 11 12 12
REMARK SMILES IDX 13 13 19 14 15 15 17 16 14 17 16 19 18 21 9 23 1 25 5 27
REMARK H PARENT 14 18 16 20 18 22 9 24 1 26 5 28
REMARK Flexibility Score: inf
ROOT
ATOM      1  C   UNL     1     -21.761  25.839 -16.314  1.00  0.00     0.402 A 
ATOM      2  O   UNL     1     -20.646  26.450 -15.920  1.00  0.00    -0.202 OA
ATOM      3  C   UNL     1     -19.575  26.582 -16.694  1.00  0.00     0.368 A 
ATOM      4  C   UNL     1     -18.451  27.244 -16.192  1.00  0.00     0.162 A 
ATOM      5  C   UNL     1     -17.313  27.401 -16.984  1.00  0.00     0.128 A 
ATOM      6  C   UNL     1     -17.295  26.893 -18.287  1.00  0.00     0.093 A 
ATOM      7  C   UNL     1     -18.408  26.225 -18.813  1.00  0.00     0.136 A 
ATOM      8  C   UNL     1     -19.567  26.062 -18.011  1.00  0.00     0.125 A 
ATOM      9  C   UNL     1     -20.723  25.396 -18.451  1.00  0.00     0.078 A 
ATOM     10  C   UNL     1     -21.825  25.270 -17.599  1.00  0.00     0.223 A 
ENDROOT
BRANCH   1  11
ATOM     11  C   UNL     1     -22.893  25.764 -15.361  1.00  0.00     0.091 A 
ATOM     12  C   UNL     1     -23.914  26.730 -15.361  1.00  0.00     0.068 A 
ATOM     13  C   UNL     1     -24.965  26.656 -14.437  1.00  0.00     0.162 A 
ATOM     14  C   UNL     1     -22.920  24.743 -14.400  1.00  0.00     0.068 A 
ATOM     15  C   UNL     1     -24.995  25.615 -13.493  1.00  0.00     0.200 A 
ATOM     16  C   UNL     1     -23.969  24.661 -13.475  1.00  0.00     0.162 A 
BRANCH  13  17
ATOM     17  O   UNL     1     -25.977  27.614 -14.450  1.00  0.00    -0.504 OA
ATOM     18  H   UNL     1     -26.046  28.322 -13.727  1.00  0.00     0.293 HD
ENDBRANCH  13  17
BRANCH  15  19
ATOM     19  O   UNL     1     -26.033  25.518 -12.567  1.00  0.00    -0.502 OA
ATOM     20  H   UNL     1     -26.066  26.090 -11.731  1.00  0.00     0.293 HD
ENDBRANCH  15  19
BRANCH  16  21
ATOM     21  O   UNL     1     -23.998  23.637 -12.531  1.00  0.00    -0.504 OA
ATOM     22  H   UNL     1     -24.162  22.673 -12.799  1.00  0.00     0.293 HD
ENDBRANCH  16  21
ENDBRANCH   1  11
BRANCH  10  23
ATOM     23  O   UNL     1     -22.955  24.567 -18.017  1.00  0.00    -0.500 OA
ATOM     24  H   UNL     1     -23.022  23.560 -17.920  1.00  0.00     0.294 HD
ENDBRANCH  10  23
BRANCH   5  25
ATOM     25  O   UNL     1     -16.202  28.063 -16.465  1.00  0.00    -0.507 OA
ATOM     26  H   UNL     1     -16.272  28.652 -15.644  1.00  0.00     0.293 HD
ENDBRANCH   5  25
BRANCH   7  27
ATOM     27  O   UNL     1     -18.312  25.750 -20.125  1.00  0.00    -0.507 OA
ATOM     28  H   UNL     1     -17.853  24.889 -20.387  1.00  0.00     0.293 HD
ENDBRANCH   7  27
TORSDOF 7
ENDMDL
MODEL 2
REMARK VINA RESULT:    -5.493      0.092      1.791
REMARK INTER + INTRA:          -7.161
REMARK INTER:                  -6.785
REMARK INTRA:                  -0.376
REMARK UNBOUND:                -0.383
REMARK SMILES Oc1cc(O)c2cc(O)c(-c3cc(O)c(O)c(O)c3)[o+]c2c1
REMARK SMILES IDX 10 1 20 2 21 3 22 4 2 5 3 6 4 7 6 8 7 9 8 10 11 11 12 12
REMARK SMILES IDX 13 13 19 14 15 15 17 16 14 17 16 19 18 21 9 23 1 25 5 27
REMARK H PARENT 14 18 16 20 18 22 9 24 1 26 5 28
REMARK Flexibility Score: inf
ROOT
ATOM      1  C   UNL     1     -21.789  25.840 -16.228  1.00  0.00     0.402 A 
ATOM      2  O   UNL     1     -20.667  26.457 -15.866  1.00  0.00    -0.202 OA
ATOM      3  C   UNL     1     -19.616  26.589 -16.667  1.00  0.00     0.368 A 
ATOM      4  C   UNL     1     -18.482  27.257 -16.197  1.00  0.00     0.162 A 
ATOM      5  C   UNL     1     -17.365  27.413 -17.018  1.00  0.00     0.128 A 
ATOM      6  C   UNL     1     -17.378  26.899 -18.319  1.00  0.00     0.093 A 
ATOM      7  C   UNL     1     -18.502  26.225 -18.813  1.00  0.00     0.136 A 
ATOM      8  C   UNL     1     -19.640  26.062 -17.981  1.00  0.00     0.125 A 
ATOM      9  C   UNL     1     -20.804  25.390 -18.388  1.00  0.00     0.078 A 
ATOM     10  C   UNL     1     -21.884  25.265 -17.509  1.00  0.00     0.223 A 
ENDROOT
BRANCH   1  11
ATOM     11  C   UNL     1     -22.897  25.766 -15.247  1.00  0.00     0.091 A 
ATOM     12  C   UNL     1     -22.971  24.726 -14.305  1.00  0.00     0.068 A 
ATOM     13  C   UNL     1     -24.038  24.660 -13.399  1.00  0.00     0.162 A 
ATOM     14  C   UNL     1     -23.923  26.721 -15.292  1.00  0.00     0.068 A 
ATOM     15  C   UNL     1     -25.050  25.634 -13.438  1.00  0.00     0.200 A 
ATOM     16  C   UNL     1     -24.992  26.662 -14.387  1.00  0.00     0.162 A 
BRANCH  13  17
ATOM     17  O   UNL     1     -24.101  23.627 -12.464  1.00  0.00    -0.504 OA
ATOM     18  H   UNL     1     -24.703  23.684 -11.651  1.00  0.00     0.293 HD
ENDBRANCH  13  17
BRANCH  15  19
ATOM     19  O   UNL     1     -26.120  25.593 -12.543  1.00  0.00    -0.502 OA
ATOM     20  H   UNL     1     -26.092  25.040 -11.695  1.00  0.00     0.293 HD
ENDBRANCH  15  19
BRANCH  16  21
ATOM     21  O   UNL     1     -26.002  27.621 -14.428  1.00  0.00    -0.504 OA
ATOM     22  H   UNL     1     -26.781  27.600 -13.779  1.00  0.00     0.293 HD
ENDBRANCH  16  21
ENDBRANCH   1  11
BRANCH  10  23
ATOM     23  O   UNL     1     -23.021  24.555 -17.895  1.00  0.00    -0.500 OA
ATOM     24  H   UNL     1     -23.000  23.553 -18.042  1.00  0.00     0.294 HD
ENDBRANCH  10  23
BRANCH   5  25
ATOM     25  O   UNL     1     -16.244  28.082 -16.531  1.00  0.00    -0.507 OA
ATOM     26  H   UNL     1     -16.180  29.093 -16.551  1.00  0.00     0.293 HD
ENDBRANCH   5  25
BRANCH   7  27
ATOM     27  O   UNL     1     -18.438  25.743 -20.125  1.00  0.00    -0.507 OA
ATOM     28  H   UNL     1     -18.991  26.100 -20.890  1.00  0.00     0.293 HD
ENDBRANCH   7  27
TORSDOF 7
ENDMDL
MODEL 3
REMARK VINA RESULT:    -5.396      1.512      6.983
REMARK INTER + INTRA:          -7.041
REMARK INTER:                  -7.254
REMARK INTRA:                   0.214
REMARK UNBOUND:                -0.383
REMARK SMILES Oc1cc(O)c2cc(O)c(-c3cc(O)c(O)c(O)c3)[o+]c2c1
REMARK SMILES IDX 10 1 20 2 21 3 22 4 2 5 3 6 4 7 6 8 7 9 8 10 11 11 12 12
REMARK SMILES IDX 13 13 19 14 15 15 17 16 14 17 16 19 18 21 9 23 1 25 5 27
REMARK H PARENT 14 18 16 20 18 22 9 24 1 26 5 28
REMARK Flexibility Score: inf
ROOT
ATOM      1  C   UNL     1     -21.600  25.545 -16.886  1.00  0.00     0.402 A 
ATOM      2  O   UNL     1     -22.309  26.321 -16.070  1.00  0.00    -0.202 OA
ATOM      3  C   UNL     1     -23.525  26.007 -15.637  1.00  0.00     0.368 A 
ATOM      4  C   UNL     1     -24.190  26.887 -14.779  1.00  0.00     0.162 A 
ATOM      5  C   UNL     1     -25.467  26.581 -14.306  1.00  0.00     0.128 A 
ATOM      6  C   UNL     1     -26.086  25.388 -14.693  1.00  0.00     0.093 A 
ATOM      7  C   UNL     1     -25.441  24.490 -15.553  1.00  0.00     0.136 A 
ATOM      8  C   UNL     1     -24.143  24.798 -16.037  1.00  0.00     0.125 A 
ATOM      9  C   UNL     1     -23.427  23.964 -16.911  1.00  0.00     0.078 A 
ATOM     10  C   UNL     1     -22.153  24.338 -17.351  1.00  0.00     0.223 A 
ENDROOT
BRANCH   1  11
ATOM     11  C   UNL     1     -20.250  26.002 -17.290  1.00  0.00     0.091 A 
ATOM     12  C   UNL     1     -19.698  25.644 -18.532  1.00  0.00     0.068 A 
ATOM     13  C   UNL     1     -18.411  26.066 -18.888  1.00  0.00     0.162 A 
ATOM     14  C   UNL     1     -19.481  26.760 -16.395  1.00  0.00     0.068 A 
ATOM     15  C   UNL     1     -17.657  26.844 -17.992  1.00  0.00     0.200 A 
ATOM     16  C   UNL     1     -18.194  27.187 -16.745  1.00  0.00     0.162 A 
BRANCH  13  17
ATOM     17  O   UNL     1     -17.874  25.711 -20.125  1.00  0.00    -0.504 OA
ATOM     18  H   UNL     1     -16.903  25.892 -20.353  1.00  0.00     0.293 HD
ENDBRANCH  13  17
BRANCH  15  19
ATOM     19  O   UNL     1     -16.375  27.280 -18.326  1.00  0.00    -0.502 OA
ATOM     20  H   UNL     1     -16.173  27.741 -19.205  1.00  0.00     0.293 HD
ENDBRANCH  15  19
BRANCH  16  21
ATOM     21  O   UNL     1     -17.439  27.951 -15.857  1.00  0.00    -0.504 OA
ATOM     22  H   UNL     1     -17.806  28.802 -15.444  1.00  0.00     0.293 HD
ENDBRANCH  16  21
ENDBRANCH   1  11
BRANCH  10  23
ATOM     23  O   UNL     1     -21.462  23.534 -18.258  1.00  0.00    -0.500 OA
ATOM     24  H   UNL     1     -21.603  22.531 -18.296  1.00  0.00     0.294 HD
ENDBRANCH  10  23
BRANCH   5  25
ATOM     25  O   UNL     1     -26.113  27.471 -13.452  1.00  0.00    -0.507 OA
ATOM     26  H   UNL     1     -25.641  27.877 -12.653  1.00  0.00     0.293 HD
ENDBRANCH   5  25
BRANCH   7  27
ATOM     27  O   UNL     1     -26.125  23.318 -15.890  1.00  0.00    -0.507 OA
ATOM     28  H   UNL     1     -26.871  23.269 -16.568  1.00  0.00     0.293 HD
ENDBRANCH   7  27
TORSDOF 7
ENDMDL
MODEL 4
REMARK VINA RESULT:    -5.329      3.920      8.046
REMARK INTER + INTRA:          -6.958
REMARK INTER:                  -6.920
REMARK INTRA:                  -0.038
REMARK UNBOUND:                -0.383
REMARK SMILES Oc1cc(O)c2cc(O)c(-c3cc(O)c(O)c(O)c3)[o+]c2c1
REMARK SMILES IDX 10 1 20 2 21 3 22 4 2 5 3 6 4 7 6 8 7 9 8 10 11 11 12 12
REMARK SMILES IDX 13 13 19 14 15 15 17 16 14 17 16 19 18 21 9 23 1 25 5 27
REMARK H PARENT 14 18 16 20 18 22 9 24 1 26 5 28
REMARK Flexibility Score: inf
ROOT
ATOM      1  C   UNL     1     -25.174  25.107 -13.693  1.00  0.00     0.402 A 
ATOM      2  O   UNL     1     -25.211  24.364 -12.590  1.00  0.00    -0.202 OA
ATOM      3  C   UNL     1     -25.437  24.864 -11.381  1.00  0.00     0.368 A 
ATOM      4  C   UNL     1     -25.460  24.002 -10.282  1.00  0.00     0.162 A 
ATOM      5  C   UNL     1     -25.698  24.499  -9.000  1.00  0.00     0.128 A 
ATOM      6  C   UNL     1     -25.915  25.868  -8.812  1.00  0.00     0.093 A 
ATOM      7  C   UNL     1     -25.896  26.754  -9.898  1.00  0.00     0.136 A 
ATOM      8  C   UNL     1     -25.653  26.252 -11.202  1.00  0.00     0.125 A 
ATOM      9  C   UNL     1     -25.604  27.067 -12.346  1.00  0.00     0.078 A 
ATOM     10  C   UNL     1     -25.352  26.500 -13.600  1.00  0.00     0.223 A 
ENDROOT
BRANCH   1  11
ATOM     11  C   UNL     1     -24.923  24.430 -14.987  1.00  0.00     0.091 A 
ATOM     12  C   UNL     1     -25.656  23.294 -15.372  1.00  0.00     0.068 A 
ATOM     13  C   UNL     1     -25.389  22.652 -16.588  1.00  0.00     0.162 A 
ATOM     14  C   UNL     1     -23.896  24.895 -15.822  1.00  0.00     0.068 A 
ATOM     15  C   UNL     1     -24.373  23.140 -17.428  1.00  0.00     0.200 A 
ATOM     16  C   UNL     1     -23.626  24.260 -17.041  1.00  0.00     0.162 A 
BRANCH  13  17
ATOM     17  O   UNL     1     -26.125  21.530 -16.965  1.00  0.00    -0.504 OA
ATOM     18  H   UNL     1     -25.862  20.598 -16.665  1.00  0.00     0.293 HD
ENDBRANCH  13  17
BRANCH  15  19
ATOM     19  O   UNL     1     -24.092  22.522 -18.646  1.00  0.00    -0.502 OA
ATOM     20  H   UNL     1     -24.772  22.470 -19.395  1.00  0.00     0.293 HD
ENDBRANCH  15  19
BRANCH  16  21
ATOM     21  O   UNL     1     -22.614  24.734 -17.873  1.00  0.00    -0.504 OA
ATOM     22  H   UNL     1     -21.978  24.104 -18.348  1.00  0.00     0.293 HD
ENDBRANCH  16  21
ENDBRANCH   1  11
BRANCH  10  23
ATOM     23  O   UNL     1     -25.255  27.314 -14.728  1.00  0.00    -0.500 OA
ATOM     24  H   UNL     1     -25.112  28.315 -14.652  1.00  0.00     0.294 HD
ENDBRANCH  10  23
BRANCH   5  25
ATOM     25  O   UNL     1     -25.717  23.623  -7.917  1.00  0.00    -0.507 OA
ATOM     26  H   UNL     1     -25.308  23.875  -7.024  1.00  0.00     0.293 HD
ENDBRANCH   5  25
BRANCH   7  27
ATOM     27  O   UNL     1     -26.125  28.106  -9.628  1.00  0.00    -0.507 OA
ATOM     28  H   UNL     1     -26.258  28.814 -10.336  1.00  0.00     0.293 HD
ENDBRANCH   7  27
TORSDOF 7
ENDMDL
MODEL 5
REMARK VINA RESULT:    -5.247      3.983      5.857
REMARK INTER + INTRA:          -6.857
REMARK INTER:                  -6.918
REMARK INTRA:                   0.060
REMARK UNBOUND:                -0.383
REMARK SMILES Oc1cc(O)c2cc(O)c(-c3cc(O)c(O)c(O)c3)[o+]c2c1
REMARK SMILES IDX 10 1 20 2 21 3 22 4 2 5 3 6 4 7 6 8 7 9 8 10 11 11 12 12
REMARK SMILES IDX 13 13 19 14 15 15 17 16 14 17 16 19 18 21 9 23 1 25 5 27
REMARK H PARENT 14 18 16 20 18 22 9 24 1 26 5 28
REMARK Flexibility Score: inf
ROOT
ATOM      1  C   UNL     1     -23.804  23.159 -16.876  1.00  0.00     0.402 A 
ATOM      2  O   UNL     1     -22.736  23.735 -17.423  1.00  0.00    -0.202 OA
ATOM      3  C   UNL     1     -22.384  24.993 -17.187  1.00  0.00     0.368 A 
ATOM      4  C   UNL     1     -21.243  25.508 -17.807  1.00  0.00     0.162 A 
ATOM      5  C   UNL     1     -20.847  26.826 -17.575  1.00  0.00     0.128 A 
ATOM      6  C   UNL     1     -21.597  27.637 -16.716  1.00  0.00     0.093 A 
ATOM      7  C   UNL     1     -22.745  27.145 -16.082  1.00  0.00     0.136 A 
ATOM      8  C   UNL     1     -23.151  25.806 -16.318  1.00  0.00     0.125 A 
ATOM      9  C   UNL     1     -24.294  25.233 -15.736  1.00  0.00     0.078 A 
ATOM     10  C   UNL     1     -24.634  23.906 -16.021  1.00  0.00     0.223 A 
ENDROOT
BRANCH   1  11
ATOM     11  C   UNL     1     -24.086  21.744 -17.211  1.00  0.00     0.091 A 
ATOM     12  C   UNL     1     -24.582  20.849 -16.247  1.00  0.00     0.068 A 
ATOM     13  C   UNL     1     -24.821  19.508 -16.576  1.00  0.00     0.162 A 
ATOM     14  C   UNL     1     -23.800  21.269 -18.499  1.00  0.00     0.068 A 
ATOM     15  C   UNL     1     -24.553  19.048 -17.877  1.00  0.00     0.200 A 
ATOM     16  C   UNL     1     -24.040  19.931 -18.836  1.00  0.00     0.162 A 
BRANCH  13  17
ATOM     17  O   UNL     1     -25.320  18.629 -15.616  1.00  0.00    -0.504 OA
ATOM     18  H   UNL     1     -25.215  18.812 -14.624  1.00  0.00     0.293 HD
ENDBRANCH  13  17
BRANCH  15  19
ATOM     19  O   UNL     1     -24.788  17.719 -18.230  1.00  0.00    -0.502 OA
ATOM     20  H   UNL     1     -25.665  17.254 -18.027  1.00  0.00     0.293 HD
ENDBRANCH  15  19
BRANCH  16  21
ATOM     21  O   UNL     1     -23.767  19.468 -20.122  1.00  0.00    -0.504 OA
ATOM     22  H   UNL     1     -24.456  18.952 -20.658  1.00  0.00     0.293 HD
ENDBRANCH  16  21
ENDBRANCH   1  11
BRANCH  10  23
ATOM     23  O   UNL     1     -25.796  23.352 -15.483  1.00  0.00    -0.500 OA
ATOM     24  H   UNL     1     -25.945  23.294 -14.482  1.00  0.00     0.294 HD
ENDBRANCH  10  23
BRANCH   5  25
ATOM     25  O   UNL     1     -19.707  27.321 -18.203  1.00  0.00    -0.507 OA
ATOM     26  H   UNL     1     -18.796  27.276 -17.761  1.00  0.00     0.293 HD
ENDBRANCH   5  25
BRANCH   7  27
ATOM     27  O   UNL     1     -23.436  28.017 -15.236  1.00  0.00    -0.507 OA
ATOM     28  H   UNL     1     -24.305  28.473 -15.475  1.00  0.00     0.293 HD
ENDBRANCH   7  27
TORSDOF 7
ENDMDL
MODEL 6
REMARK VINA RESULT:    -5.173      4.225      6.881
REMARK INTER + INTRA:          -6.766
REMARK INTER:                  -6.383
REMARK INTRA:                  -0.382
REMARK UNBOUND:                -0.383
REMARK SMILES Oc1cc(O)c2cc(O)c(-c3cc(O)c(O)c(O)c3)[o+]c2c1
REMARK SMILES IDX 10 1 20 2 21 3 22 4 2 5 3 6 4 7 6 8 7 9 8 10 11 11 12 12
REMARK SMILES IDX 13 13 19 14 15 15 17 16 14 17 16 19 18 21 9 23 1 25 5 27
REMARK H PARENT 14 18 16 20 18 22 9 24 1 26 5 28
REMARK Flexibility Score: inf
ROOT
ATOM      1  C   UNL     1     -24.030  22.839 -16.449  1.00  0.00     0.402 A 
ATOM      2  O   UNL     1     -23.600  21.951 -15.556  1.00  0.00    -0.202 OA
ATOM      3  C   UNL     1     -23.780  20.641 -15.685  1.00  0.00     0.368 A 
ATOM      4  C   UNL     1     -23.289  19.787 -14.694  1.00  0.00     0.162 A 
ATOM      5  C   UNL     1     -23.459  18.407 -14.805  1.00  0.00     0.128 A 
ATOM      6  C   UNL     1     -24.126  17.874 -15.914  1.00  0.00     0.093 A 
ATOM      7  C   UNL     1     -24.627  18.709 -16.920  1.00  0.00     0.136 A 
ATOM      8  C   UNL     1     -24.457  20.113 -16.810  1.00  0.00     0.125 A 
ATOM      9  C   UNL     1     -24.937  21.026 -17.764  1.00  0.00     0.078 A 
ATOM     10  C   UNL     1     -24.736  22.399 -17.583  1.00  0.00     0.223 A 
ENDROOT
BRANCH   1  11
ATOM     11  C   UNL     1     -23.760  24.274 -16.196  1.00  0.00     0.091 A 
ATOM     12  C   UNL     1     -22.632  24.913 -16.741  1.00  0.00     0.068 A 
ATOM     13  C   UNL     1     -22.380  26.264 -16.472  1.00  0.00     0.162 A 
ATOM     14  C   UNL     1     -24.613  24.999 -15.352  1.00  0.00     0.068 A 
ATOM     15  C   UNL     1     -23.254  26.988 -15.643  1.00  0.00     0.200 A 
ATOM     16  C   UNL     1     -24.368  26.351 -15.081  1.00  0.00     0.162 A 
BRANCH  13  17
ATOM     17  O   UNL     1     -21.263  26.891 -17.022  1.00  0.00    -0.504 OA
ATOM     18  H   UNL     1     -20.412  27.024 -16.487  1.00  0.00     0.293 HD
ENDBRANCH  13  17
BRANCH  15  19
ATOM     19  O   UNL     1     -23.028  28.336 -15.365  1.00  0.00    -0.502 OA
ATOM     20  H   UNL     1     -22.866  28.673 -14.423  1.00  0.00     0.293 HD
ENDBRANCH  15  19
BRANCH  16  21
ATOM     21  O   UNL     1     -25.227  27.070 -14.252  1.00  0.00    -0.504 OA
ATOM     22  H   UNL     1     -26.180  27.280 -14.528  1.00  0.00     0.293 HD
ENDBRANCH  16  21
ENDBRANCH   1  11
BRANCH  10  23
ATOM     23  O   UNL     1     -25.256  23.308 -18.504  1.00  0.00    -0.500 OA
ATOM     24  H   UNL     1     -25.595  24.220 -18.220  1.00  0.00     0.294 HD
ENDBRANCH  10  23
BRANCH   5  25
ATOM     25  O   UNL     1     -22.963  17.571 -13.807  1.00  0.00    -0.507 OA
ATOM     26  H   UNL     1     -22.863  17.890 -12.850  1.00  0.00     0.293 HD
ENDBRANCH   5  25
BRANCH   7  27
ATOM     27  O   UNL     1     -25.278  18.099 -17.998  1.00  0.00    -0.507 OA
ATOM     28  H   UNL     1     -25.086  17.161 -18.322  1.00  0.00     0.293 HD
ENDBRANCH   7  27
TORSDOF 7
ENDMDL
MODEL 7
REMARK VINA RESULT:    -5.144      3.439      4.889
REMARK INTER + INTRA:          -6.730
REMARK INTER:                  -6.563
REMARK INTRA:                  -0.167
REMARK UNBOUND:                -0.383
REMARK SMILES Oc1cc(O)c2cc(O)c(-c3cc(O)c(O)c(O)c3)[o+]c2c1
REMARK SMILES IDX 10 1 20 2 21 3 22 4 2 5 3 6 4 7 6 8 7 9 8 10 11 11 12 12
REMARK SMILES IDX 13 13 19 14 15 15 17 16 14 17 16 19 18 21 9 23 1 25 5 27
REMARK H PARENT 14 18 16 20 18 22 9 24 1 26 5 28
REMARK Flexibility Score: inf
ROOT
ATOM      1  C   UNL     1     -21.524  23.370 -18.310  1.00  0.00     0.402 A 
ATOM      2  O   UNL     1     -20.281  23.053 -18.666  1.00  0.00    -0.202 OA
ATOM      3  C   UNL     1     -19.316  23.952 -18.827  1.00  0.00     0.368 A 
ATOM      4  C   UNL     1     -18.041  23.521 -19.200  1.00  0.00     0.162 A 
ATOM      5  C   UNL     1     -17.007  24.442 -19.373  1.00  0.00     0.128 A 
ATOM      6  C   UNL     1     -17.249  25.806 -19.173  1.00  0.00     0.093 A 
ATOM      7  C   UNL     1     -18.519  26.263 -18.800  1.00  0.00     0.136 A 
ATOM      8  C   UNL     1     -19.573  25.329 -18.624  1.00  0.00     0.125 A 
ATOM      9  C   UNL     1     -20.879  25.698 -18.263  1.00  0.00     0.078 A 
ATOM     10  C   UNL     1     -21.868  24.720 -18.115  1.00  0.00     0.223 A 
ENDROOT
BRANCH   1  11
ATOM     11  C   UNL     1     -22.508  22.274 -18.153  1.00  0.00     0.091 A 
ATOM     12  C   UNL     1     -23.215  22.092 -16.952  1.00  0.00     0.068 A 
ATOM     13  C   UNL     1     -24.125  21.037 -16.814  1.00  0.00     0.162 A 
ATOM     14  C   UNL     1     -22.701  21.364 -19.203  1.00  0.00     0.068 A 
ATOM     15  C   UNL     1     -24.328  20.143 -17.880  1.00  0.00     0.200 A 
ATOM     16  C   UNL     1     -23.612  20.307 -19.072  1.00  0.00     0.162 A 
BRANCH  13  17
ATOM     17  O   UNL     1     -24.827  20.868 -15.620  1.00  0.00    -0.504 OA
ATOM     18  H   UNL     1     -25.544  21.523 -15.329  1.00  0.00     0.293 HD
ENDBRANCH  13  17
BRANCH  15  19
ATOM     19  O   UNL     1     -25.233  19.087 -17.768  1.00  0.00    -0.502 OA
ATOM     20  H   UNL     1     -25.353  18.569 -16.906  1.00  0.00     0.293 HD
ENDBRANCH  15  19
BRANCH  16  21
ATOM     21  O   UNL     1     -23.810  19.414 -20.123  1.00  0.00    -0.504 OA
ATOM     22  H   UNL     1     -24.445  18.628 -20.040  1.00  0.00     0.293 HD
ENDBRANCH  16  21
ENDBRANCH   1  11
BRANCH  10  23
ATOM     23  O   UNL     1     -23.176  25.090 -17.805  1.00  0.00    -0.500 OA
ATOM     24  H   UNL     1     -23.793  24.479 -17.282  1.00  0.00     0.294 HD
ENDBRANCH  10  23
BRANCH   5  25
ATOM     25  O   UNL     1     -15.742  23.993 -19.746  1.00  0.00    -0.507 OA
ATOM     26  H   UNL     1     -15.531  23.740 -20.704  1.00  0.00     0.293 HD
ENDBRANCH   5  25
BRANCH   7  27
ATOM     27  O   UNL     1     -18.678  27.640 -18.615  1.00  0.00    -0.507 OA
ATOM     28  H   UNL     1     -19.154  28.059 -17.828  1.00  0.00     0.293 HD
ENDBRANCH   7  27
TORSDOF 7
ENDMDL
MODEL 8
REMARK VINA RESULT:    -5.107      2.607      3.717
REMARK INTER + INTRA:          -6.684
REMARK INTER:                  -6.335
REMARK INTRA:                  -0.349
REMARK UNBOUND:                -0.383
REMARK SMILES Oc1cc(O)c2cc(O)c(-c3cc(O)c(O)c(O)c3)[o+]c2c1
REMARK SMILES IDX 10 1 20 2 21 3 22 4 2 5 3 6 4 7 6 8 7 9 8 10 11 11 12 12
REMARK SMILES IDX 13 13 19 14 15 15 17 16 14 17 16 19 18 21 9 23 1 25 5 27
REMARK H PARENT 14 18 16 20 18 22 9 24 1 26 5 28
REMARK Flexibility Score: inf
ROOT
ATOM      1  C   UNL     1     -21.420  24.503 -17.147  1.00  0.00     0.402 A 
ATOM      2  O   UNL     1     -20.487  23.834 -17.818  1.00  0.00    -0.202 OA
ATOM      3  C   UNL     1     -19.360  24.389 -18.252  1.00  0.00     0.368 A 
ATOM      4  C   UNL     1     -18.438  23.602 -18.946  1.00  0.00     0.162 A 
ATOM      5  C   UNL     1     -17.245  24.157 -19.410  1.00  0.00     0.128 A 
ATOM      6  C   UNL     1     -16.970  25.510 -19.181  1.00  0.00     0.093 A 
ATOM      7  C   UNL     1     -17.879  26.320 -18.489  1.00  0.00     0.136 A 
ATOM      8  C   UNL     1     -19.094  25.759 -18.016  1.00  0.00     0.125 A 
ATOM      9  C   UNL     1     -20.068  26.498 -17.324  1.00  0.00     0.078 A 
ATOM     10  C   UNL     1     -21.244  25.876 -16.894  1.00  0.00     0.223 A 
ENDROOT
BRANCH   1  11
ATOM     11  C   UNL     1     -22.629  23.769 -16.707  1.00  0.00     0.091 A 
ATOM     12  C   UNL     1     -22.609  22.940 -15.573  1.00  0.00     0.068 A 
ATOM     13  C   UNL     1     -23.756  22.235 -15.186  1.00  0.00     0.162 A 
ATOM     14  C   UNL     1     -23.805  23.857 -17.468  1.00  0.00     0.068 A 
ATOM     15  C   UNL     1     -24.936  22.347 -15.942  1.00  0.00     0.200 A 
ATOM     16  C   UNL     1     -24.956  23.157 -17.085  1.00  0.00     0.162 A 
BRANCH  13  17
ATOM     17  O   UNL     1     -23.729  21.419 -14.055  1.00  0.00    -0.504 OA
ATOM     18  H   UNL     1     -24.138  21.716 -13.176  1.00  0.00     0.293 HD
ENDBRANCH  13  17
BRANCH  15  19
ATOM     19  O   UNL     1     -26.092  21.659 -15.573  1.00  0.00    -0.502 OA
ATOM     20  H   UNL     1     -27.018  22.040 -15.726  1.00  0.00     0.293 HD
ENDBRANCH  15  19
BRANCH  16  21
ATOM     21  O   UNL     1     -26.125  23.258 -17.837  1.00  0.00    -0.504 OA
ATOM     22  H   UNL     1     -26.139  23.725 -18.736  1.00  0.00     0.293 HD
ENDBRANCH  16  21
ENDBRANCH   1  11
BRANCH  10  23
ATOM     23  O   UNL     1     -22.233  26.620 -16.251  1.00  0.00    -0.500 OA
ATOM     24  H   UNL     1     -22.519  27.532 -16.589  1.00  0.00     0.294 HD
ENDBRANCH  10  23
BRANCH   5  25
ATOM     25  O   UNL     1     -16.338  23.356 -20.101  1.00  0.00    -0.507 OA
ATOM     26  H   UNL     1     -15.639  22.807 -19.614  1.00  0.00     0.293 HD
ENDBRANCH   5  25
BRANCH   7  27
ATOM     27  O   UNL     1     -17.529  27.660 -18.297  1.00  0.00    -0.507 OA
ATOM     28  H   UNL     1     -16.705  28.096 -18.687  1.00  0.00     0.293 HD
ENDBRANCH   7  27
TORSDOF 7
ENDMDL
