MODEL 1
REMARK VINA RESULT:    -7.009      0.000      0.000
REMARK INTER + INTRA:          -8.503
REMARK INTER:                  -8.238
REMARK INTRA:                  -0.265
REMARK UNBOUND:                -0.265
REMARK SMILES O=c1cc(-c2ccc(O)c(O)c2)oc2cc(O)cc(O)c12
REMARK SMILES IDX 4 1 3 2 2 3 1 4 21 5 19 6 18 7 16 8 15 9 14 10 13 11 5 12
REMARK SMILES IDX 6 13 7 14 8 15 12 16 10 17 9 18 11 20 20 22 17 24
REMARK H PARENT 9 19 11 21 20 23 17 25
REMARK Flexibility Score: inf
ROOT
ATOM      1  C   UNL     1      21.400   6.230  31.195  1.00  0.00     0.138 A 
ATOM      2  C   UNL     1      20.033   6.515  31.309  1.00  0.00     0.100 A 
ATOM      3  C   UNL     1      19.416   7.329  30.358  1.00  0.00     0.197 A 
ATOM      4  O   UNL     1      18.175   7.520  30.457  1.00  0.00    -0.289 OA
ATOM      5  C   UNL     1      20.181   7.888  29.307  1.00  0.00     0.107 A 
ATOM      6  C   UNL     1      19.666   8.759  28.299  1.00  0.00     0.134 A 
ATOM      7  C   UNL     1      20.499   9.171  27.251  1.00  0.00     0.093 A 
ATOM      8  C   UNL     1      21.843   8.791  27.206  1.00  0.00     0.123 A 
ATOM      9  C   UNL     1      22.367   7.983  28.212  1.00  0.00     0.094 A 
ATOM     10  C   UNL     1      21.553   7.526  29.252  1.00  0.00     0.146 A 
ATOM     11  O   UNL     1      22.090   6.742  30.180  1.00  0.00    -0.456 OA
ENDROOT
BRANCH   1  12
ATOM     12  C   UNL     1      22.109   5.375  32.180  1.00  0.00     0.021 A 
ATOM     13  C   UNL     1      23.117   5.890  33.018  1.00  0.00     0.016 A 
ATOM     14  C   UNL     1      23.760   5.063  33.943  1.00  0.00     0.051 A 
ATOM     15  C   UNL     1      23.403   3.713  34.055  1.00  0.00     0.157 A 
ATOM     16  C   UNL     1      21.747   4.021  32.309  1.00  0.00     0.062 A 
ATOM     17  C   UNL     1      22.390   3.192  33.234  1.00  0.00     0.158 A 
BRANCH  15  18
ATOM     18  O   UNL     1      24.049   2.893  34.978  1.00  0.00    -0.504 OA
ATOM     19  H   UNL     1      24.487   3.270  35.809  1.00  0.00     0.293 HD
ENDBRANCH  15  18
BRANCH  17  20
ATOM     20  O   UNL     1      22.009   1.853  33.323  1.00  0.00    -0.504 OA
ATOM     21  H   UNL     1      22.676   1.097  33.227  1.00  0.00     0.293 HD
ENDBRANCH  17  20
ENDBRANCH   1  12
BRANCH   6  22
ATOM     22  O   UNL     1      18.362   9.263  28.291  1.00  0.00    -0.507 OA
ATOM     23  H   UNL     1      17.730   9.251  29.076  1.00  0.00     0.293 HD
ENDBRANCH   6  22
BRANCH   8  24
ATOM     24  O   UNL     1      22.668   9.218  26.169  1.00  0.00    -0.508 OA
ATOM     25  H   UNL     1      22.293   9.683  25.350  1.00  0.00     0.293 HD
ENDBRANCH   8  24
TORSDOF 5
ENDMDL
MODEL 2
REMARK VINA RESULT:    -6.679     11.176     13.101
REMARK INTER + INTRA:          -8.116
REMARK INTER:                  -7.853
REMARK INTRA:                  -0.263
REMARK UNBOUND:                -0.265
REMARK SMILES O=c1cc(-c2ccc(O)c(O)c2)oc2cc(O)cc(O)c12
REMARK SMILES IDX 4 1 3 2 2 3 1 4 21 5 19 6 18 7 16 8 15 9 14 10 13 11 5 12
REMARK SMILES IDX 6 13 7 14 8 15 12 16 10 17 9 18 11 20 20 22 17 24
REMARK H PARENT 9 19 11 21 20 23 17 25
REMARK Flexibility Score: inf
ROOT
ATOM      1  C   UNL     1      27.720   0.864  23.040  1.00  0.00     0.138 A 
ATOM      2  C   UNL     1      27.531   0.598  21.677  1.00  0.00     0.100 A 
ATOM      3  C   UNL     1      28.124  -0.529  21.105  1.00  0.00     0.197 A 
ATOM      4  O   UNL     1      27.889  -0.770  19.892  1.00  0.00    -0.289 OA
ATOM      5  C   UNL     1      28.940  -1.372  21.895  1.00  0.00     0.107 A 
ATOM      6  C   UNL     1      29.624  -2.530  21.412  1.00  0.00     0.134 A 
ATOM      7  C   UNL     1      30.323  -3.344  22.312  1.00  0.00     0.093 A 
ATOM      8  C   UNL     1      30.413  -3.011  23.666  1.00  0.00     0.123 A 
ATOM      9  C   UNL     1      29.792  -1.857  24.137  1.00  0.00     0.094 A 
ATOM     10  C   UNL     1      29.057  -1.043  23.272  1.00  0.00     0.146 A 
ATOM     11  O   UNL     1      28.466   0.038  23.768  1.00  0.00    -0.456 OA
ENDROOT
BRANCH   1  12
ATOM     12  C   UNL     1      27.116   2.049  23.700  1.00  0.00     0.021 A 
ATOM     13  C   UNL     1      27.807   3.273  23.800  1.00  0.00     0.016 A 
ATOM     14  C   UNL     1      27.209   4.374  24.418  1.00  0.00     0.051 A 
ATOM     15  C   UNL     1      25.912   4.279  24.937  1.00  0.00     0.157 A 
ATOM     16  C   UNL     1      25.809   1.966  24.211  1.00  0.00     0.062 A 
ATOM     17  C   UNL     1      25.209   3.068  24.831  1.00  0.00     0.158 A 
BRANCH  15  18
ATOM     18  O   UNL     1      25.322   5.380  25.554  1.00  0.00    -0.504 OA
ATOM     19  H   UNL     1      24.700   5.276  26.347  1.00  0.00     0.293 HD
ENDBRANCH  15  18
BRANCH  17  20
ATOM     20  O   UNL     1      23.914   2.941  25.334  1.00  0.00    -0.504 OA
ATOM     21  H   UNL     1      23.151   2.588  24.771  1.00  0.00     0.293 HD
ENDBRANCH  17  20
ENDBRANCH   1  12
BRANCH   6  22
ATOM     22  O   UNL     1      29.666  -2.910  20.067  1.00  0.00    -0.507 OA
ATOM     23  H   UNL     1      30.039  -3.780  19.721  1.00  0.00     0.293 HD
ENDBRANCH   6  22
BRANCH   8  24
ATOM     24  O   UNL     1      31.125  -3.818  24.550  1.00  0.00    -0.508 OA
ATOM     25  H   UNL     1      31.919  -3.463  25.069  1.00  0.00     0.293 HD
ENDBRANCH   8  24
TORSDOF 5
ENDMDL
MODEL 3
REMARK VINA RESULT:    -6.576     10.602     12.630
REMARK INTER + INTRA:          -7.995
REMARK INTER:                  -7.725
REMARK INTRA:                  -0.270
REMARK UNBOUND:                -0.265
REMARK SMILES O=c1cc(-c2ccc(O)c(O)c2)oc2cc(O)cc(O)c12
REMARK SMILES IDX 4 1 3 2 2 3 1 4 21 5 19 6 18 7 16 8 15 9 14 10 13 11 5 12
REMARK SMILES IDX 6 13 7 14 8 15 12 16 10 17 9 18 11 20 20 22 17 24
REMARK H PARENT 9 19 11 21 20 23 17 25
REMARK Flexibility Score: inf
ROOT
ATOM      1  C   UNL     1      27.181   1.477  23.111  1.00  0.00     0.138 A 
ATOM      2  C   UNL     1      26.689   1.182  21.832  1.00  0.00     0.100 A 
ATOM      3  C   UNL     1      27.163   0.060  21.151  1.00  0.00     0.197 A 
ATOM      4  O   UNL     1      26.659  -0.207  20.029  1.00  0.00    -0.289 OA
ATOM      5  C   UNL     1      28.161  -0.751  21.740  1.00  0.00     0.107 A 
ATOM      6  C   UNL     1      28.745  -1.900  21.124  1.00  0.00     0.134 A 
ATOM      7  C   UNL     1      29.655  -2.682  21.846  1.00  0.00     0.093 A 
ATOM      8  C   UNL     1      30.047  -2.325  23.139  1.00  0.00     0.123 A 
ATOM      9  C   UNL     1      29.522  -1.177  23.729  1.00  0.00     0.094 A 
ATOM     10  C   UNL     1      28.585  -0.395  23.048  1.00  0.00     0.146 A 
ATOM     11  O   UNL     1      28.097   0.681  23.655  1.00  0.00    -0.456 OA
ENDROOT
BRANCH   1  12
ATOM     12  C   UNL     1      26.716   2.659  23.879  1.00  0.00     0.021 A 
ATOM     13  C   UNL     1      25.507   2.644  24.601  1.00  0.00     0.016 A 
ATOM     14  C   UNL     1      25.100   3.769  25.323  1.00  0.00     0.051 A 
ATOM     15  C   UNL     1      25.895   4.922  25.346  1.00  0.00     0.157 A 
ATOM     16  C   UNL     1      27.515   3.816  23.918  1.00  0.00     0.062 A 
ATOM     17  C   UNL     1      27.109   4.944  24.641  1.00  0.00     0.158 A 
BRANCH  15  18
ATOM     18  O   UNL     1      25.483   6.042  26.067  1.00  0.00    -0.504 OA
ATOM     19  H   UNL     1      24.605   6.056  26.571  1.00  0.00     0.293 HD
ENDBRANCH  15  18
BRANCH  17  20
ATOM     20  O   UNL     1      27.925   6.075  24.646  1.00  0.00    -0.504 OA
ATOM     21  H   UNL     1      28.563   6.280  23.888  1.00  0.00     0.293 HD
ENDBRANCH  17  20
ENDBRANCH   1  12
BRANCH   6  22
ATOM     22  O   UNL     1      28.484  -2.302  19.811  1.00  0.00    -0.507 OA
ATOM     23  H   UNL     1      28.865  -3.124  19.369  1.00  0.00     0.293 HD
ENDBRANCH   6  22
BRANCH   8  24
ATOM     24  O   UNL     1      30.964  -3.100  23.843  1.00  0.00    -0.508 OA
ATOM     25  H   UNL     1      30.891  -3.229  24.846  1.00  0.00     0.293 HD
ENDBRANCH   8  24
TORSDOF 5
ENDMDL
MODEL 4
REMARK VINA RESULT:    -6.476     11.584     13.332
REMARK INTER + INTRA:          -7.877
REMARK INTER:                  -7.607
REMARK INTRA:                  -0.270
REMARK UNBOUND:                -0.265
REMARK SMILES O=c1cc(-c2ccc(O)c(O)c2)oc2cc(O)cc(O)c12
REMARK SMILES IDX 4 1 3 2 2 3 1 4 21 5 19 6 18 7 16 8 15 9 14 10 13 11 5 12
REMARK SMILES IDX 6 13 7 14 8 15 12 16 10 17 9 18 11 20 20 22 17 24
REMARK H PARENT 9 19 11 21 20 23 17 25
REMARK Flexibility Score: inf
ROOT
ATOM      1  C   UNL     1      27.906   0.828  22.604  1.00  0.00     0.138 A 
ATOM      2  C   UNL     1      28.924   0.028  23.140  1.00  0.00     0.100 A 
ATOM      3  C   UNL     1      29.404  -1.059  22.409  1.00  0.00     0.197 A 
ATOM      4  O   UNL     1      30.357  -1.724  22.894  1.00  0.00    -0.289 OA
ATOM      5  C   UNL     1      28.837  -1.367  21.150  1.00  0.00     0.107 A 
ATOM      6  C   UNL     1      29.224  -2.471  20.330  1.00  0.00     0.134 A 
ATOM      7  C   UNL     1      28.659  -2.617  19.057  1.00  0.00     0.093 A 
ATOM      8  C   UNL     1      27.680  -1.732  18.597  1.00  0.00     0.123 A 
ATOM      9  C   UNL     1      27.259  -0.682  19.409  1.00  0.00     0.094 A 
ATOM     10  C   UNL     1      27.829  -0.489  20.670  1.00  0.00     0.146 A 
ATOM     11  O   UNL     1      27.412   0.537  21.404  1.00  0.00    -0.456 OA
ENDROOT
BRANCH   1  12
ATOM     12  C   UNL     1      27.354   1.994  23.339  1.00  0.00     0.021 A 
ATOM     13  C   UNL     1      28.087   3.186  23.495  1.00  0.00     0.016 A 
ATOM     14  C   UNL     1      27.537   4.271  24.182  1.00  0.00     0.051 A 
ATOM     15  C   UNL     1      26.245   4.189  24.718  1.00  0.00     0.157 A 
ATOM     16  C   UNL     1      26.052   1.925  23.867  1.00  0.00     0.062 A 
ATOM     17  C   UNL     1      25.499   3.011  24.557  1.00  0.00     0.158 A 
BRANCH  15  18
ATOM     18  O   UNL     1      25.702   5.274  25.404  1.00  0.00    -0.504 OA
ATOM     19  H   UNL     1      26.155   6.180  25.411  1.00  0.00     0.293 HD
ENDBRANCH  15  18
BRANCH  17  20
ATOM     20  O   UNL     1      24.209   2.898  25.075  1.00  0.00    -0.504 OA
ATOM     21  H   UNL     1      23.985   2.256  25.825  1.00  0.00     0.293 HD
ENDBRANCH  17  20
ENDBRANCH   1  12
BRANCH   6  22
ATOM     22  O   UNL     1      30.134  -3.457  20.723  1.00  0.00    -0.507 OA
ATOM     23  H   UNL     1      31.100  -3.501  20.441  1.00  0.00     0.293 HD
ENDBRANCH   6  22
BRANCH   8  24
ATOM     24  O   UNL     1      27.112  -1.895  17.336  1.00  0.00    -0.508 OA
ATOM     25  H   UNL     1      26.291  -1.372  17.053  1.00  0.00     0.293 HD
ENDBRANCH   8  24
TORSDOF 5
ENDMDL
MODEL 5
REMARK VINA RESULT:    -6.451      1.105      2.688
REMARK INTER + INTRA:          -7.848
REMARK INTER:                  -7.584
REMARK INTRA:                  -0.264
REMARK UNBOUND:                -0.265
REMARK SMILES O=c1cc(-c2ccc(O)c(O)c2)oc2cc(O)cc(O)c12
REMARK SMILES IDX 4 1 3 2 2 3 1 4 21 5 19 6 18 7 16 8 15 9 14 10 13 11 5 12
REMARK SMILES IDX 6 13 7 14 8 15 12 16 10 17 9 18 11 20 20 22 17 24
REMARK H PARENT 9 19 11 21 20 23 17 25
REMARK Flexibility Score: inf
ROOT
ATOM      1  C   UNL     1      22.329   6.294  30.577  1.00  0.00     0.138 A 
ATOM      2  C   UNL     1      23.392   6.513  29.690  1.00  0.00     0.100 A 
ATOM      3  C   UNL     1      23.207   7.338  28.580  1.00  0.00     0.197 A 
ATOM      4  O   UNL     1      24.197   7.558  27.835  1.00  0.00    -0.289 OA
ATOM      5  C   UNL     1      21.939   7.918  28.338  1.00  0.00     0.107 A 
ATOM      6  C   UNL     1      21.624   8.749  27.220  1.00  0.00     0.134 A 
ATOM      7  C   UNL     1      20.361   9.348  27.139  1.00  0.00     0.093 A 
ATOM      8  C   UNL     1      19.382   9.100  28.105  1.00  0.00     0.123 A 
ATOM      9  C   UNL     1      19.663   8.250  29.172  1.00  0.00     0.094 A 
ATOM     10  C   UNL     1      20.925   7.666  29.300  1.00  0.00     0.146 A 
ATOM     11  O   UNL     1      21.156   6.877  30.344  1.00  0.00    -0.456 OA
ENDROOT
BRANCH   1  12
ATOM     12  C   UNL     1      22.467   5.423  31.770  1.00  0.00     0.021 A 
ATOM     13  C   UNL     1      22.918   5.926  33.006  1.00  0.00     0.016 A 
ATOM     14  C   UNL     1      23.029   5.084  34.116  1.00  0.00     0.051 A 
ATOM     15  C   UNL     1      22.684   3.730  34.015  1.00  0.00     0.157 A 
ATOM     16  C   UNL     1      22.109   4.065  31.682  1.00  0.00     0.062 A 
ATOM     17  C   UNL     1      22.220   3.220  32.792  1.00  0.00     0.158 A 
BRANCH  15  18
ATOM     18  O   UNL     1      22.797   2.894  35.125  1.00  0.00    -0.504 OA
ATOM     19  H   UNL     1      22.355   1.983  35.151  1.00  0.00     0.293 HD
ENDBRANCH  15  18
BRANCH  17  20
ATOM     20  O   UNL     1      21.865   1.878  32.659  1.00  0.00    -0.504 OA
ATOM     21  H   UNL     1      22.364   1.140  33.141  1.00  0.00     0.293 HD
ENDBRANCH  17  20
ENDBRANCH   1  12
BRANCH   6  22
ATOM     22  O   UNL     1      22.500   9.000  26.159  1.00  0.00    -0.507 OA
ATOM     23  H   UNL     1      22.389   8.651  25.220  1.00  0.00     0.293 HD
ENDBRANCH   6  22
BRANCH   8  24
ATOM     24  O   UNL     1      18.123   9.687  28.008  1.00  0.00    -0.508 OA
ATOM     25  H   UNL     1      17.410   9.532  28.712  1.00  0.00     0.293 HD
ENDBRANCH   8  24
TORSDOF 5
ENDMDL
MODEL 6
REMARK VINA RESULT:    -6.159     11.028     12.818
REMARK INTER + INTRA:          -7.505
REMARK INTER:                  -7.236
REMARK INTRA:                  -0.269
REMARK UNBOUND:                -0.265
REMARK SMILES O=c1cc(-c2ccc(O)c(O)c2)oc2cc(O)cc(O)c12
REMARK SMILES IDX 4 1 3 2 2 3 1 4 21 5 19 6 18 7 16 8 15 9 14 10 13 11 5 12
REMARK SMILES IDX 6 13 7 14 8 15 12 16 10 17 9 18 11 20 20 22 17 24
REMARK H PARENT 9 19 11 21 20 23 17 25
REMARK Flexibility Score: inf
ROOT
ATOM      1  C   UNL     1      28.221   0.945  22.030  1.00  0.00     0.138 A 
ATOM      2  C   UNL     1      29.161   1.983  21.970  1.00  0.00     0.100 A 
ATOM      3  C   UNL     1      28.949   3.150  22.705  1.00  0.00     0.197 A 
ATOM      4  O   UNL     1      29.839   4.039  22.674  1.00  0.00    -0.289 OA
ATOM      5  C   UNL     1      27.770   3.292  23.475  1.00  0.00     0.107 A 
ATOM      6  C   UNL     1      27.431   4.451  24.237  1.00  0.00     0.134 A 
ATOM      7  C   UNL     1      26.283   4.437  25.040  1.00  0.00     0.093 A 
ATOM      8  C   UNL     1      25.432   3.329  25.063  1.00  0.00     0.123 A 
ATOM      9  C   UNL     1      25.728   2.214  24.283  1.00  0.00     0.094 A 
ATOM     10  C   UNL     1      26.884   2.182  23.499  1.00  0.00     0.146 A 
ATOM     11  O   UNL     1      27.137   1.091  22.786  1.00  0.00    -0.456 OA
ENDROOT
BRANCH   1  12
ATOM     12  C   UNL     1      28.394  -0.317  21.266  1.00  0.00     0.021 A 
ATOM     13  C   UNL     1      29.191  -1.372  21.750  1.00  0.00     0.016 A 
ATOM     14  C   UNL     1      29.325  -2.552  21.014  1.00  0.00     0.051 A 
ATOM     15  C   UNL     1      28.663  -2.704  19.790  1.00  0.00     0.157 A 
ATOM     16  C   UNL     1      27.720  -0.482  20.042  1.00  0.00     0.062 A 
ATOM     17  C   UNL     1      27.855  -1.663  19.304  1.00  0.00     0.158 A 
BRANCH  15  18
ATOM     18  O   UNL     1      28.803  -3.882  19.059  1.00  0.00    -0.504 OA
ATOM     19  H   UNL     1      29.548  -4.004  18.384  1.00  0.00     0.293 HD
ENDBRANCH  15  18
BRANCH  17  20
ATOM     20  O   UNL     1      27.179  -1.783  18.089  1.00  0.00    -0.504 OA
ATOM     21  H   UNL     1      27.233  -2.622  17.525  1.00  0.00     0.293 HD
ENDBRANCH  17  20
ENDBRANCH   1  12
BRANCH   6  22
ATOM     22  O   UNL     1      28.167   5.640  24.226  1.00  0.00    -0.507 OA
ATOM     23  H   UNL     1      27.979   6.434  23.634  1.00  0.00     0.293 HD
ENDBRANCH   6  22
BRANCH   8  24
ATOM     24  O   UNL     1      24.284   3.331  25.852  1.00  0.00    -0.508 OA
ATOM     25  H   UNL     1      24.336   3.277  26.862  1.00  0.00     0.293 HD
ENDBRANCH   8  24
TORSDOF 5
ENDMDL
MODEL 7
REMARK VINA RESULT:    -6.083      1.590      6.896
REMARK INTER + INTRA:          -7.415
REMARK INTER:                  -7.107
REMARK INTRA:                  -0.307
REMARK UNBOUND:                -0.265
REMARK SMILES O=c1cc(-c2ccc(O)c(O)c2)oc2cc(O)cc(O)c12
REMARK SMILES IDX 4 1 3 2 2 3 1 4 21 5 19 6 18 7 16 8 15 9 14 10 13 11 5 12
REMARK SMILES IDX 6 13 7 14 8 15 12 16 10 17 9 18 11 20 20 22 17 24
REMARK H PARENT 9 19 11 21 20 23 17 25
REMARK Flexibility Score: inf
ROOT
ATOM      1  C   UNL     1      21.467   6.691  31.039  1.00  0.00     0.138 A 
ATOM      2  C   UNL     1      20.650   5.899  31.857  1.00  0.00     0.100 A 
ATOM      3  C   UNL     1      21.207   5.232  32.949  1.00  0.00     0.197 A 
ATOM      4  O   UNL     1      20.436   4.574  33.696  1.00  0.00    -0.289 OA
ATOM      5  C   UNL     1      22.595   5.330  33.201  1.00  0.00     0.107 A 
ATOM      6  C   UNL     1      23.279   4.667  34.266  1.00  0.00     0.134 A 
ATOM      7  C   UNL     1      24.640   4.920  34.476  1.00  0.00     0.093 A 
ATOM      8  C   UNL     1      25.356   5.767  33.625  1.00  0.00     0.123 A 
ATOM      9  C   UNL     1      24.710   6.379  32.554  1.00  0.00     0.094 A 
ATOM     10  C   UNL     1      23.344   6.175  32.339  1.00  0.00     0.146 A 
ATOM     11  O   UNL     1      22.764   6.793  31.316  1.00  0.00    -0.456 OA
ENDROOT
BRANCH   1  12
ATOM     12  C   UNL     1      20.931   7.419  29.861  1.00  0.00     0.021 A 
ATOM     13  C   UNL     1      19.599   7.876  29.817  1.00  0.00     0.016 A 
ATOM     14  C   UNL     1      19.125   8.568  28.700  1.00  0.00     0.051 A 
ATOM     15  C   UNL     1      19.971   8.824  27.613  1.00  0.00     0.157 A 
ATOM     16  C   UNL     1      21.778   7.693  28.772  1.00  0.00     0.062 A 
ATOM     17  C   UNL     1      21.304   8.386  27.652  1.00  0.00     0.158 A 
BRANCH  15  18
ATOM     18  O   UNL     1      19.492   9.513  26.500  1.00  0.00    -0.504 OA
ATOM     19  H   UNL     1      18.501   9.652  26.347  1.00  0.00     0.293 HD
ENDBRANCH  15  18
BRANCH  17  20
ATOM     20  O   UNL     1      22.173   8.627  26.588  1.00  0.00    -0.504 OA
ATOM     21  H   UNL     1      22.650   9.513  26.474  1.00  0.00     0.293 HD
ENDBRANCH  17  20
ENDBRANCH   1  12
BRANCH   6  22
ATOM     22  O   UNL     1      22.679   3.741  35.125  1.00  0.00    -0.507 OA
ATOM     23  H   UNL     1      23.096   3.374  35.966  1.00  0.00     0.293 HD
ENDBRANCH   6  22
BRANCH   8  24
ATOM     24  O   UNL     1      26.713   6.000  33.832  1.00  0.00    -0.508 OA
ATOM     25  H   UNL     1      27.346   5.252  34.090  1.00  0.00     0.293 HD
ENDBRANCH   8  24
TORSDOF 5
ENDMDL
MODEL 8
REMARK VINA RESULT:    -6.021     10.725     12.027
REMARK INTER + INTRA:          -7.342
REMARK INTER:                  -7.076
REMARK INTRA:                  -0.266
REMARK UNBOUND:                -0.265
REMARK SMILES O=c1cc(-c2ccc(O)c(O)c2)oc2cc(O)cc(O)c12
REMARK SMILES IDX 4 1 3 2 2 3 1 4 21 5 19 6 18 7 16 8 15 9 14 10 13 11 5 12
REMARK SMILES IDX 6 13 7 14 8 15 12 16 10 17 9 18 11 20 20 22 17 24
REMARK H PARENT 9 19 11 21 20 23 17 25
REMARK Flexibility Score: inf
ROOT
ATOM      1  C   UNL     1      28.129   1.150  22.820  1.00  0.00     0.138 A 
ATOM      2  C   UNL     1      26.998   1.142  23.649  1.00  0.00     0.100 A 
ATOM      3  C   UNL     1      26.576   2.327  24.253  1.00  0.00     0.197 A 
ATOM      4  O   UNL     1      25.525   2.296  24.945  1.00  0.00    -0.289 OA
ATOM      5  C   UNL     1      27.311   3.519  24.054  1.00  0.00     0.107 A 
ATOM      6  C   UNL     1      26.995   4.780  24.647  1.00  0.00     0.134 A 
ATOM      7  C   UNL     1      27.739   5.913  24.297  1.00  0.00     0.093 A 
ATOM      8  C   UNL     1      28.824   5.821  23.421  1.00  0.00     0.123 A 
ATOM      9  C   UNL     1      29.172   4.587  22.878  1.00  0.00     0.094 A 
ATOM     10  C   UNL     1      28.428   3.444  23.179  1.00  0.00     0.146 A 
ATOM     11  O   UNL     1      28.784   2.291  22.624  1.00  0.00    -0.456 OA
ENDROOT
BRANCH   1  12
ATOM     12  C   UNL     1      28.626  -0.081  22.156  1.00  0.00     0.021 A 
ATOM     13  C   UNL     1      28.668  -0.200  20.753  1.00  0.00     0.016 A 
ATOM     14  C   UNL     1      29.151  -1.367  20.156  1.00  0.00     0.051 A 
ATOM     15  C   UNL     1      29.607  -2.430  20.945  1.00  0.00     0.157 A 
ATOM     16  C   UNL     1      29.099  -1.148  22.941  1.00  0.00     0.062 A 
ATOM     17  C   UNL     1      29.582  -2.318  22.344  1.00  0.00     0.158 A 
BRANCH  15  18
ATOM     18  O   UNL     1      30.086  -3.593  20.343  1.00  0.00    -0.504 OA
ATOM     19  H   UNL     1      29.739  -4.508  20.604  1.00  0.00     0.293 HD
ENDBRANCH  15  18
BRANCH  17  20
ATOM     20  O   UNL     1      30.033  -3.357  23.158  1.00  0.00    -0.504 OA
ATOM     21  H   UNL     1      29.405  -3.886  23.751  1.00  0.00     0.293 HD
ENDBRANCH  17  20
ENDBRANCH   1  12
BRANCH   6  22
ATOM     22  O   UNL     1      25.982   4.968  25.593  1.00  0.00    -0.507 OA
ATOM     23  H   UNL     1      26.027   4.676  26.556  1.00  0.00     0.293 HD
ENDBRANCH   6  22
BRANCH   8  24
ATOM     24  O   UNL     1      29.568   6.951  23.092  1.00  0.00    -0.508 OA
ATOM     25  H   UNL     1      29.293   7.876  23.402  1.00  0.00     0.293 HD
ENDBRANCH   8  24
TORSDOF 5
ENDMDL
