MODEL 1
REMARK VINA RESULT:    -7.022      0.000      0.000
REMARK INTER + INTRA:          -8.782
REMARK INTER:                  -8.459
REMARK INTRA:                  -0.324
REMARK UNBOUND:                -0.324
REMARK SMILES O=c1c(O)c(-c2ccc(O)c(O)c2)oc2cc(O)cc(O)c12
REMARK SMILES IDX 5 1 3 2 2 3 1 4 22 5 20 6 19 7 17 8 16 9 15 10 14 11 6 12
REMARK SMILES IDX 7 13 8 14 9 15 13 16 11 17 10 18 12 20 4 22 21 24 18 26
REMARK H PARENT 10 19 12 21 4 23 21 25 18 27
REMARK Flexibility Score: inf
ROOT
ATOM      1  C   UNL     1     -24.630  81.310 -17.974  1.00  0.00     0.180 A 
ATOM      2  C   UNL     1     -25.682  80.744 -18.715  1.00  0.00     0.208 A 
ATOM      3  C   UNL     1     -26.122  81.395 -19.878  1.00  0.00     0.238 A 
ATOM      4  O   UNL     1     -27.099  80.913 -20.508  1.00  0.00    -0.285 OA
ATOM      5  C   UNL     1     -25.495  82.595 -20.295  1.00  0.00     0.111 A 
ATOM      6  C   UNL     1     -25.833  83.317 -21.478  1.00  0.00     0.134 A 
ATOM      7  C   UNL     1     -25.237  84.559 -21.723  1.00  0.00     0.093 A 
ATOM      8  C   UNL     1     -24.268  85.075 -20.863  1.00  0.00     0.123 A 
ATOM      9  C   UNL     1     -23.887  84.350 -19.733  1.00  0.00     0.094 A 
ATOM     10  C   UNL     1     -24.490  83.123 -19.443  1.00  0.00     0.146 A 
ATOM     11  O   UNL     1     -24.107  82.470 -18.353  1.00  0.00    -0.452 OA
ENDROOT
BRANCH   1  12
ATOM     12  C   UNL     1     -24.095  80.669 -16.750  1.00  0.00     0.025 A 
ATOM     13  C   UNL     1     -24.670  80.968 -15.505  1.00  0.00     0.016 A 
ATOM     14  C   UNL     1     -24.167  80.390 -14.337  1.00  0.00     0.051 A 
ATOM     15  C   UNL     1     -23.075  79.520 -14.391  1.00  0.00     0.157 A 
ATOM     16  C   UNL     1     -22.983  79.808 -16.801  1.00  0.00     0.062 A 
ATOM     17  C   UNL     1     -22.476  79.230 -15.628  1.00  0.00     0.158 A 
BRANCH  15  18
ATOM     18  O   UNL     1     -22.596  78.958 -13.209  1.00  0.00    -0.504 OA
ATOM     19  H   UNL     1     -21.719  78.453 -13.169  1.00  0.00     0.293 HD
ENDBRANCH  15  18
BRANCH  17  20
ATOM     20  O   UNL     1     -21.378  78.373 -15.688  1.00  0.00    -0.504 OA
ATOM     21  H   UNL     1     -21.459  77.390 -15.457  1.00  0.00     0.293 HD
ENDBRANCH  17  20
ENDBRANCH   1  12
BRANCH   2  22
ATOM     22  O   UNL     1     -26.301  79.571 -18.274  1.00  0.00    -0.502 OA
ATOM     23  H   UNL     1     -25.900  78.980 -17.557  1.00  0.00     0.293 HD
ENDBRANCH   2  22
BRANCH   6  24
ATOM     24  O   UNL     1     -26.721  82.849 -22.452  1.00  0.00    -0.507 OA
ATOM     25  H   UNL     1     -27.713  83.032 -22.460  1.00  0.00     0.293 HD
ENDBRANCH   6  24
BRANCH   8  26
ATOM     26  O   UNL     1     -23.683  86.308 -21.145  1.00  0.00    -0.508 OA
ATOM     27  H   UNL     1     -22.728  86.515 -20.879  1.00  0.00     0.293 HD
ENDBRANCH   8  26
TORSDOF 6
ENDMDL
MODEL 2
REMARK VINA RESULT:    -6.835      2.159      3.105
REMARK INTER + INTRA:          -8.558
REMARK INTER:                  -8.335
REMARK INTRA:                  -0.223
REMARK UNBOUND:                -0.324
REMARK SMILES O=c1c(O)c(-c2ccc(O)c(O)c2)oc2cc(O)cc(O)c12
REMARK SMILES IDX 5 1 3 2 2 3 1 4 22 5 20 6 19 7 17 8 16 9 15 10 14 11 6 12
REMARK SMILES IDX 7 13 8 14 9 15 13 16 11 17 10 18 12 20 4 22 21 24 18 26
REMARK H PARENT 10 19 12 21 4 23 21 25 18 27
REMARK Flexibility Score: inf
ROOT
ATOM      1  C   UNL     1     -25.531  83.117 -19.348  1.00  0.00     0.180 A 
ATOM      2  C   UNL     1     -25.736  82.941 -20.727  1.00  0.00     0.208 A 
ATOM      3  C   UNL     1     -25.847  84.073 -21.549  1.00  0.00     0.238 A 
ATOM      4  O   UNL     1     -26.085  83.910 -22.774  1.00  0.00    -0.285 OA
ATOM      5  C   UNL     1     -25.735  85.367 -20.985  1.00  0.00     0.111 A 
ATOM      6  C   UNL     1     -25.791  86.583 -21.730  1.00  0.00     0.134 A 
ATOM      7  C   UNL     1     -25.800  87.808 -21.053  1.00  0.00     0.093 A 
ATOM      8  C   UNL     1     -25.688  87.864 -19.664  1.00  0.00     0.123 A 
ATOM      9  C   UNL     1     -25.573  86.683 -18.930  1.00  0.00     0.094 A 
ATOM     10  C   UNL     1     -25.598  85.444 -19.574  1.00  0.00     0.146 A 
ATOM     11  O   UNL     1     -25.497  84.344 -18.839  1.00  0.00    -0.452 OA
ENDROOT
BRANCH   1  12
ATOM     12  C   UNL     1     -25.379  81.972 -18.420  1.00  0.00     0.025 A 
ATOM     13  C   UNL     1     -26.348  81.755 -17.427  1.00  0.00     0.016 A 
ATOM     14  C   UNL     1     -26.214  80.692 -16.530  1.00  0.00     0.051 A 
ATOM     15  C   UNL     1     -25.106  79.843 -16.599  1.00  0.00     0.157 A 
ATOM     16  C   UNL     1     -24.255  81.128 -18.476  1.00  0.00     0.062 A 
ATOM     17  C   UNL     1     -24.119  80.064 -17.573  1.00  0.00     0.158 A 
BRANCH  15  18
ATOM     18  O   UNL     1     -25.000  78.791 -15.691  1.00  0.00    -0.504 OA
ATOM     19  H   UNL     1     -25.380  77.872 -15.884  1.00  0.00     0.293 HD
ENDBRANCH  15  18
BRANCH  17  20
ATOM     20  O   UNL     1     -23.004  79.229 -17.640  1.00  0.00    -0.504 OA
ATOM     21  H   UNL     1     -23.096  78.233 -17.804  1.00  0.00     0.293 HD
ENDBRANCH  17  20
ENDBRANCH   1  12
BRANCH   2  22
ATOM     22  O   UNL     1     -25.866  81.655 -21.259  1.00  0.00    -0.502 OA
ATOM     23  H   UNL     1     -25.130  81.211 -21.794  1.00  0.00     0.293 HD
ENDBRANCH   2  22
BRANCH   6  24
ATOM     24  O   UNL     1     -25.811  86.643 -23.127  1.00  0.00    -0.507 OA
ATOM     25  H   UNL     1     -25.522  85.894 -23.738  1.00  0.00     0.293 HD
ENDBRANCH   6  24
BRANCH   8  26
ATOM     26  O   UNL     1     -25.684  89.101 -19.023  1.00  0.00    -0.508 OA
ATOM     27  H   UNL     1     -25.187  89.896 -19.406  1.00  0.00     0.293 HD
ENDBRANCH   8  26
TORSDOF 6
ENDMDL
MODEL 3
REMARK VINA RESULT:    -6.770      9.952     12.947
REMARK INTER + INTRA:          -8.479
REMARK INTER:                  -8.299
REMARK INTRA:                  -0.180
REMARK UNBOUND:                -0.324
REMARK SMILES O=c1c(O)c(-c2ccc(O)c(O)c2)oc2cc(O)cc(O)c12
REMARK SMILES IDX 5 1 3 2 2 3 1 4 22 5 20 6 19 7 17 8 16 9 15 10 14 11 6 12
REMARK SMILES IDX 7 13 8 14 9 15 13 16 11 17 10 18 12 20 4 22 21 24 18 26
REMARK H PARENT 10 19 12 21 4 23 21 25 18 27
REMARK Flexibility Score: inf
ROOT
ATOM      1  C   UNL     1     -25.480  91.922 -14.003  1.00  0.00     0.180 A 
ATOM      2  C   UNL     1     -26.509  92.226 -13.095  1.00  0.00     0.208 A 
ATOM      3  C   UNL     1     -26.583  91.514 -11.888  1.00  0.00     0.238 A 
ATOM      4  O   UNL     1     -27.538  91.753 -11.103  1.00  0.00    -0.285 OA
ATOM      5  C   UNL     1     -25.619  90.520 -11.595  1.00  0.00     0.111 A 
ATOM      6  C   UNL     1     -25.574  89.766 -10.384  1.00  0.00     0.134 A 
ATOM      7  C   UNL     1     -24.655  88.718 -10.257  1.00  0.00     0.093 A 
ATOM      8  C   UNL     1     -23.737  88.438 -11.268  1.00  0.00     0.123 A 
ATOM      9  C   UNL     1     -23.732  89.208 -12.432  1.00  0.00     0.094 A 
ATOM     10  C   UNL     1     -24.661  90.238 -12.604  1.00  0.00     0.146 A 
ATOM     11  O   UNL     1     -24.630  90.939 -13.730  1.00  0.00    -0.452 OA
ENDROOT
BRANCH   1  12
ATOM     12  C   UNL     1     -25.321  92.646 -15.286  1.00  0.00     0.025 A 
ATOM     13  C   UNL     1     -26.277  92.473 -16.300  1.00  0.00     0.016 A 
ATOM     14  C   UNL     1     -26.136  93.130 -17.524  1.00  0.00     0.051 A 
ATOM     15  C   UNL     1     -25.034  93.955 -17.762  1.00  0.00     0.157 A 
ATOM     16  C   UNL     1     -24.202  93.462 -15.533  1.00  0.00     0.062 A 
ATOM     17  C   UNL     1     -24.059  94.119 -16.764  1.00  0.00     0.158 A 
BRANCH  15  18
ATOM     18  O   UNL     1     -24.920  94.600 -18.992  1.00  0.00    -0.504 OA
ATOM     19  H   UNL     1     -24.698  94.099 -19.844  1.00  0.00     0.293 HD
ENDBRANCH  15  18
BRANCH  17  20
ATOM     20  O   UNL     1     -22.949  94.930 -16.998  1.00  0.00    -0.504 OA
ATOM     21  H   UNL     1     -22.345  94.785 -17.799  1.00  0.00     0.293 HD
ENDBRANCH  17  20
ENDBRANCH   1  12
BRANCH   2  22
ATOM     22  O   UNL     1     -27.464  93.196 -13.413  1.00  0.00    -0.502 OA
ATOM     23  H   UNL     1     -27.240  94.183 -13.466  1.00  0.00     0.293 HD
ENDBRANCH   2  22
BRANCH   6  24
ATOM     24  O   UNL     1     -26.385  90.022  -9.274  1.00  0.00    -0.507 OA
ATOM     25  H   UNL     1     -26.103  90.558  -8.468  1.00  0.00     0.293 HD
ENDBRANCH   6  24
BRANCH   8  26
ATOM     26  O   UNL     1     -22.825  87.397 -11.102  1.00  0.00    -0.508 OA
ATOM     27  H   UNL     1     -22.832  86.813 -10.275  1.00  0.00     0.293 HD
ENDBRANCH   8  26
TORSDOF 6
ENDMDL
MODEL 4
REMARK VINA RESULT:    -6.614      2.208      7.265
REMARK INTER + INTRA:          -8.291
REMARK INTER:                  -7.969
REMARK INTRA:                  -0.322
REMARK UNBOUND:                -0.324
REMARK SMILES O=c1c(O)c(-c2ccc(O)c(O)c2)oc2cc(O)cc(O)c12
REMARK SMILES IDX 5 1 3 2 2 3 1 4 22 5 20 6 19 7 17 8 16 9 15 10 14 11 6 12
REMARK SMILES IDX 7 13 8 14 9 15 13 16 11 17 10 18 12 20 4 22 21 24 18 26
REMARK H PARENT 10 19 12 21 4 23 21 25 18 27
REMARK Flexibility Score: inf
ROOT
ATOM      1  C   UNL     1     -25.403  83.678 -19.904  1.00  0.00     0.180 A 
ATOM      2  C   UNL     1     -26.296  84.134 -18.920  1.00  0.00     0.208 A 
ATOM      3  C   UNL     1     -26.404  83.421 -17.715  1.00  0.00     0.238 A 
ATOM      4  O   UNL     1     -27.244  83.804 -16.860  1.00  0.00    -0.285 OA
ATOM      5  C   UNL     1     -25.607  82.271 -17.503  1.00  0.00     0.111 A 
ATOM      6  C   UNL     1     -25.605  81.496 -16.305  1.00  0.00     0.134 A 
ATOM      7  C   UNL     1     -24.874  80.303 -16.255  1.00  0.00     0.093 A 
ATOM      8  C   UNL     1     -24.092  79.892 -17.334  1.00  0.00     0.123 A 
ATOM      9  C   UNL     1     -24.039  80.673 -18.489  1.00  0.00     0.094 A 
ATOM     10  C   UNL     1     -24.787  81.849 -18.583  1.00  0.00     0.146 A 
ATOM     11  O   UNL     1     -24.718  82.558 -19.703  1.00  0.00    -0.452 OA
ENDROOT
BRANCH   1  12
ATOM     12  C   UNL     1     -25.215  84.390 -21.190  1.00  0.00     0.025 A 
ATOM     13  C   UNL     1     -25.864  83.918 -22.342  1.00  0.00     0.016 A 
ATOM     14  C   UNL     1     -25.685  84.563 -23.568  1.00  0.00     0.051 A 
ATOM     15  C   UNL     1     -24.844  85.675 -23.667  1.00  0.00     0.157 A 
ATOM     16  C   UNL     1     -24.354  85.497 -21.294  1.00  0.00     0.062 A 
ATOM     17  C   UNL     1     -24.171  86.143 -22.526  1.00  0.00     0.158 A 
BRANCH  15  18
ATOM     18  O   UNL     1     -24.686  86.299 -24.903  1.00  0.00    -0.504 OA
ATOM     19  H   UNL     1     -24.418  85.787 -25.734  1.00  0.00     0.293 HD
ENDBRANCH  15  18
BRANCH  17  20
ATOM     20  O   UNL     1     -23.321  87.243 -22.619  1.00  0.00    -0.504 OA
ATOM     21  H   UNL     1     -22.515  87.242 -23.235  1.00  0.00     0.293 HD
ENDBRANCH  17  20
ENDBRANCH   1  12
BRANCH   2  22
ATOM     22  O   UNL     1     -27.090  85.260 -19.158  1.00  0.00    -0.502 OA
ATOM     23  H   UNL     1     -28.100  85.237 -19.092  1.00  0.00     0.293 HD
ENDBRANCH   2  22
BRANCH   6  24
ATOM     24  O   UNL     1     -26.278  81.864 -15.136  1.00  0.00    -0.507 OA
ATOM     25  H   UNL     1     -27.093  82.458 -15.105  1.00  0.00     0.293 HD
ENDBRANCH   6  24
BRANCH   8  26
ATOM     26  O   UNL     1     -23.364  78.707 -17.244  1.00  0.00    -0.508 OA
ATOM     27  H   UNL     1     -22.356  78.694 -17.349  1.00  0.00     0.293 HD
ENDBRANCH   8  26
TORSDOF 6
ENDMDL
MODEL 5
REMARK VINA RESULT:    -6.597      5.698      8.389
REMARK INTER + INTRA:          -8.270
REMARK INTER:                  -7.993
REMARK INTRA:                  -0.277
REMARK UNBOUND:                -0.324
REMARK SMILES O=c1c(O)c(-c2ccc(O)c(O)c2)oc2cc(O)cc(O)c12
REMARK SMILES IDX 5 1 3 2 2 3 1 4 22 5 20 6 19 7 17 8 16 9 15 10 14 11 6 12
REMARK SMILES IDX 7 13 8 14 9 15 13 16 11 17 10 18 12 20 4 22 21 24 18 26
REMARK H PARENT 10 19 12 21 4 23 21 25 18 27
REMARK Flexibility Score: inf
ROOT
ATOM      1  C   UNL     1     -26.811  86.755 -21.343  1.00  0.00     0.180 A 
ATOM      2  C   UNL     1     -25.966  87.567 -20.567  1.00  0.00     0.208 A 
ATOM      3  C   UNL     1     -26.533  88.582 -19.780  1.00  0.00     0.238 A 
ATOM      4  O   UNL     1     -25.767  89.340 -19.129  1.00  0.00    -0.285 OA
ATOM      5  C   UNL     1     -27.937  88.762 -19.764  1.00  0.00     0.111 A 
ATOM      6  C   UNL     1     -28.622  89.732 -18.973  1.00  0.00     0.134 A 
ATOM      7  C   UNL     1     -30.001  89.908 -19.136  1.00  0.00     0.093 A 
ATOM      8  C   UNL     1     -30.730  89.106 -20.013  1.00  0.00     0.123 A 
ATOM      9  C   UNL     1     -30.081  88.114 -20.748  1.00  0.00     0.094 A 
ATOM     10  C   UNL     1     -28.699  87.938 -20.634  1.00  0.00     0.146 A 
ATOM     11  O   UNL     1     -28.118  86.991 -21.359  1.00  0.00    -0.452 OA
ENDROOT
BRANCH   1  12
ATOM     12  C   UNL     1     -26.291  85.648 -22.179  1.00  0.00     0.025 A 
ATOM     13  C   UNL     1     -25.713  85.938 -23.425  1.00  0.00     0.016 A 
ATOM     14  C   UNL     1     -25.234  84.907 -24.239  1.00  0.00     0.051 A 
ATOM     15  C   UNL     1     -25.339  83.575 -23.830  1.00  0.00     0.157 A 
ATOM     16  C   UNL     1     -26.414  84.306 -21.777  1.00  0.00     0.062 A 
ATOM     17  C   UNL     1     -25.936  83.271 -22.595  1.00  0.00     0.158 A 
BRANCH  15  18
ATOM     18  O   UNL     1     -24.851  82.569 -24.661  1.00  0.00    -0.504 OA
ATOM     19  H   UNL     1     -25.391  82.200 -25.434  1.00  0.00     0.293 HD
ENDBRANCH  15  18
BRANCH  17  20
ATOM     20  O   UNL     1     -26.057  81.944 -22.186  1.00  0.00    -0.504 OA
ATOM     21  H   UNL     1     -25.435  81.223 -22.533  1.00  0.00     0.293 HD
ENDBRANCH  17  20
ENDBRANCH   1  12
BRANCH   2  22
ATOM     22  O   UNL     1     -24.581  87.387 -20.613  1.00  0.00    -0.502 OA
ATOM     23  H   UNL     1     -23.943  87.928 -20.042  1.00  0.00     0.293 HD
ENDBRANCH   2  22
BRANCH   6  24
ATOM     24  O   UNL     1     -28.003  90.523 -17.999  1.00  0.00    -0.507 OA
ATOM     25  H   UNL     1     -27.915  90.272 -17.027  1.00  0.00     0.293 HD
ENDBRANCH   6  24
BRANCH   8  26
ATOM     26  O   UNL     1     -32.105  89.298 -20.139  1.00  0.00    -0.508 OA
ATOM     27  H   UNL     1     -32.597  89.065 -20.993  1.00  0.00     0.293 HD
ENDBRANCH   8  26
TORSDOF 6
ENDMDL
MODEL 6
REMARK VINA RESULT:    -6.570      9.691     12.497
REMARK INTER + INTRA:          -8.238
REMARK INTER:                  -8.148
REMARK INTRA:                  -0.090
REMARK UNBOUND:                -0.324
REMARK SMILES O=c1c(O)c(-c2ccc(O)c(O)c2)oc2cc(O)cc(O)c12
REMARK SMILES IDX 5 1 3 2 2 3 1 4 22 5 20 6 19 7 17 8 16 9 15 10 14 11 6 12
REMARK SMILES IDX 7 13 8 14 9 15 13 16 11 17 10 18 12 20 4 22 21 24 18 26
REMARK H PARENT 10 19 12 21 4 23 21 25 18 27
REMARK Flexibility Score: inf
ROOT
ATOM      1  C   UNL     1     -25.004  90.922 -13.038  1.00  0.00     0.180 A 
ATOM      2  C   UNL     1     -26.044  90.207 -13.658  1.00  0.00     0.208 A 
ATOM      3  C   UNL     1     -26.595  89.098 -12.998  1.00  0.00     0.238 A 
ATOM      4  O   UNL     1     -27.488  88.430 -13.582  1.00  0.00    -0.285 OA
ATOM      5  C   UNL     1     -26.113  88.727 -11.720  1.00  0.00     0.111 A 
ATOM      6  C   UNL     1     -26.626  87.646 -10.942  1.00  0.00     0.134 A 
ATOM      7  C   UNL     1     -25.987  87.287  -9.750  1.00  0.00     0.093 A 
ATOM      8  C   UNL     1     -24.894  88.011  -9.273  1.00  0.00     0.123 A 
ATOM      9  C   UNL     1     -24.421  89.107  -9.995  1.00  0.00     0.094 A 
ATOM     10  C   UNL     1     -25.016  89.467 -11.207  1.00  0.00     0.146 A 
ATOM     11  O   UNL     1     -24.528  90.509 -11.869  1.00  0.00    -0.452 OA
ENDROOT
BRANCH   1  12
ATOM     12  C   UNL     1     -24.389  92.117 -13.661  1.00  0.00     0.025 A 
ATOM     13  C   UNL     1     -22.995  92.174 -13.816  1.00  0.00     0.016 A 
ATOM     14  C   UNL     1     -22.392  93.301 -14.382  1.00  0.00     0.051 A 
ATOM     15  C   UNL     1     -23.168  94.390 -14.786  1.00  0.00     0.157 A 
ATOM     16  C   UNL     1     -25.167  93.223 -14.050  1.00  0.00     0.062 A 
ATOM     17  C   UNL     1     -24.562  94.355 -14.615  1.00  0.00     0.158 A 
BRANCH  15  18
ATOM     18  O   UNL     1     -22.539  95.500 -15.349  1.00  0.00    -0.504 OA
ATOM     19  H   UNL     1     -22.600  96.421 -14.934  1.00  0.00     0.293 HD
ENDBRANCH  15  18
BRANCH  17  20
ATOM     20  O   UNL     1     -25.341  95.443 -15.003  1.00  0.00    -0.504 OA
ATOM     21  H   UNL     1     -25.390  96.288 -14.444  1.00  0.00     0.293 HD
ENDBRANCH  17  20
ENDBRANCH   1  12
BRANCH   2  22
ATOM     22  O   UNL     1     -26.490  90.577 -14.930  1.00  0.00    -0.502 OA
ATOM     23  H   UNL     1     -25.997  90.318 -15.776  1.00  0.00     0.293 HD
ENDBRANCH   2  22
BRANCH   6  24
ATOM     24  O   UNL     1     -27.769  86.914 -11.280  1.00  0.00    -0.507 OA
ATOM     25  H   UNL     1     -28.690  87.080 -10.903  1.00  0.00     0.293 HD
ENDBRANCH   6  24
BRANCH   8  26
ATOM     26  O   UNL     1     -24.291  87.637  -8.074  1.00  0.00    -0.508 OA
ATOM     27  H   UNL     1     -23.283  87.599  -7.976  1.00  0.00     0.293 HD
ENDBRANCH   8  26
TORSDOF 6
ENDMDL
MODEL 7
REMARK VINA RESULT:    -6.536      9.779     10.711
REMARK INTER + INTRA:          -8.197
REMARK INTER:                  -7.886
REMARK INTRA:                  -0.311
REMARK UNBOUND:                -0.324
REMARK SMILES O=c1c(O)c(-c2ccc(O)c(O)c2)oc2cc(O)cc(O)c12
REMARK SMILES IDX 5 1 3 2 2 3 1 4 22 5 20 6 19 7 17 8 16 9 15 10 14 11 6 12
REMARK SMILES IDX 7 13 8 14 9 15 13 16 11 17 10 18 12 20 4 22 21 24 18 26
REMARK H PARENT 10 19 12 21 4 23 21 25 18 27
REMARK Flexibility Score: inf
ROOT
ATOM      1  C   UNL     1     -25.100  90.607 -12.737  1.00  0.00     0.180 A 
ATOM      2  C   UNL     1     -26.240  90.481 -13.549  1.00  0.00     0.208 A 
ATOM      3  C   UNL     1     -26.377  91.323 -14.664  1.00  0.00     0.238 A 
ATOM      4  O   UNL     1     -27.425  91.243 -15.356  1.00  0.00    -0.285 OA
ATOM      5  C   UNL     1     -25.366  92.268 -14.963  1.00  0.00     0.111 A 
ATOM      6  C   UNL     1     -25.382  93.143 -16.090  1.00  0.00     0.134 A 
ATOM      7  C   UNL     1     -24.394  94.127 -16.215  1.00  0.00     0.093 A 
ATOM      8  C   UNL     1     -23.355  94.225 -15.290  1.00  0.00     0.123 A 
ATOM      9  C   UNL     1     -23.296  93.336 -14.216  1.00  0.00     0.094 A 
ATOM     10  C   UNL     1     -24.288  92.367 -14.045  1.00  0.00     0.146 A 
ATOM     11  O   UNL     1     -24.202  91.547 -13.004  1.00  0.00    -0.452 OA
ENDROOT
BRANCH   1  12
ATOM     12  C   UNL     1     -24.873  89.739 -11.558  1.00  0.00     0.025 A 
ATOM     13  C   UNL     1     -25.443  90.087 -10.323  1.00  0.00     0.016 A 
ATOM     14  C   UNL     1     -25.225  89.292  -9.195  1.00  0.00     0.051 A 
ATOM     15  C   UNL     1     -24.422  88.152  -9.277  1.00  0.00     0.157 A 
ATOM     16  C   UNL     1     -24.049  88.601 -11.635  1.00  0.00     0.062 A 
ATOM     17  C   UNL     1     -23.827  87.805 -10.501  1.00  0.00     0.158 A 
BRANCH  15  18
ATOM     18  O   UNL     1     -24.223  87.378  -8.135  1.00  0.00    -0.504 OA
ATOM     19  H   UNL     1     -23.356  87.401  -7.613  1.00  0.00     0.293 HD
ENDBRANCH  15  18
BRANCH  17  20
ATOM     20  O   UNL     1     -23.014  86.676 -10.588  1.00  0.00    -0.504 OA
ATOM     21  H   UNL     1     -22.008  86.752 -10.686  1.00  0.00     0.293 HD
ENDBRANCH  17  20
ENDBRANCH   1  12
BRANCH   2  22
ATOM     22  O   UNL     1     -27.237  89.557 -13.224  1.00  0.00    -0.502 OA
ATOM     23  H   UNL     1     -27.884  89.701 -12.459  1.00  0.00     0.293 HD
ENDBRANCH   2  22
BRANCH   6  24
ATOM     24  O   UNL     1     -26.323  93.070 -17.122  1.00  0.00    -0.507 OA
ATOM     25  H   UNL     1     -26.425  92.289 -17.752  1.00  0.00     0.293 HD
ENDBRANCH   6  24
BRANCH   8  26
ATOM     26  O   UNL     1     -22.379  95.207 -15.453  1.00  0.00    -0.508 OA
ATOM     27  H   UNL     1     -22.493  95.963 -16.117  1.00  0.00     0.293 HD
ENDBRANCH   8  26
TORSDOF 6
ENDMDL
MODEL 8
REMARK VINA RESULT:    -6.514      1.523      6.888
REMARK INTER + INTRA:          -8.170
REMARK INTER:                  -7.864
REMARK INTRA:                  -0.307
REMARK UNBOUND:                -0.324
REMARK SMILES O=c1c(O)c(-c2ccc(O)c(O)c2)oc2cc(O)cc(O)c12
REMARK SMILES IDX 5 1 3 2 2 3 1 4 22 5 20 6 19 7 17 8 16 9 15 10 14 11 6 12
REMARK SMILES IDX 7 13 8 14 9 15 13 16 11 17 10 18 12 20 4 22 21 24 18 26
REMARK H PARENT 10 19 12 21 4 23 21 25 18 27
REMARK Flexibility Score: inf
ROOT
ATOM      1  C   UNL     1     -24.674  81.984 -18.586  1.00  0.00     0.180 A 
ATOM      2  C   UNL     1     -25.535  81.858 -17.482  1.00  0.00     0.208 A 
ATOM      3  C   UNL     1     -25.174  81.001 -16.431  1.00  0.00     0.238 A 
ATOM      4  O   UNL     1     -25.975  80.851 -15.471  1.00  0.00    -0.285 OA
ATOM      5  C   UNL     1     -23.949  80.293 -16.487  1.00  0.00     0.111 A 
ATOM      6  C   UNL     1     -23.463  79.430 -15.460  1.00  0.00     0.134 A 
ATOM      7  C   UNL     1     -22.302  78.680 -15.679  1.00  0.00     0.093 A 
ATOM      8  C   UNL     1     -21.572  78.811 -16.860  1.00  0.00     0.123 A 
ATOM      9  C   UNL     1     -22.005  79.698 -17.847  1.00  0.00     0.094 A 
ATOM     10  C   UNL     1     -23.181  80.433 -17.673  1.00  0.00     0.146 A 
ATOM     11  O   UNL     1     -23.564  81.256 -18.640  1.00  0.00    -0.452 OA
ENDROOT
BRANCH   1  12
ATOM     12  C   UNL     1     -24.974  82.886 -19.721  1.00  0.00     0.025 A 
ATOM     13  C   UNL     1     -25.801  82.435 -20.762  1.00  0.00     0.016 A 
ATOM     14  C   UNL     1     -26.080  83.263 -21.853  1.00  0.00     0.051 A 
ATOM     15  C   UNL     1     -25.527  84.544 -21.929  1.00  0.00     0.157 A 
ATOM     16  C   UNL     1     -24.402  84.168 -19.809  1.00  0.00     0.062 A 
ATOM     17  C   UNL     1     -24.680  84.998 -20.905  1.00  0.00     0.158 A 
BRANCH  15  18
ATOM     18  O   UNL     1     -25.825  85.347 -23.028  1.00  0.00    -0.504 OA
ATOM     19  H   UNL     1     -25.115  85.879 -23.515  1.00  0.00     0.293 HD
ENDBRANCH  15  18
BRANCH  17  20
ATOM     20  O   UNL     1     -24.114  86.270 -20.980  1.00  0.00    -0.504 OA
ATOM     21  H   UNL     1     -24.374  87.007 -20.334  1.00  0.00     0.293 HD
ENDBRANCH  17  20
ENDBRANCH   1  12
BRANCH   2  22
ATOM     22  O   UNL     1     -26.750  82.548 -17.457  1.00  0.00    -0.502 OA
ATOM     23  H   UNL     1     -27.304  82.644 -16.614  1.00  0.00     0.293 HD
ENDBRANCH   2  22
BRANCH   6  24
ATOM     24  O   UNL     1     -24.066  79.294 -14.205  1.00  0.00    -0.507 OA
ATOM     25  H   UNL     1     -23.564  79.201 -13.335  1.00  0.00     0.293 HD
ENDBRANCH   6  24
BRANCH   8  26
ATOM     26  O   UNL     1     -20.411  78.062 -17.039  1.00  0.00    -0.508 OA
ATOM     27  H   UNL     1     -20.419  77.050 -16.986  1.00  0.00     0.293 HD
ENDBRANCH   8  26
TORSDOF 6
ENDMDL
MODEL 9
REMARK VINA RESULT:    -6.463      9.995     11.522
REMARK INTER + INTRA:          -8.109
REMARK INTER:                  -7.838
REMARK INTRA:                  -0.272
REMARK UNBOUND:                -0.324
REMARK SMILES O=c1c(O)c(-c2ccc(O)c(O)c2)oc2cc(O)cc(O)c12
REMARK SMILES IDX 5 1 3 2 2 3 1 4 22 5 20 6 19 7 17 8 16 9 15 10 14 11 6 12
REMARK SMILES IDX 7 13 8 14 9 15 13 16 11 17 10 18 12 20 4 22 21 24 18 26
REMARK H PARENT 10 19 12 21 4 23 21 25 18 27
REMARK Flexibility Score: inf
ROOT
ATOM      1  C   UNL     1     -24.453  91.428 -13.399  1.00  0.00     0.180 A 
ATOM      2  C   UNL     1     -25.448  91.608 -14.376  1.00  0.00     0.208 A 
ATOM      3  C   UNL     1     -25.288  92.625 -15.331  1.00  0.00     0.238 A 
ATOM      4  O   UNL     1     -26.206  92.817 -16.170  1.00  0.00    -0.285 OA
ATOM      5  C   UNL     1     -24.128  93.438 -15.308  1.00  0.00     0.111 A 
ATOM      6  C   UNL     1     -23.843  94.470 -16.251  1.00  0.00     0.134 A 
ATOM      7  C   UNL     1     -22.731  95.297 -16.055  1.00  0.00     0.093 A 
ATOM      8  C   UNL     1     -21.857  95.088 -14.988  1.00  0.00     0.123 A 
ATOM      9  C   UNL     1     -22.093  94.044 -14.093  1.00  0.00     0.094 A 
ATOM     10  C   UNL     1     -23.215  93.224 -14.242  1.00  0.00     0.146 A 
ATOM     11  O   UNL     1     -23.410  92.249 -13.363  1.00  0.00    -0.452 OA
ENDROOT
BRANCH   1  12
ATOM     12  C   UNL     1     -24.539  90.362 -12.375  1.00  0.00     0.025 A 
ATOM     13  C   UNL     1     -23.794  89.184 -12.540  1.00  0.00     0.016 A 
ATOM     14  C   UNL     1     -23.876  88.157 -11.595  1.00  0.00     0.051 A 
ATOM     15  C   UNL     1     -24.713  88.284 -10.483  1.00  0.00     0.157 A 
ATOM     16  C   UNL     1     -25.396  90.480 -11.265  1.00  0.00     0.062 A 
ATOM     17  C   UNL     1     -25.481  89.448 -10.319  1.00  0.00     0.158 A 
BRANCH  15  18
ATOM     18  O   UNL     1     -24.773  87.244  -9.557  1.00  0.00    -0.504 OA
ATOM     19  H   UNL     1     -24.137  87.185  -8.772  1.00  0.00     0.293 HD
ENDBRANCH  15  18
BRANCH  17  20
ATOM     20  O   UNL     1     -26.328  89.576  -9.219  1.00  0.00    -0.504 OA
ATOM     21  H   UNL     1     -26.106  89.152  -8.325  1.00  0.00     0.293 HD
ENDBRANCH  17  20
ENDBRANCH   1  12
BRANCH   2  22
ATOM     22  O   UNL     1     -26.595  90.810 -14.368  1.00  0.00    -0.502 OA
ATOM     23  H   UNL     1     -26.554  89.799 -14.310  1.00  0.00     0.293 HD
ENDBRANCH   2  22
BRANCH   6  24
ATOM     24  O   UNL     1     -24.600  94.706 -17.403  1.00  0.00    -0.507 OA
ATOM     25  H   UNL     1     -25.056  95.578 -17.622  1.00  0.00     0.293 HD
ENDBRANCH   6  24
BRANCH   8  26
ATOM     26  O   UNL     1     -20.751  95.920 -14.831  1.00  0.00    -0.508 OA
ATOM     27  H   UNL     1     -20.681  96.807 -15.316  1.00  0.00     0.293 HD
ENDBRANCH   8  26
TORSDOF 6
ENDMDL
