MODEL 1
REMARK VINA RESULT:    -4.557      0.000      0.000
REMARK INTER + INTRA:          -9.728
REMARK INTER:                  -7.755
REMARK INTRA:                  -1.974
REMARK UNBOUND:                -1.974
REMARK SMILES CCCCCCCCCCCCCC(=O)[O-]
REMARK SMILES IDX 8 1 9 2 10 3 11 4 12 5 13 6 14 7 15 8 16 9 7 10 6 11 5 12
REMARK SMILES IDX 4 13 3 14 2 15 1 16
REMARK H PARENT
REMARK Flexibility Score: inf
ROOT
ATOM      1  C   UNL     1      29.871  31.798  15.026  1.00  0.00     0.000 C 
ENDROOT
BRANCH   1   2
ATOM      2  C   UNL     1      28.583  30.963  15.002  1.00  0.00     0.000 C 
BRANCH   2   3
ATOM      3  C   UNL     1      28.251  30.506  13.578  1.00  0.00     0.000 C 
BRANCH   3   4
ATOM      4  C   UNL     1      28.377  28.983  13.443  1.00  0.00     0.000 C 
BRANCH   4   5
ATOM      5  C   UNL     1      28.889  28.356  14.748  1.00  0.00     0.006 C 
BRANCH   5   6
ATOM      6  C   UNL     1      28.938  26.824  14.676  1.00  0.00     0.053 C 
BRANCH   6   7
ATOM      7  C   UNL     1      27.835  26.197  15.473  1.00  0.00     0.041 C 
ATOM      8  O   UNL     1      28.099  25.544  16.516  1.00  0.00    -0.550 OA
ATOM      9  O   UNL     1      26.513  26.361  15.080  1.00  0.00    -0.550 OA
ENDBRANCH   6   7
ENDBRANCH   5   6
ENDBRANCH   4   5
ENDBRANCH   3   4
ENDBRANCH   2   3
ENDBRANCH   1   2
BRANCH   1  10
ATOM     10  C   UNL     1      30.602  31.720  16.376  1.00  0.00     0.000 C 
BRANCH  10  11
ATOM     11  C   UNL     1      31.578  30.531  16.451  1.00  0.00    -0.000 C 
BRANCH  11  12
ATOM     12  C   UNL     1      32.193  30.183  15.085  1.00  0.00    -0.000 C 
BRANCH  12  13
ATOM     13  C   UNL     1      32.628  28.711  14.993  1.00  0.00    -0.000 C 
BRANCH  13  14
ATOM     14  C   UNL     1      32.408  28.118  13.591  1.00  0.00    -0.000 C 
BRANCH  14  15
ATOM     15  C   UNL     1      31.928  29.165  12.574  1.00  0.00    -0.003 C 
ATOM     16  C   UNL     1      31.344  28.496  11.333  1.00  0.00     0.004 C 
ENDBRANCH  14  15
ENDBRANCH  13  14
ENDBRANCH  12  13
ENDBRANCH  11  12
ENDBRANCH  10  11
ENDBRANCH   1  10
TORSDOF 12
ENDMDL
MODEL 2
REMARK VINA RESULT:    -4.481      2.350      4.567
REMARK INTER + INTRA:          -9.599
REMARK INTER:                  -7.739
REMARK INTRA:                  -1.860
REMARK UNBOUND:                -1.974
REMARK SMILES CCCCCCCCCCCCCC(=O)[O-]
REMARK SMILES IDX 8 1 9 2 10 3 11 4 12 5 13 6 14 7 15 8 16 9 7 10 6 11 5 12
REMARK SMILES IDX 4 13 3 14 2 15 1 16
REMARK H PARENT
REMARK Flexibility Score: inf
ROOT
ATOM      1  C   UNL     1      30.555  31.677  16.393  1.00  0.00     0.000 C 
ENDROOT
BRANCH   1   2
ATOM      2  C   UNL     1      31.549  30.508  16.477  1.00  0.00     0.000 C 
BRANCH   2   3
ATOM      3  C   UNL     1      32.215  30.257  15.120  1.00  0.00     0.000 C 
BRANCH   3   4
ATOM      4  C   UNL     1      32.750  28.822  15.025  1.00  0.00     0.000 C 
BRANCH   4   5
ATOM      5  C   UNL     1      32.525  28.242  13.621  1.00  0.00     0.006 C 
BRANCH   5   6
ATOM      6  C   UNL     1      31.850  29.247  12.679  1.00  0.00     0.053 C 
BRANCH   6   7
ATOM      7  C   UNL     1      31.286  28.575  11.465  1.00  0.00     0.041 C 
ATOM      8  O   UNL     1      30.628  27.507  11.579  1.00  0.00    -0.550 OA
ATOM      9  O   UNL     1      31.461  29.144  10.210  1.00  0.00    -0.550 OA
ENDBRANCH   6   7
ENDBRANCH   5   6
ENDBRANCH   4   5
ENDBRANCH   3   4
ENDBRANCH   2   3
ENDBRANCH   1   2
BRANCH   1  10
ATOM     10  C   UNL     1      29.883  31.784  15.015  1.00  0.00     0.000 C 
BRANCH  10  11
ATOM     11  C   UNL     1      28.569  30.987  14.934  1.00  0.00    -0.000 C 
BRANCH  11  12
ATOM     12  C   UNL     1      28.386  30.282  13.580  1.00  0.00    -0.000 C 
BRANCH  12  13
ATOM     13  C   UNL     1      28.100  28.779  13.730  1.00  0.00    -0.000 C 
BRANCH  13  14
ATOM     14  C   UNL     1      29.030  28.101  14.750  1.00  0.00    -0.000 C 
BRANCH  14  15
ATOM     15  C   UNL     1      28.574  26.681  15.116  1.00  0.00    -0.003 C 
ATOM     16  C   UNL     1      27.102  26.473  14.777  1.00  0.00     0.004 C 
ENDBRANCH  14  15
ENDBRANCH  13  14
ENDBRANCH  12  13
ENDBRANCH  11  12
ENDBRANCH  10  11
ENDBRANCH   1  10
TORSDOF 12
ENDMDL
MODEL 3
REMARK VINA RESULT:    -4.449      1.182      1.521
REMARK INTER + INTRA:          -9.544
REMARK INTER:                  -7.550
REMARK INTRA:                  -1.993
REMARK UNBOUND:                -1.974
REMARK SMILES CCCCCCCCCCCCCC(=O)[O-]
REMARK SMILES IDX 8 1 9 2 10 3 11 4 12 5 13 6 14 7 15 8 16 9 7 10 6 11 5 12
REMARK SMILES IDX 4 13 3 14 2 15 1 16
REMARK H PARENT
REMARK Flexibility Score: inf
ROOT
ATOM      1  C   UNL     1      29.622  31.072  15.894  1.00  0.00     0.000 C 
ENDROOT
BRANCH   1   2
ATOM      2  C   UNL     1      28.761  31.300  14.643  1.00  0.00     0.000 C 
BRANCH   2   3
ATOM      3  C   UNL     1      28.359  29.967  14.003  1.00  0.00     0.000 C 
BRANCH   3   4
ATOM      4  C   UNL     1      28.827  28.782  14.856  1.00  0.00     0.000 C 
BRANCH   4   5
ATOM      5  C   UNL     1      28.561  27.449  14.141  1.00  0.00     0.006 C 
BRANCH   5   6
ATOM      6  C   UNL     1      27.305  27.502  13.261  1.00  0.00     0.053 C 
BRANCH   6   7
ATOM      7  C   UNL     1      26.179  26.711  13.854  1.00  0.00     0.041 C 
ATOM      8  O   UNL     1      26.243  26.315  15.048  1.00  0.00    -0.550 OA
ATOM      9  O   UNL     1      25.047  26.439  13.097  1.00  0.00    -0.550 OA
ENDBRANCH   6   7
ENDBRANCH   5   6
ENDBRANCH   4   5
ENDBRANCH   3   4
ENDBRANCH   2   3
ENDBRANCH   1   2
BRANCH   1  10
ATOM     10  C   UNL     1      30.920  31.894  15.876  1.00  0.00     0.000 C 
BRANCH  10  11
ATOM     11  C   UNL     1      31.998  31.277  14.967  1.00  0.00    -0.000 C 
BRANCH  11  12
ATOM     12  C   UNL     1      32.473  29.900  15.462  1.00  0.00    -0.000 C 
BRANCH  12  13
ATOM     13  C   UNL     1      32.491  28.845  14.343  1.00  0.00    -0.000 C 
BRANCH  13  14
ATOM     14  C   UNL     1      31.862  29.360  13.038  1.00  0.00    -0.000 C 
BRANCH  14  15
ATOM     15  C   UNL     1      31.568  28.233  12.037  1.00  0.00    -0.003 C 
ATOM     16  C   UNL     1      30.515  28.663  11.020  1.00  0.00     0.004 C 
ENDBRANCH  14  15
ENDBRANCH  13  14
ENDBRANCH  12  13
ENDBRANCH  11  12
ENDBRANCH  10  11
ENDBRANCH   1  10
TORSDOF 12
ENDMDL
MODEL 4
REMARK VINA RESULT:    -4.434      1.020      1.887
REMARK INTER + INTRA:          -9.518
REMARK INTER:                  -7.864
REMARK INTRA:                  -1.654
REMARK UNBOUND:                -1.974
REMARK SMILES CCCCCCCCCCCCCC(=O)[O-]
REMARK SMILES IDX 8 1 9 2 10 3 11 4 12 5 13 6 14 7 15 8 16 9 7 10 6 11 5 12
REMARK SMILES IDX 4 13 3 14 2 15 1 16
REMARK H PARENT
REMARK Flexibility Score: inf
ROOT
ATOM      1  C   UNL     1      30.999  31.793  16.021  1.00  0.00     0.000 C 
ENDROOT
BRANCH   1   2
ATOM      2  C   UNL     1      29.843  31.925  15.019  1.00  0.00     0.000 C 
BRANCH   2   3
ATOM      3  C   UNL     1      28.915  30.707  15.088  1.00  0.00     0.000 C 
BRANCH   3   4
ATOM      4  C   UNL     1      28.223  30.464  13.740  1.00  0.00     0.000 C 
BRANCH   4   5
ATOM      5  C   UNL     1      28.127  28.963  13.433  1.00  0.00     0.006 C 
BRANCH   5   6
ATOM      6  C   UNL     1      28.716  28.101  14.558  1.00  0.00     0.053 C 
BRANCH   6   7
ATOM      7  C   UNL     1      27.852  26.914  14.856  1.00  0.00     0.041 C 
ATOM      8  O   UNL     1      26.657  26.884  14.460  1.00  0.00    -0.550 OA
ATOM      9  O   UNL     1      28.377  25.827  15.543  1.00  0.00    -0.550 OA
ENDBRANCH   6   7
ENDBRANCH   5   6
ENDBRANCH   4   5
ENDBRANCH   3   4
ENDBRANCH   2   3
ENDBRANCH   1   2
BRANCH   1  10
ATOM     10  C   UNL     1      31.430  30.333  16.237  1.00  0.00     0.000 C 
BRANCH  10  11
ATOM     11  C   UNL     1      32.632  29.936  15.360  1.00  0.00    -0.000 C 
BRANCH  11  12
ATOM     12  C   UNL     1      32.270  28.877  14.305  1.00  0.00    -0.000 C 
BRANCH  12  13
ATOM     13  C   UNL     1      31.793  29.501  12.982  1.00  0.00    -0.000 C 
BRANCH  13  14
ATOM     14  C   UNL     1      31.890  28.522  11.801  1.00  0.00    -0.000 C 
BRANCH  14  15
ATOM     15  C   UNL     1      32.892  28.982  10.731  1.00  0.00    -0.003 C 
ATOM     16  C   UNL     1      34.302  28.498  11.057  1.00  0.00     0.004 C 
ENDBRANCH  14  15
ENDBRANCH  13  14
ENDBRANCH  12  13
ENDBRANCH  11  12
ENDBRANCH  10  11
ENDBRANCH   1  10
TORSDOF 12
ENDMDL
MODEL 5
REMARK VINA RESULT:    -4.426      2.569      5.161
REMARK INTER + INTRA:          -9.505
REMARK INTER:                  -8.301
REMARK INTRA:                  -1.204
REMARK UNBOUND:                -1.974
REMARK SMILES CCCCCCCCCCCCCC(=O)[O-]
REMARK SMILES IDX 8 1 9 2 10 3 11 4 12 5 13 6 14 7 15 8 16 9 7 10 6 11 5 12
REMARK SMILES IDX 4 13 3 14 2 15 1 16
REMARK H PARENT
REMARK Flexibility Score: inf
ROOT
ATOM      1  C   UNL     1      28.905  30.856  15.162  1.00  0.00     0.000 C 
ENDROOT
BRANCH   1   2
ATOM      2  C   UNL     1      29.900  32.017  15.024  1.00  0.00     0.000 C 
BRANCH   2   3
ATOM      3  C   UNL     1      30.992  31.936  16.096  1.00  0.00     0.000 C 
BRANCH   3   4
ATOM      4  C   UNL     1      31.406  30.481  16.352  1.00  0.00     0.000 C 
BRANCH   4   5
ATOM      5  C   UNL     1      32.494  30.036  15.363  1.00  0.00     0.006 C 
BRANCH   5   6
ATOM      6  C   UNL     1      32.308  28.582  14.910  1.00  0.00     0.053 C 
BRANCH   6   7
ATOM      7  C   UNL     1      32.937  28.334  13.573  1.00  0.00     0.041 C 
ATOM      8  O   UNL     1      34.008  27.676  13.489  1.00  0.00    -0.550 OA
ATOM      9  O   UNL     1      32.325  28.802  12.418  1.00  0.00    -0.550 OA
ENDBRANCH   6   7
ENDBRANCH   5   6
ENDBRANCH   4   5
ENDBRANCH   3   4
ENDBRANCH   2   3
ENDBRANCH   1   2
BRANCH   1  10
ATOM     10  C   UNL     1      28.378  30.364  13.805  1.00  0.00     0.000 C 
BRANCH  10  11
ATOM     11  C   UNL     1      28.869  28.947  13.458  1.00  0.00    -0.000 C 
BRANCH  11  12
ATOM     12  C   UNL     1      28.726  27.966  14.634  1.00  0.00    -0.000 C 
BRANCH  12  13
ATOM     13  C   UNL     1      28.041  26.651  14.226  1.00  0.00    -0.000 C 
BRANCH  13  14
ATOM     14  C   UNL     1      27.116  26.103  15.325  1.00  0.00    -0.000 C 
BRANCH  14  15
ATOM     15  C   UNL     1      27.870  25.273  16.375  1.00  0.00    -0.003 C 
ATOM     16  C   UNL     1      27.105  25.233  17.694  1.00  0.00     0.004 C 
ENDBRANCH  14  15
ENDBRANCH  13  14
ENDBRANCH  12  13
ENDBRANCH  11  12
ENDBRANCH  10  11
ENDBRANCH   1  10
TORSDOF 12
ENDMDL
MODEL 6
REMARK VINA RESULT:    -4.381      2.648      4.533
REMARK INTER + INTRA:          -9.429
REMARK INTER:                  -8.415
REMARK INTRA:                  -1.014
REMARK UNBOUND:                -1.974
REMARK SMILES CCCCCCCCCCCCCC(=O)[O-]
REMARK SMILES IDX 8 1 9 2 10 3 11 4 12 5 13 6 14 7 15 8 16 9 7 10 6 11 5 12
REMARK SMILES IDX 4 13 3 14 2 15 1 16
REMARK H PARENT
REMARK Flexibility Score: inf
ROOT
ATOM      1  C   UNL     1      32.376  28.785  14.471  1.00  0.00     0.000 C 
ENDROOT
BRANCH   1   2
ATOM      2  C   UNL     1      32.400  29.845  15.582  1.00  0.00     0.000 C 
BRANCH   2   3
ATOM      3  C   UNL     1      31.879  31.191  15.067  1.00  0.00     0.000 C 
BRANCH   3   4
ATOM      4  C   UNL     1      30.803  31.760  16.001  1.00  0.00     0.000 C 
BRANCH   4   5
ATOM      5  C   UNL     1      29.484  30.987  15.857  1.00  0.00     0.006 C 
BRANCH   5   6
ATOM      6  C   UNL     1      28.744  31.339  14.560  1.00  0.00     0.053 C 
BRANCH   6   7
ATOM      7  C   UNL     1      28.248  30.113  13.856  1.00  0.00     0.041 C 
ATOM      8  O   UNL     1      28.420  28.975  14.367  1.00  0.00    -0.550 OA
ATOM      9  O   UNL     1      27.567  30.231  12.651  1.00  0.00    -0.550 OA
ENDBRANCH   6   7
ENDBRANCH   5   6
ENDBRANCH   4   5
ENDBRANCH   3   4
ENDBRANCH   2   3
ENDBRANCH   1   2
BRANCH   1  10
ATOM     10  C   UNL     1      31.796  29.323  13.153  1.00  0.00     0.000 C 
BRANCH  10  11
ATOM     11  C   UNL     1      32.478  28.714  11.915  1.00  0.00    -0.000 C 
BRANCH  11  12
ATOM     12  C   UNL     1      32.097  29.438  10.612  1.00  0.00    -0.000 C 
BRANCH  12  13
ATOM     13  C   UNL     1      33.150  29.255   9.506  1.00  0.00    -0.000 C 
BRANCH  13  14
ATOM     14  C   UNL     1      33.181  30.435   8.521  1.00  0.00    -0.000 C 
BRANCH  14  15
ATOM     15  C   UNL     1      33.579  31.757   9.192  1.00  0.00    -0.003 C 
ATOM     16  C   UNL     1      32.816  32.932   8.587  1.00  0.00     0.004 C 
ENDBRANCH  14  15
ENDBRANCH  13  14
ENDBRANCH  12  13
ENDBRANCH  11  12
ENDBRANCH  10  11
ENDBRANCH   1  10
TORSDOF 12
ENDMDL
MODEL 7
REMARK VINA RESULT:    -4.374      3.149      4.604
REMARK INTER + INTRA:          -9.416
REMARK INTER:                  -7.687
REMARK INTRA:                  -1.730
REMARK UNBOUND:                -1.974
REMARK SMILES CCCCCCCCCCCCCC(=O)[O-]
REMARK SMILES IDX 8 1 9 2 10 3 11 4 12 5 13 6 14 7 15 8 16 9 7 10 6 11 5 12
REMARK SMILES IDX 4 13 3 14 2 15 1 16
REMARK H PARENT
REMARK Flexibility Score: inf
ROOT
ATOM      1  C   UNL     1      28.350  29.990  13.943  1.00  0.00     0.000 C 
ENDROOT
BRANCH   1   2
ATOM      2  C   UNL     1      28.757  28.640  14.554  1.00  0.00     0.000 C 
BRANCH   2   3
ATOM      3  C   UNL     1      29.800  27.935  13.681  1.00  0.00     0.000 C 
BRANCH   3   4
ATOM      4  C   UNL     1      30.202  28.809  12.486  1.00  0.00     0.000 C 
BRANCH   4   5
ATOM      5  C   UNL     1      31.217  28.084  11.590  1.00  0.00     0.006 C 
BRANCH   5   6
ATOM      6  C   UNL     1      32.456  28.943  11.303  1.00  0.00     0.053 C 
BRANCH   6   7
ATOM      7  C   UNL     1      33.713  28.129  11.338  1.00  0.00     0.041 C 
ATOM      8  O   UNL     1      34.776  28.582  10.836  1.00  0.00    -0.550 OA
ATOM      9  O   UNL     1      33.719  26.884  11.953  1.00  0.00    -0.550 OA
ENDBRANCH   6   7
ENDBRANCH   5   6
ENDBRANCH   4   5
ENDBRANCH   3   4
ENDBRANCH   2   3
ENDBRANCH   1   2
BRANCH   1  10
ATOM     10  C   UNL     1      28.721  31.181  14.842  1.00  0.00     0.000 C 
BRANCH  10  11
ATOM     11  C   UNL     1      29.359  30.741  16.172  1.00  0.00    -0.000 C 
BRANCH  11  12
ATOM     12  C   UNL     1      30.589  31.584  16.546  1.00  0.00    -0.000 C 
BRANCH  12  13
ATOM     13  C   UNL     1      31.402  32.020  15.315  1.00  0.00    -0.000 C 
BRANCH  13  14
ATOM     14  C   UNL     1      32.206  30.862  14.700  1.00  0.00    -0.000 C 
BRANCH  14  15
ATOM     15  C   UNL     1      32.518  29.752  15.716  1.00  0.00    -0.003 C 
ATOM     16  C   UNL     1      33.046  28.503  15.017  1.00  0.00     0.004 C 
ENDBRANCH  14  15
ENDBRANCH  13  14
ENDBRANCH  12  13
ENDBRANCH  11  12
ENDBRANCH  10  11
ENDBRANCH   1  10
TORSDOF 12
ENDMDL
MODEL 8
REMARK VINA RESULT:    -4.362      3.446      5.800
REMARK INTER + INTRA:          -9.397
REMARK INTER:                  -7.809
REMARK INTRA:                  -1.588
REMARK UNBOUND:                -1.974
REMARK SMILES CCCCCCCCCCCCCC(=O)[O-]
REMARK SMILES IDX 8 1 9 2 10 3 11 4 12 5 13 6 14 7 15 8 16 9 7 10 6 11 5 12
REMARK SMILES IDX 4 13 3 14 2 15 1 16
REMARK H PARENT
REMARK Flexibility Score: inf
ROOT
ATOM      1  C   UNL     1      30.352  27.604  13.817  1.00  0.00     0.000 C 
ENDROOT
BRANCH   1   2
ATOM      2  C   UNL     1      31.667  27.939  14.536  1.00  0.00     0.000 C 
BRANCH   2   3
ATOM      3  C   UNL     1      32.660  28.608  13.580  1.00  0.00     0.000 C 
BRANCH   3   4
ATOM      4  C   UNL     1      31.943  29.178  12.350  1.00  0.00     0.000 C 
BRANCH   4   5
ATOM      5  C   UNL     1      32.641  28.742  11.054  1.00  0.00     0.006 C 
BRANCH   5   6
ATOM      6  C   UNL     1      34.129  28.436  11.270  1.00  0.00     0.053 C 
BRANCH   6   7
ATOM      7  C   UNL     1      34.496  27.078  10.754  1.00  0.00     0.041 C 
ATOM      8  O   UNL     1      35.511  26.931  10.022  1.00  0.00    -0.550 OA
ATOM      9  O   UNL     1      33.735  25.971  11.106  1.00  0.00    -0.550 OA
ENDBRANCH   6   7
ENDBRANCH   5   6
ENDBRANCH   4   5
ENDBRANCH   3   4
ENDBRANCH   2   3
ENDBRANCH   1   2
BRANCH   1  10
ATOM     10  C   UNL     1      29.120  27.798  14.717  1.00  0.00     0.000 C 
BRANCH  10  11
ATOM     11  C   UNL     1      28.051  28.697  14.070  1.00  0.00    -0.000 C 
BRANCH  11  12
ATOM     12  C   UNL     1      28.594  30.086  13.695  1.00  0.00    -0.000 C 
BRANCH  12  13
ATOM     13  C   UNL     1      28.909  30.949  14.928  1.00  0.00    -0.000 C 
BRANCH  13  14
ATOM     14  C   UNL     1      30.336  31.519  14.900  1.00  0.00    -0.000 C 
BRANCH  14  15
ATOM     15  C   UNL     1      30.802  32.020  16.275  1.00  0.00    -0.003 C 
ATOM     16  C   UNL     1      30.509  30.991  17.362  1.00  0.00     0.004 C 
ENDBRANCH  14  15
ENDBRANCH  13  14
ENDBRANCH  12  13
ENDBRANCH  11  12
ENDBRANCH  10  11
ENDBRANCH   1  10
TORSDOF 12
ENDMDL
MODEL 9
REMARK VINA RESULT:    -4.351      2.310      3.916
REMARK INTER + INTRA:          -9.376
REMARK INTER:                  -7.913
REMARK INTRA:                  -1.464
REMARK UNBOUND:                -1.974
REMARK SMILES CCCCCCCCCCCCCC(=O)[O-]
REMARK SMILES IDX 8 1 9 2 10 3 11 4 12 5 13 6 14 7 15 8 16 9 7 10 6 11 5 12
REMARK SMILES IDX 4 13 3 14 2 15 1 16
REMARK H PARENT
REMARK Flexibility Score: inf
ROOT
ATOM      1  C   UNL     1      28.958  28.443  14.634  1.00  0.00     0.000 C 
ENDROOT
BRANCH   1   2
ATOM      2  C   UNL     1      28.547  29.832  14.122  1.00  0.00     0.000 C 
BRANCH   2   3
ATOM      3  C   UNL     1      28.179  29.782  12.635  1.00  0.00     0.000 C 
BRANCH   3   4
ATOM      4  C   UNL     1      26.667  29.947  12.435  1.00  0.00     0.000 C 
BRANCH   4   5
ATOM      5  C   UNL     1      26.067  28.717  11.737  1.00  0.00     0.006 C 
BRANCH   5   6
ATOM      6  C   UNL     1      25.783  27.573  12.720  1.00  0.00     0.053 C 
BRANCH   6   7
ATOM      7  C   UNL     1      24.505  26.863  12.389  1.00  0.00     0.041 C 
ATOM      8  O   UNL     1      23.560  27.484  11.835  1.00  0.00    -0.550 OA
ATOM      9  O   UNL     1      24.371  25.509  12.664  1.00  0.00    -0.550 OA
ENDBRANCH   6   7
ENDBRANCH   5   6
ENDBRANCH   4   5
ENDBRANCH   3   4
ENDBRANCH   2   3
ENDBRANCH   1   2
BRANCH   1  10
ATOM     10  C   UNL     1      30.127  27.842  13.837  1.00  0.00     0.000 C 
BRANCH  10  11
ATOM     11  C   UNL     1      31.468  27.948  14.584  1.00  0.00    -0.000 C 
BRANCH  11  12
ATOM     12  C   UNL     1      32.249  29.223  14.223  1.00  0.00    -0.000 C 
BRANCH  12  13
ATOM     13  C   UNL     1      32.321  30.221  15.391  1.00  0.00    -0.000 C 
BRANCH  13  14
ATOM     14  C   UNL     1      31.676  31.575  15.049  1.00  0.00    -0.000 C 
BRANCH  14  15
ATOM     15  C   UNL     1      30.682  32.045  16.121  1.00  0.00    -0.003 C 
ATOM     16  C   UNL     1      30.538  31.007  17.230  1.00  0.00     0.004 C 
ENDBRANCH  14  15
ENDBRANCH  13  14
ENDBRANCH  12  13
ENDBRANCH  11  12
ENDBRANCH  10  11
ENDBRANCH   1  10
TORSDOF 12
ENDMDL
