MODEL 1
REMARK VINA RESULT:    -4.170      0.000      0.000
REMARK INTER + INTRA:          -9.821
REMARK INTER:                  -7.582
REMARK INTRA:                  -2.239
REMARK UNBOUND:                -2.239
REMARK SMILES CCCCCCCCCCCCCCCC(=O)[O-]
REMARK SMILES IDX 9 1 10 2 11 3 12 4 13 5 14 6 15 7 16 8 17 9 18 10 8 11 7 12
REMARK SMILES IDX 6 13 5 14 4 15 3 16 2 17 1 18
REMARK H PARENT
REMARK Flexibility Score: inf
ROOT
ATOM      1  C   UNL     1      14.578  26.040  52.054  1.00  0.00     0.000 C 
ENDROOT
BRANCH   1   2
ATOM      2  C   UNL     1      14.596  26.730  50.680  1.00  0.00     0.000 C 
BRANCH   2   3
ATOM      3  C   UNL     1      15.822  27.642  50.491  1.00  0.00     0.000 C 
BRANCH   3   4
ATOM      4  C   UNL     1      15.422  29.116  50.253  1.00  0.00     0.000 C 
BRANCH   4   5
ATOM      5  C   UNL     1      14.427  29.666  51.295  1.00  0.00     0.000 C 
BRANCH   5   6
ATOM      6  C   UNL     1      14.310  31.200  51.329  1.00  0.00     0.006 C 
BRANCH   6   7
ATOM      7  C   UNL     1      15.668  31.895  51.491  1.00  0.00     0.053 C 
BRANCH   7   8
ATOM      8  C   UNL     1      15.553  33.352  51.171  1.00  0.00     0.041 C 
ATOM      9  O   UNL     1      14.625  34.039  51.675  1.00  0.00    -0.550 OA
ATOM     10  O   UNL     1      16.457  33.950  50.300  1.00  0.00    -0.550 OA
ENDBRANCH   7   8
ENDBRANCH   6   7
ENDBRANCH   5   6
ENDBRANCH   4   5
ENDBRANCH   3   4
ENDBRANCH   2   3
ENDBRANCH   1   2
BRANCH   1  11
ATOM     11  C   UNL     1      15.929  25.396  52.411  1.00  0.00     0.000 C 
BRANCH  11  12
ATOM     12  C   UNL     1      16.379  25.753  53.844  1.00  0.00    -0.000 C 
BRANCH  12  13
ATOM     13  C   UNL     1      15.371  26.623  54.611  1.00  0.00    -0.000 C 
BRANCH  13  14
ATOM     14  C   UNL     1      16.026  27.838  55.287  1.00  0.00    -0.000 C 
BRANCH  14  15
ATOM     15  C   UNL     1      16.285  28.997  54.310  1.00  0.00    -0.000 C 
BRANCH  15  16
ATOM     16  C   UNL     1      17.768  29.339  54.079  1.00  0.00    -0.000 C 
BRANCH  16  17
ATOM     17  C   UNL     1      18.324  28.828  52.734  1.00  0.00    -0.003 C 
ATOM     18  C   UNL     1      19.347  27.706  52.916  1.00  0.00     0.004 C 
ENDBRANCH  16  17
ENDBRANCH  15  16
ENDBRANCH  14  15
ENDBRANCH  13  14
ENDBRANCH  12  13
ENDBRANCH  11  12
ENDBRANCH   1  11
TORSDOF 14
ENDMDL
MODEL 2
REMARK VINA RESULT:    -4.098      1.866      2.800
REMARK INTER + INTRA:          -9.691
REMARK INTER:                  -7.690
REMARK INTRA:                  -2.001
REMARK UNBOUND:                -2.239
REMARK SMILES CCCCCCCCCCCCCCCC(=O)[O-]
REMARK SMILES IDX 9 1 10 2 11 3 12 4 13 5 14 6 15 7 16 8 17 9 18 10 8 11 7 12
REMARK SMILES IDX 6 13 5 14 4 15 3 16 2 17 1 18
REMARK H PARENT
REMARK Flexibility Score: inf
ROOT
ATOM      1  C   UNL     1      13.804  25.385  51.669  1.00  0.00     0.000 C 
ENDROOT
BRANCH   1   2
ATOM      2  C   UNL     1      13.945  25.680  50.167  1.00  0.00     0.000 C 
BRANCH   2   3
ATOM      3  C   UNL     1      15.308  25.237  49.601  1.00  0.00     0.000 C 
BRANCH   3   4
ATOM      4  C   UNL     1      16.344  26.384  49.610  1.00  0.00     0.000 C 
BRANCH   4   5
ATOM      5  C   UNL     1      15.715  27.790  49.691  1.00  0.00     0.000 C 
BRANCH   5   6
ATOM      6  C   UNL     1      16.085  28.591  50.952  1.00  0.00     0.006 C 
BRANCH   6   7
ATOM      7  C   UNL     1      14.856  29.142  51.686  1.00  0.00     0.053 C 
BRANCH   7   8
ATOM      8  C   UNL     1      14.751  30.622  51.494  1.00  0.00     0.041 C 
ATOM      9  O   UNL     1      14.103  31.089  50.519  1.00  0.00    -0.550 OA
ATOM     10  O   UNL     1      15.385  31.489  52.377  1.00  0.00    -0.550 OA
ENDBRANCH   7   8
ENDBRANCH   6   7
ENDBRANCH   5   6
ENDBRANCH   4   5
ENDBRANCH   3   4
ENDBRANCH   2   3
ENDBRANCH   1   2
BRANCH   1  11
ATOM     11  C   UNL     1      14.526  24.092  52.090  1.00  0.00     0.000 C 
BRANCH  11  12
ATOM     12  C   UNL     1      15.513  24.333  53.252  1.00  0.00    -0.000 C 
BRANCH  12  13
ATOM     13  C   UNL     1      16.090  25.757  53.290  1.00  0.00    -0.000 C 
BRANCH  13  14
ATOM     14  C   UNL     1      15.808  26.478  54.617  1.00  0.00    -0.000 C 
BRANCH  14  15
ATOM     15  C   UNL     1      16.554  27.817  54.738  1.00  0.00    -0.000 C 
BRANCH  15  16
ATOM     16  C   UNL     1      15.710  28.991  55.269  1.00  0.00    -0.000 C 
BRANCH  16  17
ATOM     17  C   UNL     1      16.519  30.282  55.509  1.00  0.00    -0.003 C 
ATOM     18  C   UNL     1      16.490  30.723  56.972  1.00  0.00     0.004 C 
ENDBRANCH  16  17
ENDBRANCH  15  16
ENDBRANCH  14  15
ENDBRANCH  13  14
ENDBRANCH  12  13
ENDBRANCH  11  12
ENDBRANCH   1  11
TORSDOF 14
ENDMDL
MODEL 3
REMARK VINA RESULT:    -4.098      1.743      2.765
REMARK INTER + INTRA:          -9.691
REMARK INTER:                  -7.375
REMARK INTRA:                  -2.316
REMARK UNBOUND:                -2.239
REMARK SMILES CCCCCCCCCCCCCCCC(=O)[O-]
REMARK SMILES IDX 9 1 10 2 11 3 12 4 13 5 14 6 15 7 16 8 17 9 18 10 8 11 7 12
REMARK SMILES IDX 6 13 5 14 4 15 3 16 2 17 1 18
REMARK H PARENT
REMARK Flexibility Score: inf
ROOT
ATOM      1  C   UNL     1      15.516  24.689  50.440  1.00  0.00     0.000 C 
ENDROOT
BRANCH   1   2
ATOM      2  C   UNL     1      14.528  24.763  51.615  1.00  0.00     0.000 C 
BRANCH   2   3
ATOM      3  C   UNL     1      13.834  26.134  51.721  1.00  0.00     0.000 C 
BRANCH   3   4
ATOM      4  C   UNL     1      14.604  27.238  50.962  1.00  0.00     0.000 C 
BRANCH   4   5
ATOM      5  C   UNL     1      14.597  28.604  51.678  1.00  0.00     0.000 C 
BRANCH   5   6
ATOM      6  C   UNL     1      15.862  29.453  51.460  1.00  0.00     0.006 C 
BRANCH   6   7
ATOM      7  C   UNL     1      15.570  30.959  51.447  1.00  0.00     0.053 C 
BRANCH   7   8
ATOM      8  C   UNL     1      14.409  31.261  50.553  1.00  0.00     0.041 C 
ATOM      9  O   UNL     1      13.354  31.755  51.032  1.00  0.00    -0.550 OA
ATOM     10  O   UNL     1      14.481  30.977  49.193  1.00  0.00    -0.550 OA
ENDBRANCH   7   8
ENDBRANCH   6   7
ENDBRANCH   5   6
ENDBRANCH   4   5
ENDBRANCH   3   4
ENDBRANCH   2   3
ENDBRANCH   1   2
BRANCH   1  11
ATOM     11  C   UNL     1      16.924  24.246  50.876  1.00  0.00     0.000 C 
BRANCH  11  12
ATOM     12  C   UNL     1      17.759  25.426  51.418  1.00  0.00    -0.000 C 
BRANCH  12  13
ATOM     13  C   UNL     1      17.867  25.454  52.951  1.00  0.00    -0.000 C 
BRANCH  13  14
ATOM     14  C   UNL     1      17.314  26.751  53.563  1.00  0.00    -0.000 C 
BRANCH  14  15
ATOM     15  C   UNL     1      16.206  26.497  54.598  1.00  0.00    -0.000 C 
BRANCH  15  16
ATOM     16  C   UNL     1      15.531  27.763  55.158  1.00  0.00    -0.000 C 
BRANCH  16  17
ATOM     17  C   UNL     1      16.425  29.018  55.111  1.00  0.00    -0.003 C 
ATOM     18  C   UNL     1      15.985  30.083  56.116  1.00  0.00     0.004 C 
ENDBRANCH  16  17
ENDBRANCH  15  16
ENDBRANCH  14  15
ENDBRANCH  13  14
ENDBRANCH  12  13
ENDBRANCH  11  12
ENDBRANCH   1  11
TORSDOF 14
ENDMDL
MODEL 4
REMARK VINA RESULT:    -4.032      1.406      2.061
REMARK INTER + INTRA:          -9.570
REMARK INTER:                  -7.311
REMARK INTRA:                  -2.259
REMARK UNBOUND:                -2.239
REMARK SMILES CCCCCCCCCCCCCCCC(=O)[O-]
REMARK SMILES IDX 9 1 10 2 11 3 12 4 13 5 14 6 15 7 16 8 17 9 18 10 8 11 7 12
REMARK SMILES IDX 6 13 5 14 4 15 3 16 2 17 1 18
REMARK H PARENT
REMARK Flexibility Score: inf
ROOT
ATOM      1  C   UNL     1      16.200  25.180  50.226  1.00  0.00     0.000 C 
ENDROOT
BRANCH   1   2
ATOM      2  C   UNL     1      14.874  25.849  49.831  1.00  0.00     0.000 C 
BRANCH   2   3
ATOM      3  C   UNL     1      14.745  27.282  50.379  1.00  0.00     0.000 C 
BRANCH   3   4
ATOM      4  C   UNL     1      16.121  27.956  50.580  1.00  0.00     0.000 C 
BRANCH   4   5
ATOM      5  C   UNL     1      16.059  29.270  51.385  1.00  0.00     0.000 C 
BRANCH   5   6
ATOM      6  C   UNL     1      14.673  29.937  51.425  1.00  0.00     0.006 C 
BRANCH   6   7
ATOM      7  C   UNL     1      14.565  31.137  50.475  1.00  0.00     0.053 C 
BRANCH   7   8
ATOM      8  C   UNL     1      15.255  32.330  51.056  1.00  0.00     0.041 C 
ATOM      9  O   UNL     1      15.239  32.526  52.301  1.00  0.00    -0.550 OA
ATOM     10  O   UNL     1      15.901  33.238  50.225  1.00  0.00    -0.550 OA
ENDBRANCH   7   8
ENDBRANCH   6   7
ENDBRANCH   5   6
ENDBRANCH   4   5
ENDBRANCH   3   4
ENDBRANCH   2   3
ENDBRANCH   1   2
BRANCH   1  11
ATOM     11  C   UNL     1      15.995  23.879  51.021  1.00  0.00     0.000 C 
BRANCH  11  12
ATOM     12  C   UNL     1      14.939  24.041  52.135  1.00  0.00    -0.000 C 
BRANCH  12  13
ATOM     13  C   UNL     1      15.541  24.272  53.530  1.00  0.00    -0.000 C 
BRANCH  13  14
ATOM     14  C   UNL     1      15.392  25.724  54.010  1.00  0.00    -0.000 C 
BRANCH  14  15
ATOM     15  C   UNL     1      16.723  26.492  54.009  1.00  0.00    -0.000 C 
BRANCH  15  16
ATOM     16  C   UNL     1      17.967  25.646  53.680  1.00  0.00    -0.000 C 
BRANCH  16  17
ATOM     17  C   UNL     1      18.927  26.313  52.674  1.00  0.00    -0.003 C 
ATOM     18  C   UNL     1      19.201  27.778  53.015  1.00  0.00     0.004 C 
ENDBRANCH  16  17
ENDBRANCH  15  16
ENDBRANCH  14  15
ENDBRANCH  13  14
ENDBRANCH  12  13
ENDBRANCH  11  12
ENDBRANCH   1  11
TORSDOF 14
ENDMDL
MODEL 5
REMARK VINA RESULT:    -4.025      1.908      3.304
REMARK INTER + INTRA:          -9.558
REMARK INTER:                  -7.916
REMARK INTRA:                  -1.641
REMARK UNBOUND:                -2.239
REMARK SMILES CCCCCCCCCCCCCCCC(=O)[O-]
REMARK SMILES IDX 9 1 10 2 11 3 12 4 13 5 14 6 15 7 16 8 17 9 18 10 8 11 7 12
REMARK SMILES IDX 6 13 5 14 4 15 3 16 2 17 1 18
REMARK H PARENT
REMARK Flexibility Score: inf
ROOT
ATOM      1  C   UNL     1      16.547  25.932  53.774  1.00  0.00     0.000 C 
ENDROOT
BRANCH   1   2
ATOM      2  C   UNL     1      15.883  25.377  52.503  1.00  0.00     0.000 C 
BRANCH   2   3
ATOM      3  C   UNL     1      14.528  26.043  52.203  1.00  0.00     0.000 C 
BRANCH   3   4
ATOM      4  C   UNL     1      14.471  26.634  50.776  1.00  0.00     0.000 C 
BRANCH   4   5
ATOM      5  C   UNL     1      15.318  27.911  50.597  1.00  0.00     0.000 C 
BRANCH   5   6
ATOM      6  C   UNL     1      14.828  29.128  51.401  1.00  0.00     0.006 C 
BRANCH   6   7
ATOM      7  C   UNL     1      14.994  30.448  50.637  1.00  0.00     0.053 C 
BRANCH   7   8
ATOM      8  C   UNL     1      14.350  31.572  51.387  1.00  0.00     0.041 C 
ATOM      9  O   UNL     1      15.038  32.294  52.156  1.00  0.00    -0.550 OA
ATOM     10  O   UNL     1      12.987  31.811  51.254  1.00  0.00    -0.550 OA
ENDBRANCH   7   8
ENDBRANCH   6   7
ENDBRANCH   5   6
ENDBRANCH   4   5
ENDBRANCH   3   4
ENDBRANCH   2   3
ENDBRANCH   1   2
BRANCH   1  11
ATOM     11  C   UNL     1      15.524  26.468  54.791  1.00  0.00     0.000 C 
BRANCH  11  12
ATOM     12  C   UNL     1      15.905  27.871  55.309  1.00  0.00    -0.000 C 
BRANCH  12  13
ATOM     13  C   UNL     1      16.943  28.593  54.436  1.00  0.00    -0.000 C 
BRANCH  13  14
ATOM     14  C   UNL     1      16.799  30.122  54.479  1.00  0.00    -0.000 C 
BRANCH  14  15
ATOM     15  C   UNL     1      17.981  30.813  55.178  1.00  0.00    -0.000 C 
BRANCH  15  16
ATOM     16  C   UNL     1      17.711  31.268  56.624  1.00  0.00    -0.000 C 
BRANCH  16  17
ATOM     17  C   UNL     1      16.217  31.285  57.004  1.00  0.00    -0.003 C 
ATOM     18  C   UNL     1      15.734  32.679  57.405  1.00  0.00     0.004 C 
ENDBRANCH  16  17
ENDBRANCH  15  16
ENDBRANCH  14  15
ENDBRANCH  13  14
ENDBRANCH  12  13
ENDBRANCH  11  12
ENDBRANCH   1  11
TORSDOF 14
ENDMDL
MODEL 6
REMARK VINA RESULT:    -4.019      2.941      4.522
REMARK INTER + INTRA:          -9.547
REMARK INTER:                  -7.495
REMARK INTRA:                  -2.052
REMARK UNBOUND:                -2.239
REMARK SMILES CCCCCCCCCCCCCCCC(=O)[O-]
REMARK SMILES IDX 9 1 10 2 11 3 12 4 13 5 14 6 15 7 16 8 17 9 18 10 8 11 7 12
REMARK SMILES IDX 6 13 5 14 4 15 3 16 2 17 1 18
REMARK H PARENT
REMARK Flexibility Score: inf
ROOT
ATOM      1  C   UNL     1      17.200  26.527  53.976  1.00  0.00     0.000 C 
ENDROOT
BRANCH   1   2
ATOM      2  C   UNL     1      16.037  26.868  54.921  1.00  0.00     0.000 C 
BRANCH   2   3
ATOM      3  C   UNL     1      15.752  28.381  54.988  1.00  0.00     0.000 C 
BRANCH   3   4
ATOM      4  C   UNL     1      16.957  29.224  54.514  1.00  0.00     0.000 C 
BRANCH   4   5
ATOM      5  C   UNL     1      17.310  30.390  55.459  1.00  0.00     0.000 C 
BRANCH   5   6
ATOM      6  C   UNL     1      16.153  30.869  56.354  1.00  0.00     0.006 C 
BRANCH   6   7
ATOM      7  C   UNL     1      15.361  32.025  55.729  1.00  0.00     0.053 C 
BRANCH   7   8
ATOM      8  C   UNL     1      14.848  32.944  56.792  1.00  0.00     0.041 C 
ATOM      9  O   UNL     1      13.608  33.106  56.943  1.00  0.00    -0.550 OA
ATOM     10  O   UNL     1      15.738  33.640  57.604  1.00  0.00    -0.550 OA
ENDBRANCH   7   8
ENDBRANCH   6   7
ENDBRANCH   5   6
ENDBRANCH   4   5
ENDBRANCH   3   4
ENDBRANCH   2   3
ENDBRANCH   1   2
BRANCH   1  11
ATOM     11  C   UNL     1      17.071  25.123  53.359  1.00  0.00     0.000 C 
BRANCH  11  12
ATOM     12  C   UNL     1      15.618  24.604  53.401  1.00  0.00    -0.000 C 
BRANCH  12  13
ATOM     13  C   UNL     1      15.011  24.348  52.013  1.00  0.00    -0.000 C 
BRANCH  13  14
ATOM     14  C   UNL     1      13.807  25.253  51.713  1.00  0.00    -0.000 C 
BRANCH  14  15
ATOM     15  C   UNL     1      14.154  26.416  50.769  1.00  0.00    -0.000 C 
BRANCH  15  16
ATOM     16  C   UNL     1      14.600  27.715  51.466  1.00  0.00    -0.000 C 
BRANCH  16  17
ATOM     17  C   UNL     1      15.961  28.250  50.977  1.00  0.00    -0.003 C 
ATOM     18  C   UNL     1      16.776  27.183  50.246  1.00  0.00     0.004 C 
ENDBRANCH  16  17
ENDBRANCH  15  16
ENDBRANCH  14  15
ENDBRANCH  13  14
ENDBRANCH  12  13
ENDBRANCH  11  12
ENDBRANCH   1  11
TORSDOF 14
ENDMDL
MODEL 7
REMARK VINA RESULT:    -4.014      1.326      2.150
REMARK INTER + INTRA:          -9.539
REMARK INTER:                  -7.665
REMARK INTRA:                  -1.873
REMARK UNBOUND:                -2.239
REMARK SMILES CCCCCCCCCCCCCCCC(=O)[O-]
REMARK SMILES IDX 9 1 10 2 11 3 12 4 13 5 14 6 15 7 16 8 17 9 18 10 8 11 7 12
REMARK SMILES IDX 6 13 5 14 4 15 3 16 2 17 1 18
REMARK H PARENT
REMARK Flexibility Score: inf
ROOT
ATOM      1  C   UNL     1      14.335  25.114  50.019  1.00  0.00     0.000 C 
ENDROOT
BRANCH   1   2
ATOM      2  C   UNL     1      14.561  26.574  49.593  1.00  0.00     0.000 C 
BRANCH   2   3
ATOM      3  C   UNL     1      15.989  27.066  49.895  1.00  0.00     0.000 C 
BRANCH   3   4
ATOM      4  C   UNL     1      15.997  28.446  50.590  1.00  0.00     0.000 C 
BRANCH   4   5
ATOM      5  C   UNL     1      14.738  28.723  51.437  1.00  0.00     0.000 C 
BRANCH   5   6
ATOM      6  C   UNL     1      14.224  30.172  51.374  1.00  0.00     0.006 C 
BRANCH   6   7
ATOM      7  C   UNL     1      15.004  31.035  50.374  1.00  0.00     0.053 C 
BRANCH   7   8
ATOM      8  C   UNL     1      15.456  32.306  51.019  1.00  0.00     0.041 C 
ATOM      9  O   UNL     1      15.862  33.265  50.311  1.00  0.00    -0.550 OA
ATOM     10  O   UNL     1      15.450  32.428  52.405  1.00  0.00    -0.550 OA
ENDBRANCH   7   8
ENDBRANCH   6   7
ENDBRANCH   5   6
ENDBRANCH   4   5
ENDBRANCH   3   4
ENDBRANCH   2   3
ENDBRANCH   1   2
BRANCH   1  11
ATOM     11  C   UNL     1      14.130  24.966  51.538  1.00  0.00     0.000 C 
BRANCH  11  12
ATOM     12  C   UNL     1      15.217  24.081  52.184  1.00  0.00    -0.000 C 
BRANCH  12  13
ATOM     13  C   UNL     1      15.681  24.578  53.562  1.00  0.00    -0.000 C 
BRANCH  13  14
ATOM     14  C   UNL     1      16.111  26.053  53.550  1.00  0.00    -0.000 C 
BRANCH  14  15
ATOM     15  C   UNL     1      16.108  26.686  54.951  1.00  0.00    -0.000 C 
BRANCH  15  16
ATOM     16  C   UNL     1      15.762  28.187  54.989  1.00  0.00    -0.000 C 
BRANCH  16  17
ATOM     17  C   UNL     1      16.871  29.097  54.425  1.00  0.00    -0.003 C 
ATOM     18  C   UNL     1      16.944  30.442  55.148  1.00  0.00     0.004 C 
ENDBRANCH  16  17
ENDBRANCH  15  16
ENDBRANCH  14  15
ENDBRANCH  13  14
ENDBRANCH  12  13
ENDBRANCH  11  12
ENDBRANCH   1  11
TORSDOF 14
ENDMDL
MODEL 8
REMARK VINA RESULT:    -4.000      3.744      4.547
REMARK INTER + INTRA:          -9.513
REMARK INTER:                  -7.201
REMARK INTRA:                  -2.312
REMARK UNBOUND:                -2.239
REMARK SMILES CCCCCCCCCCCCCCCC(=O)[O-]
REMARK SMILES IDX 9 1 10 2 11 3 12 4 13 5 14 6 15 7 16 8 17 9 18 10 8 11 7 12
REMARK SMILES IDX 6 13 5 14 4 15 3 16 2 17 1 18
REMARK H PARENT
REMARK Flexibility Score: inf
ROOT
ATOM      1  C   UNL     1      17.701  25.745  53.255  1.00  0.00     0.000 C 
ENDROOT
BRANCH   1   2
ATOM      2  C   UNL     1      18.107  25.437  51.804  1.00  0.00     0.000 C 
BRANCH   2   3
ATOM      3  C   UNL     1      18.200  26.704  50.933  1.00  0.00     0.000 C 
BRANCH   3   4
ATOM      4  C   UNL     1      17.404  27.886  51.533  1.00  0.00     0.000 C 
BRANCH   4   5
ATOM      5  C   UNL     1      16.164  28.283  50.708  1.00  0.00     0.000 C 
BRANCH   5   6
ATOM      6  C   UNL     1      14.871  27.539  51.087  1.00  0.00     0.006 C 
BRANCH   6   7
ATOM      7  C   UNL     1      14.337  26.661  49.948  1.00  0.00     0.053 C 
BRANCH   7   8
ATOM      8  C   UNL     1      14.693  25.227  50.180  1.00  0.00     0.041 C 
ATOM      9  O   UNL     1      15.627  24.694  49.525  1.00  0.00    -0.550 OA
ATOM     10  O   UNL     1      13.982  24.471  51.105  1.00  0.00    -0.550 OA
ENDBRANCH   7   8
ENDBRANCH   6   7
ENDBRANCH   5   6
ENDBRANCH   4   5
ENDBRANCH   3   4
ENDBRANCH   2   3
ENDBRANCH   1   2
BRANCH   1  11
ATOM     11  C   UNL     1      16.343  25.129  53.634  1.00  0.00     0.000 C 
BRANCH  11  12
ATOM     12  C   UNL     1      15.413  26.153  54.317  1.00  0.00    -0.000 C 
BRANCH  12  13
ATOM     13  C   UNL     1      16.156  27.185  55.181  1.00  0.00    -0.000 C 
BRANCH  13  14
ATOM     14  C   UNL     1      15.764  28.633  54.849  1.00  0.00    -0.000 C 
BRANCH  14  15
ATOM     15  C   UNL     1      16.144  29.624  55.960  1.00  0.00    -0.000 C 
BRANCH  15  16
ATOM     16  C   UNL     1      17.250  30.629  55.590  1.00  0.00    -0.000 C 
BRANCH  16  17
ATOM     17  C   UNL     1      17.806  30.448  54.163  1.00  0.00    -0.003 C 
ATOM     18  C   UNL     1      19.225  29.879  54.159  1.00  0.00     0.004 C 
ENDBRANCH  16  17
ENDBRANCH  15  16
ENDBRANCH  14  15
ENDBRANCH  13  14
ENDBRANCH  12  13
ENDBRANCH  11  12
ENDBRANCH   1  11
TORSDOF 14
ENDMDL
MODEL 9
REMARK VINA RESULT:    -3.992      1.351      2.787
REMARK INTER + INTRA:          -9.498
REMARK INTER:                  -7.010
REMARK INTRA:                  -2.488
REMARK UNBOUND:                -2.239
REMARK SMILES CCCCCCCCCCCCCCCC(=O)[O-]
REMARK SMILES IDX 9 1 10 2 11 3 12 4 13 5 14 6 15 7 16 8 17 9 18 10 8 11 7 12
REMARK SMILES IDX 6 13 5 14 4 15 3 16 2 17 1 18
REMARK H PARENT
REMARK Flexibility Score: inf
ROOT
ATOM      1  C   UNL     1      15.114  26.558  54.082  1.00  0.00     0.000 C 
ENDROOT
BRANCH   1   2
ATOM      2  C   UNL     1      15.652  25.462  53.147  1.00  0.00     0.000 C 
BRANCH   2   3
ATOM      3  C   UNL     1      15.501  25.826  51.658  1.00  0.00     0.000 C 
BRANCH   3   4
ATOM      4  C   UNL     1      14.463  26.949  51.433  1.00  0.00     0.000 C 
BRANCH   4   5
ATOM      5  C   UNL     1      15.033  28.188  50.714  1.00  0.00     0.000 C 
BRANCH   5   6
ATOM      6  C   UNL     1      14.590  29.538  51.306  1.00  0.00     0.006 C 
BRANCH   6   7
ATOM      7  C   UNL     1      14.874  30.718  50.368  1.00  0.00     0.053 C 
BRANCH   7   8
ATOM      8  C   UNL     1      15.402  31.886  51.139  1.00  0.00     0.041 C 
ATOM      9  O   UNL     1      15.614  32.984  50.558  1.00  0.00    -0.550 OA
ATOM     10  O   UNL     1      15.680  31.760  52.495  1.00  0.00    -0.550 OA
ENDBRANCH   7   8
ENDBRANCH   6   7
ENDBRANCH   5   6
ENDBRANCH   4   5
ENDBRANCH   3   4
ENDBRANCH   2   3
ENDBRANCH   1   2
BRANCH   1  11
ATOM     11  C   UNL     1      16.223  27.217  54.921  1.00  0.00     0.000 C 
BRANCH  11  12
ATOM     12  C   UNL     1      16.450  28.691  54.525  1.00  0.00    -0.000 C 
BRANCH  12  13
ATOM     13  C   UNL     1      17.892  29.001  54.092  1.00  0.00    -0.000 C 
BRANCH  13  14
ATOM     14  C   UNL     1      18.055  29.061  52.565  1.00  0.00    -0.000 C 
BRANCH  14  15
ATOM     15  C   UNL     1      18.599  27.751  51.972  1.00  0.00    -0.000 C 
BRANCH  15  16
ATOM     16  C   UNL     1      19.563  26.970  52.884  1.00  0.00    -0.000 C 
BRANCH  16  17
ATOM     17  C   UNL     1      19.256  25.462  52.970  1.00  0.00    -0.003 C 
ATOM     18  C   UNL     1      20.425  24.661  53.544  1.00  0.00     0.004 C 
ENDBRANCH  16  17
ENDBRANCH  15  16
ENDBRANCH  14  15
ENDBRANCH  13  14
ENDBRANCH  12  13
ENDBRANCH  11  12
ENDBRANCH   1  11
TORSDOF 14
ENDMDL
