MODEL 1
REMARK VINA RESULT:    -5.142      0.000      0.000
REMARK INTER + INTRA:          -6.063
REMARK INTER:                  -6.194
REMARK INTRA:                   0.131
REMARK UNBOUND:                 0.131
REMARK SMILES O=c1c(O)c(-c2ccc(O)c(O)c2)oc2cc(O)cc(O)c12
REMARK SMILES IDX 5 1 3 2 2 3 1 4 22 5 20 6 19 7 17 8 16 9 15 10 14 11 6 12
REMARK SMILES IDX 7 13 8 14 9 15 13 16 11 17 10 18 12 20 4 22 21 24 18 26
REMARK H PARENT 10 19 12 21 4 23 21 25 18 27
REMARK Flexibility Score: inf
ROOT
ATOM      1  C   UNL     1      20.725  -2.325  19.447  1.00  0.00     0.180 A 
ATOM      2  C   UNL     1      21.293  -1.239  18.760  1.00  0.00     0.208 A 
ATOM      3  C   UNL     1      20.587  -0.027  18.700  1.00  0.00     0.238 A 
ATOM      4  O   UNL     1      21.124   0.958  18.129  1.00  0.00    -0.285 OA
ATOM      5  C   UNL     1      19.315   0.079  19.311  1.00  0.00     0.111 A 
ATOM      6  C   UNL     1      18.493   1.245  19.278  1.00  0.00     0.134 A 
ATOM      7  C   UNL     1      17.312   1.280  20.029  1.00  0.00     0.093 A 
ATOM      8  C   UNL     1      16.889   0.167  20.760  1.00  0.00     0.123 A 
ATOM      9  C   UNL     1      17.655  -0.997  20.751  1.00  0.00     0.094 A 
ATOM     10  C   UNL     1      18.857  -1.049  20.040  1.00  0.00     0.146 A 
ATOM     11  O   UNL     1      19.560  -2.176  20.067  1.00  0.00    -0.452 OA
ENDROOT
BRANCH   1  12
ATOM     12  C   UNL     1      21.397  -3.642  19.533  1.00  0.00     0.025 A 
ATOM     13  C   UNL     1      21.286  -4.399  20.710  1.00  0.00     0.016 A 
ATOM     14  C   UNL     1      21.895  -5.654  20.806  1.00  0.00     0.051 A 
ATOM     15  C   UNL     1      22.610  -6.175  19.720  1.00  0.00     0.157 A 
ATOM     16  C   UNL     1      22.100  -4.179  18.439  1.00  0.00     0.062 A 
ATOM     17  C   UNL     1      22.710  -5.439  18.533  1.00  0.00     0.158 A 
BRANCH  15  18
ATOM     18  O   UNL     1      23.221  -7.424  19.812  1.00  0.00    -0.504 OA
ATOM     19  H   UNL     1      24.187  -7.522  20.102  1.00  0.00     0.293 HD
ENDBRANCH  15  18
BRANCH  17  20
ATOM     20  O   UNL     1      23.411  -5.966  17.451  1.00  0.00    -0.504 OA
ATOM     21  H   UNL     1      23.417  -5.505  16.548  1.00  0.00     0.293 HD
ENDBRANCH  17  20
ENDBRANCH   1  12
BRANCH   2  22
ATOM     22  O   UNL     1      22.560  -1.358  18.182  1.00  0.00    -0.502 OA
ATOM     23  H   UNL     1      23.118  -2.200  18.261  1.00  0.00     0.293 HD
ENDBRANCH   2  22
BRANCH   6  24
ATOM     24  O   UNL     1      18.777   2.377  18.507  1.00  0.00    -0.507 OA
ATOM     25  H   UNL     1      19.143   2.356  17.568  1.00  0.00     0.293 HD
ENDBRANCH   6  24
BRANCH   8  26
ATOM     26  O   UNL     1      15.705   0.205  21.491  1.00  0.00    -0.508 OA
ATOM     27  H   UNL     1      14.921  -0.394  21.262  1.00  0.00     0.293 HD
ENDBRANCH   8  26
TORSDOF 6
ENDMDL
MODEL 2
REMARK VINA RESULT:    -5.120      1.525      3.017
REMARK INTER + INTRA:          -6.036
REMARK INTER:                  -5.796
REMARK INTRA:                  -0.240
REMARK UNBOUND:                 0.131
REMARK SMILES O=c1c(O)c(-c2ccc(O)c(O)c2)oc2cc(O)cc(O)c12
REMARK SMILES IDX 5 1 3 2 2 3 1 4 22 5 20 6 19 7 17 8 16 9 15 10 14 11 6 12
REMARK SMILES IDX 7 13 8 14 9 15 13 16 11 17 10 18 12 20 4 22 21 24 18 26
REMARK H PARENT 10 19 12 21 4 23 21 25 18 27
REMARK Flexibility Score: inf
ROOT
ATOM      1  C   UNL     1      21.017  -2.618  19.705  1.00  0.00     0.180 A 
ATOM      2  C   UNL     1      20.083  -3.165  20.603  1.00  0.00     0.208 A 
ATOM      3  C   UNL     1      18.935  -2.425  20.925  1.00  0.00     0.238 A 
ATOM      4  O   UNL     1      18.077  -2.942  21.687  1.00  0.00    -0.285 OA
ATOM      5  C   UNL     1      18.742  -1.141  20.361  1.00  0.00     0.111 A 
ATOM      6  C   UNL     1      17.635  -0.287  20.649  1.00  0.00     0.134 A 
ATOM      7  C   UNL     1      17.480   0.906  19.932  1.00  0.00     0.093 A 
ATOM      8  C   UNL     1      18.425   1.307  18.985  1.00  0.00     0.123 A 
ATOM      9  C   UNL     1      19.539   0.508  18.740  1.00  0.00     0.094 A 
ATOM     10  C   UNL     1      19.703  -0.705  19.413  1.00  0.00     0.146 A 
ATOM     11  O   UNL     1      20.776  -1.441  19.141  1.00  0.00    -0.452 OA
ENDROOT
BRANCH   1  12
ATOM     12  C   UNL     1      22.264  -3.327  19.335  1.00  0.00     0.025 A 
ATOM     13  C   UNL     1      23.485  -2.907  19.883  1.00  0.00     0.016 A 
ATOM     14  C   UNL     1      24.671  -3.575  19.564  1.00  0.00     0.051 A 
ATOM     15  C   UNL     1      24.649  -4.680  18.705  1.00  0.00     0.157 A 
ATOM     16  C   UNL     1      22.243  -4.450  18.488  1.00  0.00     0.062 A 
ATOM     17  C   UNL     1      23.433  -5.122  18.169  1.00  0.00     0.158 A 
BRANCH  15  18
ATOM     18  O   UNL     1      25.829  -5.347  18.382  1.00  0.00    -0.504 OA
ATOM     19  H   UNL     1      26.716  -4.860  18.330  1.00  0.00     0.293 HD
ENDBRANCH  15  18
BRANCH  17  20
ATOM     20  O   UNL     1      23.413  -6.230  17.325  1.00  0.00    -0.504 OA
ATOM     21  H   UNL     1      23.600  -6.145  16.333  1.00  0.00     0.293 HD
ENDBRANCH  17  20
ENDBRANCH   1  12
BRANCH   2  22
ATOM     22  O   UNL     1      20.283  -4.443  21.132  1.00  0.00    -0.502 OA
ATOM     23  H   UNL     1      20.087  -5.286  20.605  1.00  0.00     0.293 HD
ENDBRANCH   2  22
BRANCH   6  24
ATOM     24  O   UNL     1      16.685  -0.549  21.640  1.00  0.00    -0.507 OA
ATOM     25  H   UNL     1      16.333   0.132  22.294  1.00  0.00     0.293 HD
ENDBRANCH   6  24
BRANCH   8  26
ATOM     26  O   UNL     1      18.269   2.503  18.289  1.00  0.00    -0.508 OA
ATOM     27  H   UNL     1      17.519   3.149  18.504  1.00  0.00     0.293 HD
ENDBRANCH   8  26
TORSDOF 6
ENDMDL
MODEL 3
REMARK VINA RESULT:    -5.040      1.371      1.496
REMARK INTER + INTRA:          -5.940
REMARK INTER:                  -5.669
REMARK INTRA:                  -0.271
REMARK UNBOUND:                 0.131
REMARK SMILES O=c1c(O)c(-c2ccc(O)c(O)c2)oc2cc(O)cc(O)c12
REMARK SMILES IDX 5 1 3 2 2 3 1 4 22 5 20 6 19 7 17 8 16 9 15 10 14 11 6 12
REMARK SMILES IDX 7 13 8 14 9 15 13 16 11 17 10 18 12 20 4 22 21 24 18 26
REMARK H PARENT 10 19 12 21 4 23 21 25 18 27
REMARK Flexibility Score: inf
ROOT
ATOM      1  C   UNL     1      20.679  -3.001  20.134  1.00  0.00     0.180 A 
ATOM      2  C   UNL     1      21.187  -1.695  20.250  1.00  0.00     0.208 A 
ATOM      3  C   UNL     1      20.289  -0.625  20.395  1.00  0.00     0.238 A 
ATOM      4  O   UNL     1      20.751   0.535  20.552  1.00  0.00    -0.285 OA
ATOM      5  C   UNL     1      18.895  -0.871  20.406  1.00  0.00     0.111 A 
ATOM      6  C   UNL     1      17.893   0.140  20.507  1.00  0.00     0.134 A 
ATOM      7  C   UNL     1      16.550  -0.229  20.640  1.00  0.00     0.093 A 
ATOM      8  C   UNL     1      16.165  -1.572  20.610  1.00  0.00     0.123 A 
ATOM      9  C   UNL     1      17.130  -2.564  20.452  1.00  0.00     0.094 A 
ATOM     10  C   UNL     1      18.482  -2.228  20.353  1.00  0.00     0.146 A 
ATOM     11  O   UNL     1      19.370  -3.206  20.214  1.00  0.00    -0.452 OA
ENDROOT
BRANCH   1  12
ATOM     12  C   UNL     1      21.561  -4.176  19.953  1.00  0.00     0.025 A 
ATOM     13  C   UNL     1      21.720  -5.089  21.008  1.00  0.00     0.016 A 
ATOM     14  C   UNL     1      22.532  -6.216  20.852  1.00  0.00     0.051 A 
ATOM     15  C   UNL     1      23.182  -6.455  19.635  1.00  0.00     0.157 A 
ATOM     16  C   UNL     1      22.200  -4.431  18.726  1.00  0.00     0.062 A 
ATOM     17  C   UNL     1      23.013  -5.563  18.568  1.00  0.00     0.158 A 
BRANCH  15  18
ATOM     18  O   UNL     1      23.994  -7.576  19.476  1.00  0.00    -0.504 OA
ATOM     19  H   UNL     1      24.764  -7.766  20.106  1.00  0.00     0.293 HD
ENDBRANCH  15  18
BRANCH  17  20
ATOM     20  O   UNL     1      23.650  -5.811  17.354  1.00  0.00    -0.504 OA
ATOM     21  H   UNL     1      24.288  -5.139  16.944  1.00  0.00     0.293 HD
ENDBRANCH  17  20
ENDBRANCH   1  12
BRANCH   2  22
ATOM     22  O   UNL     1      22.567  -1.476  20.259  1.00  0.00    -0.502 OA
ATOM     23  H   UNL     1      23.033  -0.911  19.559  1.00  0.00     0.293 HD
ENDBRANCH   2  22
BRANCH   6  24
ATOM     24  O   UNL     1      18.163   1.511  20.454  1.00  0.00    -0.507 OA
ATOM     25  H   UNL     1      18.899   1.932  19.909  1.00  0.00     0.293 HD
ENDBRANCH   6  24
BRANCH   8  26
ATOM     26  O   UNL     1      14.824  -1.929  20.727  1.00  0.00    -0.508 OA
ATOM     27  H   UNL     1      14.105  -1.482  20.171  1.00  0.00     0.293 HD
ENDBRANCH   8  26
TORSDOF 6
ENDMDL
MODEL 4
REMARK VINA RESULT:    -4.966      3.444      8.174
REMARK INTER + INTRA:          -5.851
REMARK INTER:                  -5.520
REMARK INTRA:                  -0.331
REMARK UNBOUND:                 0.131
REMARK SMILES O=c1c(O)c(-c2ccc(O)c(O)c2)oc2cc(O)cc(O)c12
REMARK SMILES IDX 5 1 3 2 2 3 1 4 22 5 20 6 19 7 17 8 16 9 15 10 14 11 6 12
REMARK SMILES IDX 7 13 8 14 9 15 13 16 11 17 10 18 12 20 4 22 21 24 18 26
REMARK H PARENT 10 19 12 21 4 23 21 25 18 27
REMARK Flexibility Score: inf
ROOT
ATOM      1  C   UNL     1      22.895  -6.089  18.974  1.00  0.00     0.180 A 
ATOM      2  C   UNL     1      23.498  -6.863  17.967  1.00  0.00     0.208 A 
ATOM      3  C   UNL     1      23.591  -8.253  18.142  1.00  0.00     0.238 A 
ATOM      4  O   UNL     1      24.083  -8.947  17.214  1.00  0.00    -0.285 OA
ATOM      5  C   UNL     1      23.097  -8.850  19.326  1.00  0.00     0.111 A 
ATOM      6  C   UNL     1      23.174 -10.243  19.627  1.00  0.00     0.134 A 
ATOM      7  C   UNL     1      22.535 -10.740  20.768  1.00  0.00     0.093 A 
ATOM      8  C   UNL     1      21.877  -9.885  21.656  1.00  0.00     0.123 A 
ATOM      9  C   UNL     1      21.846  -8.516  21.402  1.00  0.00     0.094 A 
ATOM     10  C   UNL     1      22.443  -7.995  20.252  1.00  0.00     0.146 A 
ATOM     11  O   UNL     1      22.382  -6.684  20.043  1.00  0.00    -0.452 OA
ENDROOT
BRANCH   1  12
ATOM     12  C   UNL     1      22.782  -4.615  18.874  1.00  0.00     0.025 A 
ATOM     13  C   UNL     1      21.588  -4.044  18.407  1.00  0.00     0.016 A 
ATOM     14  C   UNL     1      21.452  -2.656  18.324  1.00  0.00     0.051 A 
ATOM     15  C   UNL     1      22.503  -1.819  18.721  1.00  0.00     0.157 A 
ATOM     16  C   UNL     1      23.828  -3.771  19.290  1.00  0.00     0.062 A 
ATOM     17  C   UNL     1      23.691  -2.377  19.209  1.00  0.00     0.158 A 
BRANCH  15  18
ATOM     18  O   UNL     1      22.373  -0.434  18.637  1.00  0.00    -0.504 OA
ATOM     19  H   UNL     1      21.581  -0.003  18.176  1.00  0.00     0.293 HD
ENDBRANCH  15  18
BRANCH  17  20
ATOM     20  O   UNL     1      24.730  -1.542  19.615  1.00  0.00    -0.504 OA
ATOM     21  H   UNL     1      24.553  -0.687  20.129  1.00  0.00     0.293 HD
ENDBRANCH  17  20
ENDBRANCH   1  12
BRANCH   2  22
ATOM     22  O   UNL     1      23.960  -6.257  16.796  1.00  0.00    -0.502 OA
ATOM     23  H   UNL     1      24.941  -6.235  16.545  1.00  0.00     0.293 HD
ENDBRANCH   2  22
BRANCH   6  24
ATOM     24  O   UNL     1      23.885 -11.168  18.856  1.00  0.00    -0.507 OA
ATOM     25  H   UNL     1      23.573 -12.102  18.646  1.00  0.00     0.293 HD
ENDBRANCH   6  24
BRANCH   8  26
ATOM     26  O   UNL     1      21.257 -10.387  22.798  1.00  0.00    -0.508 OA
ATOM     27  H   UNL     1      21.787 -10.628  23.626  1.00  0.00     0.293 HD
ENDBRANCH   8  26
TORSDOF 6
ENDMDL
MODEL 5
REMARK VINA RESULT:    -4.932      3.115      8.544
REMARK INTER + INTRA:          -5.810
REMARK INTER:                  -5.488
REMARK INTRA:                  -0.322
REMARK UNBOUND:                 0.131
REMARK SMILES O=c1c(O)c(-c2ccc(O)c(O)c2)oc2cc(O)cc(O)c12
REMARK SMILES IDX 5 1 3 2 2 3 1 4 22 5 20 6 19 7 17 8 16 9 15 10 14 11 6 12
REMARK SMILES IDX 7 13 8 14 9 15 13 16 11 17 10 18 12 20 4 22 21 24 18 26
REMARK H PARENT 10 19 12 21 4 23 21 25 18 27
REMARK Flexibility Score: inf
ROOT
ATOM      1  C   UNL     1      22.827  -5.498  18.800  1.00  0.00     0.180 A 
ATOM      2  C   UNL     1      22.438  -6.268  19.910  1.00  0.00     0.208 A 
ATOM      3  C   UNL     1      22.673  -7.652  19.895  1.00  0.00     0.238 A 
ATOM      4  O   UNL     1      22.372  -8.327  20.914  1.00  0.00    -0.285 OA
ATOM      5  C   UNL     1      23.279  -8.252  18.766  1.00  0.00     0.111 A 
ATOM      6  C   UNL     1      23.528  -9.650  18.625  1.00  0.00     0.134 A 
ATOM      7  C   UNL     1      24.252 -10.115  17.521  1.00  0.00     0.093 A 
ATOM      8  C   UNL     1      24.678  -9.241  16.518  1.00  0.00     0.123 A 
ATOM      9  C   UNL     1      24.388  -7.883  16.617  1.00  0.00     0.094 A 
ATOM     10  C   UNL     1      23.700  -7.383  17.725  1.00  0.00     0.146 A 
ATOM     11  O   UNL     1      23.453  -6.080  17.783  1.00  0.00    -0.452 OA
ENDROOT
BRANCH   1  12
ATOM     12  C   UNL     1      22.590  -4.038  18.731  1.00  0.00     0.025 A 
ATOM     13  C   UNL     1      21.358  -3.560  18.260  1.00  0.00     0.016 A 
ATOM     14  C   UNL     1      21.105  -2.186  18.206  1.00  0.00     0.051 A 
ATOM     15  C   UNL     1      22.075  -1.273  18.637  1.00  0.00     0.157 A 
ATOM     16  C   UNL     1      23.554  -3.118  19.181  1.00  0.00     0.062 A 
ATOM     17  C   UNL     1      23.301  -1.739  19.129  1.00  0.00     0.158 A 
BRANCH  15  18
ATOM     18  O   UNL     1      21.828   0.098  18.582  1.00  0.00    -0.504 OA
ATOM     19  H   UNL     1      21.391   0.526  17.775  1.00  0.00     0.293 HD
ENDBRANCH  15  18
BRANCH  17  20
ATOM     20  O   UNL     1      24.259  -0.828  19.568  1.00  0.00    -0.504 OA
ATOM     21  H   UNL     1      24.950  -0.439  18.937  1.00  0.00     0.293 HD
ENDBRANCH  17  20
ENDBRANCH   1  12
BRANCH   2  22
ATOM     22  O   UNL     1      21.861  -5.652  21.025  1.00  0.00    -0.502 OA
ATOM     23  H   UNL     1      21.411  -4.746  20.974  1.00  0.00     0.293 HD
ENDBRANCH   2  22
BRANCH   6  24
ATOM     24  O   UNL     1      23.066 -10.618  19.523  1.00  0.00    -0.507 OA
ATOM     25  H   UNL     1      23.611 -11.395  19.861  1.00  0.00     0.293 HD
ENDBRANCH   6  24
BRANCH   8  26
ATOM     26  O   UNL     1      25.384  -9.716  15.415  1.00  0.00    -0.508 OA
ATOM     27  H   UNL     1      26.071  -9.144  14.939  1.00  0.00     0.293 HD
ENDBRANCH   8  26
TORSDOF 6
ENDMDL
MODEL 6
REMARK VINA RESULT:    -4.889      1.902      7.446
REMARK INTER + INTRA:          -5.758
REMARK INTER:                  -5.495
REMARK INTRA:                  -0.263
REMARK UNBOUND:                 0.131
REMARK SMILES O=c1c(O)c(-c2ccc(O)c(O)c2)oc2cc(O)cc(O)c12
REMARK SMILES IDX 5 1 3 2 2 3 1 4 22 5 20 6 19 7 17 8 16 9 15 10 14 11 6 12
REMARK SMILES IDX 7 13 8 14 9 15 13 16 11 17 10 18 12 20 4 22 21 24 18 26
REMARK H PARENT 10 19 12 21 4 23 21 25 18 27
REMARK Flexibility Score: inf
ROOT
ATOM      1  C   UNL     1      20.184  -3.381  20.637  1.00  0.00     0.180 A 
ATOM      2  C   UNL     1      20.318  -4.190  21.779  1.00  0.00     0.208 A 
ATOM      3  C   UNL     1      21.193  -5.287  21.736  1.00  0.00     0.238 A 
ATOM      4  O   UNL     1      21.350  -5.976  22.778  1.00  0.00    -0.285 OA
ATOM      5  C   UNL     1      21.909  -5.572  20.549  1.00  0.00     0.111 A 
ATOM      6  C   UNL     1      22.792  -6.681  20.380  1.00  0.00     0.134 A 
ATOM      7  C   UNL     1      23.547  -6.790  19.207  1.00  0.00     0.093 A 
ATOM      8  C   UNL     1      23.404  -5.866  18.168  1.00  0.00     0.123 A 
ATOM      9  C   UNL     1      22.501  -4.813  18.300  1.00  0.00     0.094 A 
ATOM     10  C   UNL     1      21.760  -4.658  19.474  1.00  0.00     0.146 A 
ATOM     11  O   UNL     1      20.918  -3.634  19.561  1.00  0.00    -0.452 OA
ENDROOT
BRANCH   1  12
ATOM     12  C   UNL     1      19.263  -2.221  20.597  1.00  0.00     0.025 A 
ATOM     13  C   UNL     1      19.790  -0.921  20.561  1.00  0.00     0.016 A 
ATOM     14  C   UNL     1      18.940   0.187  20.502  1.00  0.00     0.051 A 
ATOM     15  C   UNL     1      17.552   0.009  20.463  1.00  0.00     0.157 A 
ATOM     16  C   UNL     1      17.868  -2.396  20.538  1.00  0.00     0.062 A 
ATOM     17  C   UNL     1      17.014  -1.284  20.477  1.00  0.00     0.158 A 
BRANCH  15  18
ATOM     18  O   UNL     1      16.700   1.111  20.407  1.00  0.00    -0.504 OA
ATOM     19  H   UNL     1      15.840   1.089  19.871  1.00  0.00     0.293 HD
ENDBRANCH  15  18
BRANCH  17  20
ATOM     20  O   UNL     1      15.633  -1.458  20.424  1.00  0.00    -0.504 OA
ATOM     21  H   UNL     1      15.118  -1.352  19.558  1.00  0.00     0.293 HD
ENDBRANCH  17  20
ENDBRANCH   1  12
BRANCH   2  22
ATOM     22  O   UNL     1      19.618  -3.879  22.948  1.00  0.00    -0.502 OA
ATOM     23  H   UNL     1      19.641  -2.956  23.366  1.00  0.00     0.293 HD
ENDBRANCH   2  22
BRANCH   6  24
ATOM     24  O   UNL     1      22.940  -7.709  21.316  1.00  0.00    -0.507 OA
ATOM     25  H   UNL     1      22.420  -8.572  21.309  1.00  0.00     0.293 HD
ENDBRANCH   6  24
BRANCH   8  26
ATOM     26  O   UNL     1      24.149  -5.991  16.998  1.00  0.00    -0.508 OA
ATOM     27  H   UNL     1      24.991  -6.552  16.963  1.00  0.00     0.293 HD
ENDBRANCH   8  26
TORSDOF 6
ENDMDL
MODEL 7
REMARK VINA RESULT:    -4.808      1.806      6.569
REMARK INTER + INTRA:          -5.661
REMARK INTER:                  -5.533
REMARK INTRA:                  -0.128
REMARK UNBOUND:                 0.131
REMARK SMILES O=c1c(O)c(-c2ccc(O)c(O)c2)oc2cc(O)cc(O)c12
REMARK SMILES IDX 5 1 3 2 2 3 1 4 22 5 20 6 19 7 17 8 16 9 15 10 14 11 6 12
REMARK SMILES IDX 7 13 8 14 9 15 13 16 11 17 10 18 12 20 4 22 21 24 18 26
REMARK H PARENT 10 19 12 21 4 23 21 25 18 27
REMARK Flexibility Score: inf
ROOT
ATOM      1  C   UNL     1      20.277  -2.078  19.838  1.00  0.00     0.180 A 
ATOM      2  C   UNL     1      21.032  -2.818  18.913  1.00  0.00     0.208 A 
ATOM      3  C   UNL     1      21.508  -4.086  19.281  1.00  0.00     0.238 A 
ATOM      4  O   UNL     1      22.138  -4.767  18.430  1.00  0.00    -0.285 OA
ATOM      5  C   UNL     1      21.236  -4.592  20.575  1.00  0.00     0.111 A 
ATOM      6  C   UNL     1      21.702  -5.847  21.070  1.00  0.00     0.134 A 
ATOM      7  C   UNL     1      21.263  -6.303  22.318  1.00  0.00     0.093 A 
ATOM      8  C   UNL     1      20.427  -5.521  23.119  1.00  0.00     0.123 A 
ATOM      9  C   UNL     1      20.015  -4.268  22.670  1.00  0.00     0.094 A 
ATOM     10  C   UNL     1      20.407  -3.802  21.413  1.00  0.00     0.146 A 
ATOM     11  O   UNL     1      19.983  -2.606  21.020  1.00  0.00    -0.452 OA
ENDROOT
BRANCH   1  12
ATOM     12  C   UNL     1      19.762  -0.723  19.532  1.00  0.00     0.025 A 
ATOM     13  C   UNL     1      18.387  -0.464  19.642  1.00  0.00     0.016 A 
ATOM     14  C   UNL     1      17.883   0.812  19.378  1.00  0.00     0.051 A 
ATOM     15  C   UNL     1      18.749   1.851  19.014  1.00  0.00     0.157 A 
ATOM     16  C   UNL     1      20.630   0.329  19.185  1.00  0.00     0.062 A 
ATOM     17  C   UNL     1      20.125   1.611  18.922  1.00  0.00     0.158 A 
BRANCH  15  18
ATOM     18  O   UNL     1      18.250   3.125  18.747  1.00  0.00    -0.504 OA
ATOM     19  H   UNL     1      18.202   3.488  17.803  1.00  0.00     0.293 HD
ENDBRANCH  15  18
BRANCH  17  20
ATOM     20  O   UNL     1      20.985   2.650  18.573  1.00  0.00    -0.504 OA
ATOM     21  H   UNL     1      21.074   2.966  17.614  1.00  0.00     0.293 HD
ENDBRANCH  17  20
ENDBRANCH   1  12
BRANCH   2  22
ATOM     22  O   UNL     1      21.270  -2.310  17.632  1.00  0.00    -0.502 OA
ATOM     23  H   UNL     1      21.539  -2.899  16.854  1.00  0.00     0.293 HD
ENDBRANCH   2  22
BRANCH   6  24
ATOM     24  O   UNL     1      22.611  -6.664  20.391  1.00  0.00    -0.507 OA
ATOM     25  H   UNL     1      23.510  -6.362  20.048  1.00  0.00     0.293 HD
ENDBRANCH   6  24
BRANCH   8  26
ATOM     26  O   UNL     1      20.008  -5.976  24.367  1.00  0.00    -0.508 OA
ATOM     27  H   UNL     1      20.666  -6.149  25.117  1.00  0.00     0.293 HD
ENDBRANCH   8  26
TORSDOF 6
ENDMDL
MODEL 8
REMARK VINA RESULT:    -4.801     13.537     14.041
REMARK INTER + INTRA:          -5.652
REMARK INTER:                  -5.319
REMARK INTRA:                  -0.332
REMARK UNBOUND:                 0.131
REMARK SMILES O=c1c(O)c(-c2ccc(O)c(O)c2)oc2cc(O)cc(O)c12
REMARK SMILES IDX 5 1 3 2 2 3 1 4 22 5 20 6 19 7 17 8 16 9 15 10 14 11 6 12
REMARK SMILES IDX 7 13 8 14 9 15 13 16 11 17 10 18 12 20 4 22 21 24 18 26
REMARK H PARENT 10 19 12 21 4 23 21 25 18 27
REMARK Flexibility Score: inf
ROOT
ATOM      1  C   UNL     1      13.915  -8.933   9.002  1.00  0.00     0.180 A 
ATOM      2  C   UNL     1      14.584  -8.066   8.120  1.00  0.00     0.208 A 
ATOM      3  C   UNL     1      14.285  -6.695   8.158  1.00  0.00     0.238 A 
ATOM      4  O   UNL     1      14.925  -5.916   7.404  1.00  0.00    -0.285 OA
ATOM      5  C   UNL     1      13.311  -6.210   9.063  1.00  0.00     0.111 A 
ATOM      6  C   UNL     1      12.901  -4.846   9.160  1.00  0.00     0.134 A 
ATOM      7  C   UNL     1      12.025  -4.459  10.181  1.00  0.00     0.093 A 
ATOM      8  C   UNL     1      11.494  -5.398  11.069  1.00  0.00     0.123 A 
ATOM      9  C   UNL     1      11.843  -6.740  10.946  1.00  0.00     0.094 A 
ATOM     10  C   UNL     1      12.743  -7.151   9.960  1.00  0.00     0.146 A 
ATOM     11  O   UNL     1      13.056  -8.440   9.884  1.00  0.00    -0.452 OA
ENDROOT
BRANCH   1  12
ATOM     12  C   UNL     1      14.158 -10.395   9.004  1.00  0.00     0.025 A 
ATOM     13  C   UNL     1      15.072 -10.941   9.917  1.00  0.00     0.016 A 
ATOM     14  C   UNL     1      15.301 -12.320   9.951  1.00  0.00     0.051 A 
ATOM     15  C   UNL     1      14.607 -13.171   9.083  1.00  0.00     0.157 A 
ATOM     16  C   UNL     1      13.448 -11.256   8.148  1.00  0.00     0.062 A 
ATOM     17  C   UNL     1      13.676 -12.640   8.183  1.00  0.00     0.158 A 
BRANCH  15  18
ATOM     18  O   UNL     1      14.834 -14.546   9.112  1.00  0.00    -0.504 OA
ATOM     19  H   UNL     1      14.107 -15.198   9.384  1.00  0.00     0.293 HD
ENDBRANCH  15  18
BRANCH  17  20
ATOM     20  O   UNL     1      12.977 -13.492   7.330  1.00  0.00    -0.504 OA
ATOM     21  H   UNL     1      12.012 -13.312   7.075  1.00  0.00     0.293 HD
ENDBRANCH  17  20
ENDBRANCH   1  12
BRANCH   2  22
ATOM     22  O   UNL     1      15.558  -8.562   7.249  1.00  0.00    -0.502 OA
ATOM     23  H   UNL     1      16.548  -8.403   7.392  1.00  0.00     0.293 HD
ENDBRANCH   2  22
BRANCH   6  24
ATOM     24  O   UNL     1      13.300  -3.847   8.267  1.00  0.00    -0.507 OA
ATOM     25  H   UNL     1      13.503  -3.996   7.291  1.00  0.00     0.293 HD
ENDBRANCH   6  24
BRANCH   8  26
ATOM     26  O   UNL     1      10.611  -5.006  12.073  1.00  0.00    -0.508 OA
ATOM     27  H   UNL     1      10.873  -4.321  12.772  1.00  0.00     0.293 HD
ENDBRANCH   8  26
TORSDOF 6
ENDMDL
MODEL 9
REMARK VINA RESULT:    -4.656      1.661      6.908
REMARK INTER + INTRA:          -5.477
REMARK INTER:                  -5.419
REMARK INTRA:                  -0.058
REMARK UNBOUND:                 0.131
REMARK SMILES O=c1c(O)c(-c2ccc(O)c(O)c2)oc2cc(O)cc(O)c12
REMARK SMILES IDX 5 1 3 2 2 3 1 4 22 5 20 6 19 7 17 8 16 9 15 10 14 11 6 12
REMARK SMILES IDX 7 13 8 14 9 15 13 16 11 17 10 18 12 20 4 22 21 24 18 26
REMARK H PARENT 10 19 12 21 4 23 21 25 18 27
REMARK Flexibility Score: inf
ROOT
ATOM      1  C   UNL     1      20.501  -3.256  19.987  1.00  0.00     0.180 A 
ATOM      2  C   UNL     1      21.294  -3.618  18.884  1.00  0.00     0.208 A 
ATOM      3  C   UNL     1      22.097  -4.766  18.970  1.00  0.00     0.238 A 
ATOM      4  O   UNL     1      22.764  -5.115  17.961  1.00  0.00    -0.285 OA
ATOM      5  C   UNL     1      22.110  -5.529  20.162  1.00  0.00     0.111 A 
ATOM      6  C   UNL     1      22.916  -6.688  20.375  1.00  0.00     0.134 A 
ATOM      7  C   UNL     1      22.750  -7.439  21.545  1.00  0.00     0.093 A 
ATOM      8  C   UNL     1      21.854  -7.037  22.539  1.00  0.00     0.123 A 
ATOM      9  C   UNL     1      21.106  -5.875  22.366  1.00  0.00     0.094 A 
ATOM     10  C   UNL     1      21.223  -5.124  21.194  1.00  0.00     0.146 A 
ATOM     11  O   UNL     1      20.484  -4.028  21.066  1.00  0.00    -0.452 OA
ENDROOT
BRANCH   1  12
ATOM     12  C   UNL     1      19.647  -2.046  19.981  1.00  0.00     0.025 A 
ATOM     13  C   UNL     1      18.300  -2.149  20.358  1.00  0.00     0.016 A 
ATOM     14  C   UNL     1      17.481  -1.016  20.379  1.00  0.00     0.051 A 
ATOM     15  C   UNL     1      18.004   0.238  20.038  1.00  0.00     0.157 A 
ATOM     16  C   UNL     1      20.173  -0.781  19.658  1.00  0.00     0.062 A 
ATOM     17  C   UNL     1      19.352   0.357  19.681  1.00  0.00     0.158 A 
BRANCH  15  18
ATOM     18  O   UNL     1      17.191   1.370  20.056  1.00  0.00    -0.504 OA
ATOM     19  H   UNL     1      16.558   1.580  19.293  1.00  0.00     0.293 HD
ENDBRANCH  15  18
BRANCH  17  20
ATOM     20  O   UNL     1      19.873   1.608  19.356  1.00  0.00    -0.504 OA
ATOM     21  H   UNL     1      19.327   2.454  19.467  1.00  0.00     0.293 HD
ENDBRANCH  17  20
ENDBRANCH   1  12
BRANCH   2  22
ATOM     22  O   UNL     1      21.250  -2.863  17.709  1.00  0.00    -0.502 OA
ATOM     23  H   UNL     1      21.365  -1.857  17.704  1.00  0.00     0.293 HD
ENDBRANCH   2  22
BRANCH   6  24
ATOM     24  O   UNL     1      23.904  -7.123  19.488  1.00  0.00    -0.507 OA
ATOM     25  H   UNL     1      24.148  -8.088  19.326  1.00  0.00     0.293 HD
ENDBRANCH   6  24
BRANCH   8  26
ATOM     26  O   UNL     1      21.707  -7.783  23.706  1.00  0.00    -0.508 OA
ATOM     27  H   UNL     1      22.504  -8.195  24.176  1.00  0.00     0.293 HD
ENDBRANCH   8  26
TORSDOF 6
ENDMDL
