MODEL 1
REMARK VINA RESULT:    -4.442      0.000      0.000
REMARK INTER + INTRA:          -9.826
REMARK INTER:                  -8.078
REMARK INTRA:                  -1.748
REMARK UNBOUND:                -1.748
REMARK SMILES CCCCCCCCCCCCCCCC(=O)[O-]
REMARK SMILES IDX 9 1 10 2 11 3 12 4 13 5 14 6 15 7 16 8 17 9 18 10 8 11 7 12
REMARK SMILES IDX 6 13 5 14 4 15 3 16 2 17 1 18
REMARK H PARENT
REMARK Flexibility Score: inf
ROOT
ATOM      1  C   UNL     1     -20.535   9.853  17.551  1.00  0.00     0.000 C 
ENDROOT
BRANCH   1   2
ATOM      2  C   UNL     1     -19.097   9.330  17.718  1.00  0.00     0.000 C 
BRANCH   2   3
ATOM      3  C   UNL     1     -19.045   7.952  18.396  1.00  0.00     0.000 C 
BRANCH   3   4
ATOM      4  C   UNL     1     -20.296   7.106  18.112  1.00  0.00     0.000 C 
BRANCH   4   5
ATOM      5  C   UNL     1     -20.277   5.808  18.927  1.00  0.00     0.000 C 
BRANCH   5   6
ATOM      6  C   UNL     1     -19.250   5.884  20.063  1.00  0.00     0.006 C 
BRANCH   6   7
ATOM      7  C   UNL     1     -18.292   4.690  20.016  1.00  0.00     0.053 C 
BRANCH   7   8
ATOM      8  C   UNL     1     -16.896   5.149  19.736  1.00  0.00     0.041 C 
ATOM      9  O   UNL     1     -16.053   5.223  20.669  1.00  0.00    -0.550 OA
ATOM     10  O   UNL     1     -16.537   5.542  18.452  1.00  0.00    -0.550 OA
ENDBRANCH   7   8
ENDBRANCH   6   7
ENDBRANCH   5   6
ENDBRANCH   4   5
ENDBRANCH   3   4
ENDBRANCH   2   3
ENDBRANCH   1   2
BRANCH   1  11
ATOM     11  C   UNL     1     -20.691  11.313  18.005  1.00  0.00     0.000 C 
BRANCH  11  12
ATOM     12  C   UNL     1     -19.407  11.872  18.641  1.00  0.00    -0.000 C 
BRANCH  12  13
ATOM     13  C   UNL     1     -18.925  13.168  17.968  1.00  0.00    -0.000 C 
BRANCH  13  14
ATOM     14  C   UNL     1     -19.281  13.227  16.472  1.00  0.00    -0.000 C 
BRANCH  14  15
ATOM     15  C   UNL     1     -18.051  13.069  15.562  1.00  0.00    -0.000 C 
BRANCH  15  16
ATOM     16  C   UNL     1     -18.127  11.903  14.557  1.00  0.00    -0.000 C 
BRANCH  16  17
ATOM     17  C   UNL     1     -19.562  11.401  14.292  1.00  0.00    -0.003 C 
ATOM     18  C   UNL     1     -19.605   9.913  13.945  1.00  0.00     0.004 C 
ENDBRANCH  16  17
ENDBRANCH  15  16
ENDBRANCH  14  15
ENDBRANCH  13  14
ENDBRANCH  12  13
ENDBRANCH  11  12
ENDBRANCH   1  11
TORSDOF 14
ENDMDL
MODEL 2
REMARK VINA RESULT:    -4.382      1.692      2.495
REMARK INTER + INTRA:          -9.716
REMARK INTER:                  -7.943
REMARK INTRA:                  -1.773
REMARK UNBOUND:                -1.748
REMARK SMILES CCCCCCCCCCCCCCCC(=O)[O-]
REMARK SMILES IDX 9 1 10 2 11 3 12 4 13 5 14 6 15 7 16 8 17 9 18 10 8 11 7 12
REMARK SMILES IDX 6 13 5 14 4 15 3 16 2 17 1 18
REMARK H PARENT
REMARK Flexibility Score: inf
ROOT
ATOM      1  C   UNL     1     -21.124  11.371  18.143  1.00  0.00     0.000 C 
ENDROOT
BRANCH   1   2
ATOM      2  C   UNL     1     -22.289  10.848  19.004  1.00  0.00     0.000 C 
BRANCH   2   3
ATOM      3  C   UNL     1     -22.904   9.557  18.442  1.00  0.00     0.000 C 
BRANCH   3   4
ATOM      4  C   UNL     1     -22.031   8.910  17.357  1.00  0.00     0.000 C 
BRANCH   4   5
ATOM      5  C   UNL     1     -21.152   7.801  17.948  1.00  0.00     0.000 C 
BRANCH   5   6
ATOM      6  C   UNL     1     -19.748   7.823  17.333  1.00  0.00     0.006 C 
BRANCH   6   7
ATOM      7  C   UNL     1     -18.742   8.478  18.285  1.00  0.00     0.053 C 
BRANCH   7   8
ATOM      8  C   UNL     1     -17.785   7.460  18.819  1.00  0.00     0.041 C 
ATOM      9  O   UNL     1     -18.100   6.753  19.813  1.00  0.00    -0.550 OA
ATOM     10  O   UNL     1     -16.524   7.325  18.250  1.00  0.00    -0.550 OA
ENDBRANCH   7   8
ENDBRANCH   6   7
ENDBRANCH   5   6
ENDBRANCH   4   5
ENDBRANCH   3   4
ENDBRANCH   2   3
ENDBRANCH   1   2
BRANCH   1  11
ATOM     11  C   UNL     1     -19.835  11.581  18.954  1.00  0.00     0.000 C 
BRANCH  11  12
ATOM     12  C   UNL     1     -18.906  12.630  18.320  1.00  0.00    -0.000 C 
BRANCH  12  13
ATOM     13  C   UNL     1     -19.571  13.390  17.161  1.00  0.00    -0.000 C 
BRANCH  13  14
ATOM     14  C   UNL     1     -18.728  13.365  15.874  1.00  0.00    -0.000 C 
BRANCH  14  15
ATOM     15  C   UNL     1     -19.465  12.710  14.693  1.00  0.00    -0.000 C 
BRANCH  15  16
ATOM     16  C   UNL     1     -19.608  11.177  14.781  1.00  0.00    -0.000 C 
BRANCH  16  17
ATOM     17  C   UNL     1     -18.275  10.417  14.615  1.00  0.00    -0.003 C 
ATOM     18  C   UNL     1     -17.507  10.851  13.368  1.00  0.00     0.004 C 
ENDBRANCH  16  17
ENDBRANCH  15  16
ENDBRANCH  14  15
ENDBRANCH  13  14
ENDBRANCH  12  13
ENDBRANCH  11  12
ENDBRANCH   1  11
TORSDOF 14
ENDMDL
MODEL 3
REMARK VINA RESULT:    -4.355      1.687      3.808
REMARK INTER + INTRA:          -9.667
REMARK INTER:                  -7.627
REMARK INTRA:                  -2.040
REMARK UNBOUND:                -1.748
REMARK SMILES CCCCCCCCCCCCCCCC(=O)[O-]
REMARK SMILES IDX 9 1 10 2 11 3 12 4 13 5 14 6 15 7 16 8 17 9 18 10 8 11 7 12
REMARK SMILES IDX 6 13 5 14 4 15 3 16 2 17 1 18
REMARK H PARENT
REMARK Flexibility Score: inf
ROOT
ATOM      1  C   UNL     1     -18.317  11.108  14.696  1.00  0.00     0.000 C 
ENDROOT
BRANCH   1   2
ATOM      2  C   UNL     1     -19.260  10.408  13.701  1.00  0.00     0.000 C 
BRANCH   2   3
ATOM      3  C   UNL     1     -19.965   9.189  14.315  1.00  0.00     0.000 C 
BRANCH   3   4
ATOM      4  C   UNL     1     -20.100   9.291  15.842  1.00  0.00     0.000 C 
BRANCH   4   5
ATOM      5  C   UNL     1     -20.482   7.936  16.450  1.00  0.00     0.000 C 
BRANCH   5   6
ATOM      6  C   UNL     1     -19.945   7.803  17.880  1.00  0.00     0.006 C 
BRANCH   6   7
ATOM      7  C   UNL     1     -18.552   8.428  18.003  1.00  0.00     0.053 C 
BRANCH   7   8
ATOM      8  C   UNL     1     -17.632   7.516  18.751  1.00  0.00     0.041 C 
ATOM      9  O   UNL     1     -18.014   6.963  19.817  1.00  0.00    -0.550 OA
ATOM     10  O   UNL     1     -16.334   7.314  18.298  1.00  0.00    -0.550 OA
ENDBRANCH   7   8
ENDBRANCH   6   7
ENDBRANCH   5   6
ENDBRANCH   4   5
ENDBRANCH   3   4
ENDBRANCH   2   3
ENDBRANCH   1   2
BRANCH   1  11
ATOM     11  C   UNL     1     -18.304  12.636  14.525  1.00  0.00     0.000 C 
BRANCH  11  12
ATOM     12  C   UNL     1     -18.466  13.379  15.863  1.00  0.00    -0.000 C 
BRANCH  12  13
ATOM     13  C   UNL     1     -19.637  12.843  16.702  1.00  0.00    -0.000 C 
BRANCH  13  14
ATOM     14  C   UNL     1     -19.218  12.470  18.135  1.00  0.00    -0.000 C 
BRANCH  14  15
ATOM     15  C   UNL     1     -20.164  11.442  18.782  1.00  0.00    -0.000 C 
BRANCH  15  16
ATOM     16  C   UNL     1     -21.591  11.411  18.201  1.00  0.00    -0.000 C 
BRANCH  16  17
ATOM     17  C   UNL     1     -22.601  10.634  19.069  1.00  0.00    -0.003 C 
ATOM     18  C   UNL     1     -23.303   9.520  18.293  1.00  0.00     0.004 C 
ENDBRANCH  16  17
ENDBRANCH  15  16
ENDBRANCH  14  15
ENDBRANCH  13  14
ENDBRANCH  12  13
ENDBRANCH  11  12
ENDBRANCH   1  11
TORSDOF 14
ENDMDL
MODEL 4
REMARK VINA RESULT:    -4.244      1.690      2.251
REMARK INTER + INTRA:          -9.466
REMARK INTER:                  -8.149
REMARK INTRA:                  -1.317
REMARK UNBOUND:                -1.748
REMARK SMILES CCCCCCCCCCCCCCCC(=O)[O-]
REMARK SMILES IDX 9 1 10 2 11 3 12 4 13 5 14 6 15 7 16 8 17 9 18 10 8 11 7 12
REMARK SMILES IDX 6 13 5 14 4 15 3 16 2 17 1 18
REMARK H PARENT
REMARK Flexibility Score: inf
ROOT
ATOM      1  C   UNL     1     -20.572   9.576  18.160  1.00  0.00     0.000 C 
ENDROOT
BRANCH   1   2
ATOM      2  C   UNL     1     -19.859   8.269  17.771  1.00  0.00     0.000 C 
BRANCH   2   3
ATOM      3  C   UNL     1     -18.482   8.127  18.438  1.00  0.00     0.000 C 
BRANCH   3   4
ATOM      4  C   UNL     1     -18.328   6.803  19.201  1.00  0.00     0.000 C 
BRANCH   4   5
ATOM      5  C   UNL     1     -16.895   6.270  19.092  1.00  0.00     0.000 C 
BRANCH   5   6
ATOM      6  C   UNL     1     -16.873   4.867  18.476  1.00  0.00     0.006 C 
BRANCH   6   7
ATOM      7  C   UNL     1     -15.464   4.267  18.527  1.00  0.00     0.053 C 
BRANCH   7   8
ATOM      8  C   UNL     1     -14.801   4.369  17.190  1.00  0.00     0.041 C 
ATOM      9  O   UNL     1     -15.462   4.165  16.137  1.00  0.00    -0.550 OA
ATOM     10  O   UNL     1     -13.441   4.641  17.107  1.00  0.00    -0.550 OA
ENDBRANCH   7   8
ENDBRANCH   6   7
ENDBRANCH   5   6
ENDBRANCH   4   5
ENDBRANCH   3   4
ENDBRANCH   2   3
ENDBRANCH   1   2
BRANCH   1  11
ATOM     11  C   UNL     1     -19.603  10.761  18.300  1.00  0.00     0.000 C 
BRANCH  11  12
ATOM     12  C   UNL     1     -20.147  12.045  17.650  1.00  0.00    -0.000 C 
BRANCH  12  13
ATOM     13  C   UNL     1     -19.102  13.172  17.595  1.00  0.00    -0.000 C 
BRANCH  13  14
ATOM     14  C   UNL     1     -18.911  13.735  16.176  1.00  0.00    -0.000 C 
BRANCH  14  15
ATOM     15  C   UNL     1     -17.835  12.980  15.376  1.00  0.00    -0.000 C 
BRANCH  15  16
ATOM     16  C   UNL     1     -18.372  12.089  14.238  1.00  0.00    -0.000 C 
BRANCH  16  17
ATOM     17  C   UNL     1     -18.394  10.585  14.581  1.00  0.00    -0.003 C 
ATOM     18  C   UNL     1     -19.805   9.998  14.543  1.00  0.00     0.004 C 
ENDBRANCH  16  17
ENDBRANCH  15  16
ENDBRANCH  14  15
ENDBRANCH  13  14
ENDBRANCH  12  13
ENDBRANCH  11  12
ENDBRANCH   1  11
TORSDOF 14
ENDMDL
MODEL 5
REMARK VINA RESULT:    -4.230      1.068      1.791
REMARK INTER + INTRA:          -9.441
REMARK INTER:                  -7.332
REMARK INTRA:                  -2.108
REMARK UNBOUND:                -1.748
REMARK SMILES CCCCCCCCCCCCCCCC(=O)[O-]
REMARK SMILES IDX 9 1 10 2 11 3 12 4 13 5 14 6 15 7 16 8 17 9 18 10 8 11 7 12
REMARK SMILES IDX 6 13 5 14 4 15 3 16 2 17 1 18
REMARK H PARENT
REMARK Flexibility Score: inf
ROOT
ATOM      1  C   UNL     1     -20.902  11.415  17.731  1.00  0.00     0.000 C 
ENDROOT
BRANCH   1   2
ATOM      2  C   UNL     1     -19.525  11.065  18.324  1.00  0.00     0.000 C 
BRANCH   2   3
ATOM      3  C   UNL     1     -19.176   9.577  18.167  1.00  0.00     0.000 C 
BRANCH   3   4
ATOM      4  C   UNL     1     -20.419   8.696  17.971  1.00  0.00     0.000 C 
BRANCH   4   5
ATOM      5  C   UNL     1     -20.052   7.208  18.028  1.00  0.00     0.000 C 
BRANCH   5   6
ATOM      6  C   UNL     1     -18.728   6.994  18.772  1.00  0.00     0.006 C 
BRANCH   6   7
ATOM      7  C   UNL     1     -18.896   5.981  19.908  1.00  0.00     0.053 C 
BRANCH   7   8
ATOM      8  C   UNL     1     -17.737   5.036  19.944  1.00  0.00     0.041 C 
ATOM      9  O   UNL     1     -17.900   3.821  19.654  1.00  0.00    -0.550 OA
ATOM     10  O   UNL     1     -16.486   5.486  20.347  1.00  0.00    -0.550 OA
ENDBRANCH   7   8
ENDBRANCH   6   7
ENDBRANCH   5   6
ENDBRANCH   4   5
ENDBRANCH   3   4
ENDBRANCH   2   3
ENDBRANCH   1   2
BRANCH   1  11
ATOM     11  C   UNL     1     -20.908  12.770  17.007  1.00  0.00     0.000 C 
BRANCH  11  12
ATOM     12  C   UNL     1     -19.552  13.491  17.095  1.00  0.00    -0.000 C 
BRANCH  12  13
ATOM     13  C   UNL     1     -19.036  13.958  15.724  1.00  0.00    -0.000 C 
BRANCH  13  14
ATOM     14  C   UNL     1     -17.935  13.042  15.161  1.00  0.00    -0.000 C 
BRANCH  14  15
ATOM     15  C   UNL     1     -18.483  11.979  14.194  1.00  0.00    -0.000 C 
BRANCH  15  16
ATOM     16  C   UNL     1     -18.336  10.521  14.674  1.00  0.00    -0.000 C 
BRANCH  16  17
ATOM     17  C   UNL     1     -19.605   9.667  14.473  1.00  0.00    -0.003 C 
ATOM     18  C   UNL     1     -20.813  10.506  14.056  1.00  0.00     0.004 C 
ENDBRANCH  16  17
ENDBRANCH  15  16
ENDBRANCH  14  15
ENDBRANCH  13  14
ENDBRANCH  12  13
ENDBRANCH  11  12
ENDBRANCH   1  11
TORSDOF 14
ENDMDL
MODEL 6
REMARK VINA RESULT:    -4.218      1.709      3.553
REMARK INTER + INTRA:          -9.418
REMARK INTER:                  -7.352
REMARK INTRA:                  -2.066
REMARK UNBOUND:                -1.748
REMARK SMILES CCCCCCCCCCCCCCCC(=O)[O-]
REMARK SMILES IDX 9 1 10 2 11 3 12 4 13 5 14 6 15 7 16 8 17 9 18 10 8 11 7 12
REMARK SMILES IDX 6 13 5 14 4 15 3 16 2 17 1 18
REMARK H PARENT
REMARK Flexibility Score: inf
ROOT
ATOM      1  C   UNL     1     -20.391  13.045  15.984  1.00  0.00     0.000 C 
ENDROOT
BRANCH   1   2
ATOM      2  C   UNL     1     -21.357  12.367  16.972  1.00  0.00     0.000 C 
BRANCH   2   3
ATOM      3  C   UNL     1     -21.794  10.970  16.504  1.00  0.00     0.000 C 
BRANCH   3   4
ATOM      4  C   UNL     1     -21.552   9.888  17.568  1.00  0.00     0.000 C 
BRANCH   4   5
ATOM      5  C   UNL     1     -20.341  10.237  18.441  1.00  0.00     0.000 C 
BRANCH   5   6
ATOM      6  C   UNL     1     -19.106   9.432  18.019  1.00  0.00     0.006 C 
BRANCH   6   7
ATOM      7  C   UNL     1     -19.298   7.941  18.312  1.00  0.00     0.053 C 
BRANCH   7   8
ATOM      8  C   UNL     1     -18.076   7.372  18.961  1.00  0.00     0.041 C 
ATOM      9  O   UNL     1     -18.160   6.801  20.080  1.00  0.00    -0.550 OA
ATOM     10  O   UNL     1     -16.835   7.515  18.353  1.00  0.00    -0.550 OA
ENDBRANCH   7   8
ENDBRANCH   6   7
ENDBRANCH   5   6
ENDBRANCH   4   5
ENDBRANCH   3   4
ENDBRANCH   2   3
ENDBRANCH   1   2
BRANCH   1  11
ATOM     11  C   UNL     1     -18.934  12.592  16.174  1.00  0.00     0.000 C 
BRANCH  11  12
ATOM     12  C   UNL     1     -18.068  12.861  14.931  1.00  0.00    -0.000 C 
BRANCH  12  13
ATOM     13  C   UNL     1     -17.905  11.619  14.040  1.00  0.00    -0.000 C 
BRANCH  13  14
ATOM     14  C   UNL     1     -18.518  10.354  14.668  1.00  0.00    -0.000 C 
BRANCH  14  15
ATOM     15  C   UNL     1     -19.687   9.788  13.842  1.00  0.00    -0.000 C 
BRANCH  15  16
ATOM     16  C   UNL     1     -19.647  10.124  12.338  1.00  0.00    -0.000 C 
BRANCH  16  17
ATOM     17  C   UNL     1     -20.949  10.758  11.806  1.00  0.00    -0.003 C 
ATOM     18  C   UNL     1     -21.267  12.092  12.480  1.00  0.00     0.004 C 
ENDBRANCH  16  17
ENDBRANCH  15  16
ENDBRANCH  14  15
ENDBRANCH  13  14
ENDBRANCH  12  13
ENDBRANCH  11  12
ENDBRANCH   1  11
TORSDOF 14
ENDMDL
MODEL 7
REMARK VINA RESULT:    -4.187      2.845      7.138
REMARK INTER + INTRA:          -9.362
REMARK INTER:                  -8.158
REMARK INTRA:                  -1.203
REMARK UNBOUND:                -1.748
REMARK SMILES CCCCCCCCCCCCCCCC(=O)[O-]
REMARK SMILES IDX 9 1 10 2 11 3 12 4 13 5 14 6 15 7 16 8 17 9 18 10 8 11 7 12
REMARK SMILES IDX 6 13 5 14 4 15 3 16 2 17 1 18
REMARK H PARENT
REMARK Flexibility Score: inf
ROOT
ATOM      1  C   UNL     1     -20.778  10.885  17.909  1.00  0.00     0.000 C 
ENDROOT
BRANCH   1   2
ATOM      2  C   UNL     1     -19.773  11.528  18.883  1.00  0.00     0.000 C 
BRANCH   2   3
ATOM      3  C   UNL     1     -18.981  12.676  18.238  1.00  0.00     0.000 C 
BRANCH   3   4
ATOM      4  C   UNL     1     -19.775  13.400  17.141  1.00  0.00     0.000 C 
BRANCH   4   5
ATOM      5  C   UNL     1     -18.893  13.675  15.916  1.00  0.00     0.000 C 
BRANCH   5   6
ATOM      6  C   UNL     1     -19.221  12.709  14.772  1.00  0.00     0.006 C 
BRANCH   6   7
ATOM      7  C   UNL     1     -18.356  11.447  14.855  1.00  0.00     0.053 C 
BRANCH   7   8
ATOM      8  C   UNL     1     -17.953  10.997  13.487  1.00  0.00     0.041 C 
ATOM      9  O   UNL     1     -16.824  10.469  13.299  1.00  0.00    -0.550 OA
ATOM     10  O   UNL     1     -18.803  11.203  12.407  1.00  0.00    -0.550 OA
ENDBRANCH   7   8
ENDBRANCH   6   7
ENDBRANCH   5   6
ENDBRANCH   4   5
ENDBRANCH   3   4
ENDBRANCH   2   3
ENDBRANCH   1   2
BRANCH   1  11
ATOM     11  C   UNL     1     -20.502   9.392  17.674  1.00  0.00     0.000 C 
BRANCH  11  12
ATOM     12  C   UNL     1     -19.007   9.046  17.784  1.00  0.00    -0.000 C 
BRANCH  12  13
ATOM     13  C   UNL     1     -18.749   7.785  18.625  1.00  0.00    -0.000 C 
BRANCH  13  14
ATOM     14  C   UNL     1     -19.724   6.641  18.293  1.00  0.00    -0.000 C 
BRANCH  14  15
ATOM     15  C   UNL     1     -19.786   5.574  19.400  1.00  0.00    -0.000 C 
BRANCH  15  16
ATOM     16  C   UNL     1     -18.526   5.475  20.282  1.00  0.00    -0.000 C 
BRANCH  16  17
ATOM     17  C   UNL     1     -17.328   4.798  19.585  1.00  0.00    -0.003 C 
ATOM     18  C   UNL     1     -16.091   4.732  20.482  1.00  0.00     0.004 C 
ENDBRANCH  16  17
ENDBRANCH  15  16
ENDBRANCH  14  15
ENDBRANCH  13  14
ENDBRANCH  12  13
ENDBRANCH  11  12
ENDBRANCH   1  11
TORSDOF 14
ENDMDL
MODEL 8
REMARK VINA RESULT:    -4.094      5.296      7.701
REMARK INTER + INTRA:          -9.193
REMARK INTER:                  -7.469
REMARK INTRA:                  -1.725
REMARK UNBOUND:                -1.748
REMARK SMILES CCCCCCCCCCCCCCCC(=O)[O-]
REMARK SMILES IDX 9 1 10 2 11 3 12 4 13 5 14 6 15 7 16 8 17 9 18 10 8 11 7 12
REMARK SMILES IDX 6 13 5 14 4 15 3 16 2 17 1 18
REMARK H PARENT
REMARK Flexibility Score: inf
ROOT
ATOM      1  C   UNL     1     -19.484  10.585  17.852  1.00  0.00     0.000 C 
ENDROOT
BRANCH   1   2
ATOM      2  C   UNL     1     -19.444  11.987  18.488  1.00  0.00     0.000 C 
BRANCH   2   3
ATOM      3  C   UNL     1     -18.779  13.029  17.576  1.00  0.00     0.000 C 
BRANCH   3   4
ATOM      4  C   UNL     1     -19.682  14.242  17.308  1.00  0.00     0.000 C 
BRANCH   4   5
ATOM      5  C   UNL     1     -20.062  14.328  15.825  1.00  0.00     0.000 C 
BRANCH   5   6
ATOM      6  C   UNL     1     -18.813  14.414  14.940  1.00  0.00     0.006 C 
BRANCH   6   7
ATOM      7  C   UNL     1     -19.169  14.913  13.536  1.00  0.00     0.053 C 
BRANCH   7   8
ATOM      8  C   UNL     1     -18.675  16.311  13.335  1.00  0.00     0.041 C 
ATOM      9  O   UNL     1     -18.547  16.777  12.172  1.00  0.00    -0.550 OA
ATOM     10  O   UNL     1     -18.309  17.083  14.430  1.00  0.00    -0.550 OA
ENDBRANCH   7   8
ENDBRANCH   6   7
ENDBRANCH   5   6
ENDBRANCH   4   5
ENDBRANCH   3   4
ENDBRANCH   2   3
ENDBRANCH   1   2
BRANCH   1  11
ATOM     11  C   UNL     1     -20.020  10.602  16.411  1.00  0.00     0.000 C 
BRANCH  11  12
ATOM     12  C   UNL     1     -19.049   9.945  15.415  1.00  0.00    -0.000 C 
BRANCH  12  13
ATOM     13  C   UNL     1     -18.380  10.963  14.477  1.00  0.00    -0.000 C 
BRANCH  13  14
ATOM     14  C   UNL     1     -18.500  10.571  12.994  1.00  0.00    -0.000 C 
BRANCH  14  15
ATOM     15  C   UNL     1     -19.940  10.687  12.464  1.00  0.00    -0.000 C 
BRANCH  15  16
ATOM     16  C   UNL     1     -20.295   9.714  11.322  1.00  0.00    -0.000 C 
BRANCH  16  17
ATOM     17  C   UNL     1     -20.839   8.355  11.807  1.00  0.00    -0.003 C 
ATOM     18  C   UNL     1     -21.617   8.471  13.118  1.00  0.00     0.004 C 
ENDBRANCH  16  17
ENDBRANCH  15  16
ENDBRANCH  14  15
ENDBRANCH  13  14
ENDBRANCH  12  13
ENDBRANCH  11  12
ENDBRANCH   1  11
TORSDOF 14
ENDMDL
MODEL 9
REMARK VINA RESULT:    -4.039      5.429      8.181
REMARK INTER + INTRA:          -9.093
REMARK INTER:                  -6.984
REMARK INTRA:                  -2.109
REMARK UNBOUND:                -1.748
REMARK SMILES CCCCCCCCCCCCCCCC(=O)[O-]
REMARK SMILES IDX 9 1 10 2 11 3 12 4 13 5 14 6 15 7 16 8 17 9 18 10 8 11 7 12
REMARK SMILES IDX 6 13 5 14 4 15 3 16 2 17 1 18
REMARK H PARENT
REMARK Flexibility Score: inf
ROOT
ATOM      1  C   UNL     1     -19.388  13.800  17.248  1.00  0.00     0.000 C 
ENDROOT
BRANCH   1   2
ATOM      2  C   UNL     1     -20.864  13.582  16.869  1.00  0.00     0.000 C 
BRANCH   2   3
ATOM      3  C   UNL     1     -21.054  13.315  15.369  1.00  0.00     0.000 C 
BRANCH   3   4
ATOM      4  C   UNL     1     -20.960  14.594  14.524  1.00  0.00     0.000 C 
BRANCH   4   5
ATOM      5  C   UNL     1     -19.811  14.501  13.513  1.00  0.00     0.000 C 
BRANCH   5   6
ATOM      6  C   UNL     1     -18.626  15.374  13.942  1.00  0.00     0.006 C 
BRANCH   6   7
ATOM      7  C   UNL     1     -18.721  16.771  13.320  1.00  0.00     0.053 C 
BRANCH   7   8
ATOM      8  C   UNL     1     -18.697  17.822  14.384  1.00  0.00     0.041 C 
ATOM      9  O   UNL     1     -17.598  18.267  14.812  1.00  0.00    -0.550 OA
ATOM     10  O   UNL     1     -19.886  18.278  14.939  1.00  0.00    -0.550 OA
ENDBRANCH   7   8
ENDBRANCH   6   7
ENDBRANCH   5   6
ENDBRANCH   4   5
ENDBRANCH   3   4
ENDBRANCH   2   3
ENDBRANCH   1   2
BRANCH   1  11
ATOM     11  C   UNL     1     -18.826  12.668  18.122  1.00  0.00     0.000 C 
BRANCH  11  12
ATOM     12  C   UNL     1     -19.888  11.609  18.466  1.00  0.00    -0.000 C 
BRANCH  12  13
ATOM     13  C   UNL     1     -19.537  10.215  17.920  1.00  0.00    -0.000 C 
BRANCH  13  14
ATOM     14  C   UNL     1     -20.240   9.907  16.586  1.00  0.00    -0.000 C 
BRANCH  14  15
ATOM     15  C   UNL     1     -19.248   9.664  15.435  1.00  0.00    -0.000 C 
BRANCH  15  16
ATOM     16  C   UNL     1     -18.507  10.920  14.937  1.00  0.00    -0.000 C 
BRANCH  16  17
ATOM     17  C   UNL     1     -18.479  11.060  13.400  1.00  0.00    -0.003 C 
ATOM     18  C   UNL     1     -19.832  10.751  12.761  1.00  0.00     0.004 C 
ENDBRANCH  16  17
ENDBRANCH  15  16
ENDBRANCH  14  15
ENDBRANCH  13  14
ENDBRANCH  12  13
ENDBRANCH  11  12
ENDBRANCH   1  11
TORSDOF 14
ENDMDL
