MODEL 1
REMARK VINA RESULT:    -7.009      0.000      0.000
REMARK INTER + INTRA:         -11.583
REMARK INTER:                 -10.287
REMARK INTRA:                  -1.296
REMARK UNBOUND:                -1.296
REMARK SMILES O=c1c(O[C@@H]2O[C@H](CO)[C@H](O)[C@@H](O)[C@@H]2O)c(-c2ccc(O)c(O)c2)oc2cc(O)cc(O)c12
REMARK SMILES IDX 4 1 3 2 16 3 25 4 2 5 26 6 1 7 33 8 27 9 31 10 28 11 30 12
REMARK SMILES IDX 17 13 18 14 19 15 20 16 24 17 22 18 21 19 23 21 32 23 29 25
REMARK SMILES IDX 5 27 14 28 6 29 12 30 7 31 10 32 15 33 13 35 8 37 9 38 11 40
REMARK H PARENT 21 20 23 22 32 24 29 26 15 34 13 36 9 39 11 41
REMARK Flexibility Score: inf
ROOT
ATOM      1  O   UNL     1     -18.131  29.044  51.111  1.00  0.00    -0.454 OA
ENDROOT
BRANCH   1   2
ATOM      2  C   UNL     1     -17.603  28.121  52.029  1.00  0.00     0.214 A 
ATOM      3  C   UNL     1     -16.599  27.215  51.649  1.00  0.00     0.180 A 
ATOM      4  O   UNL     1     -16.024  26.433  52.556  1.00  0.00    -0.452 OA
ATOM      5  C   UNL     1     -17.964  28.183  53.386  1.00  0.00     0.239 A 
ATOM      6  C   UNL     1     -16.370  26.427  53.840  1.00  0.00     0.146 A 
ATOM      7  O   UNL     1     -18.773  29.066  53.775  1.00  0.00    -0.285 OA
ATOM      8  C   UNL     1     -17.381  27.293  54.310  1.00  0.00     0.111 A 
ATOM      9  C   UNL     1     -15.715  25.560  54.719  1.00  0.00     0.094 A 
ATOM     10  C   UNL     1     -17.735  27.254  55.683  1.00  0.00     0.134 A 
ATOM     11  C   UNL     1     -16.051  25.546  56.078  1.00  0.00     0.123 A 
ATOM     12  C   UNL     1     -17.069  26.375  56.551  1.00  0.00     0.093 A 
BRANCH   3  13
ATOM     13  C   UNL     1     -16.146  27.104  50.250  1.00  0.00     0.025 A 
ATOM     14  C   UNL     1     -16.960  26.460  49.307  1.00  0.00     0.016 A 
ATOM     15  C   UNL     1     -16.572  26.404  47.968  1.00  0.00     0.051 A 
ATOM     16  C   UNL     1     -15.362  26.975  47.557  1.00  0.00     0.157 A 
ATOM     17  C   UNL     1     -14.948  27.698  49.839  1.00  0.00     0.062 A 
ATOM     18  C   UNL     1     -14.536  27.609  48.501  1.00  0.00     0.158 A 
BRANCH  16  19
ATOM     19  O   UNL     1     -14.980  26.925  46.216  1.00  0.00    -0.504 OA
ATOM     20  H   UNL     1     -15.653  27.077  45.473  1.00  0.00     0.293 HD
ENDBRANCH  16  19
BRANCH  18  21
ATOM     21  O   UNL     1     -13.330  28.198  48.127  1.00  0.00    -0.504 OA
ATOM     22  H   UNL     1     -12.633  28.503  48.801  1.00  0.00     0.293 HD
ENDBRANCH  18  21
ENDBRANCH   3  13
BRANCH  10  23
ATOM     23  O   UNL     1     -18.748  28.073  56.184  1.00  0.00    -0.507 OA
ATOM     24  H   UNL     1     -19.649  28.160  55.722  1.00  0.00     0.293 HD
ENDBRANCH  10  23
BRANCH  11  25
ATOM     25  O   UNL     1     -15.378  24.712  56.969  1.00  0.00    -0.508 OA
ATOM     26  H   UNL     1     -14.777  25.091  57.695  1.00  0.00     0.293 HD
ENDBRANCH  11  25
ENDBRANCH   1   2
BRANCH   1  27
ATOM     27  C   UNL     1     -18.075  30.470  51.281  1.00  0.00     0.339 C 
ATOM     28  C   UNL     1     -16.805  31.069  50.672  1.00  0.00     0.214 C 
ATOM     29  O   UNL     1     -19.224  31.088  50.723  1.00  0.00    -0.332 OA
ATOM     30  C   UNL     1     -16.764  30.674  49.191  1.00  0.00     0.180 C 
ATOM     31  C   UNL     1     -19.344  30.927  49.311  1.00  0.00     0.179 C 
ATOM     32  C   UNL     1     -18.025  31.188  48.488  1.00  0.00     0.177 C 
BRANCH  28  33
ATOM     33  O   UNL     1     -15.679  30.595  51.369  1.00  0.00    -0.384 OA
ATOM     34  H   UNL     1     -15.917  30.496  52.329  1.00  0.00     0.211 HD
ENDBRANCH  28  33
BRANCH  30  35
ATOM     35  O   UNL     1     -15.637  31.241  48.576  1.00  0.00    -0.387 OA
ATOM     36  H   UNL     1     -15.883  31.451  47.631  1.00  0.00     0.211 HD
ENDBRANCH  30  35
BRANCH  31  37
ATOM     37  C   UNL     1     -20.125  29.632  48.977  1.00  0.00     0.191 C 
BRANCH  37  38
ATOM     38  O   UNL     1     -19.248  28.596  48.630  1.00  0.00    -0.394 OA
ATOM     39  H   UNL     1     -18.402  28.812  49.097  1.00  0.00     0.210 HD
ENDBRANCH  37  38
ENDBRANCH  31  37
BRANCH  32  40
ATOM     40  O   UNL     1     -18.092  30.586  47.220  1.00  0.00    -0.387 OA
ATOM     41  H   UNL     1     -18.516  29.690  47.328  1.00  0.00     0.211 HD
ENDBRANCH  32  40
ENDBRANCH   1  27
TORSDOF 12
ENDMDL
MODEL 2
REMARK VINA RESULT:    -6.847      1.086      2.073
REMARK INTER + INTRA:         -11.345
REMARK INTER:                  -9.523
REMARK INTRA:                  -1.822
REMARK UNBOUND:                -1.296
REMARK SMILES O=c1c(O[C@@H]2O[C@H](CO)[C@H](O)[C@@H](O)[C@@H]2O)c(-c2ccc(O)c(O)c2)oc2cc(O)cc(O)c12
REMARK SMILES IDX 4 1 3 2 16 3 25 4 2 5 26 6 1 7 33 8 27 9 31 10 28 11 30 12
REMARK SMILES IDX 17 13 18 14 19 15 20 16 24 17 22 18 21 19 23 21 32 23 29 25
REMARK SMILES IDX 5 27 14 28 6 29 12 30 7 31 10 32 15 33 13 35 8 37 9 38 11 40
REMARK H PARENT 21 20 23 22 32 24 29 26 15 34 13 36 9 39 11 41
REMARK Flexibility Score: inf
ROOT
ATOM      1  O   UNL     1     -17.306  29.031  50.762  1.00  0.00    -0.454 OA
ENDROOT
BRANCH   1   2
ATOM      2  C   UNL     1     -16.908  28.106  51.742  1.00  0.00     0.214 A 
ATOM      3  C   UNL     1     -15.858  27.206  51.503  1.00  0.00     0.180 A 
ATOM      4  O   UNL     1     -15.411  26.423  52.480  1.00  0.00    -0.452 OA
ATOM      5  C   UNL     1     -17.455  28.164  53.036  1.00  0.00     0.239 A 
ATOM      6  C   UNL     1     -15.932  26.412  53.703  1.00  0.00     0.146 A 
ATOM      7  O   UNL     1     -18.313  29.042  53.311  1.00  0.00    -0.285 OA
ATOM      8  C   UNL     1     -17.003  27.273  54.030  1.00  0.00     0.111 A 
ATOM      9  C   UNL     1     -15.404  25.544  54.663  1.00  0.00     0.094 A 
ATOM     10  C   UNL     1     -17.544  27.228  55.340  1.00  0.00     0.134 A 
ATOM     11  C   UNL     1     -15.925  25.525  55.961  1.00  0.00     0.123 A 
ATOM     12  C   UNL     1     -17.002  26.349  56.290  1.00  0.00     0.093 A 
BRANCH   3  13
ATOM     13  C   UNL     1     -15.214  27.101  50.181  1.00  0.00     0.025 A 
ATOM     14  C   UNL     1     -15.927  26.555  49.104  1.00  0.00     0.016 A 
ATOM     15  C   UNL     1     -15.352  26.508  47.835  1.00  0.00     0.051 A 
ATOM     16  C   UNL     1     -14.054  26.990  47.626  1.00  0.00     0.157 A 
ATOM     17  C   UNL     1     -13.926  27.606  49.972  1.00  0.00     0.062 A 
ATOM     18  C   UNL     1     -13.329  27.524  48.705  1.00  0.00     0.158 A 
BRANCH  16  19
ATOM     19  O   UNL     1     -13.484  26.950  46.354  1.00  0.00    -0.504 OA
ATOM     20  H   UNL     1     -12.797  27.637  46.065  1.00  0.00     0.293 HD
ENDBRANCH  16  19
BRANCH  18  21
ATOM     21  O   UNL     1     -12.040  28.023  48.534  1.00  0.00    -0.504 OA
ATOM     22  H   UNL     1     -11.830  29.018  48.529  1.00  0.00     0.293 HD
ENDBRANCH  18  21
ENDBRANCH   3  13
BRANCH  10  23
ATOM     23  O   UNL     1     -18.620  28.042  55.698  1.00  0.00    -0.507 OA
ATOM     24  H   UNL     1     -18.735  28.398  56.643  1.00  0.00     0.293 HD
ENDBRANCH  10  23
BRANCH  11  25
ATOM     25  O   UNL     1     -15.379  24.691  56.936  1.00  0.00    -0.508 OA
ATOM     26  H   UNL     1     -14.475  24.249  56.805  1.00  0.00     0.293 HD
ENDBRANCH  11  25
ENDBRANCH   1   2
BRANCH   1  27
ATOM     27  C   UNL     1     -18.380  28.809  49.835  1.00  0.00     0.339 C 
ATOM     28  C   UNL     1     -19.558  29.754  50.086  1.00  0.00     0.214 C 
ATOM     29  O   UNL     1     -17.925  28.941  48.497  1.00  0.00    -0.332 OA
ATOM     30  C   UNL     1     -19.030  31.192  50.007  1.00  0.00     0.180 C 
ATOM     31  C   UNL     1     -17.465  30.249  48.164  1.00  0.00     0.179 C 
ATOM     32  C   UNL     1     -18.398  31.430  48.632  1.00  0.00     0.177 C 
BRANCH  28  33
ATOM     33  O   UNL     1     -20.125  29.475  51.343  1.00  0.00    -0.384 OA
ATOM     34  H   UNL     1     -19.982  30.258  51.938  1.00  0.00     0.211 HD
ENDBRANCH  28  33
BRANCH  30  35
ATOM     35  O   UNL     1     -20.087  32.099  50.187  1.00  0.00    -0.387 OA
ATOM     36  H   UNL     1     -20.678  31.733  50.904  1.00  0.00     0.211 HD
ENDBRANCH  30  35
BRANCH  31  37
ATOM     37  C   UNL     1     -15.956  30.390  48.481  1.00  0.00     0.191 C 
BRANCH  37  38
ATOM     38  O   UNL     1     -15.761  31.050  49.702  1.00  0.00    -0.394 OA
ATOM     39  H   UNL     1     -14.816  31.343  49.684  1.00  0.00     0.210 HD
ENDBRANCH  37  38
ENDBRANCH  31  37
BRANCH  32  40
ATOM     40  O   UNL     1     -17.690  32.643  48.684  1.00  0.00    -0.387 OA
ATOM     41  H   UNL     1     -17.464  32.907  47.750  1.00  0.00     0.211 HD
ENDBRANCH  32  40
ENDBRANCH   1  27
TORSDOF 12
ENDMDL
MODEL 3
REMARK VINA RESULT:    -6.610      2.611      6.920
REMARK INTER + INTRA:         -10.997
REMARK INTER:                  -8.908
REMARK INTRA:                  -2.089
REMARK UNBOUND:                -1.296
REMARK SMILES O=c1c(O[C@@H]2O[C@H](CO)[C@H](O)[C@@H](O)[C@@H]2O)c(-c2ccc(O)c(O)c2)oc2cc(O)cc(O)c12
REMARK SMILES IDX 4 1 3 2 16 3 25 4 2 5 26 6 1 7 33 8 27 9 31 10 28 11 30 12
REMARK SMILES IDX 17 13 18 14 19 15 20 16 24 17 22 18 21 19 23 21 32 23 29 25
REMARK SMILES IDX 5 27 14 28 6 29 12 30 7 31 10 32 15 33 13 35 8 37 9 38 11 40
REMARK H PARENT 21 20 23 22 32 24 29 26 15 34 13 36 9 39 11 41
REMARK Flexibility Score: inf
ROOT
ATOM      1  O   UNL     1     -17.377  29.140  49.302  1.00  0.00    -0.454 OA
ENDROOT
BRANCH   1   2
ATOM      2  C   UNL     1     -17.174  30.147  48.343  1.00  0.00     0.214 A 
ATOM      3  C   UNL     1     -17.140  29.844  46.972  1.00  0.00     0.180 A 
ATOM      4  O   UNL     1     -17.071  30.821  46.073  1.00  0.00    -0.452 OA
ATOM      5  C   UNL     1     -17.149  31.498  48.728  1.00  0.00     0.239 A 
ATOM      6  C   UNL     1     -16.997  32.108  46.396  1.00  0.00     0.146 A 
ATOM      7  O   UNL     1     -17.299  31.803  49.940  1.00  0.00    -0.285 OA
ATOM      8  C   UNL     1     -17.009  32.505  47.751  1.00  0.00     0.111 A 
ATOM      9  C   UNL     1     -16.915  33.064  45.379  1.00  0.00     0.094 A 
ATOM     10  C   UNL     1     -16.916  33.885  48.063  1.00  0.00     0.134 A 
ATOM     11  C   UNL     1     -16.852  34.425  45.694  1.00  0.00     0.123 A 
ATOM     12  C   UNL     1     -16.832  34.830  47.029  1.00  0.00     0.093 A 
BRANCH   3  13
ATOM     13  C   UNL     1     -17.186  28.453  46.485  1.00  0.00     0.025 A 
ATOM     14  C   UNL     1     -18.398  27.920  46.024  1.00  0.00     0.016 A 
ATOM     15  C   UNL     1     -18.441  26.627  45.502  1.00  0.00     0.051 A 
ATOM     16  C   UNL     1     -17.281  25.846  45.448  1.00  0.00     0.157 A 
ATOM     17  C   UNL     1     -16.019  27.685  46.410  1.00  0.00     0.062 A 
ATOM     18  C   UNL     1     -16.067  26.370  45.922  1.00  0.00     0.158 A 
BRANCH  16  19
ATOM     19  O   UNL     1     -17.325  24.557  44.917  1.00  0.00    -0.504 OA
ATOM     20  H   UNL     1     -16.836  23.789  45.364  1.00  0.00     0.293 HD
ENDBRANCH  16  19
BRANCH  18  21
ATOM     21  O   UNL     1     -14.890  25.627  45.874  1.00  0.00    -0.504 OA
ATOM     22  H   UNL     1     -14.028  25.930  46.320  1.00  0.00     0.293 HD
ENDBRANCH  18  21
ENDBRANCH   3  13
BRANCH  10  23
ATOM     23  O   UNL     1     -16.897  34.319  49.389  1.00  0.00    -0.507 OA
ATOM     24  H   UNL     1     -16.512  35.222  49.655  1.00  0.00     0.293 HD
ENDBRANCH  10  23
BRANCH  11  25
ATOM     25  O   UNL     1     -16.809  35.388  44.687  1.00  0.00    -0.508 OA
ATOM     26  H   UNL     1     -17.265  35.236  43.792  1.00  0.00     0.293 HD
ENDBRANCH  11  25
ENDBRANCH   1   2
BRANCH   1  27
ATOM     27  C   UNL     1     -16.317  28.450  49.982  1.00  0.00     0.339 C 
ATOM     28  C   UNL     1     -16.298  28.765  51.480  1.00  0.00     0.214 C 
ATOM     29  O   UNL     1     -16.416  27.049  49.778  1.00  0.00    -0.332 OA
ATOM     30  C   UNL     1     -17.672  28.396  52.053  1.00  0.00     0.180 C 
ATOM     31  C   UNL     1     -17.596  26.463  50.324  1.00  0.00     0.179 C 
ATOM     32  C   UNL     1     -17.956  26.914  51.790  1.00  0.00     0.177 C 
BRANCH  28  33
ATOM     33  O   UNL     1     -16.002  30.126  51.671  1.00  0.00    -0.384 OA
ATOM     34  H   UNL     1     -15.374  30.212  52.437  1.00  0.00     0.211 HD
ENDBRANCH  28  33
BRANCH  30  35
ATOM     35  O   UNL     1     -17.688  28.625  53.438  1.00  0.00    -0.387 OA
ATOM     36  H   UNL     1     -17.822  29.605  53.579  1.00  0.00     0.211 HD
ENDBRANCH  30  35
BRANCH  31  37
ATOM     37  C   UNL     1     -18.746  26.493  49.287  1.00  0.00     0.191 C 
BRANCH  37  38
ATOM     38  O   UNL     1     -19.613  27.566  49.535  1.00  0.00    -0.394 OA
ATOM     39  H   UNL     1     -19.099  28.179  50.118  1.00  0.00     0.210 HD
ENDBRANCH  37  38
ENDBRANCH  31  37
BRANCH  32  40
ATOM     40  O   UNL     1     -19.311  26.674  52.075  1.00  0.00    -0.387 OA
ATOM     41  H   UNL     1     -19.409  26.600  53.064  1.00  0.00     0.211 HD
ENDBRANCH  32  40
ENDBRANCH   1  27
TORSDOF 12
ENDMDL
MODEL 4
REMARK VINA RESULT:    -6.435     16.777     18.651
REMARK INTER + INTRA:         -10.740
REMARK INTER:                 -10.074
REMARK INTRA:                  -0.666
REMARK UNBOUND:                -1.296
REMARK SMILES O=c1c(O[C@@H]2O[C@H](CO)[C@H](O)[C@@H](O)[C@@H]2O)c(-c2ccc(O)c(O)c2)oc2cc(O)cc(O)c12
REMARK SMILES IDX 4 1 3 2 16 3 25 4 2 5 26 6 1 7 33 8 27 9 31 10 28 11 30 12
REMARK SMILES IDX 17 13 18 14 19 15 20 16 24 17 22 18 21 19 23 21 32 23 29 25
REMARK SMILES IDX 5 27 14 28 6 29 12 30 7 31 10 32 15 33 13 35 8 37 9 38 11 40
REMARK H PARENT 21 20 23 22 32 24 29 26 15 34 13 36 9 39 11 41
REMARK Flexibility Score: inf
ROOT
ATOM      1  O   UNL     1      -2.190  37.073  58.949  1.00  0.00    -0.454 OA
ENDROOT
BRANCH   1   2
ATOM      2  C   UNL     1      -2.573  35.908  59.636  1.00  0.00     0.214 A 
ATOM      3  C   UNL     1      -3.895  35.727  60.073  1.00  0.00     0.180 A 
ATOM      4  O   UNL     1      -4.269  34.570  60.611  1.00  0.00    -0.452 OA
ATOM      5  C   UNL     1      -1.674  34.836  59.769  1.00  0.00     0.239 A 
ATOM      6  C   UNL     1      -3.439  33.549  60.798  1.00  0.00     0.146 A 
ATOM      7  O   UNL     1      -0.518  34.927  59.279  1.00  0.00    -0.285 OA
ATOM      8  C   UNL     1      -2.087  33.647  60.404  1.00  0.00     0.111 A 
ATOM      9  C   UNL     1      -3.923  32.375  61.384  1.00  0.00     0.094 A 
ATOM     10  C   UNL     1      -1.225  32.544  60.630  1.00  0.00     0.134 A 
ATOM     11  C   UNL     1      -3.073  31.281  61.578  1.00  0.00     0.123 A 
ATOM     12  C   UNL     1      -1.727  31.374  61.221  1.00  0.00     0.093 A 
BRANCH   3  13
ATOM     13  C   UNL     1      -4.905  36.794  59.948  1.00  0.00     0.025 A 
ATOM     14  C   UNL     1      -4.861  37.895  60.815  1.00  0.00     0.016 A 
ATOM     15  C   UNL     1      -5.772  38.940  60.665  1.00  0.00     0.051 A 
ATOM     16  C   UNL     1      -6.746  38.893  59.661  1.00  0.00     0.157 A 
ATOM     17  C   UNL     1      -5.861  36.754  58.927  1.00  0.00     0.062 A 
ATOM     18  C   UNL     1      -6.804  37.785  58.800  1.00  0.00     0.158 A 
BRANCH  16  19
ATOM     19  O   UNL     1      -7.651  39.944  59.508  1.00  0.00    -0.504 OA
ATOM     20  H   UNL     1      -8.567  39.915  59.941  1.00  0.00     0.293 HD
ENDBRANCH  16  19
BRANCH  18  21
ATOM     21  O   UNL     1      -7.752  37.708  57.782  1.00  0.00    -0.504 OA
ATOM     22  H   UNL     1      -8.108  38.528  57.298  1.00  0.00     0.293 HD
ENDBRANCH  18  21
ENDBRANCH   3  13
BRANCH  10  23
ATOM     23  O   UNL     1       0.125  32.608  60.281  1.00  0.00    -0.507 OA
ATOM     24  H   UNL     1       0.576  33.484  60.029  1.00  0.00     0.293 HD
ENDBRANCH  10  23
BRANCH  11  25
ATOM     25  O   UNL     1      -3.554  30.093  62.125  1.00  0.00    -0.508 OA
ATOM     26  H   UNL     1      -3.894  29.340  61.535  1.00  0.00     0.293 HD
ENDBRANCH  11  25
ENDBRANCH   1   2
BRANCH   1  27
ATOM     27  C   UNL     1      -0.831  37.409  58.629  1.00  0.00     0.339 C 
ATOM     28  C   UNL     1      -0.566  37.348  57.123  1.00  0.00     0.214 C 
ATOM     29  O   UNL     1      -0.498  38.694  59.132  1.00  0.00    -0.332 OA
ATOM     30  C   UNL     1      -1.560  38.291  56.434  1.00  0.00     0.180 C 
ATOM     31  C   UNL     1      -1.249  39.759  58.551  1.00  0.00     0.179 C 
ATOM     32  C   UNL     1      -1.383  39.711  56.981  1.00  0.00     0.177 C 
BRANCH  28  33
ATOM     33  O   UNL     1      -0.708  36.023  56.673  1.00  0.00    -0.384 OA
ATOM     34  H   UNL     1       0.040  35.813  56.054  1.00  0.00     0.211 HD
ENDBRANCH  28  33
BRANCH  30  35
ATOM     35  O   UNL     1      -1.325  38.304  55.049  1.00  0.00    -0.387 OA
ATOM     36  H   UNL     1      -0.959  37.409  54.799  1.00  0.00     0.211 HD
ENDBRANCH  30  35
BRANCH  31  37
ATOM     37  C   UNL     1      -2.552  40.002  59.351  1.00  0.00     0.191 C 
BRANCH  37  38
ATOM     38  O   UNL     1      -3.024  41.307  59.153  1.00  0.00    -0.394 OA
ATOM     39  H   UNL     1      -3.990  41.263  59.363  1.00  0.00     0.210 HD
ENDBRANCH  37  38
ENDBRANCH  31  37
BRANCH  32  40
ATOM     40  O   UNL     1      -2.470  40.485  56.543  1.00  0.00    -0.387 OA
ATOM     41  H   UNL     1      -2.714  41.115  57.276  1.00  0.00     0.211 HD
ENDBRANCH  32  40
ENDBRANCH   1  27
TORSDOF 12
ENDMDL
MODEL 5
REMARK VINA RESULT:    -6.330      1.660      4.236
REMARK INTER + INTRA:         -10.587
REMARK INTER:                  -8.571
REMARK INTRA:                  -2.016
REMARK UNBOUND:                -1.296
REMARK SMILES O=c1c(O[C@@H]2O[C@H](CO)[C@H](O)[C@@H](O)[C@@H]2O)c(-c2ccc(O)c(O)c2)oc2cc(O)cc(O)c12
REMARK SMILES IDX 4 1 3 2 16 3 25 4 2 5 26 6 1 7 33 8 27 9 31 10 28 11 30 12
REMARK SMILES IDX 17 13 18 14 19 15 20 16 24 17 22 18 21 19 23 21 32 23 29 25
REMARK SMILES IDX 5 27 14 28 6 29 12 30 7 31 10 32 15 33 13 35 8 37 9 38 11 40
REMARK H PARENT 21 20 23 22 32 24 29 26 15 34 13 36 9 39 11 41
REMARK Flexibility Score: inf
ROOT
ATOM      1  O   UNL     1     -16.298  27.555  50.830  1.00  0.00    -0.454 OA
ENDROOT
BRANCH   1   2
ATOM      2  C   UNL     1     -16.583  27.608  52.205  1.00  0.00     0.214 A 
ATOM      3  C   UNL     1     -17.527  28.514  52.715  1.00  0.00     0.180 A 
ATOM      4  O   UNL     1     -17.875  28.468  53.996  1.00  0.00    -0.452 OA
ATOM      5  C   UNL     1     -16.036  26.653  53.080  1.00  0.00     0.239 A 
ATOM      6  C   UNL     1     -17.348  27.613  54.866  1.00  0.00     0.146 A 
ATOM      7  O   UNL     1     -15.280  25.755  52.627  1.00  0.00    -0.285 OA
ATOM      8  C   UNL     1     -16.378  26.675  54.447  1.00  0.00     0.111 A 
ATOM      9  C   UNL     1     -17.769  27.647  56.199  1.00  0.00     0.094 A 
ATOM     10  C   UNL     1     -15.825  25.786  55.403  1.00  0.00     0.134 A 
ATOM     11  C   UNL     1     -17.239  26.747  57.130  1.00  0.00     0.123 A 
ATOM     12  C   UNL     1     -16.258  25.836  56.737  1.00  0.00     0.093 A 
BRANCH   3  13
ATOM     13  C   UNL     1     -18.165  29.531  51.858  1.00  0.00     0.025 A 
ATOM     14  C   UNL     1     -19.491  29.353  51.440  1.00  0.00     0.016 A 
ATOM     15  C   UNL     1     -20.125  30.337  50.683  1.00  0.00     0.051 A 
ATOM     16  C   UNL     1     -19.440  31.503  50.319  1.00  0.00     0.157 A 
ATOM     17  C   UNL     1     -17.484  30.705  51.519  1.00  0.00     0.062 A 
ATOM     18  C   UNL     1     -18.106  31.679  50.723  1.00  0.00     0.158 A 
BRANCH  16  19
ATOM     19  O   UNL     1     -20.079  32.490  49.569  1.00  0.00    -0.504 OA
ATOM     20  H   UNL     1     -20.426  33.337  50.004  1.00  0.00     0.293 HD
ENDBRANCH  16  19
BRANCH  18  21
ATOM     21  O   UNL     1     -17.396  32.831  50.390  1.00  0.00    -0.504 OA
ATOM     22  H   UNL     1     -17.837  33.654  49.989  1.00  0.00     0.293 HD
ENDBRANCH  18  21
ENDBRANCH   3  13
BRANCH  10  23
ATOM     23  O   UNL     1     -14.845  24.862  55.037  1.00  0.00    -0.507 OA
ATOM     24  H   UNL     1     -14.281  24.978  54.199  1.00  0.00     0.293 HD
ENDBRANCH  10  23
BRANCH  11  25
ATOM     25  O   UNL     1     -17.680  26.749  58.453  1.00  0.00    -0.508 OA
ATOM     26  H   UNL     1     -17.080  26.436  59.209  1.00  0.00     0.293 HD
ENDBRANCH  11  25
ENDBRANCH   1   2
BRANCH   1  27
ATOM     27  C   UNL     1     -15.193  28.234  50.211  1.00  0.00     0.339 C 
ATOM     28  C   UNL     1     -14.217  27.254  49.554  1.00  0.00     0.214 C 
ATOM     29  O   UNL     1     -15.654  29.177  49.256  1.00  0.00    -0.332 OA
ATOM     30  C   UNL     1     -15.005  26.414  48.543  1.00  0.00     0.180 C 
ATOM     31  C   UNL     1     -16.350  28.599  48.153  1.00  0.00     0.179 C 
ATOM     32  C   UNL     1     -15.660  27.336  47.509  1.00  0.00     0.177 C 
BRANCH  28  33
ATOM     33  O   UNL     1     -13.618  26.453  50.543  1.00  0.00    -0.384 OA
ATOM     34  H   UNL     1     -13.398  25.569  50.147  1.00  0.00     0.211 HD
ENDBRANCH  28  33
BRANCH  30  35
ATOM     35  O   UNL     1     -14.139  25.529  47.880  1.00  0.00    -0.387 OA
ATOM     36  H   UNL     1     -13.375  25.341  48.494  1.00  0.00     0.211 HD
ENDBRANCH  30  35
BRANCH  31  37
ATOM     37  C   UNL     1     -17.861  28.478  48.468  1.00  0.00     0.191 C 
BRANCH  37  38
ATOM     38  O   UNL     1     -18.184  27.176  48.873  1.00  0.00    -0.394 OA
ATOM     39  H   UNL     1     -19.118  27.042  48.574  1.00  0.00     0.210 HD
ENDBRANCH  37  38
ENDBRANCH  31  37
BRANCH  32  40
ATOM     40  O   UNL     1     -16.584  26.576  46.772  1.00  0.00    -0.387 OA
ATOM     41  H   UNL     1     -16.565  26.900  45.829  1.00  0.00     0.211 HD
ENDBRANCH  32  40
ENDBRANCH   1  27
TORSDOF 12
ENDMDL
MODEL 6
REMARK VINA RESULT:    -6.277      2.337      6.797
REMARK INTER + INTRA:         -10.508
REMARK INTER:                  -8.819
REMARK INTRA:                  -1.690
REMARK UNBOUND:                -1.296
REMARK SMILES O=c1c(O[C@@H]2O[C@H](CO)[C@H](O)[C@@H](O)[C@@H]2O)c(-c2ccc(O)c(O)c2)oc2cc(O)cc(O)c12
REMARK SMILES IDX 4 1 3 2 16 3 25 4 2 5 26 6 1 7 33 8 27 9 31 10 28 11 30 12
REMARK SMILES IDX 17 13 18 14 19 15 20 16 24 17 22 18 21 19 23 21 32 23 29 25
REMARK SMILES IDX 5 27 14 28 6 29 12 30 7 31 10 32 15 33 13 35 8 37 9 38 11 40
REMARK H PARENT 21 20 23 22 32 24 29 26 15 34 13 36 9 39 11 41
REMARK Flexibility Score: inf
ROOT
ATOM      1  O   UNL     1     -17.241  29.457  48.561  1.00  0.00    -0.454 OA
ENDROOT
BRANCH   1   2
ATOM      2  C   UNL     1     -17.026  28.373  47.694  1.00  0.00     0.214 A 
ATOM      3  C   UNL     1     -16.613  27.124  48.185  1.00  0.00     0.180 A 
ATOM      4  O   UNL     1     -16.534  26.077  47.370  1.00  0.00    -0.452 OA
ATOM      5  C   UNL     1     -17.364  28.474  46.333  1.00  0.00     0.239 A 
ATOM      6  C   UNL     1     -16.798  26.142  46.069  1.00  0.00     0.146 A 
ATOM      7  O   UNL     1     -17.850  29.548  45.891  1.00  0.00    -0.285 OA
ATOM      8  C   UNL     1     -17.205  27.361  45.484  1.00  0.00     0.111 A 
ATOM      9  C   UNL     1     -16.675  24.988  45.289  1.00  0.00     0.094 A 
ATOM     10  C   UNL     1     -17.467  27.400  44.091  1.00  0.00     0.134 A 
ATOM     11  C   UNL     1     -16.963  25.028  43.920  1.00  0.00     0.123 A 
ATOM     12  C   UNL     1     -17.336  26.233  43.323  1.00  0.00     0.093 A 
BRANCH   3  13
ATOM     13  C   UNL     1     -16.264  26.927  49.604  1.00  0.00     0.025 A 
ATOM     14  C   UNL     1     -14.975  27.250  50.052  1.00  0.00     0.016 A 
ATOM     15  C   UNL     1     -14.652  27.129  51.403  1.00  0.00     0.051 A 
ATOM     16  C   UNL     1     -15.603  26.669  52.320  1.00  0.00     0.157 A 
ATOM     17  C   UNL     1     -17.226  26.491  50.521  1.00  0.00     0.062 A 
ATOM     18  C   UNL     1     -16.892  26.329  51.875  1.00  0.00     0.158 A 
BRANCH  16  19
ATOM     19  O   UNL     1     -15.280  26.556  53.673  1.00  0.00    -0.504 OA
ATOM     20  H   UNL     1     -15.280  27.367  54.281  1.00  0.00     0.293 HD
ENDBRANCH  16  19
BRANCH  18  21
ATOM     21  O   UNL     1     -17.869  25.878  52.760  1.00  0.00    -0.504 OA
ATOM     22  H   UNL     1     -18.104  26.370  53.618  1.00  0.00     0.293 HD
ENDBRANCH  18  21
ENDBRANCH   3  13
BRANCH  10  23
ATOM     23  O   UNL     1     -17.845  28.590  43.467  1.00  0.00    -0.507 OA
ATOM     24  H   UNL     1     -18.360  29.316  43.958  1.00  0.00     0.293 HD
ENDBRANCH  10  23
BRANCH  11  25
ATOM     25  O   UNL     1     -16.880  23.875  43.141  1.00  0.00    -0.508 OA
ATOM     26  H   UNL     1     -17.701  23.310  42.948  1.00  0.00     0.293 HD
ENDBRANCH  11  25
ENDBRANCH   1   2
BRANCH   1  27
ATOM     27  C   UNL     1     -16.255  30.460  48.854  1.00  0.00     0.339 C 
ATOM     28  C   UNL     1     -16.672  31.840  48.338  1.00  0.00     0.214 C 
ATOM     29  O   UNL     1     -15.995  30.518  50.248  1.00  0.00    -0.332 OA
ATOM     30  C   UNL     1     -18.031  32.182  48.961  1.00  0.00     0.180 C 
ATOM     31  C   UNL     1     -17.117  30.916  51.034  1.00  0.00     0.179 C 
ATOM     32  C   UNL     1     -17.914  32.161  50.489  1.00  0.00     0.177 C 
BRANCH  28  33
ATOM     33  O   UNL     1     -16.734  31.818  46.933  1.00  0.00    -0.384 OA
ATOM     34  H   UNL     1     -17.688  31.800  46.656  1.00  0.00     0.211 HD
ENDBRANCH  28  33
BRANCH  30  35
ATOM     35  O   UNL     1     -18.435  33.463  48.552  1.00  0.00    -0.387 OA
ATOM     36  H   UNL     1     -19.230  33.716  49.101  1.00  0.00     0.211 HD
ENDBRANCH  30  35
BRANCH  31  37
ATOM     37  C   UNL     1     -17.957  29.681  51.444  1.00  0.00     0.191 C 
BRANCH  37  38
ATOM     38  O   UNL     1     -17.959  29.517  52.836  1.00  0.00    -0.394 OA
ATOM     39  H   UNL     1     -18.852  29.829  53.127  1.00  0.00     0.210 HD
ENDBRANCH  37  38
ENDBRANCH  31  37
BRANCH  32  40
ATOM     40  O   UNL     1     -19.212  32.205  51.025  1.00  0.00    -0.387 OA
ATOM     41  H   UNL     1     -19.209  32.848  51.787  1.00  0.00     0.211 HD
ENDBRANCH  32  40
ENDBRANCH   1  27
TORSDOF 12
ENDMDL
MODEL 7
REMARK VINA RESULT:    -6.112      1.817      4.555
REMARK INTER + INTRA:         -10.266
REMARK INTER:                  -8.359
REMARK INTRA:                  -1.907
REMARK UNBOUND:                -1.296
REMARK SMILES O=c1c(O[C@@H]2O[C@H](CO)[C@H](O)[C@@H](O)[C@@H]2O)c(-c2ccc(O)c(O)c2)oc2cc(O)cc(O)c12
REMARK SMILES IDX 4 1 3 2 16 3 25 4 2 5 26 6 1 7 33 8 27 9 31 10 28 11 30 12
REMARK SMILES IDX 17 13 18 14 19 15 20 16 24 17 22 18 21 19 23 21 32 23 29 25
REMARK SMILES IDX 5 27 14 28 6 29 12 30 7 31 10 32 15 33 13 35 8 37 9 38 11 40
REMARK H PARENT 21 20 23 22 32 24 29 26 15 34 13 36 9 39 11 41
REMARK Flexibility Score: inf
ROOT
ATOM      1  O   UNL     1     -17.256  28.456  49.550  1.00  0.00    -0.454 OA
ENDROOT
BRANCH   1   2
ATOM      2  C   UNL     1     -17.674  28.708  50.867  1.00  0.00     0.214 A 
ATOM      3  C   UNL     1     -18.311  29.912  51.207  1.00  0.00     0.180 A 
ATOM      4  O   UNL     1     -18.810  30.084  52.427  1.00  0.00    -0.452 OA
ATOM      5  C   UNL     1     -17.594  27.698  51.842  1.00  0.00     0.239 A 
ATOM      6  C   UNL     1     -18.714  29.174  53.391  1.00  0.00     0.146 A 
ATOM      7  O   UNL     1     -17.136  26.567  51.531  1.00  0.00    -0.285 OA
ATOM      8  C   UNL     1     -18.075  27.939  53.145  1.00  0.00     0.111 A 
ATOM      9  C   UNL     1     -19.259  29.451  54.648  1.00  0.00     0.094 A 
ATOM     10  C   UNL     1     -17.977  26.995  54.198  1.00  0.00     0.134 A 
ATOM     11  C   UNL     1     -19.184  28.503  55.674  1.00  0.00     0.123 A 
ATOM     12  C   UNL     1     -18.529  27.291  55.454  1.00  0.00     0.093 A 
BRANCH   3  13
ATOM     13  C   UNL     1     -18.457  31.012  50.236  1.00  0.00     0.025 A 
ATOM     14  C   UNL     1     -19.517  30.991  49.319  1.00  0.00     0.016 A 
ATOM     15  C   UNL     1     -19.701  32.056  48.437  1.00  0.00     0.051 A 
ATOM     16  C   UNL     1     -18.823  33.146  48.448  1.00  0.00     0.157 A 
ATOM     17  C   UNL     1     -17.590  32.110  50.268  1.00  0.00     0.062 A 
ATOM     18  C   UNL     1     -17.750  33.164  49.355  1.00  0.00     0.158 A 
BRANCH  16  19
ATOM     19  O   UNL     1     -19.015  34.214  47.572  1.00  0.00    -0.504 OA
ATOM     20  H   UNL     1     -19.208  35.147  47.917  1.00  0.00     0.293 HD
ENDBRANCH  16  19
BRANCH  18  21
ATOM     21  O   UNL     1     -16.862  34.237  49.403  1.00  0.00    -0.504 OA
ATOM     22  H   UNL     1     -17.000  35.040  50.011  1.00  0.00     0.293 HD
ENDBRANCH  18  21
ENDBRANCH   3  13
BRANCH  10  23
ATOM     23  O   UNL     1     -17.330  25.774  54.006  1.00  0.00    -0.507 OA
ATOM     24  H   UNL     1     -16.860  25.288  54.766  1.00  0.00     0.293 HD
ENDBRANCH  10  23
BRANCH  11  25
ATOM     25  O   UNL     1     -19.758  28.754  56.919  1.00  0.00    -0.508 OA
ATOM     26  H   UNL     1     -20.070  27.996  57.519  1.00  0.00     0.293 HD
ENDBRANCH  11  25
ENDBRANCH   1   2
BRANCH   1  27
ATOM     27  C   UNL     1     -16.065  29.006  48.963  1.00  0.00     0.339 C 
ATOM     28  C   UNL     1     -14.960  27.956  48.824  1.00  0.00     0.214 C 
ATOM     29  O   UNL     1     -16.349  29.587  47.700  1.00  0.00    -0.332 OA
ATOM     30  C   UNL     1     -15.518  26.796  47.991  1.00  0.00     0.180 C 
ATOM     31  C   UNL     1     -16.803  28.657  46.719  1.00  0.00     0.179 C 
ATOM     32  C   UNL     1     -15.975  27.318  46.626  1.00  0.00     0.177 C 
BRANCH  28  33
ATOM     33  O   UNL     1     -14.551  27.532  50.101  1.00  0.00    -0.384 OA
ATOM     34  H   UNL     1     -15.047  26.703  50.336  1.00  0.00     0.211 HD
ENDBRANCH  28  33
BRANCH  30  35
ATOM     35  O   UNL     1     -14.521  25.825  47.797  1.00  0.00    -0.387 OA
ATOM     36  H   UNL     1     -14.446  25.299  48.643  1.00  0.00     0.211 HD
ENDBRANCH  30  35
BRANCH  31  37
ATOM     37  C   UNL     1     -18.344  28.516  46.777  1.00  0.00     0.191 C 
BRANCH  37  38
ATOM     38  O   UNL     1     -18.714  27.367  47.488  1.00  0.00    -0.394 OA
ATOM     39  H   UNL     1     -19.625  27.153  47.167  1.00  0.00     0.210 HD
ENDBRANCH  37  38
ENDBRANCH  31  37
BRANCH  32  40
ATOM     40  O   UNL     1     -16.721  26.305  46.000  1.00  0.00    -0.387 OA
ATOM     41  H   UNL     1     -16.763  25.527  46.621  1.00  0.00     0.211 HD
ENDBRANCH  32  40
ENDBRANCH   1  27
TORSDOF 12
ENDMDL
MODEL 8
REMARK VINA RESULT:    -6.097      1.704      4.461
REMARK INTER + INTRA:         -10.245
REMARK INTER:                  -9.041
REMARK INTRA:                  -1.204
REMARK UNBOUND:                -1.296
REMARK SMILES O=c1c(O[C@@H]2O[C@H](CO)[C@H](O)[C@@H](O)[C@@H]2O)c(-c2ccc(O)c(O)c2)oc2cc(O)cc(O)c12
REMARK SMILES IDX 4 1 3 2 16 3 25 4 2 5 26 6 1 7 33 8 27 9 31 10 28 11 30 12
REMARK SMILES IDX 17 13 18 14 19 15 20 16 24 17 22 18 21 19 23 21 32 23 29 25
REMARK SMILES IDX 5 27 14 28 6 29 12 30 7 31 10 32 15 33 13 35 8 37 9 38 11 40
REMARK H PARENT 21 20 23 22 32 24 29 26 15 34 13 36 9 39 11 41
REMARK Flexibility Score: inf
ROOT
ATOM      1  O   UNL     1     -16.942  27.473  50.584  1.00  0.00    -0.454 OA
ENDROOT
BRANCH   1   2
ATOM      2  C   UNL     1     -17.340  27.601  51.926  1.00  0.00     0.214 A 
ATOM      3  C   UNL     1     -17.775  28.835  52.437  1.00  0.00     0.180 A 
ATOM      4  O   UNL     1     -18.264  28.913  53.670  1.00  0.00    -0.452 OA
ATOM      5  C   UNL     1     -17.452  26.464  52.745  1.00  0.00     0.239 A 
ATOM      6  C   UNL     1     -18.343  27.872  54.492  1.00  0.00     0.146 A 
ATOM      7  O   UNL     1     -17.183  25.328  52.273  1.00  0.00    -0.285 OA
ATOM      8  C   UNL     1     -17.914  26.595  54.070  1.00  0.00     0.111 A 
ATOM      9  C   UNL     1     -18.861  28.055  55.778  1.00  0.00     0.094 A 
ATOM     10  C   UNL     1     -17.999  25.508  54.976  1.00  0.00     0.134 A 
ATOM     11  C   UNL     1     -18.969  26.972  56.657  1.00  0.00     0.123 A 
ATOM     12  C   UNL     1     -18.520  25.710  56.263  1.00  0.00     0.093 A 
BRANCH   3  13
ATOM     13  C   UNL     1     -17.713  30.070  51.634  1.00  0.00     0.025 A 
ATOM     14  C   UNL     1     -16.466  30.619  51.301  1.00  0.00     0.016 A 
ATOM     15  C   UNL     1     -16.394  31.751  50.489  1.00  0.00     0.051 A 
ATOM     16  C   UNL     1     -17.562  32.358  50.015  1.00  0.00     0.157 A 
ATOM     17  C   UNL     1     -18.882  30.660  51.142  1.00  0.00     0.062 A 
ATOM     18  C   UNL     1     -18.814  31.822  50.358  1.00  0.00     0.158 A 
BRANCH  16  19
ATOM     19  O   UNL     1     -17.486  33.485  49.196  1.00  0.00    -0.504 OA
ATOM     20  H   UNL     1     -18.305  33.842  48.717  1.00  0.00     0.293 HD
ENDBRANCH  16  19
BRANCH  18  21
ATOM     21  O   UNL     1     -19.998  32.393  49.895  1.00  0.00    -0.504 OA
ATOM     22  H   UNL     1     -20.899  32.224  50.334  1.00  0.00     0.293 HD
ENDBRANCH  18  21
ENDBRANCH   3  13
BRANCH  10  23
ATOM     23  O   UNL     1     -17.561  24.235  54.609  1.00  0.00    -0.507 OA
ATOM     24  H   UNL     1     -18.209  23.470  54.439  1.00  0.00     0.293 HD
ENDBRANCH  10  23
BRANCH  11  25
ATOM     25  O   UNL     1     -19.520  27.136  57.926  1.00  0.00    -0.508 OA
ATOM     26  H   UNL     1     -20.291  27.777  58.087  1.00  0.00     0.293 HD
ENDBRANCH  11  25
ENDBRANCH   1   2
BRANCH   1  27
ATOM     27  C   UNL     1     -17.605  26.635  49.624  1.00  0.00     0.339 C 
ATOM     28  C   UNL     1     -18.761  27.362  48.932  1.00  0.00     0.214 C 
ATOM     29  O   UNL     1     -16.685  26.150  48.658  1.00  0.00    -0.332 OA
ATOM     30  C   UNL     1     -18.193  28.630  48.282  1.00  0.00     0.180 C 
ATOM     31  C   UNL     1     -16.092  27.169  47.856  1.00  0.00     0.179 C 
ATOM     32  C   UNL     1     -17.092  28.247  47.289  1.00  0.00     0.177 C 
BRANCH  28  33
ATOM     33  O   UNL     1     -19.760  27.663  49.876  1.00  0.00    -0.384 OA
ATOM     34  H   UNL     1     -19.447  28.417  50.442  1.00  0.00     0.211 HD
ENDBRANCH  28  33
BRANCH  30  35
ATOM     35  O   UNL     1     -19.211  29.309  47.593  1.00  0.00    -0.387 OA
ATOM     36  H   UNL     1     -19.229  30.249  47.933  1.00  0.00     0.211 HD
ENDBRANCH  30  35
BRANCH  31  37
ATOM     37  C   UNL     1     -14.802  27.703  48.525  1.00  0.00     0.191 C 
BRANCH  37  38
ATOM     38  O   UNL     1     -13.841  28.038  47.561  1.00  0.00    -0.394 OA
ATOM     39  H   UNL     1     -13.508  28.929  47.833  1.00  0.00     0.210 HD
ENDBRANCH  37  38
ENDBRANCH  31  37
BRANCH  32  40
ATOM     40  O   UNL     1     -16.413  29.421  46.918  1.00  0.00    -0.387 OA
ATOM     41  H   UNL     1     -17.061  30.015  46.449  1.00  0.00     0.211 HD
ENDBRANCH  32  40
ENDBRANCH   1  27
TORSDOF 12
ENDMDL
MODEL 9
REMARK VINA RESULT:    -5.959      1.864      2.607
REMARK INTER + INTRA:         -10.042
REMARK INTER:                  -9.218
REMARK INTRA:                  -0.823
REMARK UNBOUND:                -1.296
REMARK SMILES O=c1c(O[C@@H]2O[C@H](CO)[C@H](O)[C@@H](O)[C@@H]2O)c(-c2ccc(O)c(O)c2)oc2cc(O)cc(O)c12
REMARK SMILES IDX 4 1 3 2 16 3 25 4 2 5 26 6 1 7 33 8 27 9 31 10 28 11 30 12
REMARK SMILES IDX 17 13 18 14 19 15 20 16 24 17 22 18 21 19 23 21 32 23 29 25
REMARK SMILES IDX 5 27 14 28 6 29 12 30 7 31 10 32 15 33 13 35 8 37 9 38 11 40
REMARK H PARENT 21 20 23 22 32 24 29 26 15 34 13 36 9 39 11 41
REMARK Flexibility Score: inf
ROOT
ATOM      1  O   UNL     1     -17.712  30.498  49.383  1.00  0.00    -0.454 OA
ENDROOT
BRANCH   1   2
ATOM      2  C   UNL     1     -17.900  29.783  50.578  1.00  0.00     0.214 A 
ATOM      3  C   UNL     1     -17.305  28.525  50.769  1.00  0.00     0.180 A 
ATOM      4  O   UNL     1     -17.390  27.917  51.948  1.00  0.00    -0.452 OA
ATOM      5  C   UNL     1     -18.565  30.377  51.664  1.00  0.00     0.239 A 
ATOM      6  C   UNL     1     -18.050  28.423  52.985  1.00  0.00     0.146 A 
ATOM      7  O   UNL     1     -19.003  31.553  51.558  1.00  0.00    -0.285 OA
ATOM      8  C   UNL     1     -18.692  29.676  52.880  1.00  0.00     0.111 A 
ATOM      9  C   UNL     1     -18.094  27.703  54.183  1.00  0.00     0.094 A 
ATOM     10  C   UNL     1     -19.399  30.182  54.000  1.00  0.00     0.134 A 
ATOM     11  C   UNL     1     -18.769  28.222  55.293  1.00  0.00     0.123 A 
ATOM     12  C   UNL     1     -19.434  29.445  55.194  1.00  0.00     0.093 A 
BRANCH   3  13
ATOM     13  C   UNL     1     -16.570  27.844  49.688  1.00  0.00     0.025 A 
ATOM     14  C   UNL     1     -17.177  26.788  48.994  1.00  0.00     0.016 A 
ATOM     15  C   UNL     1     -16.516  26.178  47.928  1.00  0.00     0.051 A 
ATOM     16  C   UNL     1     -15.236  26.602  47.552  1.00  0.00     0.157 A 
ATOM     17  C   UNL     1     -15.301  28.288  49.300  1.00  0.00     0.062 A 
ATOM     18  C   UNL     1     -14.617  27.650  48.254  1.00  0.00     0.158 A 
BRANCH  16  19
ATOM     19  O   UNL     1     -14.581  25.996  46.480  1.00  0.00    -0.504 OA
ATOM     20  H   UNL     1     -14.263  26.539  45.685  1.00  0.00     0.293 HD
ENDBRANCH  16  19
BRANCH  18  21
ATOM     21  O   UNL     1     -13.348  28.106  47.901  1.00  0.00    -0.504 OA
ATOM     22  H   UNL     1     -12.531  27.973  48.491  1.00  0.00     0.293 HD
ENDBRANCH  18  21
ENDBRANCH   3  13
BRANCH  10  23
ATOM     23  O   UNL     1     -20.071  31.403  53.931  1.00  0.00    -0.507 OA
ATOM     24  H   UNL     1     -19.659  32.265  54.278  1.00  0.00     0.293 HD
ENDBRANCH  10  23
BRANCH  11  25
ATOM     25  O   UNL     1     -18.786  27.530  56.503  1.00  0.00    -0.508 OA
ATOM     26  H   UNL     1     -18.748  26.516  56.532  1.00  0.00     0.293 HD
ENDBRANCH  11  25
ENDBRANCH   1   2
BRANCH   1  27
ATOM     27  C   UNL     1     -18.481  31.652  49.007  1.00  0.00     0.339 C 
ATOM     28  C   UNL     1     -17.596  32.780  48.471  1.00  0.00     0.214 C 
ATOM     29  O   UNL     1     -19.467  31.307  48.045  1.00  0.00    -0.332 OA
ATOM     30  C   UNL     1     -16.792  32.224  47.289  1.00  0.00     0.180 C 
ATOM     31  C   UNL     1     -18.936  30.843  46.806  1.00  0.00     0.179 C 
ATOM     32  C   UNL     1     -17.753  31.703  46.216  1.00  0.00     0.177 C 
BRANCH  28  33
ATOM     33  O   UNL     1     -16.756  33.246  49.499  1.00  0.00    -0.384 OA
ATOM     34  H   UNL     1     -16.649  34.229  49.402  1.00  0.00     0.211 HD
ENDBRANCH  28  33
BRANCH  30  35
ATOM     35  O   UNL     1     -15.996  33.238  46.734  1.00  0.00    -0.387 OA
ATOM     36  H   UNL     1     -15.672  32.914  45.847  1.00  0.00     0.211 HD
ENDBRANCH  30  35
BRANCH  31  37
ATOM     37  C   UNL     1     -18.725  29.310  46.846  1.00  0.00     0.191 C 
BRANCH  37  38
ATOM     38  O   UNL     1     -19.677  28.696  47.671  1.00  0.00    -0.394 OA
ATOM     39  H   UNL     1     -20.492  28.630  47.113  1.00  0.00     0.210 HD
ENDBRANCH  37  38
ENDBRANCH  31  37
BRANCH  32  40
ATOM     40  O   UNL     1     -17.006  30.963  45.285  1.00  0.00    -0.387 OA
ATOM     41  H   UNL     1     -16.878  30.045  45.653  1.00  0.00     0.211 HD
ENDBRANCH  32  40
ENDBRANCH   1  27
TORSDOF 12
ENDMDL
