MODEL 1
REMARK VINA RESULT:    -5.663      0.000      0.000
REMARK INTER + INTRA:          -6.451
REMARK INTER:                  -6.821
REMARK INTRA:                   0.371
REMARK UNBOUND:                 0.371
REMARK SMILES O=c1c(O)c(-c2ccc(O)c(O)c2)oc2cc(O)cc(O)c12
REMARK SMILES IDX 5 1 3 2 2 3 1 4 22 5 20 6 19 7 17 8 16 9 15 10 14 11 6 12
REMARK SMILES IDX 7 13 8 14 9 15 13 16 11 17 10 18 12 20 4 22 21 24 18 26
REMARK H PARENT 10 19 12 21 4 23 21 25 18 27
REMARK Flexibility Score: inf
ROOT
ATOM      1  C   UNL     1      19.675 -35.227 150.085  1.00  0.00     0.180 A 
ATOM      2  C   UNL     1      18.936 -34.745 148.991  1.00  0.00     0.208 A 
ATOM      3  C   UNL     1      17.589 -35.118 148.861  1.00  0.00     0.238 A 
ATOM      4  O   UNL     1      16.918 -34.638 147.910  1.00  0.00    -0.285 OA
ATOM      5  C   UNL     1      17.002 -35.981 149.817  1.00  0.00     0.111 A 
ATOM      6  C   UNL     1      15.657 -36.456 149.762  1.00  0.00     0.134 A 
ATOM      7  C   UNL     1      15.143 -37.201 150.830  1.00  0.00     0.093 A 
ATOM      8  C   UNL     1      15.943 -37.544 151.919  1.00  0.00     0.123 A 
ATOM      9  C   UNL     1      17.277 -37.135 151.956  1.00  0.00     0.094 A 
ATOM     10  C   UNL     1      17.808 -36.360 150.922  1.00  0.00     0.146 A 
ATOM     11  O   UNL     1      19.078 -35.983 151.000  1.00  0.00    -0.452 OA
ENDROOT
BRANCH   1  12
ATOM     12  C   UNL     1      21.106 -34.899 150.276  1.00  0.00     0.025 A 
ATOM     13  C   UNL     1      21.684 -34.860 151.558  1.00  0.00     0.016 A 
ATOM     14  C   UNL     1      23.030 -34.524 151.715  1.00  0.00     0.051 A 
ATOM     15  C   UNL     1      23.817 -34.208 150.603  1.00  0.00     0.157 A 
ATOM     16  C   UNL     1      21.892 -34.561 149.163  1.00  0.00     0.062 A 
ATOM     17  C   UNL     1      23.245 -34.224 149.320  1.00  0.00     0.158 A 
BRANCH  15  18
ATOM     18  O   UNL     1      25.157 -33.878 150.792  1.00  0.00    -0.504 OA
ATOM     19  H   UNL     1      25.673 -34.171 151.614  1.00  0.00     0.293 HD
ENDBRANCH  15  18
BRANCH  17  20
ATOM     20  O   UNL     1      24.021 -33.902 148.207  1.00  0.00    -0.504 OA
ATOM     21  H   UNL     1      24.650 -33.107 148.212  1.00  0.00     0.293 HD
ENDBRANCH  17  20
ENDBRANCH   1  12
BRANCH   2  22
ATOM     22  O   UNL     1      19.530 -33.875 148.072  1.00  0.00    -0.502 OA
ATOM     23  H   UNL     1      19.387 -32.872 148.101  1.00  0.00     0.293 HD
ENDBRANCH   2  22
BRANCH   6  24
ATOM     24  O   UNL     1      14.800 -36.249 148.677  1.00  0.00    -0.507 OA
ATOM     25  H   UNL     1      14.155 -35.477 148.593  1.00  0.00     0.293 HD
ENDBRANCH   6  24
BRANCH   8  26
ATOM     26  O   UNL     1      15.404 -38.300 152.957  1.00  0.00    -0.508 OA
ATOM     27  H   UNL     1      15.287 -39.303 152.878  1.00  0.00     0.293 HD
ENDBRANCH   8  26
TORSDOF 6
ENDMDL
MODEL 2
REMARK VINA RESULT:    -5.399     17.746     19.420
REMARK INTER + INTRA:          -6.133
REMARK INTER:                  -5.810
REMARK INTRA:                  -0.323
REMARK UNBOUND:                 0.371
REMARK SMILES O=c1c(O)c(-c2ccc(O)c(O)c2)oc2cc(O)cc(O)c12
REMARK SMILES IDX 5 1 3 2 2 3 1 4 22 5 20 6 19 7 17 8 16 9 15 10 14 11 6 12
REMARK SMILES IDX 7 13 8 14 9 15 13 16 11 17 10 18 12 20 4 22 21 24 18 26
REMARK H PARENT 10 19 12 21 4 23 21 25 18 27
REMARK Flexibility Score: inf
ROOT
ATOM      1  C   UNL     1      25.246 -52.635 154.465  1.00  0.00     0.180 A 
ATOM      2  C   UNL     1      24.633 -53.239 153.354  1.00  0.00     0.208 A 
ATOM      3  C   UNL     1      25.133 -52.969 152.069  1.00  0.00     0.238 A 
ATOM      4  O   UNL     1      24.615 -53.555 151.083  1.00  0.00    -0.285 OA
ATOM      5  C   UNL     1      26.228 -52.086 151.911  1.00  0.00     0.111 A 
ATOM      6  C   UNL     1      26.790 -51.708 150.655  1.00  0.00     0.134 A 
ATOM      7  C   UNL     1      27.954 -50.931 150.624  1.00  0.00     0.093 A 
ATOM      8  C   UNL     1      28.539 -50.463 151.800  1.00  0.00     0.123 A 
ATOM      9  C   UNL     1      27.964 -50.776 153.033  1.00  0.00     0.094 A 
ATOM     10  C   UNL     1      26.823 -51.580 153.097  1.00  0.00     0.146 A 
ATOM     11  O   UNL     1      26.312 -51.863 154.289  1.00  0.00    -0.452 OA
ENDROOT
BRANCH   1  12
ATOM     12  C   UNL     1      24.761 -52.852 155.847  1.00  0.00     0.025 A 
ATOM     13  C   UNL     1      25.226 -53.926 156.627  1.00  0.00     0.016 A 
ATOM     14  C   UNL     1      24.735 -54.124 157.919  1.00  0.00     0.051 A 
ATOM     15  C   UNL     1      23.767 -53.266 158.449  1.00  0.00     0.157 A 
ATOM     16  C   UNL     1      23.773 -52.004 156.374  1.00  0.00     0.062 A 
ATOM     17  C   UNL     1      23.280 -52.201 157.672  1.00  0.00     0.158 A 
BRANCH  15  18
ATOM     18  O   UNL     1      23.298 -53.489 159.743  1.00  0.00    -0.504 OA
ATOM     19  H   UNL     1      23.904 -53.816 160.486  1.00  0.00     0.293 HD
ENDBRANCH  15  18
BRANCH  17  20
ATOM     20  O   UNL     1      22.309 -51.346 158.191  1.00  0.00    -0.504 OA
ATOM     21  H   UNL     1      22.386 -50.963 159.127  1.00  0.00     0.293 HD
ENDBRANCH  17  20
ENDBRANCH   1  12
BRANCH   2  22
ATOM     22  O   UNL     1      23.567 -54.125 153.535  1.00  0.00    -0.502 OA
ATOM     23  H   UNL     1      23.172 -54.663 152.772  1.00  0.00     0.293 HD
ENDBRANCH   2  22
BRANCH   6  24
ATOM     24  O   UNL     1      26.232 -52.046 149.418  1.00  0.00    -0.507 OA
ATOM     25  H   UNL     1      26.480 -51.616 148.540  1.00  0.00     0.293 HD
ENDBRANCH   6  24
BRANCH   8  26
ATOM     26  O   UNL     1      29.687 -49.678 151.732  1.00  0.00    -0.508 OA
ATOM     27  H   UNL     1      30.254 -49.495 152.551  1.00  0.00     0.293 HD
ENDBRANCH   8  26
TORSDOF 6
ENDMDL
MODEL 3
REMARK VINA RESULT:    -5.378     17.986     18.982
REMARK INTER + INTRA:          -6.108
REMARK INTER:                  -5.867
REMARK INTRA:                  -0.241
REMARK UNBOUND:                 0.371
REMARK SMILES O=c1c(O)c(-c2ccc(O)c(O)c2)oc2cc(O)cc(O)c12
REMARK SMILES IDX 5 1 3 2 2 3 1 4 22 5 20 6 19 7 17 8 16 9 15 10 14 11 6 12
REMARK SMILES IDX 7 13 8 14 9 15 13 16 11 17 10 18 12 20 4 22 21 24 18 26
REMARK H PARENT 10 19 12 21 4 23 21 25 18 27
REMARK Flexibility Score: inf
ROOT
ATOM      1  C   UNL     1      25.902 -52.453 148.513  1.00  0.00     0.180 A 
ATOM      2  C   UNL     1      24.806 -52.755 149.339  1.00  0.00     0.208 A 
ATOM      3  C   UNL     1      24.920 -52.555 150.724  1.00  0.00     0.238 A 
ATOM      4  O   UNL     1      23.917 -52.775 151.452  1.00  0.00    -0.285 OA
ATOM      5  C   UNL     1      26.134 -52.070 151.267  1.00  0.00     0.111 A 
ATOM      6  C   UNL     1      26.375 -51.867 152.659  1.00  0.00     0.134 A 
ATOM      7  C   UNL     1      27.566 -51.260 153.073  1.00  0.00     0.093 A 
ATOM      8  C   UNL     1      28.553 -50.909 152.152  1.00  0.00     0.123 A 
ATOM      9  C   UNL     1      28.353 -51.157 150.794  1.00  0.00     0.094 A 
ATOM     10  C   UNL     1      27.159 -51.728 150.347  1.00  0.00     0.146 A 
ATOM     11  O   UNL     1      27.004 -51.938 149.045  1.00  0.00    -0.452 OA
ENDROOT
BRANCH   1  12
ATOM     12  C   UNL     1      25.866 -52.661 147.048  1.00  0.00     0.025 A 
ATOM     13  C   UNL     1      25.859 -53.953 146.491  1.00  0.00     0.016 A 
ATOM     14  C   UNL     1      25.849 -54.125 145.105  1.00  0.00     0.051 A 
ATOM     15  C   UNL     1      25.860 -53.017 144.254  1.00  0.00     0.157 A 
ATOM     16  C   UNL     1      25.899 -51.550 146.190  1.00  0.00     0.062 A 
ATOM     17  C   UNL     1      25.888 -51.721 144.798  1.00  0.00     0.158 A 
BRANCH  15  18
ATOM     18  O   UNL     1      25.849 -53.221 142.875  1.00  0.00    -0.504 OA
ATOM     19  H   UNL     1      25.025 -53.043 142.311  1.00  0.00     0.293 HD
ENDBRANCH  15  18
BRANCH  17  20
ATOM     20  O   UNL     1      25.907 -50.611 143.954  1.00  0.00    -0.504 OA
ATOM     21  H   UNL     1      26.725 -50.381 143.400  1.00  0.00     0.293 HD
ENDBRANCH  17  20
ENDBRANCH   1  12
BRANCH   2  22
ATOM     22  O   UNL     1      23.609 -53.212 148.778  1.00  0.00    -0.502 OA
ATOM     23  H   UNL     1      23.238 -54.136 148.968  1.00  0.00     0.293 HD
ENDBRANCH   2  22
BRANCH   6  24
ATOM     24  O   UNL     1      25.494 -52.266 153.669  1.00  0.00    -0.507 OA
ATOM     25  H   UNL     1      25.528 -53.156 154.143  1.00  0.00     0.293 HD
ENDBRANCH   6  24
BRANCH   8  26
ATOM     26  O   UNL     1      29.734 -50.321 152.601  1.00  0.00    -0.508 OA
ATOM     27  H   UNL     1      30.638 -50.738 152.413  1.00  0.00     0.293 HD
ENDBRANCH   8  26
TORSDOF 6
ENDMDL
MODEL 4
REMARK VINA RESULT:    -5.337     17.297     17.977
REMARK INTER + INTRA:          -6.058
REMARK INTER:                  -5.763
REMARK INTRA:                  -0.296
REMARK UNBOUND:                 0.371
REMARK SMILES O=c1c(O)c(-c2ccc(O)c(O)c2)oc2cc(O)cc(O)c12
REMARK SMILES IDX 5 1 3 2 2 3 1 4 22 5 20 6 19 7 17 8 16 9 15 10 14 11 6 12
REMARK SMILES IDX 7 13 8 14 9 15 13 16 11 17 10 18 12 20 4 22 21 24 18 26
REMARK H PARENT 10 19 12 21 4 23 21 25 18 27
REMARK Flexibility Score: inf
ROOT
ATOM      1  C   UNL     1      24.400 -52.715 150.086  1.00  0.00     0.180 A 
ATOM      2  C   UNL     1      24.117 -52.734 148.709  1.00  0.00     0.208 A 
ATOM      3  C   UNL     1      22.827 -53.090 148.283  1.00  0.00     0.238 A 
ATOM      4  O   UNL     1      22.565 -53.052 147.053  1.00  0.00    -0.285 OA
ATOM      5  C   UNL     1      21.842 -53.439 149.237  1.00  0.00     0.111 A 
ATOM      6  C   UNL     1      20.515 -53.854 148.917  1.00  0.00     0.134 A 
ATOM      7  C   UNL     1      19.585 -54.049 149.945  1.00  0.00     0.093 A 
ATOM      8  C   UNL     1      19.950 -53.907 151.283  1.00  0.00     0.123 A 
ATOM      9  C   UNL     1      21.261 -53.559 151.611  1.00  0.00     0.094 A 
ATOM     10  C   UNL     1      22.202 -53.323 150.605  1.00  0.00     0.146 A 
ATOM     11  O   UNL     1      23.436 -52.984 150.959  1.00  0.00    -0.452 OA
ENDROOT
BRANCH   1  12
ATOM     12  C   UNL     1      25.742 -52.375 150.610  1.00  0.00     0.025 A 
ATOM     13  C   UNL     1      26.798 -53.303 150.579  1.00  0.00     0.016 A 
ATOM     14  C   UNL     1      28.049 -52.967 151.102  1.00  0.00     0.051 A 
ATOM     15  C   UNL     1      28.264 -51.710 151.674  1.00  0.00     0.157 A 
ATOM     16  C   UNL     1      25.955 -51.120 151.204  1.00  0.00     0.062 A 
ATOM     17  C   UNL     1      27.210 -50.781 151.729  1.00  0.00     0.158 A 
BRANCH  15  18
ATOM     18  O   UNL     1      29.524 -51.404 152.185  1.00  0.00    -0.504 OA
ATOM     19  H   UNL     1      30.209 -50.882 151.652  1.00  0.00     0.293 HD
ENDBRANCH  15  18
BRANCH  17  20
ATOM     20  O   UNL     1      27.415 -49.528 152.305  1.00  0.00    -0.504 OA
ATOM     21  H   UNL     1      27.693 -48.728 151.748  1.00  0.00     0.293 HD
ENDBRANCH  17  20
ENDBRANCH   1  12
BRANCH   2  22
ATOM     22  O   UNL     1      25.099 -52.365 147.785  1.00  0.00    -0.502 OA
ATOM     23  H   UNL     1      25.326 -52.932 146.977  1.00  0.00     0.293 HD
ENDBRANCH   2  22
BRANCH   6  24
ATOM     24  O   UNL     1      20.071 -54.114 147.617  1.00  0.00    -0.507 OA
ATOM     25  H   UNL     1      20.105 -53.453 146.855  1.00  0.00     0.293 HD
ENDBRANCH   6  24
BRANCH   8  26
ATOM     26  O   UNL     1      19.003 -54.125 152.281  1.00  0.00    -0.508 OA
ATOM     27  H   UNL     1      18.353 -53.401 152.562  1.00  0.00     0.293 HD
ENDBRANCH   8  26
TORSDOF 6
ENDMDL
MODEL 5
REMARK VINA RESULT:    -5.293      1.360      7.283
REMARK INTER + INTRA:          -6.006
REMARK INTER:                  -6.187
REMARK INTRA:                   0.181
REMARK UNBOUND:                 0.371
REMARK SMILES O=c1c(O)c(-c2ccc(O)c(O)c2)oc2cc(O)cc(O)c12
REMARK SMILES IDX 5 1 3 2 2 3 1 4 22 5 20 6 19 7 17 8 16 9 15 10 14 11 6 12
REMARK SMILES IDX 7 13 8 14 9 15 13 16 11 17 10 18 12 20 4 22 21 24 18 26
REMARK H PARENT 10 19 12 21 4 23 21 25 18 27
REMARK Flexibility Score: inf
ROOT
ATOM      1  C   UNL     1      19.017 -35.573 150.643  1.00  0.00     0.180 A 
ATOM      2  C   UNL     1      19.547 -35.162 151.878  1.00  0.00     0.208 A 
ATOM      3  C   UNL     1      20.860 -34.668 151.927  1.00  0.00     0.238 A 
ATOM      4  O   UNL     1      21.309 -34.251 153.027  1.00  0.00    -0.285 OA
ATOM      5  C   UNL     1      21.633 -34.606 150.743  1.00  0.00     0.111 A 
ATOM      6  C   UNL     1      22.988 -34.161 150.683  1.00  0.00     0.134 A 
ATOM      7  C   UNL     1      23.613 -34.019 149.438  1.00  0.00     0.093 A 
ATOM      8  C   UNL     1      22.957 -34.367 148.258  1.00  0.00     0.123 A 
ATOM      9  C   UNL     1      21.652 -34.860 148.310  1.00  0.00     0.094 A 
ATOM     10  C   UNL     1      20.990 -34.979 149.534  1.00  0.00     0.146 A 
ATOM     11  O   UNL     1      19.745 -35.442 149.540  1.00  0.00    -0.452 OA
ENDROOT
BRANCH   1  12
ATOM     12  C   UNL     1      17.651 -36.128 150.516  1.00  0.00     0.025 A 
ATOM     13  C   UNL     1      16.810 -35.767 149.448  1.00  0.00     0.016 A 
ATOM     14  C   UNL     1      15.515 -36.285 149.363  1.00  0.00     0.051 A 
ATOM     15  C   UNL     1      15.035 -37.158 150.344  1.00  0.00     0.157 A 
ATOM     16  C   UNL     1      17.159 -36.988 151.511  1.00  0.00     0.062 A 
ATOM     17  C   UNL     1      15.860 -37.510 151.426  1.00  0.00     0.158 A 
BRANCH  15  18
ATOM     18  O   UNL     1      13.740 -37.660 150.230  1.00  0.00    -0.504 OA
ATOM     19  H   UNL     1      13.345 -38.291 150.918  1.00  0.00     0.293 HD
ENDBRANCH  15  18
BRANCH  17  20
ATOM     20  O   UNL     1      15.385 -38.374 152.412  1.00  0.00    -0.504 OA
ATOM     21  H   UNL     1      15.014 -39.289 152.181  1.00  0.00     0.293 HD
ENDBRANCH  17  20
ENDBRANCH   1  12
BRANCH   2  22
ATOM     22  O   UNL     1      18.758 -35.212 153.031  1.00  0.00    -0.502 OA
ATOM     23  H   UNL     1      17.781 -35.483 153.011  1.00  0.00     0.293 HD
ENDBRANCH   2  22
BRANCH   6  24
ATOM     24  O   UNL     1      23.766 -33.875 151.808  1.00  0.00    -0.507 OA
ATOM     25  H   UNL     1      24.055 -32.949 152.087  1.00  0.00     0.293 HD
ENDBRANCH   6  24
BRANCH   8  26
ATOM     26  O   UNL     1      23.615 -34.228 147.038  1.00  0.00    -0.508 OA
ATOM     27  H   UNL     1      24.482 -33.711 146.959  1.00  0.00     0.293 HD
ENDBRANCH   8  26
TORSDOF 6
ENDMDL
MODEL 6
REMARK VINA RESULT:    -5.206      2.598      6.584
REMARK INTER + INTRA:          -5.900
REMARK INTER:                  -5.593
REMARK INTRA:                  -0.308
REMARK UNBOUND:                 0.371
REMARK SMILES O=c1c(O)c(-c2ccc(O)c(O)c2)oc2cc(O)cc(O)c12
REMARK SMILES IDX 5 1 3 2 2 3 1 4 22 5 20 6 19 7 17 8 16 9 15 10 14 11 6 12
REMARK SMILES IDX 7 13 8 14 9 15 13 16 11 17 10 18 12 20 4 22 21 24 18 26
REMARK H PARENT 10 19 12 21 4 23 21 25 18 27
REMARK Flexibility Score: inf
ROOT
ATOM      1  C   UNL     1      19.869 -34.823 148.773  1.00  0.00     0.180 A 
ATOM      2  C   UNL     1      19.121 -34.833 149.963  1.00  0.00     0.208 A 
ATOM      3  C   UNL     1      19.791 -34.694 151.190  1.00  0.00     0.238 A 
ATOM      4  O   UNL     1      19.111 -34.648 152.248  1.00  0.00    -0.285 OA
ATOM      5  C   UNL     1      21.200 -34.564 151.212  1.00  0.00     0.111 A 
ATOM      6  C   UNL     1      21.986 -34.458 152.398  1.00  0.00     0.134 A 
ATOM      7  C   UNL     1      23.358 -34.202 152.298  1.00  0.00     0.093 A 
ATOM      8  C   UNL     1      23.985 -34.114 151.056  1.00  0.00     0.123 A 
ATOM      9  C   UNL     1      23.237 -34.276 149.888  1.00  0.00     0.094 A 
ATOM     10  C   UNL     1      21.859 -34.496 149.956  1.00  0.00     0.146 A 
ATOM     11  O   UNL     1      21.182 -34.634 148.823  1.00  0.00    -0.452 OA
ENDROOT
BRANCH   1  12
ATOM     12  C   UNL     1      19.237 -34.989 147.444  1.00  0.00     0.025 A 
ATOM     13  C   UNL     1      18.887 -33.879 146.655  1.00  0.00     0.016 A 
ATOM     14  C   UNL     1      18.269 -34.061 145.416  1.00  0.00     0.051 A 
ATOM     15  C   UNL     1      17.980 -35.346 144.949  1.00  0.00     0.157 A 
ATOM     16  C   UNL     1      18.927 -36.279 146.983  1.00  0.00     0.062 A 
ATOM     17  C   UNL     1      18.308 -36.463 145.738  1.00  0.00     0.158 A 
BRANCH  15  18
ATOM     18  O   UNL     1      17.366 -35.495 143.707  1.00  0.00    -0.504 OA
ATOM     19  H   UNL     1      17.413 -34.777 142.993  1.00  0.00     0.293 HD
ENDBRANCH  15  18
BRANCH  17  20
ATOM     20  O   UNL     1      18.015 -37.747 145.282  1.00  0.00    -0.504 OA
ATOM     21  H   UNL     1      18.072 -37.986 144.298  1.00  0.00     0.293 HD
ENDBRANCH  17  20
ENDBRANCH   1  12
BRANCH   2  22
ATOM     22  O   UNL     1      17.728 -34.941 149.916  1.00  0.00    -0.502 OA
ATOM     23  H   UNL     1      17.169 -35.123 150.742  1.00  0.00     0.293 HD
ENDBRANCH   2  22
BRANCH   6  24
ATOM     24  O   UNL     1      21.474 -34.621 153.689  1.00  0.00    -0.507 OA
ATOM     25  H   UNL     1      20.758 -35.284 153.944  1.00  0.00     0.293 HD
ENDBRANCH   6  24
BRANCH   8  26
ATOM     26  O   UNL     1      25.356 -33.875 150.992  1.00  0.00    -0.508 OA
ATOM     27  H   UNL     1      25.918 -33.787 151.830  1.00  0.00     0.293 HD
ENDBRANCH   8  26
TORSDOF 6
ENDMDL
MODEL 7
REMARK VINA RESULT:    -5.193      8.846     12.197
REMARK INTER + INTRA:          -5.885
REMARK INTER:                  -5.633
REMARK INTRA:                  -0.252
REMARK UNBOUND:                 0.371
REMARK SMILES O=c1c(O)c(-c2ccc(O)c(O)c2)oc2cc(O)cc(O)c12
REMARK SMILES IDX 5 1 3 2 2 3 1 4 22 5 20 6 19 7 17 8 16 9 15 10 14 11 6 12
REMARK SMILES IDX 7 13 8 14 9 15 13 16 11 17 10 18 12 20 4 22 21 24 18 26
REMARK H PARENT 10 19 12 21 4 23 21 25 18 27
REMARK Flexibility Score: inf
ROOT
ATOM      1  C   UNL     1      17.465 -36.878 160.313  1.00  0.00     0.180 A 
ATOM      2  C   UNL     1      17.841 -36.063 159.231  1.00  0.00     0.208 A 
ATOM      3  C   UNL     1      19.085 -36.279 158.615  1.00  0.00     0.238 A 
ATOM      4  O   UNL     1      19.392 -35.582 157.613  1.00  0.00    -0.285 OA
ATOM      5  C   UNL     1      19.943 -37.295 159.099  1.00  0.00     0.111 A 
ATOM      6  C   UNL     1      21.242 -37.575 158.577  1.00  0.00     0.134 A 
ATOM      7  C   UNL     1      21.949 -38.687 159.047  1.00  0.00     0.093 A 
ATOM      8  C   UNL     1      21.436 -39.491 160.063  1.00  0.00     0.123 A 
ATOM      9  C   UNL     1      20.192 -39.192 160.623  1.00  0.00     0.094 A 
ATOM     10  C   UNL     1      19.447 -38.110 160.150  1.00  0.00     0.146 A 
ATOM     11  O   UNL     1      18.264 -37.865 160.701  1.00  0.00    -0.452 OA
ENDROOT
BRANCH   1  12
ATOM     12  C   UNL     1      16.182 -36.695 161.029  1.00  0.00     0.025 A 
ATOM     13  C   UNL     1      15.962 -35.587 161.867  1.00  0.00     0.016 A 
ATOM     14  C   UNL     1      14.753 -35.449 162.551  1.00  0.00     0.051 A 
ATOM     15  C   UNL     1      13.751 -36.415 162.422  1.00  0.00     0.157 A 
ATOM     16  C   UNL     1      15.183 -37.675 160.918  1.00  0.00     0.062 A 
ATOM     17  C   UNL     1      13.967 -37.537 161.603  1.00  0.00     0.158 A 
BRANCH  15  18
ATOM     18  O   UNL     1      12.554 -36.248 163.116  1.00  0.00    -0.504 OA
ATOM     19  H   UNL     1      12.107 -35.343 163.208  1.00  0.00     0.293 HD
ENDBRANCH  15  18
BRANCH  17  20
ATOM     20  O   UNL     1      12.975 -38.508 161.476  1.00  0.00    -0.504 OA
ATOM     21  H   UNL     1      12.195 -38.557 162.122  1.00  0.00     0.293 HD
ENDBRANCH  17  20
ENDBRANCH   1  12
BRANCH   2  22
ATOM     22  O   UNL     1      16.968 -35.080 158.756  1.00  0.00    -0.502 OA
ATOM     23  H   UNL     1      16.759 -34.969 157.771  1.00  0.00     0.293 HD
ENDBRANCH   2  22
BRANCH   6  24
ATOM     24  O   UNL     1      21.887 -36.781 157.625  1.00  0.00    -0.507 OA
ATOM     25  H   UNL     1      21.825 -35.775 157.576  1.00  0.00     0.293 HD
ENDBRANCH   6  24
BRANCH   8  26
ATOM     26  O   UNL     1      22.174 -40.581 160.518  1.00  0.00    -0.508 OA
ATOM     27  H   UNL     1      23.187 -40.571 160.523  1.00  0.00     0.293 HD
ENDBRANCH   8  26
TORSDOF 6
ENDMDL
MODEL 8
REMARK VINA RESULT:    -5.189      8.588     12.255
REMARK INTER + INTRA:          -5.880
REMARK INTER:                  -5.580
REMARK INTRA:                  -0.300
REMARK UNBOUND:                 0.371
REMARK SMILES O=c1c(O)c(-c2ccc(O)c(O)c2)oc2cc(O)cc(O)c12
REMARK SMILES IDX 5 1 3 2 2 3 1 4 22 5 20 6 19 7 17 8 16 9 15 10 14 11 6 12
REMARK SMILES IDX 7 13 8 14 9 15 13 16 11 17 10 18 12 20 4 22 21 24 18 26
REMARK H PARENT 10 19 12 21 4 23 21 25 18 27
REMARK Flexibility Score: inf
ROOT
ATOM      1  C   UNL     1      17.887 -37.090 160.443  1.00  0.00     0.180 A 
ATOM      2  C   UNL     1      18.816 -37.959 161.042  1.00  0.00     0.208 A 
ATOM      3  C   UNL     1      20.048 -38.184 160.406  1.00  0.00     0.238 A 
ATOM      4  O   UNL     1      20.896 -38.919 160.975  1.00  0.00    -0.285 OA
ATOM      5  C   UNL     1      20.328 -37.551 159.171  1.00  0.00     0.111 A 
ATOM      6  C   UNL     1      21.527 -37.738 158.419  1.00  0.00     0.134 A 
ATOM      7  C   UNL     1      21.753 -36.961 157.277  1.00  0.00     0.093 A 
ATOM      8  C   UNL     1      20.799 -36.052 156.822  1.00  0.00     0.123 A 
ATOM      9  C   UNL     1      19.597 -35.904 157.517  1.00  0.00     0.094 A 
ATOM     10  C   UNL     1      19.358 -36.639 158.680  1.00  0.00     0.146 A 
ATOM     11  O   UNL     1      18.206 -36.461 159.317  1.00  0.00    -0.452 OA
ENDROOT
BRANCH   1  12
ATOM     12  C   UNL     1      16.559 -36.823 161.039  1.00  0.00     0.025 A 
ATOM     13  C   UNL     1      16.328 -35.685 161.833  1.00  0.00     0.016 A 
ATOM     14  C   UNL     1      15.073 -35.467 162.406  1.00  0.00     0.051 A 
ATOM     15  C   UNL     1      14.035 -36.383 162.209  1.00  0.00     0.157 A 
ATOM     16  C   UNL     1      15.521 -37.752 160.861  1.00  0.00     0.062 A 
ATOM     17  C   UNL     1      14.260 -37.534 161.435  1.00  0.00     0.158 A 
BRANCH  15  18
ATOM     18  O   UNL     1      12.793 -36.136 162.792  1.00  0.00    -0.504 OA
ATOM     19  H   UNL     1      12.680 -35.489 163.564  1.00  0.00     0.293 HD
ENDBRANCH  15  18
BRANCH  17  20
ATOM     20  O   UNL     1      13.232 -38.455 161.241  1.00  0.00    -0.504 OA
ATOM     21  H   UNL     1      12.263 -38.163 161.175  1.00  0.00     0.293 HD
ENDBRANCH  17  20
ENDBRANCH   1  12
BRANCH   2  22
ATOM     22  O   UNL     1      18.526 -38.556 162.272  1.00  0.00    -0.502 OA
ATOM     23  H   UNL     1      17.864 -38.157 162.927  1.00  0.00     0.293 HD
ENDBRANCH   2  22
BRANCH   6  24
ATOM     24  O   UNL     1      22.506 -38.685 158.734  1.00  0.00    -0.507 OA
ATOM     25  H   UNL     1      22.329 -39.667 158.881  1.00  0.00     0.293 HD
ENDBRANCH   6  24
BRANCH   8  26
ATOM     26  O   UNL     1      21.050 -35.308 155.673  1.00  0.00    -0.508 OA
ATOM     27  H   UNL     1      20.592 -35.517 154.794  1.00  0.00     0.293 HD
ENDBRANCH   8  26
TORSDOF 6
ENDMDL
MODEL 9
REMARK VINA RESULT:    -5.059     17.146     19.759
REMARK INTER + INTRA:          -5.724
REMARK INTER:                  -5.505
REMARK INTRA:                  -0.219
REMARK UNBOUND:                 0.371
REMARK SMILES O=c1c(O)c(-c2ccc(O)c(O)c2)oc2cc(O)cc(O)c12
REMARK SMILES IDX 5 1 3 2 2 3 1 4 22 5 20 6 19 7 17 8 16 9 15 10 14 11 6 12
REMARK SMILES IDX 7 13 8 14 9 15 13 16 11 17 10 18 12 20 4 22 21 24 18 26
REMARK H PARENT 10 19 12 21 4 23 21 25 18 27
REMARK Flexibility Score: inf
ROOT
ATOM      1  C   UNL     1      22.218 -51.300 160.073  1.00  0.00     0.180 A 
ATOM      2  C   UNL     1      23.512 -51.585 160.541  1.00  0.00     0.208 A 
ATOM      3  C   UNL     1      24.384 -52.326 159.726  1.00  0.00     0.238 A 
ATOM      4  O   UNL     1      25.559 -52.530 160.127  1.00  0.00    -0.285 OA
ATOM      5  C   UNL     1      23.944 -52.786 158.461  1.00  0.00     0.111 A 
ATOM      6  C   UNL     1      24.729 -53.578 157.570  1.00  0.00     0.134 A 
ATOM      7  C   UNL     1      24.240 -53.867 156.291  1.00  0.00     0.093 A 
ATOM      8  C   UNL     1      22.971 -53.448 155.893  1.00  0.00     0.123 A 
ATOM      9  C   UNL     1      22.171 -52.723 156.777  1.00  0.00     0.094 A 
ATOM     10  C   UNL     1      22.646 -52.389 158.048  1.00  0.00     0.146 A 
ATOM     11  O   UNL     1      21.858 -51.690 158.856  1.00  0.00    -0.452 OA
ENDROOT
BRANCH   1  12
ATOM     12  C   UNL     1      21.235 -50.547 160.885  1.00  0.00     0.025 A 
ATOM     13  C   UNL     1      20.694 -51.085 162.066  1.00  0.00     0.016 A 
ATOM     14  C   UNL     1      19.750 -50.366 162.802  1.00  0.00     0.051 A 
ATOM     15  C   UNL     1      19.320 -49.109 162.368  1.00  0.00     0.157 A 
ATOM     16  C   UNL     1      20.786 -49.293 160.439  1.00  0.00     0.062 A 
ATOM     17  C   UNL     1      19.838 -48.569 161.178  1.00  0.00     0.158 A 
BRANCH  15  18
ATOM     18  O   UNL     1      18.378 -48.415 163.125  1.00  0.00    -0.504 OA
ATOM     19  H   UNL     1      18.036 -48.766 164.012  1.00  0.00     0.293 HD
ENDBRANCH  15  18
BRANCH  17  20
ATOM     20  O   UNL     1      19.409 -47.320 160.734  1.00  0.00    -0.504 OA
ATOM     21  H   UNL     1      19.729 -46.931 159.854  1.00  0.00     0.293 HD
ENDBRANCH  17  20
ENDBRANCH   1  12
BRANCH   2  22
ATOM     22  O   UNL     1      23.932 -51.102 161.784  1.00  0.00    -0.502 OA
ATOM     23  H   UNL     1      24.509 -51.648 162.413  1.00  0.00     0.293 HD
ENDBRANCH   2  22
BRANCH   6  24
ATOM     24  O   UNL     1      25.972 -54.125 157.901  1.00  0.00    -0.507 OA
ATOM     25  H   UNL     1      26.703 -53.634 158.393  1.00  0.00     0.293 HD
ENDBRANCH   6  24
BRANCH   8  26
ATOM     26  O   UNL     1      22.510 -53.767 154.618  1.00  0.00    -0.508 OA
ATOM     27  H   UNL     1      22.517 -53.088 153.866  1.00  0.00     0.293 HD
ENDBRANCH   8  26
TORSDOF 6
ENDMDL
