MODEL 1
REMARK VINA RESULT:     3.635      0.000      0.000
REMARK INTER + INTRA:           4.025
REMARK INTER:                   4.166
REMARK INTRA:                  -0.141
REMARK UNBOUND:                -0.141
REMARK SMILES O=C([O-])C=Cc1ccc(O)cc1
REMARK SMILES IDX 6 1 7 2 12 3 8 4 11 5 9 6 5 7 4 8 2 9 1 10 3 11 10 12
REMARK H PARENT 10 13
REMARK Flexibility Score: inf
ROOT
ATOM      1  C   UNL     1      19.292  42.058  11.388  1.00  0.00    -0.025 A 
ATOM      2  C   UNL     1      19.105  43.399  10.995  1.00  0.00     0.012 A 
ATOM      3  C   UNL     1      20.244  41.770  12.382  1.00  0.00     0.012 A 
ATOM      4  C   UNL     1      19.872  44.419  11.569  1.00  0.00     0.047 A 
ATOM      5  C   UNL     1      21.009  42.792  12.953  1.00  0.00     0.047 A 
ATOM      6  C   UNL     1      20.827  44.117  12.547  1.00  0.00     0.115 A 
ENDROOT
BRANCH   1   7
ATOM      7  C   UNL     1      18.498  40.941  10.821  1.00  0.00     0.010 C 
ATOM      8  C   UNL     1      17.341  41.106  10.165  1.00  0.00     0.025 C 
BRANCH   8   9
ATOM      9  C   UNL     1      16.593  39.969   9.609  1.00  0.00     0.064 C 
ATOM     10  O   UNL     1      17.211  39.057   9.000  1.00  0.00    -0.545 OA
ATOM     11  O   UNL     1      15.212  39.884   9.742  1.00  0.00    -0.545 OA
ENDBRANCH   8   9
ENDBRANCH   1   7
BRANCH   6  12
ATOM     12  O   UNL     1      21.597  45.125  13.124  1.00  0.00    -0.508 OA
ATOM     13  H   UNL     1      22.599  45.024  13.242  1.00  0.00     0.293 HD
ENDBRANCH   6  12
TORSDOF 3
ENDMDL
MODEL 2
REMARK VINA RESULT:     4.045      1.086      5.746
REMARK INTER + INTRA:           4.494
REMARK INTER:                   4.635
REMARK INTRA:                  -0.141
REMARK UNBOUND:                -0.141
REMARK SMILES O=C([O-])C=Cc1ccc(O)cc1
REMARK SMILES IDX 6 1 7 2 12 3 8 4 11 5 9 6 5 7 4 8 2 9 1 10 3 11 10 12
REMARK H PARENT 10 13
REMARK Flexibility Score: inf
ROOT
ATOM      1  C   UNL     1      18.925  41.595  10.787  1.00  0.00    -0.025 A 
ATOM      2  C   UNL     1      17.699  42.033  10.247  1.00  0.00     0.012 A 
ATOM      3  C   UNL     1      19.273  40.239  10.662  1.00  0.00     0.012 A 
ATOM      4  C   UNL     1      16.837  41.127   9.620  1.00  0.00     0.047 A 
ATOM      5  C   UNL     1      18.408  39.336  10.036  1.00  0.00     0.047 A 
ATOM      6  C   UNL     1      17.189  39.777   9.516  1.00  0.00     0.115 A 
ENDROOT
BRANCH   1   7
ATOM      7  C   UNL     1      19.881  42.515  11.450  1.00  0.00     0.010 C 
ATOM      8  C   UNL     1      19.903  43.840  11.248  1.00  0.00     0.025 C 
BRANCH   8   9
ATOM      9  C   UNL     1      20.863  44.716  11.937  1.00  0.00     0.064 C 
ATOM     10  O   UNL     1      20.609  45.119  13.102  1.00  0.00    -0.545 OA
ATOM     11  O   UNL     1      22.046  45.109  11.322  1.00  0.00    -0.545 OA
ENDBRANCH   8   9
ENDBRANCH   1   7
BRANCH   6  12
ATOM     12  O   UNL     1      16.337  38.865   8.895  1.00  0.00    -0.508 OA
ATOM     13  H   UNL     1      16.072  38.967   7.922  1.00  0.00     0.293 HD
ENDBRANCH   6  12
TORSDOF 3
ENDMDL
MODEL 3
REMARK VINA RESULT:     4.137      1.066      5.890
REMARK INTER + INTRA:           4.601
REMARK INTER:                   4.743
REMARK INTRA:                  -0.143
REMARK UNBOUND:                -0.141
REMARK SMILES O=C([O-])C=Cc1ccc(O)cc1
REMARK SMILES IDX 6 1 7 2 12 3 8 4 11 5 9 6 5 7 4 8 2 9 1 10 3 11 10 12
REMARK H PARENT 10 13
REMARK Flexibility Score: inf
ROOT
ATOM      1  C   UNL     1      18.759  41.652  10.966  1.00  0.00    -0.025 A 
ATOM      2  C   UNL     1      19.075  40.288  10.800  1.00  0.00     0.012 A 
ATOM      3  C   UNL     1      17.543  42.132  10.451  1.00  0.00     0.012 A 
ATOM      4  C   UNL     1      18.203  39.437  10.114  1.00  0.00     0.047 A 
ATOM      5  C   UNL     1      16.674  41.279   9.765  1.00  0.00     0.047 A 
ATOM      6  C   UNL     1      17.002  39.932   9.592  1.00  0.00     0.115 A 
ENDROOT
BRANCH   1   7
ATOM      7  C   UNL     1      19.643  42.594  11.696  1.00  0.00     0.010 C 
ATOM      8  C   UNL     1      19.988  43.804  11.231  1.00  0.00     0.025 C 
BRANCH   8   9
ATOM      9  C   UNL     1      20.859  44.710  11.995  1.00  0.00     0.064 C 
ATOM     10  O   UNL     1      20.486  45.124  13.124  1.00  0.00    -0.545 OA
ATOM     11  O   UNL     1      22.087  45.120  11.491  1.00  0.00    -0.545 OA
ENDBRANCH   8   9
ENDBRANCH   1   7
BRANCH   6  12
ATOM     12  O   UNL     1      16.126  39.093   8.906  1.00  0.00    -0.508 OA
ATOM     13  H   UNL     1      15.189  39.393   8.661  1.00  0.00     0.293 HD
ENDBRANCH   6  12
TORSDOF 3
ENDMDL
MODEL 4
REMARK VINA RESULT:     5.986      0.949      1.962
REMARK INTER + INTRA:           6.719
REMARK INTER:                   6.856
REMARK INTRA:                  -0.137
REMARK UNBOUND:                -0.141
REMARK SMILES O=C([O-])C=Cc1ccc(O)cc1
REMARK SMILES IDX 6 1 7 2 12 3 8 4 11 5 9 6 5 7 4 8 2 9 1 10 3 11 10 12
REMARK H PARENT 10 13
REMARK Flexibility Score: inf
ROOT
ATOM      1  C   UNL     1      18.857  41.584  10.991  1.00  0.00    -0.025 A 
ATOM      2  C   UNL     1      19.775  40.895  11.810  1.00  0.00     0.012 A 
ATOM      3  C   UNL     1      18.961  42.982  10.886  1.00  0.00     0.012 A 
ATOM      4  C   UNL     1      20.754  41.596  12.521  1.00  0.00     0.047 A 
ATOM      5  C   UNL     1      19.941  43.679  11.599  1.00  0.00     0.047 A 
ATOM      6  C   UNL     1      20.837  42.989  12.419  1.00  0.00     0.115 A 
ENDROOT
BRANCH   1   7
ATOM      7  C   UNL     1      17.807  40.889  10.206  1.00  0.00     0.010 C 
ATOM      8  C   UNL     1      16.508  40.888  10.536  1.00  0.00     0.025 C 
BRANCH   8   9
ATOM      9  C   UNL     1      15.499  40.194   9.721  1.00  0.00     0.064 C 
ATOM     10  O   UNL     1      14.277  40.354   9.977  1.00  0.00    -0.545 OA
ATOM     11  O   UNL     1      15.872  39.362   8.673  1.00  0.00    -0.545 OA
ENDBRANCH   8   9
ENDBRANCH   1   7
BRANCH   6  12
ATOM     12  O   UNL     1      21.808  43.698  13.124  1.00  0.00    -0.508 OA
ATOM     13  H   UNL     1      22.796  43.586  12.923  1.00  0.00     0.293 HD
ENDBRANCH   6  12
TORSDOF 3
ENDMDL
