MODEL 1
REMARK VINA RESULT:    -8.817      0.000      0.000
REMARK INTER + INTRA:         -11.129
REMARK INTER:                 -10.879
REMARK INTRA:                  -0.251
REMARK UNBOUND:                -0.251
REMARK SMILES Oc1cc(O)c2cc(O)c(-c3cc(O)c(O)c(O)c3)[o+]c2c1
REMARK SMILES IDX 10 1 20 2 21 3 22 4 2 5 3 6 4 7 6 8 7 9 8 10 11 11 12 12
REMARK SMILES IDX 13 13 19 14 15 15 17 16 14 17 16 19 18 21 9 23 1 25 5 27
REMARK H PARENT 14 18 16 20 18 22 9 24 1 26 5 28
REMARK Flexibility Score: inf
ROOT
ATOM      1  C   UNL     1      33.683 -11.959  -0.026  1.00  0.00     0.402 A 
ATOM      2  O   UNL     1      32.932 -12.987  -0.420  1.00  0.00    -0.202 OA
ATOM      3  C   UNL     1      31.694 -13.194   0.020  1.00  0.00     0.368 A 
ATOM      4  C   UNL     1      30.972 -14.300  -0.439  1.00  0.00     0.162 A 
ATOM      5  C   UNL     1      29.669 -14.531   0.020  1.00  0.00     0.128 A 
ATOM      6  C   UNL     1      29.088 -13.654   0.941  1.00  0.00     0.093 A 
ATOM      7  C   UNL     1      29.799 -12.539   1.409  1.00  0.00     0.136 A 
ATOM      8  C   UNL     1      31.109 -12.306   0.948  1.00  0.00     0.125 A 
ATOM      9  C   UNL     1      31.862 -11.207   1.375  1.00  0.00     0.078 A 
ATOM     10  C   UNL     1      33.157 -11.018   0.881  1.00  0.00     0.223 A 
ENDROOT
BRANCH   1  11
ATOM     11  C   UNL     1      35.050 -11.839  -0.581  1.00  0.00     0.091 A 
ATOM     12  C   UNL     1      35.398 -10.789  -1.446  1.00  0.00     0.068 A 
ATOM     13  C   UNL     1      36.702 -10.677  -1.943  1.00  0.00     0.162 A 
ATOM     14  C   UNL     1      36.036 -12.758  -0.192  1.00  0.00     0.068 A 
ATOM     15  C   UNL     1      37.679 -11.613  -1.568  1.00  0.00     0.200 A 
ATOM     16  C   UNL     1      37.344 -12.654  -0.686  1.00  0.00     0.162 A 
BRANCH  13  17
ATOM     17  O   UNL     1      37.007  -9.624  -2.806  1.00  0.00    -0.504 OA
ATOM     18  H   UNL     1      37.618  -9.742  -3.605  1.00  0.00     0.293 HD
ENDBRANCH  13  17
BRANCH  15  19
ATOM     19  O   UNL     1      38.975 -11.497  -2.072  1.00  0.00    -0.502 OA
ATOM     20  H   UNL     1      39.745 -11.151  -1.510  1.00  0.00     0.293 HD
ENDBRANCH  15  19
BRANCH  16  21
ATOM     21  O   UNL     1      38.310 -13.584  -0.302  1.00  0.00    -0.504 OA
ATOM     22  H   UNL     1      38.065 -14.537  -0.061  1.00  0.00     0.293 HD
ENDBRANCH  16  21
ENDBRANCH   1  11
BRANCH  10  23
ATOM     23  O   UNL     1      33.894  -9.897   1.263  1.00  0.00    -0.500 OA
ATOM     24  H   UNL     1      34.609  -9.501   0.664  1.00  0.00     0.294 HD
ENDBRANCH  10  23
BRANCH   5  25
ATOM     25  O   UNL     1      28.943 -15.631  -0.432  1.00  0.00    -0.507 OA
ATOM     26  H   UNL     1      29.384 -16.532  -0.580  1.00  0.00     0.293 HD
ENDBRANCH   5  25
BRANCH   7  27
ATOM     27  O   UNL     1      29.207 -11.670   2.326  1.00  0.00    -0.507 OA
ATOM     28  H   UNL     1      28.239 -11.385   2.240  1.00  0.00     0.293 HD
ENDBRANCH   7  27
TORSDOF 7
ENDMDL
MODEL 2
REMARK VINA RESULT:    -8.750      0.094      1.796
REMARK INTER + INTRA:         -11.047
REMARK INTER:                 -10.816
REMARK INTRA:                  -0.230
REMARK UNBOUND:                -0.251
REMARK SMILES Oc1cc(O)c2cc(O)c(-c3cc(O)c(O)c(O)c3)[o+]c2c1
REMARK SMILES IDX 10 1 20 2 21 3 22 4 2 5 3 6 4 7 6 8 7 9 8 10 11 11 12 12
REMARK SMILES IDX 13 13 19 14 15 15 17 16 14 17 16 19 18 21 9 23 1 25 5 27
REMARK H PARENT 14 18 16 20 18 22 9 24 1 26 5 28
REMARK Flexibility Score: inf
ROOT
ATOM      1  C   UNL     1      33.667 -11.955   0.034  1.00  0.00     0.402 A 
ATOM      2  O   UNL     1      32.914 -12.984  -0.352  1.00  0.00    -0.202 OA
ATOM      3  C   UNL     1      31.662 -13.164   0.058  1.00  0.00     0.368 A 
ATOM      4  C   UNL     1      30.939 -14.274  -0.389  1.00  0.00     0.162 A 
ATOM      5  C   UNL     1      29.621 -14.476   0.039  1.00  0.00     0.128 A 
ATOM      6  C   UNL     1      29.026 -13.565   0.918  1.00  0.00     0.093 A 
ATOM      7  C   UNL     1      29.738 -12.447   1.374  1.00  0.00     0.136 A 
ATOM      8  C   UNL     1      31.063 -12.243   0.944  1.00  0.00     0.125 A 
ATOM      9  C   UNL     1      31.818 -11.141   1.361  1.00  0.00     0.078 A 
ATOM     10  C   UNL     1      33.128 -10.982   0.899  1.00  0.00     0.223 A 
ENDROOT
BRANCH   1  11
ATOM     11  C   UNL     1      35.051 -11.867  -0.485  1.00  0.00     0.091 A 
ATOM     12  C   UNL     1      36.018 -12.833  -0.158  1.00  0.00     0.068 A 
ATOM     13  C   UNL     1      37.315 -12.747  -0.676  1.00  0.00     0.162 A 
ATOM     14  C   UNL     1      35.393 -10.832  -1.368  1.00  0.00     0.068 A 
ATOM     15  C   UNL     1      37.658 -11.695  -1.541  1.00  0.00     0.200 A 
ATOM     16  C   UNL     1      36.690 -10.737  -1.890  1.00  0.00     0.162 A 
BRANCH  13  17
ATOM     17  O   UNL     1      38.248 -13.722  -0.322  1.00  0.00    -0.504 OA
ATOM     18  H   UNL     1      38.071 -14.710  -0.453  1.00  0.00     0.293 HD
ENDBRANCH  13  17
BRANCH  15  19
ATOM     19  O   UNL     1      38.954 -11.614  -2.050  1.00  0.00    -0.502 OA
ATOM     20  H   UNL     1      39.402 -10.728  -2.252  1.00  0.00     0.293 HD
ENDBRANCH  15  19
BRANCH  16  21
ATOM     21  O   UNL     1      37.020  -9.694  -2.755  1.00  0.00    -0.504 OA
ATOM     22  H   UNL     1      37.961  -9.323  -2.805  1.00  0.00     0.293 HD
ENDBRANCH  16  21
ENDBRANCH   1  11
BRANCH  10  23
ATOM     23  O   UNL     1      33.869  -9.860   1.270  1.00  0.00    -0.500 OA
ATOM     24  H   UNL     1      34.145  -9.157   0.594  1.00  0.00     0.294 HD
ENDBRANCH  10  23
BRANCH   5  25
ATOM     25  O   UNL     1      28.894 -15.579  -0.402  1.00  0.00    -0.507 OA
ATOM     26  H   UNL     1      29.192 -16.124  -1.203  1.00  0.00     0.293 HD
ENDBRANCH   5  25
BRANCH   7  27
ATOM     27  O   UNL     1      29.132 -11.545   2.250  1.00  0.00    -0.507 OA
ATOM     28  H   UNL     1      28.514 -11.856   2.990  1.00  0.00     0.293 HD
ENDBRANCH   7  27
TORSDOF 7
ENDMDL
MODEL 3
REMARK VINA RESULT:    -8.151      2.384      4.647
REMARK INTER + INTRA:         -10.308
REMARK INTER:                 -10.051
REMARK INTRA:                  -0.257
REMARK UNBOUND:                -0.251
REMARK SMILES Oc1cc(O)c2cc(O)c(-c3cc(O)c(O)c(O)c3)[o+]c2c1
REMARK SMILES IDX 10 1 20 2 21 3 22 4 2 5 3 6 4 7 6 8 7 9 8 10 11 11 12 12
REMARK SMILES IDX 13 13 19 14 15 15 17 16 14 17 16 19 18 21 9 23 1 25 5 27
REMARK H PARENT 14 18 16 20 18 22 9 24 1 26 5 28
REMARK Flexibility Score: inf
ROOT
ATOM      1  C   UNL     1      30.659 -13.506   0.880  1.00  0.00     0.402 A 
ATOM      2  O   UNL     1      29.873 -13.328   1.941  1.00  0.00    -0.202 OA
ATOM      3  C   UNL     1      28.639 -13.819   2.023  1.00  0.00     0.368 A 
ATOM      4  C   UNL     1      27.876 -13.583   3.170  1.00  0.00     0.162 A 
ATOM      5  C   UNL     1      26.574 -14.091   3.268  1.00  0.00     0.128 A 
ATOM      6  C   UNL     1      26.036 -14.837   2.214  1.00  0.00     0.093 A 
ATOM      7  C   UNL     1      26.791 -15.083   1.057  1.00  0.00     0.136 A 
ATOM      8  C   UNL     1      28.099 -14.572   0.959  1.00  0.00     0.125 A 
ATOM      9  C   UNL     1      28.900 -14.792  -0.167  1.00  0.00     0.078 A 
ATOM     10  C   UNL     1      30.195 -14.268  -0.211  1.00  0.00     0.223 A 
ENDROOT
BRANCH   1  11
ATOM     11  C   UNL     1      32.010 -12.903   0.902  1.00  0.00     0.091 A 
ATOM     12  C   UNL     1      33.166 -13.700   0.961  1.00  0.00     0.068 A 
ATOM     13  C   UNL     1      34.437 -13.115   0.958  1.00  0.00     0.162 A 
ATOM     14  C   UNL     1      32.147 -11.510   0.803  1.00  0.00     0.068 A 
ATOM     15  C   UNL     1      34.567 -11.718   0.882  1.00  0.00     0.200 A 
ATOM     16  C   UNL     1      33.416 -10.916   0.801  1.00  0.00     0.162 A 
BRANCH  13  17
ATOM     17  O   UNL     1      35.560 -13.940   1.025  1.00  0.00    -0.504 OA
ATOM     18  H   UNL     1      36.479 -13.581   1.253  1.00  0.00     0.293 HD
ENDBRANCH  13  17
BRANCH  15  19
ATOM     19  O   UNL     1      35.838 -11.142   0.884  1.00  0.00    -0.502 OA
ATOM     20  H   UNL     1      36.110 -10.432   0.214  1.00  0.00     0.293 HD
ENDBRANCH  15  19
BRANCH  16  21
ATOM     21  O   UNL     1      33.537  -9.529   0.718  1.00  0.00    -0.504 OA
ATOM     22  H   UNL     1      33.006  -8.988   0.045  1.00  0.00     0.293 HD
ENDBRANCH  16  21
ENDBRANCH   1  11
BRANCH  10  23
ATOM     23  O   UNL     1      31.017 -14.526  -1.309  1.00  0.00    -0.500 OA
ATOM     24  H   UNL     1      31.756 -13.889  -1.582  1.00  0.00     0.294 HD
ENDBRANCH  10  23
BRANCH   5  25
ATOM     25  O   UNL     1      25.806 -13.861   4.407  1.00  0.00    -0.507 OA
ATOM     26  H   UNL     1      26.020 -13.102   5.045  1.00  0.00     0.293 HD
ENDBRANCH   5  25
BRANCH   7  27
ATOM     27  O   UNL     1      26.243 -15.829   0.014  1.00  0.00    -0.507 OA
ATOM     28  H   UNL     1      25.392 -15.542  -0.455  1.00  0.00     0.293 HD
ENDBRANCH   7  27
TORSDOF 7
ENDMDL
MODEL 4
REMARK VINA RESULT:    -8.143      1.212      7.135
REMARK INTER + INTRA:         -10.298
REMARK INTER:                  -9.933
REMARK INTRA:                  -0.365
REMARK UNBOUND:                -0.251
REMARK SMILES Oc1cc(O)c2cc(O)c(-c3cc(O)c(O)c(O)c3)[o+]c2c1
REMARK SMILES IDX 10 1 20 2 21 3 22 4 2 5 3 6 4 7 6 8 7 9 8 10 11 11 12 12
REMARK SMILES IDX 13 13 19 14 15 15 17 16 14 17 16 19 18 21 9 23 1 25 5 27
REMARK H PARENT 14 18 16 20 18 22 9 24 1 26 5 28
REMARK Flexibility Score: inf
ROOT
ATOM      1  C   UNL     1      32.758 -12.263  -0.842  1.00  0.00     0.402 A 
ATOM      2  O   UNL     1      33.925 -12.767  -0.446  1.00  0.00    -0.202 OA
ATOM      3  C   UNL     1      35.093 -12.390  -0.960  1.00  0.00     0.368 A 
ATOM      4  C   UNL     1      36.275 -12.971  -0.493  1.00  0.00     0.162 A 
ATOM      5  C   UNL     1      37.510 -12.586  -1.030  1.00  0.00     0.128 A 
ATOM      6  C   UNL     1      37.561 -11.616  -2.036  1.00  0.00     0.093 A 
ATOM      7  C   UNL     1      36.383 -11.023  -2.514  1.00  0.00     0.136 A 
ATOM      8  C   UNL     1      35.142 -11.411  -1.975  1.00  0.00     0.125 A 
ATOM      9  C   UNL     1      33.936 -10.847  -2.408  1.00  0.00     0.078 A 
ATOM     10  C   UNL     1      32.730 -11.263  -1.835  1.00  0.00     0.223 A 
ENDROOT
BRANCH   1  11
ATOM     11  C   UNL     1      31.524 -12.768  -0.200  1.00  0.00     0.091 A 
ATOM     12  C   UNL     1      30.918 -12.080   0.864  1.00  0.00     0.068 A 
ATOM     13  C   UNL     1      29.738 -12.559   1.445  1.00  0.00     0.162 A 
ATOM     14  C   UNL     1      30.911 -13.928  -0.699  1.00  0.00     0.068 A 
ATOM     15  C   UNL     1      29.142 -13.734   0.956  1.00  0.00     0.200 A 
ATOM     16  C   UNL     1      29.730 -14.416  -0.122  1.00  0.00     0.162 A 
BRANCH  13  17
ATOM     17  O   UNL     1      29.172 -11.851   2.505  1.00  0.00    -0.504 OA
ATOM     18  H   UNL     1      28.432 -12.239   3.078  1.00  0.00     0.293 HD
ENDBRANCH  13  17
BRANCH  15  19
ATOM     19  O   UNL     1      27.969 -14.208   1.544  1.00  0.00    -0.502 OA
ATOM     20  H   UNL     1      27.675 -13.924   2.471  1.00  0.00     0.293 HD
ENDBRANCH  15  19
BRANCH  16  21
ATOM     21  O   UNL     1      29.140 -15.578  -0.618  1.00  0.00    -0.504 OA
ATOM     22  H   UNL     1      28.631 -15.584  -1.494  1.00  0.00     0.293 HD
ENDBRANCH  16  21
ENDBRANCH   1  11
BRANCH  10  23
ATOM     23  O   UNL     1      31.530 -10.670  -2.226  1.00  0.00    -0.500 OA
ATOM     24  H   UNL     1      31.314 -10.498  -3.201  1.00  0.00     0.294 HD
ENDBRANCH  10  23
BRANCH   5  25
ATOM     25  O   UNL     1      38.693 -13.160  -0.570  1.00  0.00    -0.507 OA
ATOM     26  H   UNL     1      39.347 -13.605  -1.204  1.00  0.00     0.293 HD
ENDBRANCH   5  25
BRANCH   7  27
ATOM     27  O   UNL     1      36.448 -10.056  -3.518  1.00  0.00    -0.507 OA
ATOM     28  H   UNL     1      35.704  -9.944  -4.197  1.00  0.00     0.293 HD
ENDBRANCH   7  27
TORSDOF 7
ENDMDL
MODEL 5
REMARK VINA RESULT:    -8.142      2.391      4.322
REMARK INTER + INTRA:         -10.296
REMARK INTER:                 -10.033
REMARK INTRA:                  -0.263
REMARK UNBOUND:                -0.251
REMARK SMILES Oc1cc(O)c2cc(O)c(-c3cc(O)c(O)c(O)c3)[o+]c2c1
REMARK SMILES IDX 10 1 20 2 21 3 22 4 2 5 3 6 4 7 6 8 7 9 8 10 11 11 12 12
REMARK SMILES IDX 13 13 19 14 15 15 17 16 14 17 16 19 18 21 9 23 1 25 5 27
REMARK H PARENT 14 18 16 20 18 22 9 24 1 26 5 28
REMARK Flexibility Score: inf
ROOT
ATOM      1  C   UNL     1      30.655 -13.496   0.786  1.00  0.00     0.402 A 
ATOM      2  O   UNL     1      29.870 -13.322   1.848  1.00  0.00    -0.202 OA
ATOM      3  C   UNL     1      28.646 -13.832   1.939  1.00  0.00     0.368 A 
ATOM      4  C   UNL     1      27.882 -13.598   3.087  1.00  0.00     0.162 A 
ATOM      5  C   UNL     1      26.589 -14.127   3.193  1.00  0.00     0.128 A 
ATOM      6  C   UNL     1      26.060 -14.890   2.149  1.00  0.00     0.093 A 
ATOM      7  C   UNL     1      26.815 -15.134   0.991  1.00  0.00     0.136 A 
ATOM      8  C   UNL     1      28.114 -14.603   0.884  1.00  0.00     0.125 A 
ATOM      9  C   UNL     1      28.914 -14.820  -0.243  1.00  0.00     0.078 A 
ATOM     10  C   UNL     1      30.201 -14.275  -0.297  1.00  0.00     0.223 A 
ENDROOT
BRANCH   1  11
ATOM     11  C   UNL     1      31.997 -12.871   0.797  1.00  0.00     0.091 A 
ATOM     12  C   UNL     1      32.155 -11.477   0.742  1.00  0.00     0.068 A 
ATOM     13  C   UNL     1      33.430 -10.901   0.778  1.00  0.00     0.162 A 
ATOM     14  C   UNL     1      33.136 -13.682   0.923  1.00  0.00     0.068 A 
ATOM     15  C   UNL     1      34.568 -11.719   0.881  1.00  0.00     0.200 A 
ATOM     16  C   UNL     1      34.416 -13.114   0.958  1.00  0.00     0.162 A 
BRANCH  13  17
ATOM     17  O   UNL     1      33.546  -9.512   0.714  1.00  0.00    -0.504 OA
ATOM     18  H   UNL     1      32.876  -8.895   1.157  1.00  0.00     0.293 HD
ENDBRANCH  13  17
BRANCH  15  19
ATOM     19  O   UNL     1      35.836 -11.138   0.910  1.00  0.00    -0.502 OA
ATOM     20  H   UNL     1      36.545 -11.352   0.219  1.00  0.00     0.293 HD
ENDBRANCH  15  19
BRANCH  16  21
ATOM     21  O   UNL     1      35.540 -13.933   1.068  1.00  0.00    -0.504 OA
ATOM     22  H   UNL     1      36.315 -13.694   1.675  1.00  0.00     0.293 HD
ENDBRANCH  16  21
ENDBRANCH   1  11
BRANCH  10  23
ATOM     23  O   UNL     1      31.022 -14.530  -1.395  1.00  0.00    -0.500 OA
ATOM     24  H   UNL     1      30.640 -14.689  -2.320  1.00  0.00     0.294 HD
ENDBRANCH  10  23
BRANCH   5  25
ATOM     25  O   UNL     1      25.822 -13.899   4.334  1.00  0.00    -0.507 OA
ATOM     26  H   UNL     1      25.727 -14.602   5.057  1.00  0.00     0.293 HD
ENDBRANCH   5  25
BRANCH   7  27
ATOM     27  O   UNL     1      26.275 -15.899  -0.044  1.00  0.00    -0.507 OA
ATOM     28  H   UNL     1      25.371 -15.685  -0.447  1.00  0.00     0.293 HD
ENDBRANCH   7  27
TORSDOF 7
ENDMDL
MODEL 6
REMARK VINA RESULT:    -8.116      1.223      7.198
REMARK INTER + INTRA:         -10.264
REMARK INTER:                  -9.897
REMARK INTRA:                  -0.367
REMARK UNBOUND:                -0.251
REMARK SMILES Oc1cc(O)c2cc(O)c(-c3cc(O)c(O)c(O)c3)[o+]c2c1
REMARK SMILES IDX 10 1 20 2 21 3 22 4 2 5 3 6 4 7 6 8 7 9 8 10 11 11 12 12
REMARK SMILES IDX 13 13 19 14 15 15 17 16 14 17 16 19 18 21 9 23 1 25 5 27
REMARK H PARENT 14 18 16 20 18 22 9 24 1 26 5 28
REMARK Flexibility Score: inf
ROOT
ATOM      1  C   UNL     1      32.720 -12.253  -0.880  1.00  0.00     0.402 A 
ATOM      2  O   UNL     1      33.885 -12.752  -0.469  1.00  0.00    -0.202 OA
ATOM      3  C   UNL     1      35.057 -12.368  -0.965  1.00  0.00     0.368 A 
ATOM      4  C   UNL     1      36.236 -12.945  -0.482  1.00  0.00     0.162 A 
ATOM      5  C   UNL     1      37.477 -12.552  -1.000  1.00  0.00     0.128 A 
ATOM      6  C   UNL     1      37.537 -11.579  -2.003  1.00  0.00     0.093 A 
ATOM      7  C   UNL     1      36.363 -10.991  -2.497  1.00  0.00     0.136 A 
ATOM      8  C   UNL     1      35.116 -11.386  -1.977  1.00  0.00     0.125 A 
ATOM      9  C   UNL     1      33.914 -10.828  -2.426  1.00  0.00     0.078 A 
ATOM     10  C   UNL     1      32.702 -11.251  -1.872  1.00  0.00     0.223 A 
ENDROOT
BRANCH   1  11
ATOM     11  C   UNL     1      31.480 -12.766  -0.257  1.00  0.00     0.091 A 
ATOM     12  C   UNL     1      30.879 -13.958  -0.696  1.00  0.00     0.068 A 
ATOM     13  C   UNL     1      29.719 -14.442  -0.080  1.00  0.00     0.162 A 
ATOM     14  C   UNL     1      30.920 -12.082   0.832  1.00  0.00     0.068 A 
ATOM     15  C   UNL     1      29.150 -13.739   0.996  1.00  0.00     0.200 A 
ATOM     16  C   UNL     1      29.757 -12.557   1.454  1.00  0.00     0.162 A 
BRANCH  13  17
ATOM     17  O   UNL     1      29.149 -15.625  -0.549  1.00  0.00    -0.504 OA
ATOM     18  H   UNL     1      28.181 -15.864  -0.372  1.00  0.00     0.293 HD
ENDBRANCH  13  17
BRANCH  15  19
ATOM     19  O   UNL     1      27.991 -14.225   1.601  1.00  0.00    -0.502 OA
ATOM     20  H   UNL     1      27.100 -14.251   1.120  1.00  0.00     0.293 HD
ENDBRANCH  15  19
BRANCH  16  21
ATOM     21  O   UNL     1      29.203 -11.858   2.526  1.00  0.00    -0.504 OA
ATOM     22  H   UNL     1      28.654 -12.325   3.238  1.00  0.00     0.293 HD
ENDBRANCH  16  21
ENDBRANCH   1  11
BRANCH  10  23
ATOM     23  O   UNL     1      31.504 -10.663  -2.278  1.00  0.00    -0.500 OA
ATOM     24  H   UNL     1      30.615 -11.136  -2.167  1.00  0.00     0.294 HD
ENDBRANCH  10  23
BRANCH   5  25
ATOM     25  O   UNL     1      38.656 -13.121  -0.524  1.00  0.00    -0.507 OA
ATOM     26  H   UNL     1      38.775 -14.126  -0.473  1.00  0.00     0.293 HD
ENDBRANCH   5  25
BRANCH   7  27
ATOM     27  O   UNL     1      36.438 -10.021  -3.498  1.00  0.00    -0.507 OA
ATOM     28  H   UNL     1      37.175 -10.030  -4.192  1.00  0.00     0.293 HD
ENDBRANCH   7  27
TORSDOF 7
ENDMDL
MODEL 7
REMARK VINA RESULT:    -8.082      1.292      2.670
REMARK INTER + INTRA:         -10.223
REMARK INTER:                  -9.848
REMARK INTRA:                  -0.375
REMARK UNBOUND:                -0.251
REMARK SMILES Oc1cc(O)c2cc(O)c(-c3cc(O)c(O)c(O)c3)[o+]c2c1
REMARK SMILES IDX 10 1 20 2 21 3 22 4 2 5 3 6 4 7 6 8 7 9 8 10 11 11 12 12
REMARK SMILES IDX 13 13 19 14 15 15 17 16 14 17 16 19 18 21 9 23 1 25 5 27
REMARK H PARENT 14 18 16 20 18 22 9 24 1 26 5 28
REMARK Flexibility Score: inf
ROOT
ATOM      1  C   UNL     1      33.469 -12.044  -0.849  1.00  0.00     0.402 A 
ATOM      2  O   UNL     1      32.965 -11.365   0.180  1.00  0.00    -0.202 OA
ATOM      3  C   UNL     1      31.686 -11.432   0.540  1.00  0.00     0.368 A 
ATOM      4  C   UNL     1      31.234 -10.683   1.631  1.00  0.00     0.162 A 
ATOM      5  C   UNL     1      29.889 -10.742   2.017  1.00  0.00     0.128 A 
ATOM      6  C   UNL     1      28.995 -11.552   1.310  1.00  0.00     0.093 A 
ATOM      7  C   UNL     1      29.434 -12.309   0.214  1.00  0.00     0.136 A 
ATOM      8  C   UNL     1      30.786 -12.250  -0.175  1.00  0.00     0.125 A 
ATOM      9  C   UNL     1      31.281 -12.990  -1.254  1.00  0.00     0.078 A 
ATOM     10  C   UNL     1      32.635 -12.900  -1.595  1.00  0.00     0.223 A 
ENDROOT
BRANCH   1  11
ATOM     11  C   UNL     1      34.907 -11.881  -1.157  1.00  0.00     0.091 A 
ATOM     12  C   UNL     1      35.369 -10.819  -1.952  1.00  0.00     0.068 A 
ATOM     13  C   UNL     1      36.735 -10.666  -2.215  1.00  0.00     0.162 A 
ATOM     14  C   UNL     1      35.838 -12.770  -0.599  1.00  0.00     0.068 A 
ATOM     15  C   UNL     1      37.661 -11.574  -1.673  1.00  0.00     0.200 A 
ATOM     16  C   UNL     1      37.208 -12.626  -0.859  1.00  0.00     0.162 A 
BRANCH  13  17
ATOM     17  O   UNL     1      37.154  -9.603  -3.015  1.00  0.00    -0.504 OA
ATOM     18  H   UNL     1      37.707  -8.838  -2.648  1.00  0.00     0.293 HD
ENDBRANCH  13  17
BRANCH  15  19
ATOM     19  O   UNL     1      39.020 -11.418  -1.943  1.00  0.00    -0.502 OA
ATOM     20  H   UNL     1      39.447 -11.769  -2.792  1.00  0.00     0.293 HD
ENDBRANCH  15  19
BRANCH  16  21
ATOM     21  O   UNL     1      38.120 -13.527  -0.310  1.00  0.00    -0.504 OA
ATOM     22  H   UNL     1      39.074 -13.257  -0.100  1.00  0.00     0.293 HD
ENDBRANCH  16  21
ENDBRANCH   1  11
BRANCH  10  23
ATOM     23  O   UNL     1      33.145 -13.673  -2.638  1.00  0.00    -0.500 OA
ATOM     24  H   UNL     1      34.132 -13.893  -2.703  1.00  0.00     0.294 HD
ENDBRANCH  10  23
BRANCH   5  25
ATOM     25  O   UNL     1      29.430  -9.999   3.103  1.00  0.00    -0.507 OA
ATOM     26  H   UNL     1      29.411  -8.986   3.081  1.00  0.00     0.293 HD
ENDBRANCH   5  25
BRANCH   7  27
ATOM     27  O   UNL     1      28.532 -13.114  -0.483  1.00  0.00    -0.507 OA
ATOM     28  H   UNL     1      28.576 -13.213  -1.491  1.00  0.00     0.293 HD
ENDBRANCH   7  27
TORSDOF 7
ENDMDL
MODEL 8
REMARK VINA RESULT:    -7.971      1.137      7.159
REMARK INTER + INTRA:         -10.086
REMARK INTER:                  -9.737
REMARK INTRA:                  -0.349
REMARK UNBOUND:                -0.251
REMARK SMILES Oc1cc(O)c2cc(O)c(-c3cc(O)c(O)c(O)c3)[o+]c2c1
REMARK SMILES IDX 10 1 20 2 21 3 22 4 2 5 3 6 4 7 6 8 7 9 8 10 11 11 12 12
REMARK SMILES IDX 13 13 19 14 15 15 17 16 14 17 16 19 18 21 9 23 1 25 5 27
REMARK H PARENT 14 18 16 20 18 22 9 24 1 26 5 28
REMARK Flexibility Score: inf
ROOT
ATOM      1  C   UNL     1      33.531 -12.775  -0.025  1.00  0.00     0.402 A 
ATOM      2  O   UNL     1      33.857 -11.902  -0.976  1.00  0.00    -0.202 OA
ATOM      3  C   UNL     1      35.112 -11.663  -1.346  1.00  0.00     0.368 A 
ATOM      4  C   UNL     1      35.371 -10.726  -2.351  1.00  0.00     0.162 A 
ATOM      5  C   UNL     1      36.689 -10.463  -2.747  1.00  0.00     0.128 A 
ATOM      6  C   UNL     1      37.749 -11.139  -2.134  1.00  0.00     0.093 A 
ATOM      7  C   UNL     1      37.504 -12.082  -1.125  1.00  0.00     0.136 A 
ATOM      8  C   UNL     1      36.180 -12.346  -0.727  1.00  0.00     0.125 A 
ATOM      9  C   UNL     1      35.876 -13.282   0.268  1.00  0.00     0.078 A 
ATOM     10  C   UNL     1      34.543 -13.512   0.622  1.00  0.00     0.223 A 
ENDROOT
BRANCH   1  11
ATOM     11  C   UNL     1      32.098 -12.948   0.305  1.00  0.00     0.091 A 
ATOM     12  C   UNL     1      31.418 -12.027   1.119  1.00  0.00     0.068 A 
ATOM     13  C   UNL     1      30.058 -12.194   1.402  1.00  0.00     0.162 A 
ATOM     14  C   UNL     1      31.387 -14.022  -0.251  1.00  0.00     0.068 A 
ATOM     15  C   UNL     1      29.356 -13.283   0.861  1.00  0.00     0.200 A 
ATOM     16  C   UNL     1      30.025 -14.197   0.028  1.00  0.00     0.162 A 
BRANCH  13  17
ATOM     17  O   UNL     1      29.420 -11.261   2.221  1.00  0.00    -0.504 OA
ATOM     18  H   UNL     1      29.052 -11.507   3.132  1.00  0.00     0.293 HD
ENDBRANCH  13  17
BRANCH  15  19
ATOM     19  O   UNL     1      28.001 -13.445   1.151  1.00  0.00    -0.502 OA
ATOM     20  H   UNL     1      27.642 -14.270   1.616  1.00  0.00     0.293 HD
ENDBRANCH  15  19
BRANCH  16  21
ATOM     21  O   UNL     1      29.334 -15.277  -0.520  1.00  0.00    -0.504 OA
ATOM     22  H   UNL     1      29.790 -15.949  -1.126  1.00  0.00     0.293 HD
ENDBRANCH  16  21
ENDBRANCH   1  11
BRANCH  10  23
ATOM     23  O   UNL     1      34.230 -14.479   1.577  1.00  0.00    -0.500 OA
ATOM     24  H   UNL     1      34.794 -15.313   1.694  1.00  0.00     0.294 HD
ENDBRANCH  10  23
BRANCH   5  25
ATOM     25  O   UNL     1      36.956  -9.532  -3.748  1.00  0.00    -0.507 OA
ATOM     26  H   UNL     1      36.319  -8.768  -3.944  1.00  0.00     0.293 HD
ENDBRANCH   5  25
BRANCH   7  27
ATOM     27  O   UNL     1      38.571 -12.750  -0.522  1.00  0.00    -0.507 OA
ATOM     28  H   UNL     1      39.140 -12.309   0.190  1.00  0.00     0.293 HD
ENDBRANCH   7  27
TORSDOF 7
ENDMDL
MODEL 9
REMARK VINA RESULT:    -7.798      2.409      7.724
REMARK INTER + INTRA:          -9.872
REMARK INTER:                  -9.510
REMARK INTRA:                  -0.362
REMARK UNBOUND:                -0.251
REMARK SMILES Oc1cc(O)c2cc(O)c(-c3cc(O)c(O)c(O)c3)[o+]c2c1
REMARK SMILES IDX 10 1 20 2 21 3 22 4 2 5 3 6 4 7 6 8 7 9 8 10 11 11 12 12
REMARK SMILES IDX 13 13 19 14 15 15 17 16 14 17 16 19 18 21 9 23 1 25 5 27
REMARK H PARENT 14 18 16 20 18 22 9 24 1 26 5 28
REMARK Flexibility Score: inf
ROOT
ATOM      1  C   UNL     1      30.795 -13.154   0.296  1.00  0.00     0.402 A 
ATOM      2  O   UNL     1      30.727 -12.144  -0.569  1.00  0.00    -0.202 OA
ATOM      3  C   UNL     1      31.796 -11.622  -1.164  1.00  0.00     0.368 A 
ATOM      4  C   UNL     1      31.640 -10.558  -2.057  1.00  0.00     0.162 A 
ATOM      5  C   UNL     1      32.759  -9.997  -2.687  1.00  0.00     0.128 A 
ATOM      6  C   UNL     1      34.035 -10.502  -2.421  1.00  0.00     0.093 A 
ATOM      7  C   UNL     1      34.207 -11.570  -1.528  1.00  0.00     0.136 A 
ATOM      8  C   UNL     1      33.083 -12.134  -0.895  1.00  0.00     0.125 A 
ATOM      9  C   UNL     1      33.193 -13.205  -0.001  1.00  0.00     0.078 A 
ATOM     10  C   UNL     1      32.044 -13.733   0.596  1.00  0.00     0.223 A 
ENDROOT
BRANCH   1  11
ATOM     11  C   UNL     1      29.535 -13.645   0.900  1.00  0.00     0.091 A 
ATOM     12  C   UNL     1      29.160 -13.284   2.204  1.00  0.00     0.068 A 
ATOM     13  C   UNL     1      27.955 -13.737   2.752  1.00  0.00     0.162 A 
ATOM     14  C   UNL     1      28.667 -14.440   0.136  1.00  0.00     0.068 A 
ATOM     15  C   UNL     1      27.101 -14.552   1.990  1.00  0.00     0.200 A 
ATOM     16  C   UNL     1      27.459 -14.900   0.677  1.00  0.00     0.162 A 
BRANCH  13  17
ATOM     17  O   UNL     1      27.621 -13.362   4.053  1.00  0.00    -0.504 OA
ATOM     18  H   UNL     1      27.727 -12.411   4.384  1.00  0.00     0.293 HD
ENDBRANCH  13  17
BRANCH  15  19
ATOM     19  O   UNL     1      25.903 -15.004   2.545  1.00  0.00    -0.502 OA
ATOM     20  H   UNL     1      25.603 -15.969   2.472  1.00  0.00     0.293 HD
ENDBRANCH  15  19
BRANCH  16  21
ATOM     21  O   UNL     1      26.613 -15.703  -0.088  1.00  0.00    -0.504 OA
ATOM     22  H   UNL     1      26.947 -16.542  -0.548  1.00  0.00     0.293 HD
ENDBRANCH  16  21
ENDBRANCH   1  11
BRANCH  10  23
ATOM     23  O   UNL     1      32.142 -14.833   1.448  1.00  0.00    -0.500 OA
ATOM     24  H   UNL     1      32.318 -14.723   2.440  1.00  0.00     0.294 HD
ENDBRANCH  10  23
BRANCH   5  25
ATOM     25  O   UNL     1      32.613  -8.936  -3.579  1.00  0.00    -0.507 OA
ATOM     26  H   UNL     1      33.048  -8.037  -3.407  1.00  0.00     0.293 HD
ENDBRANCH   5  25
BRANCH   7  27
ATOM     27  O   UNL     1      35.486 -12.066  -1.272  1.00  0.00    -0.507 OA
ATOM     28  H   UNL     1      35.661 -12.722  -0.520  1.00  0.00     0.293 HD
ENDBRANCH   7  27
TORSDOF 7
ENDMDL
