MODEL 1
REMARK VINA RESULT:    -4.904      0.000      0.000
REMARK INTER + INTRA:         -18.302
REMARK INTER:                 -12.931
REMARK INTRA:                  -5.370
REMARK UNBOUND:                -5.370
REMARK SMILES CCCCCCCCCCCCCCCCCCCCCCCCCCCCCC(=O)[O-]
REMARK SMILES IDX 16 1 17 2 18 3 19 4 20 5 21 6 22 7 23 8 24 9 25 10 26 11
REMARK SMILES IDX 27 12 28 13 29 14 30 15 31 16 32 17 15 18 14 19 13 20 12 21
REMARK SMILES IDX 11 22 10 23 9 24 8 25 7 26 6 27 5 28 4 29 3 30 2 31 1 32
REMARK H PARENT
REMARK Flexibility Score: inf
ROOT
ATOM      1  C   UNL     1      30.936 -10.073  12.064  1.00  0.00     0.000 C 
ENDROOT
BRANCH   1   2
ATOM      2  C   UNL     1      31.630  -8.706  12.145  1.00  0.00     0.000 C 
BRANCH   2   3
ATOM      3  C   UNL     1      30.651  -7.559  12.439  1.00  0.00     0.000 C 
BRANCH   3   4
ATOM      4  C   UNL     1      30.834  -6.368  11.483  1.00  0.00     0.000 C 
BRANCH   4   5
ATOM      5  C   UNL     1      31.352  -6.788  10.098  1.00  0.00     0.000 C 
BRANCH   5   6
ATOM      6  C   UNL     1      32.620  -6.027   9.652  1.00  0.00     0.000 C 
BRANCH   6   7
ATOM      7  C   UNL     1      33.293  -5.288  10.822  1.00  0.00     0.000 C 
BRANCH   7   8
ATOM      8  C   UNL     1      34.673  -5.865  11.176  1.00  0.00     0.000 C 
BRANCH   8   9
ATOM      9  C   UNL     1      34.931  -7.229  10.518  1.00  0.00     0.000 C 
BRANCH   9  10
ATOM     10  C   UNL     1      35.148  -8.321  11.578  1.00  0.00     0.000 C 
BRANCH  10  11
ATOM     11  C   UNL     1      34.921  -7.803  13.008  1.00  0.00     0.000 C 
BRANCH  11  12
ATOM     12  C   UNL     1      35.328  -8.818  14.102  1.00  0.00     0.000 C 
BRANCH  12  13
ATOM     13  C   UNL     1      34.328  -9.978  14.263  1.00  0.00     0.006 C 
BRANCH  13  14
ATOM     14  C   UNL     1      34.989 -11.364  14.285  1.00  0.00     0.053 C 
BRANCH  14  15
ATOM     15  C   UNL     1      34.969 -12.017  12.936  1.00  0.00     0.041 C 
ATOM     16  O   UNL     1      34.123 -11.664  12.072  1.00  0.00    -0.550 OA
ATOM     17  O   UNL     1      35.886 -13.015  12.632  1.00  0.00    -0.550 OA
ENDBRANCH  14  15
ENDBRANCH  13  14
ENDBRANCH  12  13
ENDBRANCH  11  12
ENDBRANCH  10  11
ENDBRANCH   9  10
ENDBRANCH   8   9
ENDBRANCH   7   8
ENDBRANCH   6   7
ENDBRANCH   5   6
ENDBRANCH   4   5
ENDBRANCH   3   4
ENDBRANCH   2   3
ENDBRANCH   1   2
BRANCH   1  18
ATOM     18  C   UNL     1      30.463 -10.529  13.453  1.00  0.00     0.000 C 
BRANCH  18  19
ATOM     19  C   UNL     1      28.961 -10.867  13.494  1.00  0.00     0.000 C 
BRANCH  19  20
ATOM     20  C   UNL     1      28.121  -9.988  14.440  1.00  0.00     0.000 C 
BRANCH  20  21
ATOM     21  C   UNL     1      28.911  -8.907  15.204  1.00  0.00     0.000 C 
BRANCH  21  22
ATOM     22  C   UNL     1      28.771  -8.996  16.739  1.00  0.00     0.000 C 
BRANCH  22  23
ATOM     23  C   UNL     1      30.125  -8.900  17.465  1.00  0.00     0.000 C 
BRANCH  23  24
ATOM     24  C   UNL     1      31.306  -9.288  16.550  1.00  0.00    -0.000 C 
BRANCH  24  25
ATOM     25  C   UNL     1      32.516  -9.851  17.313  1.00  0.00    -0.000 C 
BRANCH  25  26
ATOM     26  C   UNL     1      32.517 -11.384  17.386  1.00  0.00    -0.000 C 
BRANCH  26  27
ATOM     27  C   UNL     1      31.724 -11.991  16.219  1.00  0.00    -0.000 C 
BRANCH  27  28
ATOM     28  C   UNL     1      30.654 -12.996  16.690  1.00  0.00    -0.000 C 
BRANCH  28  29
ATOM     29  C   UNL     1      29.205 -12.508  16.494  1.00  0.00    -0.000 C 
BRANCH  29  30
ATOM     30  C   UNL     1      28.172 -13.645  16.347  1.00  0.00    -0.000 C 
BRANCH  30  31
ATOM     31  C   UNL     1      28.462 -14.587  15.164  1.00  0.00    -0.003 C 
ATOM     32  C   UNL     1      27.630 -14.244  13.928  1.00  0.00     0.004 C 
ENDBRANCH  30  31
ENDBRANCH  29  30
ENDBRANCH  28  29
ENDBRANCH  27  28
ENDBRANCH  26  27
ENDBRANCH  25  26
ENDBRANCH  24  25
ENDBRANCH  23  24
ENDBRANCH  22  23
ENDBRANCH  21  22
ENDBRANCH  20  21
ENDBRANCH  19  20
ENDBRANCH  18  19
ENDBRANCH   1  18
TORSDOF 28
ENDMDL
MODEL 2
REMARK VINA RESULT:    -4.657      1.064      2.112
REMARK INTER + INTRA:         -17.650
REMARK INTER:                 -12.312
REMARK INTRA:                  -5.338
REMARK UNBOUND:                -5.370
REMARK SMILES CCCCCCCCCCCCCCCCCCCCCCCCCCCCCC(=O)[O-]
REMARK SMILES IDX 16 1 17 2 18 3 19 4 20 5 21 6 22 7 23 8 24 9 25 10 26 11
REMARK SMILES IDX 27 12 28 13 29 14 30 15 31 16 32 17 15 18 14 19 13 20 12 21
REMARK SMILES IDX 11 22 10 23 9 24 8 25 7 26 6 27 5 28 4 29 3 30 2 31 1 32
REMARK H PARENT
REMARK Flexibility Score: inf
ROOT
ATOM      1  C   UNL     1      31.077  -7.893  12.873  1.00  0.00     0.000 C 
ENDROOT
BRANCH   1   2
ATOM      2  C   UNL     1      30.729  -6.723  11.942  1.00  0.00     0.000 C 
BRANCH   2   3
ATOM      3  C   UNL     1      31.045  -7.021  10.468  1.00  0.00     0.000 C 
BRANCH   3   4
ATOM      4  C   UNL     1      32.147  -6.107   9.905  1.00  0.00     0.000 C 
BRANCH   4   5
ATOM      5  C   UNL     1      33.019  -5.475  11.002  1.00  0.00     0.000 C 
BRANCH   5   6
ATOM      6  C   UNL     1      34.492  -5.939  10.968  1.00  0.00     0.000 C 
BRANCH   6   7
ATOM      7  C   UNL     1      34.648  -7.325  10.319  1.00  0.00     0.000 C 
BRANCH   7   8
ATOM      8  C   UNL     1      35.013  -8.420  11.334  1.00  0.00     0.000 C 
BRANCH   8   9
ATOM      9  C   UNL     1      35.237  -7.865  12.749  1.00  0.00     0.000 C 
BRANCH   9  10
ATOM     10  C   UNL     1      34.592  -8.775  13.806  1.00  0.00     0.000 C 
BRANCH  10  11
ATOM     11  C   UNL     1      34.337 -10.197  13.279  1.00  0.00     0.000 C 
BRANCH  11  12
ATOM     12  C   UNL     1      34.931 -11.303  14.182  1.00  0.00     0.000 C 
BRANCH  12  13
ATOM     13  C   UNL     1      34.295 -12.687  13.954  1.00  0.00     0.006 C 
BRANCH  13  14
ATOM     14  C   UNL     1      35.306 -13.775  13.561  1.00  0.00     0.053 C 
BRANCH  14  15
ATOM     15  C   UNL     1      35.023 -14.338  12.201  1.00  0.00     0.041 C 
ATOM     16  O   UNL     1      34.914 -13.574  11.207  1.00  0.00    -0.550 OA
ATOM     17  O   UNL     1      34.881 -15.710  12.031  1.00  0.00    -0.550 OA
ENDBRANCH  14  15
ENDBRANCH  13  14
ENDBRANCH  12  13
ENDBRANCH  11  12
ENDBRANCH  10  11
ENDBRANCH   9  10
ENDBRANCH   8   9
ENDBRANCH   7   8
ENDBRANCH   6   7
ENDBRANCH   5   6
ENDBRANCH   4   5
ENDBRANCH   3   4
ENDBRANCH   2   3
ENDBRANCH   1   2
BRANCH   1  18
ATOM     18  C   UNL     1      31.001  -9.231  12.120  1.00  0.00     0.000 C 
BRANCH  18  19
ATOM     19  C   UNL     1      30.783 -10.434  13.057  1.00  0.00     0.000 C 
BRANCH  19  20
ATOM     20  C   UNL     1      29.343 -10.980  13.090  1.00  0.00     0.000 C 
BRANCH  20  21
ATOM     21  C   UNL     1      28.574 -10.719  14.400  1.00  0.00     0.000 C 
BRANCH  21  22
ATOM     22  C   UNL     1      28.345  -9.223  14.705  1.00  0.00     0.000 C 
BRANCH  22  23
ATOM     23  C   UNL     1      28.333  -8.920  16.214  1.00  0.00     0.000 C 
BRANCH  23  24
ATOM     24  C   UNL     1      29.510  -9.592  16.953  1.00  0.00    -0.000 C 
BRANCH  24  25
ATOM     25  C   UNL     1      30.869  -8.928  16.677  1.00  0.00    -0.000 C 
BRANCH  25  26
ATOM     26  C   UNL     1      31.930  -9.920  16.184  1.00  0.00    -0.000 C 
BRANCH  26  27
ATOM     27  C   UNL     1      31.896 -11.218  17.007  1.00  0.00    -0.000 C 
BRANCH  27  28
ATOM     28  C   UNL     1      31.394 -12.424  16.189  1.00  0.00    -0.000 C 
BRANCH  28  29
ATOM     29  C   UNL     1      30.126 -13.088  16.762  1.00  0.00    -0.000 C 
BRANCH  29  30
ATOM     30  C   UNL     1      29.461 -14.102  15.808  1.00  0.00    -0.000 C 
BRANCH  30  31
ATOM     31  C   UNL     1      27.954 -13.857  15.606  1.00  0.00    -0.003 C 
ATOM     32  C   UNL     1      27.402 -14.590  14.384  1.00  0.00     0.004 C 
ENDBRANCH  30  31
ENDBRANCH  29  30
ENDBRANCH  28  29
ENDBRANCH  27  28
ENDBRANCH  26  27
ENDBRANCH  25  26
ENDBRANCH  24  25
ENDBRANCH  23  24
ENDBRANCH  22  23
ENDBRANCH  21  22
ENDBRANCH  20  21
ENDBRANCH  19  20
ENDBRANCH  18  19
ENDBRANCH   1  18
TORSDOF 28
ENDMDL
MODEL 3
REMARK VINA RESULT:    -4.644      1.692      4.092
REMARK INTER + INTRA:         -17.615
REMARK INTER:                 -11.716
REMARK INTRA:                  -5.899
REMARK UNBOUND:                -5.370
REMARK SMILES CCCCCCCCCCCCCCCCCCCCCCCCCCCCCC(=O)[O-]
REMARK SMILES IDX 16 1 17 2 18 3 19 4 20 5 21 6 22 7 23 8 24 9 25 10 26 11
REMARK SMILES IDX 27 12 28 13 29 14 30 15 31 16 32 17 15 18 14 19 13 20 12 21
REMARK SMILES IDX 11 22 10 23 9 24 8 25 7 26 6 27 5 28 4 29 3 30 2 31 1 32
REMARK H PARENT
REMARK Flexibility Score: inf
ROOT
ATOM      1  C   UNL     1      35.052  -9.599  13.160  1.00  0.00     0.000 C 
ENDROOT
BRANCH   1   2
ATOM      2  C   UNL     1      35.640  -8.415  12.380  1.00  0.00     0.000 C 
BRANCH   2   3
ATOM      3  C   UNL     1      34.612  -7.302  12.125  1.00  0.00     0.000 C 
BRANCH   3   4
ATOM      4  C   UNL     1      35.021  -6.375  10.967  1.00  0.00     0.000 C 
BRANCH   4   5
ATOM      5  C   UNL     1      34.023  -5.228  10.739  1.00  0.00     0.000 C 
BRANCH   5   6
ATOM      6  C   UNL     1      32.838  -5.230  11.729  1.00  0.00     0.000 C 
BRANCH   6   7
ATOM      7  C   UNL     1      31.495  -5.490  11.026  1.00  0.00     0.000 C 
BRANCH   7   8
ATOM      8  C   UNL     1      30.870  -6.840  11.415  1.00  0.00     0.000 C 
BRANCH   8   9
ATOM      9  C   UNL     1      31.353  -7.995  10.523  1.00  0.00     0.000 C 
BRANCH   9  10
ATOM     10  C   UNL     1      31.635  -7.507   9.094  1.00  0.00     0.000 C 
BRANCH  10  11
ATOM     11  C   UNL     1      32.284  -8.594   8.221  1.00  0.00     0.000 C 
BRANCH  11  12
ATOM     12  C   UNL     1      33.796  -8.370   7.982  1.00  0.00     0.000 C 
BRANCH  12  13
ATOM     13  C   UNL     1      34.694  -9.233   8.888  1.00  0.00     0.006 C 
BRANCH  13  14
ATOM     14  C   UNL     1      33.940 -10.359   9.611  1.00  0.00     0.053 C 
BRANCH  14  15
ATOM     15  C   UNL     1      34.784 -11.589   9.767  1.00  0.00     0.041 C 
ATOM     16  O   UNL     1      34.699 -12.290  10.810  1.00  0.00    -0.550 OA
ATOM     17  O   UNL     1      35.665 -11.961   8.759  1.00  0.00    -0.550 OA
ENDBRANCH  14  15
ENDBRANCH  13  14
ENDBRANCH  12  13
ENDBRANCH  11  12
ENDBRANCH  10  11
ENDBRANCH   9  10
ENDBRANCH   8   9
ENDBRANCH   7   8
ENDBRANCH   6   7
ENDBRANCH   5   6
ENDBRANCH   4   5
ENDBRANCH   3   4
ENDBRANCH   2   3
ENDBRANCH   1   2
BRANCH   1  18
ATOM     18  C   UNL     1      33.593  -9.323  13.554  1.00  0.00     0.000 C 
BRANCH  18  19
ATOM     19  C   UNL     1      32.636 -10.459  13.144  1.00  0.00     0.000 C 
BRANCH  19  20
ATOM     20  C   UNL     1      31.139 -10.147  13.329  1.00  0.00     0.000 C 
BRANCH  20  21
ATOM     21  C   UNL     1      30.827  -8.965  14.268  1.00  0.00     0.000 C 
BRANCH  21  22
ATOM     22  C   UNL     1      29.319  -8.672  14.425  1.00  0.00     0.000 C 
BRANCH  22  23
ATOM     23  C   UNL     1      28.808  -8.939  15.852  1.00  0.00     0.000 C 
BRANCH  23  24
ATOM     24  C   UNL     1      27.652  -9.961  15.875  1.00  0.00    -0.000 C 
BRANCH  24  25
ATOM     25  C   UNL     1      27.542 -10.795  14.587  1.00  0.00    -0.000 C 
BRANCH  25  26
ATOM     26  C   UNL     1      28.216 -12.168  14.704  1.00  0.00    -0.000 C 
BRANCH  26  27
ATOM     27  C   UNL     1      28.171 -12.682  16.151  1.00  0.00    -0.000 C 
BRANCH  27  28
ATOM     28  C   UNL     1      29.570 -13.021  16.702  1.00  0.00    -0.000 C 
BRANCH  28  29
ATOM     29  C   UNL     1      30.707 -12.181  16.089  1.00  0.00    -0.000 C 
BRANCH  29  30
ATOM     30  C   UNL     1      31.944 -12.033  17.001  1.00  0.00    -0.000 C 
BRANCH  30  31
ATOM     31  C   UNL     1      32.654 -10.675  16.856  1.00  0.00    -0.003 C 
ATOM     32  C   UNL     1      31.995  -9.580  17.696  1.00  0.00     0.004 C 
ENDBRANCH  30  31
ENDBRANCH  29  30
ENDBRANCH  28  29
ENDBRANCH  27  28
ENDBRANCH  26  27
ENDBRANCH  25  26
ENDBRANCH  24  25
ENDBRANCH  23  24
ENDBRANCH  22  23
ENDBRANCH  21  22
ENDBRANCH  20  21
ENDBRANCH  19  20
ENDBRANCH  18  19
ENDBRANCH   1  18
TORSDOF 28
ENDMDL
MODEL 4
REMARK VINA RESULT:    -4.515      2.108      6.851
REMARK INTER + INTRA:         -17.277
REMARK INTER:                 -11.916
REMARK INTRA:                  -5.360
REMARK UNBOUND:                -5.370
REMARK SMILES CCCCCCCCCCCCCCCCCCCCCCCCCCCCCC(=O)[O-]
REMARK SMILES IDX 16 1 17 2 18 3 19 4 20 5 21 6 22 7 23 8 24 9 25 10 26 11
REMARK SMILES IDX 27 12 28 13 29 14 30 15 31 16 32 17 15 18 14 19 13 20 12 21
REMARK SMILES IDX 11 22 10 23 9 24 8 25 7 26 6 27 5 28 4 29 3 30 2 31 1 32
REMARK H PARENT
REMARK Flexibility Score: inf
ROOT
ATOM      1  C   UNL     1      31.459  -9.384  13.573  1.00  0.00     0.000 C 
ENDROOT
BRANCH   1   2
ATOM      2  C   UNL     1      30.561  -8.620  14.555  1.00  0.00     0.000 C 
BRANCH   2   3
ATOM      3  C   UNL     1      29.078  -9.001  14.425  1.00  0.00     0.000 C 
BRANCH   3   4
ATOM      4  C   UNL     1      28.435  -9.343  15.780  1.00  0.00     0.000 C 
BRANCH   4   5
ATOM      5  C   UNL     1      27.299 -10.372  15.660  1.00  0.00     0.000 C 
BRANCH   5   6
ATOM      6  C   UNL     1      27.117 -10.932  14.232  1.00  0.00     0.000 C 
BRANCH   6   7
ATOM      7  C   UNL     1      27.403 -12.442  14.162  1.00  0.00     0.000 C 
BRANCH   7   8
ATOM      8  C   UNL     1      27.349 -13.123  15.539  1.00  0.00     0.000 C 
BRANCH   8   9
ATOM      9  C   UNL     1      28.656 -13.850  15.892  1.00  0.00     0.000 C 
BRANCH   9  10
ATOM     10  C   UNL     1      29.564 -12.962  16.758  1.00  0.00     0.000 C 
BRANCH  10  11
ATOM     11  C   UNL     1      30.668 -12.275  15.936  1.00  0.00     0.000 C 
BRANCH  11  12
ATOM     12  C   UNL     1      31.560 -11.329  16.773  1.00  0.00     0.000 C 
BRANCH  12  13
ATOM     13  C   UNL     1      33.064 -11.643  16.655  1.00  0.00     0.006 C 
BRANCH  13  14
ATOM     14  C   UNL     1      33.972 -10.490  17.107  1.00  0.00     0.053 C 
BRANCH  14  15
ATOM     15  C   UNL     1      34.607 -10.764  18.437  1.00  0.00     0.041 C 
ATOM     16  O   UNL     1      34.724 -11.947  18.853  1.00  0.00    -0.550 OA
ATOM     17  O   UNL     1      35.069  -9.713  19.218  1.00  0.00    -0.550 OA
ENDBRANCH  14  15
ENDBRANCH  13  14
ENDBRANCH  12  13
ENDBRANCH  11  12
ENDBRANCH  10  11
ENDBRANCH   9  10
ENDBRANCH   8   9
ENDBRANCH   7   8
ENDBRANCH   6   7
ENDBRANCH   5   6
ENDBRANCH   4   5
ENDBRANCH   3   4
ENDBRANCH   2   3
ENDBRANCH   1   2
BRANCH   1  18
ATOM     18  C   UNL     1      30.623 -10.311  12.676  1.00  0.00     0.000 C 
BRANCH  18  19
ATOM     19  C   UNL     1      30.898 -10.101  11.175  1.00  0.00     0.000 C 
BRANCH  19  20
ATOM     20  C   UNL     1      31.950  -9.024  10.850  1.00  0.00     0.000 C 
BRANCH  20  21
ATOM     21  C   UNL     1      31.395  -7.740  10.205  1.00  0.00     0.000 C 
BRANCH  21  22
ATOM     22  C   UNL     1      30.895  -6.693  11.225  1.00  0.00     0.000 C 
BRANCH  22  23
ATOM     23  C   UNL     1      31.929  -5.583  11.491  1.00  0.00     0.000 C 
BRANCH  23  24
ATOM     24  C   UNL     1      33.090  -5.614  10.474  1.00  0.00    -0.000 C 
BRANCH  24  25
ATOM     25  C   UNL     1      34.476  -5.737  11.129  1.00  0.00    -0.000 C 
BRANCH  25  26
ATOM     26  C   UNL     1      34.640  -7.026  11.944  1.00  0.00    -0.000 C 
BRANCH  26  27
ATOM     27  C   UNL     1      36.118  -7.440  12.030  1.00  0.00    -0.000 C 
BRANCH  27  28
ATOM     28  C   UNL     1      36.348  -8.607  13.010  1.00  0.00    -0.000 C 
BRANCH  28  29
ATOM     29  C   UNL     1      35.085  -9.438  13.306  1.00  0.00    -0.000 C 
BRANCH  29  30
ATOM     30  C   UNL     1      34.931 -10.689  12.414  1.00  0.00    -0.000 C 
BRANCH  30  31
ATOM     31  C   UNL     1      34.080 -11.799  13.058  1.00  0.00    -0.003 C 
ATOM     32  C   UNL     1      34.935 -12.886  13.710  1.00  0.00     0.004 C 
ENDBRANCH  30  31
ENDBRANCH  29  30
ENDBRANCH  28  29
ENDBRANCH  27  28
ENDBRANCH  26  27
ENDBRANCH  25  26
ENDBRANCH  24  25
ENDBRANCH  23  24
ENDBRANCH  22  23
ENDBRANCH  21  22
ENDBRANCH  20  21
ENDBRANCH  19  20
ENDBRANCH  18  19
ENDBRANCH   1  18
TORSDOF 28
ENDMDL
MODEL 5
REMARK VINA RESULT:    -4.506      2.030      3.843
REMARK INTER + INTRA:         -17.253
REMARK INTER:                 -11.891
REMARK INTRA:                  -5.362
REMARK UNBOUND:                -5.370
REMARK SMILES CCCCCCCCCCCCCCCCCCCCCCCCCCCCCC(=O)[O-]
REMARK SMILES IDX 16 1 17 2 18 3 19 4 20 5 21 6 22 7 23 8 24 9 25 10 26 11
REMARK SMILES IDX 27 12 28 13 29 14 30 15 31 16 32 17 15 18 14 19 13 20 12 21
REMARK SMILES IDX 11 22 10 23 9 24 8 25 7 26 6 27 5 28 4 29 3 30 2 31 1 32
REMARK H PARENT
REMARK Flexibility Score: inf
ROOT
ATOM      1  C   UNL     1      30.883 -10.375  12.840  1.00  0.00     0.000 C 
ENDROOT
BRANCH   1   2
ATOM      2  C   UNL     1      30.973  -8.860  13.068  1.00  0.00     0.000 C 
BRANCH   2   3
ATOM      3  C   UNL     1      31.215  -8.076  11.769  1.00  0.00     0.000 C 
BRANCH   3   4
ATOM      4  C   UNL     1      30.557  -6.686  11.787  1.00  0.00     0.000 C 
BRANCH   4   5
ATOM      5  C   UNL     1      31.532  -5.559  11.408  1.00  0.00     0.000 C 
BRANCH   5   6
ATOM      6  C   UNL     1      32.611  -5.987  10.390  1.00  0.00     0.000 C 
BRANCH   6   7
ATOM      7  C   UNL     1      33.980  -5.354  10.694  1.00  0.00     0.000 C 
BRANCH   7   8
ATOM      8  C   UNL     1      34.994  -6.367  11.250  1.00  0.00     0.000 C 
BRANCH   8   9
ATOM      9  C   UNL     1      34.790  -7.781  10.684  1.00  0.00     0.000 C 
BRANCH   9  10
ATOM     10  C   UNL     1      34.760  -8.827  11.810  1.00  0.00     0.000 C 
BRANCH  10  11
ATOM     11  C   UNL     1      34.614  -8.187  13.201  1.00  0.00     0.000 C 
BRANCH  11  12
ATOM     12  C   UNL     1      35.719  -8.616  14.194  1.00  0.00     0.000 C 
BRANCH  12  13
ATOM     13  C   UNL     1      36.861  -9.411  13.534  1.00  0.00     0.006 C 
BRANCH  13  14
ATOM     14  C   UNL     1      38.201  -8.660  13.507  1.00  0.00     0.053 C 
BRANCH  14  15
ATOM     15  C   UNL     1      38.358  -7.838  12.263  1.00  0.00     0.041 C 
ATOM     16  O   UNL     1      38.242  -8.374  11.129  1.00  0.00    -0.550 OA
ATOM     17  O   UNL     1      38.633  -6.480  12.356  1.00  0.00    -0.550 OA
ENDBRANCH  14  15
ENDBRANCH  13  14
ENDBRANCH  12  13
ENDBRANCH  11  12
ENDBRANCH  10  11
ENDBRANCH   9  10
ENDBRANCH   8   9
ENDBRANCH   7   8
ENDBRANCH   6   7
ENDBRANCH   5   6
ENDBRANCH   4   5
ENDBRANCH   3   4
ENDBRANCH   2   3
ENDBRANCH   1   2
BRANCH   1  18
ATOM     18  C   UNL     1      29.496 -10.905  13.232  1.00  0.00     0.000 C 
BRANCH  18  19
ATOM     19  C   UNL     1      28.767  -9.995  14.238  1.00  0.00     0.000 C 
BRANCH  19  20
ATOM     20  C   UNL     1      27.402 -10.520  14.721  1.00  0.00     0.000 C 
BRANCH  20  21
ATOM     21  C   UNL     1      26.953 -11.854  14.092  1.00  0.00     0.000 C 
BRANCH  21  22
ATOM     22  C   UNL     1      26.996 -13.051  15.066  1.00  0.00     0.000 C 
BRANCH  22  23
ATOM     23  C   UNL     1      28.102 -14.062  14.715  1.00  0.00     0.000 C 
BRANCH  23  24
ATOM     24  C   UNL     1      29.111 -14.247  15.868  1.00  0.00    -0.000 C 
BRANCH  24  25
ATOM     25  C   UNL     1      29.461 -12.937  16.595  1.00  0.00    -0.000 C 
BRANCH  25  26
ATOM     26  C   UNL     1      30.881 -12.444  16.287  1.00  0.00    -0.000 C 
BRANCH  26  27
ATOM     27  C   UNL     1      31.068 -10.987  16.738  1.00  0.00    -0.000 C 
BRANCH  27  28
ATOM     28  C   UNL     1      32.337 -10.343  16.146  1.00  0.00    -0.000 C 
BRANCH  28  29
ATOM     29  C   UNL     1      33.531 -10.298  17.119  1.00  0.00    -0.000 C 
BRANCH  29  30
ATOM     30  C   UNL     1      34.703 -11.221  16.723  1.00  0.00    -0.000 C 
BRANCH  30  31
ATOM     31  C   UNL     1      34.520 -11.887  15.347  1.00  0.00    -0.003 C 
ATOM     32  C   UNL     1      35.727 -12.735  14.944  1.00  0.00     0.004 C 
ENDBRANCH  30  31
ENDBRANCH  29  30
ENDBRANCH  28  29
ENDBRANCH  27  28
ENDBRANCH  26  27
ENDBRANCH  25  26
ENDBRANCH  24  25
ENDBRANCH  23  24
ENDBRANCH  22  23
ENDBRANCH  21  22
ENDBRANCH  20  21
ENDBRANCH  19  20
ENDBRANCH  18  19
ENDBRANCH   1  18
TORSDOF 28
ENDMDL
MODEL 6
REMARK VINA RESULT:    -4.486      1.888      3.755
REMARK INTER + INTRA:         -17.199
REMARK INTER:                 -11.504
REMARK INTRA:                  -5.695
REMARK UNBOUND:                -5.370
REMARK SMILES CCCCCCCCCCCCCCCCCCCCCCCCCCCCCC(=O)[O-]
REMARK SMILES IDX 16 1 17 2 18 3 19 4 20 5 21 6 22 7 23 8 24 9 25 10 26 11
REMARK SMILES IDX 27 12 28 13 29 14 30 15 31 16 32 17 15 18 14 19 13 20 12 21
REMARK SMILES IDX 11 22 10 23 9 24 8 25 7 26 6 27 5 28 4 29 3 30 2 31 1 32
REMARK H PARENT
REMARK Flexibility Score: inf
ROOT
ATOM      1  C   UNL     1      30.619  -9.938  12.798  1.00  0.00     0.000 C 
ENDROOT
BRANCH   1   2
ATOM      2  C   UNL     1      30.614  -8.624  13.593  1.00  0.00     0.000 C 
BRANCH   2   3
ATOM      3  C   UNL     1      30.690  -7.383  12.690  1.00  0.00     0.000 C 
BRANCH   3   4
ATOM      4  C   UNL     1      31.016  -7.735  11.229  1.00  0.00     0.000 C 
BRANCH   4   5
ATOM      5  C   UNL     1      31.513  -6.526  10.420  1.00  0.00     0.000 C 
BRANCH   5   6
ATOM      6  C   UNL     1      31.983  -5.344  11.295  1.00  0.00     0.000 C 
BRANCH   6   7
ATOM      7  C   UNL     1      33.517  -5.256  11.377  1.00  0.00     0.000 C 
BRANCH   7   8
ATOM      8  C   UNL     1      34.217  -5.994  10.224  1.00  0.00     0.000 C 
BRANCH   8   9
ATOM      9  C   UNL     1      35.281  -6.987  10.717  1.00  0.00     0.000 C 
BRANCH   9  10
ATOM     10  C   UNL     1      34.949  -7.496  12.128  1.00  0.00     0.000 C 
BRANCH  10  11
ATOM     11  C   UNL     1      34.428  -8.943  12.122  1.00  0.00     0.000 C 
BRANCH  11  12
ATOM     12  C   UNL     1      35.318  -9.914  11.311  1.00  0.00     0.000 C 
BRANCH  12  13
ATOM     13  C   UNL     1      34.524 -10.801  10.334  1.00  0.00     0.006 C 
BRANCH  13  14
ATOM     14  C   UNL     1      33.102 -10.293  10.053  1.00  0.00     0.053 C 
BRANCH  14  15
ATOM     15  C   UNL     1      32.963  -9.755   8.661  1.00  0.00     0.041 C 
ATOM     16  O   UNL     1      31.952 -10.042   7.968  1.00  0.00    -0.550 OA
ATOM     17  O   UNL     1      33.950  -8.937   8.129  1.00  0.00    -0.550 OA
ENDBRANCH  14  15
ENDBRANCH  13  14
ENDBRANCH  12  13
ENDBRANCH  11  12
ENDBRANCH  10  11
ENDBRANCH   9  10
ENDBRANCH   8   9
ENDBRANCH   7   8
ENDBRANCH   6   7
ENDBRANCH   5   6
ENDBRANCH   4   5
ENDBRANCH   3   4
ENDBRANCH   2   3
ENDBRANCH   1   2
BRANCH   1  18
ATOM     18  C   UNL     1      29.514 -10.882  13.296  1.00  0.00     0.000 C 
BRANCH  18  19
ATOM     19  C   UNL     1      28.511 -10.188  14.237  1.00  0.00     0.000 C 
BRANCH  19  20
ATOM     20  C   UNL     1      27.247 -11.008  14.559  1.00  0.00     0.000 C 
BRANCH  20  21
ATOM     21  C   UNL     1      27.343 -12.513  14.240  1.00  0.00     0.000 C 
BRANCH  21  22
ATOM     22  C   UNL     1      27.570 -13.403  15.481  1.00  0.00     0.000 C 
BRANCH  22  23
ATOM     23  C   UNL     1      29.059 -13.705  15.731  1.00  0.00     0.000 C 
BRANCH  23  24
ATOM     24  C   UNL     1      29.662 -12.798  16.825  1.00  0.00    -0.000 C 
BRANCH  24  25
ATOM     25  C   UNL     1      31.021 -12.191  16.440  1.00  0.00    -0.000 C 
BRANCH  25  26
ATOM     26  C   UNL     1      31.071 -10.669  16.629  1.00  0.00    -0.000 C 
BRANCH  26  27
ATOM     27  C   UNL     1      32.492 -10.131  16.399  1.00  0.00    -0.000 C 
BRANCH  27  28
ATOM     28  C   UNL     1      33.228 -10.873  15.266  1.00  0.00    -0.000 C 
BRANCH  28  29
ATOM     29  C   UNL     1      34.604 -11.435  15.673  1.00  0.00    -0.000 C 
BRANCH  29  30
ATOM     30  C   UNL     1      35.327 -12.208  14.549  1.00  0.00    -0.000 C 
BRANCH  30  31
ATOM     31  C   UNL     1      34.375 -12.748  13.466  1.00  0.00    -0.003 C 
ATOM     32  C   UNL     1      34.878 -14.050  12.843  1.00  0.00     0.004 C 
ENDBRANCH  30  31
ENDBRANCH  29  30
ENDBRANCH  28  29
ENDBRANCH  27  28
ENDBRANCH  26  27
ENDBRANCH  25  26
ENDBRANCH  24  25
ENDBRANCH  23  24
ENDBRANCH  22  23
ENDBRANCH  21  22
ENDBRANCH  20  21
ENDBRANCH  19  20
ENDBRANCH  18  19
ENDBRANCH   1  18
TORSDOF 28
ENDMDL
MODEL 7
REMARK VINA RESULT:    -4.460      1.629      3.943
REMARK INTER + INTRA:         -17.130
REMARK INTER:                 -11.933
REMARK INTRA:                  -5.197
REMARK UNBOUND:                -5.370
REMARK SMILES CCCCCCCCCCCCCCCCCCCCCCCCCCCCCC(=O)[O-]
REMARK SMILES IDX 16 1 17 2 18 3 19 4 20 5 21 6 22 7 23 8 24 9 25 10 26 11
REMARK SMILES IDX 27 12 28 13 29 14 30 15 31 16 32 17 15 18 14 19 13 20 12 21
REMARK SMILES IDX 11 22 10 23 9 24 8 25 7 26 6 27 5 28 4 29 3 30 2 31 1 32
REMARK H PARENT
REMARK Flexibility Score: inf
ROOT
ATOM      1  C   UNL     1      31.269  -8.437  11.091  1.00  0.00     0.000 C 
ENDROOT
BRANCH   1   2
ATOM      2  C   UNL     1      31.446  -7.439   9.938  1.00  0.00     0.000 C 
BRANCH   2   3
ATOM      3  C   UNL     1      32.754  -7.655   9.161  1.00  0.00     0.000 C 
BRANCH   3   4
ATOM      4  C   UNL     1      33.602  -6.375   9.065  1.00  0.00     0.000 C 
BRANCH   4   5
ATOM      5  C   UNL     1      34.350  -6.055  10.370  1.00  0.00     0.000 C 
BRANCH   5   6
ATOM      6  C   UNL     1      34.912  -7.302  11.086  1.00  0.00     0.000 C 
BRANCH   6   7
ATOM      7  C   UNL     1      34.498  -7.356  12.567  1.00  0.00     0.000 C 
BRANCH   7   8
ATOM      8  C   UNL     1      34.472  -8.788  13.126  1.00  0.00     0.000 C 
BRANCH   8   9
ATOM      9  C   UNL     1      34.597  -9.855  12.028  1.00  0.00     0.000 C 
BRANCH   9  10
ATOM     10  C   UNL     1      35.150 -11.170  12.597  1.00  0.00     0.000 C 
BRANCH  10  11
ATOM     11  C   UNL     1      34.054 -12.037  13.241  1.00  0.00     0.000 C 
BRANCH  11  12
ATOM     12  C   UNL     1      34.556 -12.868  14.445  1.00  0.00     0.000 C 
BRANCH  12  13
ATOM     13  C   UNL     1      34.420 -14.388  14.239  1.00  0.00     0.006 C 
BRANCH  13  14
ATOM     14  C   UNL     1      35.732 -15.077  13.836  1.00  0.00     0.053 C 
BRANCH  14  15
ATOM     15  C   UNL     1      35.706 -15.543  12.411  1.00  0.00     0.041 C 
ATOM     16  O   UNL     1      36.479 -16.461  12.029  1.00  0.00    -0.550 OA
ATOM     17  O   UNL     1      34.826 -14.965  11.506  1.00  0.00    -0.550 OA
ENDBRANCH  14  15
ENDBRANCH  13  14
ENDBRANCH  12  13
ENDBRANCH  11  12
ENDBRANCH  10  11
ENDBRANCH   9  10
ENDBRANCH   8   9
ENDBRANCH   7   8
ENDBRANCH   6   7
ENDBRANCH   5   6
ENDBRANCH   4   5
ENDBRANCH   3   4
ENDBRANCH   2   3
ENDBRANCH   1   2
BRANCH   1  18
ATOM     18  C   UNL     1      30.904  -7.706  12.393  1.00  0.00     0.000 C 
BRANCH  18  19
ATOM     19  C   UNL     1      30.755  -8.659  13.594  1.00  0.00     0.000 C 
BRANCH  19  20
ATOM     20  C   UNL     1      30.773 -10.158  13.242  1.00  0.00     0.000 C 
BRANCH  20  21
ATOM     21  C   UNL     1      29.415 -10.877  13.367  1.00  0.00     0.000 C 
BRANCH  21  22
ATOM     22  C   UNL     1      28.313 -10.022  14.030  1.00  0.00     0.000 C 
BRANCH  22  23
ATOM     23  C   UNL     1      27.235 -10.876  14.721  1.00  0.00     0.000 C 
BRANCH  23  24
ATOM     24  C   UNL     1      27.166 -12.306  14.144  1.00  0.00    -0.000 C 
BRANCH  24  25
ATOM     25  C   UNL     1      27.247 -13.406  15.215  1.00  0.00    -0.000 C 
BRANCH  25  26
ATOM     26  C   UNL     1      28.202 -13.055  16.363  1.00  0.00    -0.000 C 
BRANCH  26  27
ATOM     27  C   UNL     1      29.587 -13.682  16.138  1.00  0.00    -0.000 C 
BRANCH  27  28
ATOM     28  C   UNL     1      30.735 -12.686  16.398  1.00  0.00    -0.000 C 
BRANCH  28  29
ATOM     29  C   UNL     1      30.265 -11.282  16.824  1.00  0.00    -0.000 C 
BRANCH  29  30
ATOM     30  C   UNL     1      31.392 -10.228  16.874  1.00  0.00    -0.000 C 
BRANCH  30  31
ATOM     31  C   UNL     1      30.917  -8.845  17.357  1.00  0.00    -0.003 C 
ATOM     32  C   UNL     1      29.405  -8.667  17.218  1.00  0.00     0.004 C 
ENDBRANCH  30  31
ENDBRANCH  29  30
ENDBRANCH  28  29
ENDBRANCH  27  28
ENDBRANCH  26  27
ENDBRANCH  25  26
ENDBRANCH  24  25
ENDBRANCH  23  24
ENDBRANCH  22  23
ENDBRANCH  21  22
ENDBRANCH  20  21
ENDBRANCH  19  20
ENDBRANCH  18  19
ENDBRANCH   1  18
TORSDOF 28
ENDMDL
MODEL 8
REMARK VINA RESULT:    -4.439      2.344      7.680
REMARK INTER + INTRA:         -17.075
REMARK INTER:                 -11.681
REMARK INTRA:                  -5.394
REMARK UNBOUND:                -5.370
REMARK SMILES CCCCCCCCCCCCCCCCCCCCCCCCCCCCCC(=O)[O-]
REMARK SMILES IDX 16 1 17 2 18 3 19 4 20 5 21 6 22 7 23 8 24 9 25 10 26 11
REMARK SMILES IDX 27 12 28 13 29 14 30 15 31 16 32 17 15 18 14 19 13 20 12 21
REMARK SMILES IDX 11 22 10 23 9 24 8 25 7 26 6 27 5 28 4 29 3 30 2 31 1 32
REMARK H PARENT
REMARK Flexibility Score: inf
ROOT
ATOM      1  C   UNL     1      36.084  -8.265  13.420  1.00  0.00     0.000 C 
ENDROOT
BRANCH   1   2
ATOM      2  C   UNL     1      36.214  -8.997  14.764  1.00  0.00     0.000 C 
BRANCH   2   3
ATOM      3  C   UNL     1      34.867  -9.516  15.290  1.00  0.00     0.000 C 
BRANCH   3   4
ATOM      4  C   UNL     1      34.929  -9.918  16.774  1.00  0.00     0.000 C 
BRANCH   4   5
ATOM      5  C   UNL     1      34.694 -11.421  16.996  1.00  0.00     0.000 C 
BRANCH   5   6
ATOM      6  C   UNL     1      33.440 -11.966  16.278  1.00  0.00     0.000 C 
BRANCH   6   7
ATOM      7  C   UNL     1      32.139 -11.534  16.976  1.00  0.00     0.000 C 
BRANCH   7   8
ATOM      8  C   UNL     1      31.185 -10.774  16.040  1.00  0.00     0.000 C 
BRANCH   8   9
ATOM      9  C   UNL     1      31.262  -9.251  16.225  1.00  0.00     0.000 C 
BRANCH   9  10
ATOM     10  C   UNL     1      29.902  -8.678  16.650  1.00  0.00     0.000 C 
BRANCH  10  11
ATOM     11  C   UNL     1      28.742  -9.646  16.362  1.00  0.00     0.000 C 
BRANCH  11  12
ATOM     12  C   UNL     1      28.034  -9.374  15.014  1.00  0.00     0.000 C 
BRANCH  12  13
ATOM     13  C   UNL     1      27.317 -10.610  14.439  1.00  0.00     0.006 C 
BRANCH  13  14
ATOM     14  C   UNL     1      28.272 -11.727  13.992  1.00  0.00     0.053 C 
BRANCH  14  15
ATOM     15  C   UNL     1      27.986 -13.022  14.691  1.00  0.00     0.041 C 
ATOM     16  O   UNL     1      27.942 -14.099  14.039  1.00  0.00    -0.550 OA
ATOM     17  O   UNL     1      27.768 -13.040  16.063  1.00  0.00    -0.550 OA
ENDBRANCH  14  15
ENDBRANCH  13  14
ENDBRANCH  12  13
ENDBRANCH  11  12
ENDBRANCH  10  11
ENDBRANCH   9  10
ENDBRANCH   8   9
ENDBRANCH   7   8
ENDBRANCH   6   7
ENDBRANCH   5   6
ENDBRANCH   4   5
ENDBRANCH   3   4
ENDBRANCH   2   3
ENDBRANCH   1   2
BRANCH   1  18
ATOM     18  C   UNL     1      36.983  -8.913  12.357  1.00  0.00     0.000 C 
BRANCH  18  19
ATOM     19  C   UNL     1      36.830  -8.267  10.967  1.00  0.00     0.000 C 
BRANCH  19  20
ATOM     20  C   UNL     1      36.499  -6.763  10.981  1.00  0.00     0.000 C 
BRANCH  20  21
ATOM     21  C   UNL     1      35.179  -6.375  10.286  1.00  0.00     0.000 C 
BRANCH  21  22
ATOM     22  C   UNL     1      34.167  -5.671  11.215  1.00  0.00     0.000 C 
BRANCH  22  23
ATOM     23  C   UNL     1      32.753  -5.605  10.610  1.00  0.00     0.000 C 
BRANCH  23  24
ATOM     24  C   UNL     1      32.685  -6.262   9.215  1.00  0.00    -0.000 C 
BRANCH  24  25
ATOM     25  C   UNL     1      31.319  -6.893   8.898  1.00  0.00    -0.000 C 
BRANCH  25  26
ATOM     26  C   UNL     1      31.395  -8.411   8.692  1.00  0.00    -0.000 C 
BRANCH  26  27
ATOM     27  C   UNL     1      32.816  -8.933   8.955  1.00  0.00    -0.000 C 
BRANCH  27  28
ATOM     28  C   UNL     1      32.859  -9.995  10.071  1.00  0.00    -0.000 C 
BRANCH  28  29
ATOM     29  C   UNL     1      33.254  -9.439  11.453  1.00  0.00    -0.000 C 
BRANCH  29  30
ATOM     30  C   UNL     1      32.376  -9.952  12.614  1.00  0.00    -0.000 C 
BRANCH  30  31
ATOM     31  C   UNL     1      30.915  -9.472  12.535  1.00  0.00    -0.003 C 
ATOM     32  C   UNL     1      30.789  -7.957  12.697  1.00  0.00     0.004 C 
ENDBRANCH  30  31
ENDBRANCH  29  30
ENDBRANCH  28  29
ENDBRANCH  27  28
ENDBRANCH  26  27
ENDBRANCH  25  26
ENDBRANCH  24  25
ENDBRANCH  23  24
ENDBRANCH  22  23
ENDBRANCH  21  22
ENDBRANCH  20  21
ENDBRANCH  19  20
ENDBRANCH  18  19
ENDBRANCH   1  18
TORSDOF 28
ENDMDL
MODEL 9
REMARK VINA RESULT:    -4.423      2.060      3.974
REMARK INTER + INTRA:         -17.034
REMARK INTER:                 -11.558
REMARK INTRA:                  -5.476
REMARK UNBOUND:                -5.370
REMARK SMILES CCCCCCCCCCCCCCCCCCCCCCCCCCCCCC(=O)[O-]
REMARK SMILES IDX 16 1 17 2 18 3 19 4 20 5 21 6 22 7 23 8 24 9 25 10 26 11
REMARK SMILES IDX 27 12 28 13 29 14 30 15 31 16 32 17 15 18 14 19 13 20 12 21
REMARK SMILES IDX 11 22 10 23 9 24 8 25 7 26 6 27 5 28 4 29 3 30 2 31 1 32
REMARK H PARENT
REMARK Flexibility Score: inf
ROOT
ATOM      1  C   UNL     1      31.696  -6.442  10.963  1.00  0.00     0.000 C 
ENDROOT
BRANCH   1   2
ATOM      2  C   UNL     1      32.617  -5.317  11.455  1.00  0.00     0.000 C 
BRANCH   2   3
ATOM      3  C   UNL     1      33.920  -5.218  10.648  1.00  0.00     0.000 C 
BRANCH   3   4
ATOM      4  C   UNL     1      34.272  -6.533   9.932  1.00  0.00     0.000 C 
BRANCH   4   5
ATOM      5  C   UNL     1      35.568  -7.172  10.457  1.00  0.00     0.000 C 
BRANCH   5   6
ATOM      6  C   UNL     1      35.557  -7.438  11.978  1.00  0.00     0.000 C 
BRANCH   6   7
ATOM      7  C   UNL     1      34.569  -8.553  12.364  1.00  0.00     0.000 C 
BRANCH   7   8
ATOM      8  C   UNL     1      34.735  -9.818  11.507  1.00  0.00     0.000 C 
BRANCH   8   9
ATOM      9  C   UNL     1      35.480 -10.940  12.246  1.00  0.00     0.000 C 
BRANCH   9  10
ATOM     10  C   UNL     1      34.577 -12.169  12.439  1.00  0.00     0.000 C 
BRANCH  10  11
ATOM     11  C   UNL     1      34.658 -12.737  13.866  1.00  0.00     0.000 C 
BRANCH  11  12
ATOM     12  C   UNL     1      35.400 -11.809  14.856  1.00  0.00     0.000 C 
BRANCH  12  13
ATOM     13  C   UNL     1      35.001 -12.038  16.326  1.00  0.00     0.006 C 
BRANCH  13  14
ATOM     14  C   UNL     1      36.182 -12.405  17.237  1.00  0.00     0.053 C 
BRANCH  14  15
ATOM     15  C   UNL     1      36.903 -11.188  17.737  1.00  0.00     0.041 C 
ATOM     16  O   UNL     1      38.098 -11.273  18.125  1.00  0.00    -0.550 OA
ATOM     17  O   UNL     1      36.255  -9.961  17.774  1.00  0.00    -0.550 OA
ENDBRANCH  14  15
ENDBRANCH  13  14
ENDBRANCH  12  13
ENDBRANCH  11  12
ENDBRANCH  10  11
ENDBRANCH   9  10
ENDBRANCH   8   9
ENDBRANCH   7   8
ENDBRANCH   6   7
ENDBRANCH   5   6
ENDBRANCH   4   5
ENDBRANCH   3   4
ENDBRANCH   2   3
ENDBRANCH   1   2
BRANCH   1  18
ATOM     18  C   UNL     1      30.593  -6.736  11.991  1.00  0.00     0.000 C 
BRANCH  18  19
ATOM     19  C   UNL     1      30.895  -7.973  12.858  1.00  0.00     0.000 C 
BRANCH  19  20
ATOM     20  C   UNL     1      30.998  -9.300  12.085  1.00  0.00     0.000 C 
BRANCH  20  21
ATOM     21  C   UNL     1      31.362 -10.530  12.939  1.00  0.00     0.000 C 
BRANCH  21  22
ATOM     22  C   UNL     1      31.903 -10.179  14.342  1.00  0.00     0.000 C 
BRANCH  22  23
ATOM     23  C   UNL     1      31.630 -11.286  15.377  1.00  0.00     0.000 C 
BRANCH  23  24
ATOM     24  C   UNL     1      30.839 -10.762  16.595  1.00  0.00    -0.000 C 
BRANCH  24  25
ATOM     25  C   UNL     1      30.892  -9.233  16.751  1.00  0.00    -0.000 C 
BRANCH  25  26
ATOM     26  C   UNL     1      29.550  -8.555  16.450  1.00  0.00    -0.000 C 
BRANCH  26  27
ATOM     27  C   UNL     1      28.451  -9.597  16.193  1.00  0.00    -0.000 C 
BRANCH  27  28
ATOM     28  C   UNL     1      28.013  -9.643  14.716  1.00  0.00    -0.000 C 
BRANCH  28  29
ATOM     29  C   UNL     1      27.319 -10.957  14.307  1.00  0.00    -0.000 C 
BRANCH  29  30
ATOM     30  C   UNL     1      28.280 -12.153  14.145  1.00  0.00    -0.000 C 
BRANCH  30  31
ATOM     31  C   UNL     1      27.854 -13.395  14.949  1.00  0.00    -0.003 C 
ATOM     32  C   UNL     1      28.129 -13.244  16.446  1.00  0.00     0.004 C 
ENDBRANCH  30  31
ENDBRANCH  29  30
ENDBRANCH  28  29
ENDBRANCH  27  28
ENDBRANCH  26  27
ENDBRANCH  25  26
ENDBRANCH  24  25
ENDBRANCH  23  24
ENDBRANCH  22  23
ENDBRANCH  21  22
ENDBRANCH  20  21
ENDBRANCH  19  20
ENDBRANCH  18  19
ENDBRANCH   1  18
TORSDOF 28
ENDMDL
