MODEL 1
REMARK VINA RESULT:    -4.299      0.000      0.000
REMARK INTER + INTRA:          -4.894
REMARK INTER:                  -4.676
REMARK INTRA:                  -0.218
REMARK UNBOUND:                -0.218
REMARK SMILES C[C@H]1[C@H](C)CC[C@]2(C(=O)[O-])CC[C@@]3(C)C(=CC[C@@H]4[C@@]5(C)CC[C@@H](O)C(C)(C)[C@H]5CC[C@]43C)[C@H]12
REMARK SMILES IDX 7 1 6 2 11 3 33 4 5 5 12 6 15 7 2 8 3 9 13 10 16 11 1 12
REMARK SMILES IDX 4 13 14 14 31 15 17 16 18 17 30 18 32 19 19 20 29 21 28 22
REMARK SMILES IDX 21 23 20 24 25 25 22 26 23 27 26 28 27 29 8 30 9 31 10 32
REMARK SMILES IDX 24 33
REMARK H PARENT 24 34
REMARK Flexibility Score: inf
ROOT
ATOM      1  C   UNL     1    -123.827  40.327  14.460  1.00  0.00     0.017 C 
ATOM      2  C   UNL     1    -122.584  40.506  15.397  1.00  0.00     0.014 C 
ATOM      3  C   UNL     1    -124.950  41.345  14.826  1.00  0.00     0.014 C 
ATOM      4  C   UNL     1    -124.468  38.855  14.456  1.00  0.00     0.030 C 
ATOM      5  C   UNL     1    -121.866  39.207  15.711  1.00  0.00     0.004 C 
ATOM      6  C   UNL     1    -126.180  41.343  13.881  1.00  0.00     0.013 C 
ATOM      7  C   UNL     1    -126.009  38.843  14.124  1.00  0.00    -0.063 C 
ATOM      8  C   UNL     1    -124.032  37.890  15.662  1.00  0.00    -0.003 C 
ATOM      9  C   UNL     1    -122.763  38.255  16.518  1.00  0.00    -0.011 C 
ATOM     10  C   UNL     1    -126.663  39.980  13.261  1.00  0.00    -0.006 C 
ATOM     11  C   UNL     1    -126.799  37.845  14.642  1.00  0.00    -0.027 C 
ATOM     12  C   UNL     1    -123.947  36.411  15.178  1.00  0.00     0.008 C 
ATOM     13  C   UNL     1    -123.121  38.772  17.975  1.00  0.00     0.008 C 
ATOM     14  C   UNL     1    -126.050  39.847  11.842  1.00  0.00     0.017 C 
ATOM     15  C   UNL     1    -128.342  39.939  13.160  1.00  0.00    -0.020 C 
ATOM     16  C   UNL     1    -128.219  37.659  14.251  1.00  0.00     0.032 C 
ATOM     17  C   UNL     1    -128.885  39.029  14.351  1.00  0.00     0.006 C 
ATOM     18  C   UNL     1    -129.130  41.303  13.240  1.00  0.00     0.008 C 
ATOM     19  C   UNL     1    -128.771  39.352  11.752  1.00  0.00     0.012 C 
ATOM     20  C   UNL     1    -130.436  39.087  14.706  1.00  0.00    -0.025 C 
ATOM     21  C   UNL     1    -129.794  41.649  14.599  1.00  0.00     0.005 C 
ATOM     22  C   UNL     1    -130.750  40.554  15.208  1.00  0.00     0.003 C 
ATOM     23  C   UNL     1    -130.787  38.029  15.797  1.00  0.00     0.010 C 
ATOM     24  C   UNL     1    -131.322  38.745  13.477  1.00  0.00     0.012 C 
ATOM     25  C   UNL     1    -130.925  40.704  16.789  1.00  0.00    -0.006 C 
ATOM     26  C   UNL     1    -132.064  38.334  16.601  1.00  0.00     0.033 C 
ATOM     27  C   UNL     1    -132.006  39.686  17.327  1.00  0.00     0.120 C 
ATOM     28  C   UNL     1    -129.574  40.572  17.569  1.00  0.00     0.014 C 
ATOM     29  C   UNL     1    -131.434  42.125  17.107  1.00  0.00     0.014 C 
ENDROOT
BRANCH   1  30
ATOM     30  C   UNL     1    -123.195  40.738  13.117  1.00  0.00     0.048 C 
ATOM     31  O   UNL     1    -122.660  39.878  12.336  1.00  0.00    -0.550 OA
ATOM     32  O   UNL     1    -123.122  42.081  12.752  1.00  0.00    -0.550 OA
ENDBRANCH   1  30
BRANCH  27  33
ATOM     33  O   UNL     1    -131.909  39.502  18.728  1.00  0.00    -0.393 OA
ATOM     34  H   UNL     1    -130.937  39.532  18.985  1.00  0.00     0.210 HD
ENDBRANCH  27  33
TORSDOF 2
ENDMDL
MODEL 2
REMARK VINA RESULT:    -4.047      8.644     11.803
REMARK INTER + INTRA:          -4.620
REMARK INTER:                  -4.396
REMARK INTRA:                  -0.224
REMARK UNBOUND:                -0.218
REMARK SMILES C[C@H]1[C@H](C)CC[C@]2(C(=O)[O-])CC[C@@]3(C)C(=CC[C@@H]4[C@@]5(C)CC[C@@H](O)C(C)(C)[C@H]5CC[C@]43C)[C@H]12
REMARK SMILES IDX 7 1 6 2 11 3 33 4 5 5 12 6 15 7 2 8 3 9 13 10 16 11 1 12
REMARK SMILES IDX 4 13 14 14 31 15 17 16 18 17 30 18 32 19 19 20 29 21 28 22
REMARK SMILES IDX 21 23 20 24 25 25 22 26 23 27 26 28 27 29 8 30 9 31 10 32
REMARK SMILES IDX 24 33
REMARK H PARENT 24 34
REMARK Flexibility Score: inf
ROOT
ATOM      1  C   UNL     1    -119.970  37.728   3.390  1.00  0.00     0.017 C 
ATOM      2  C   UNL     1    -119.437  37.471   1.938  1.00  0.00     0.014 C 
ATOM      3  C   UNL     1    -121.288  36.935   3.647  1.00  0.00     0.014 C 
ATOM      4  C   UNL     1    -120.234  39.270   3.752  1.00  0.00     0.030 C 
ATOM      5  C   UNL     1    -118.756  38.675   1.317  1.00  0.00     0.004 C 
ATOM      6  C   UNL     1    -121.837  37.016   5.094  1.00  0.00     0.013 C 
ATOM      7  C   UNL     1    -121.358  39.474   4.840  1.00  0.00    -0.063 C 
ATOM      8  C   UNL     1    -120.307  40.286   2.512  1.00  0.00    -0.003 C 
ATOM      9  C   UNL     1    -119.745  39.833   1.114  1.00  0.00    -0.011 C 
ATOM     10  C   UNL     1    -121.676  38.358   5.898  1.00  0.00    -0.006 C 
ATOM     11  C   UNL     1    -122.102  40.629   4.827  1.00  0.00    -0.027 C 
ATOM     12  C   UNL     1    -119.715  41.674   2.906  1.00  0.00     0.008 C 
ATOM     13  C   UNL     1    -120.885  39.539   0.050  1.00  0.00     0.008 C 
ATOM     14  C   UNL     1    -120.412  38.242   6.791  1.00  0.00     0.017 C 
ATOM     15  C   UNL     1    -123.027  38.637   6.861  1.00  0.00    -0.020 C 
ATOM     16  C   UNL     1    -123.061  40.980   5.905  1.00  0.00     0.032 C 
ATOM     17  C   UNL     1    -123.923  39.744   6.144  1.00  0.00     0.006 C 
ATOM     18  C   UNL     1    -123.981  37.423   7.181  1.00  0.00     0.008 C 
ATOM     19  C   UNL     1    -122.560  39.122   8.296  1.00  0.00     0.012 C 
ATOM     20  C   UNL     1    -125.418  39.957   6.650  1.00  0.00    -0.025 C 
ATOM     21  C   UNL     1    -125.296  37.331   6.364  1.00  0.00     0.005 C 
ATOM     22  C   UNL     1    -126.208  38.617   6.361  1.00  0.00     0.003 C 
ATOM     23  C   UNL     1    -126.075  41.168   5.921  1.00  0.00     0.010 C 
ATOM     24  C   UNL     1    -125.471  40.288   8.166  1.00  0.00     0.012 C 
ATOM     25  C   UNL     1    -127.191  38.669   5.102  1.00  0.00    -0.006 C 
ATOM     26  C   UNL     1    -127.614  41.147   5.896  1.00  0.00     0.033 C 
ATOM     27  C   UNL     1    -128.185  39.890   5.225  1.00  0.00     0.120 C 
ATOM     28  C   UNL     1    -126.429  38.684   3.734  1.00  0.00     0.014 C 
ATOM     29  C   UNL     1    -128.042  37.384   5.073  1.00  0.00     0.014 C 
ENDROOT
BRANCH   1  30
ATOM     30  C   UNL     1    -118.829  37.083   4.198  1.00  0.00     0.048 C 
ATOM     31  O   UNL     1    -117.845  37.771   4.638  1.00  0.00    -0.550 OA
ATOM     32  O   UNL     1    -118.802  35.705   4.405  1.00  0.00    -0.550 OA
ENDBRANCH   1  30
BRANCH  27  33
ATOM     33  O   UNL     1    -128.785  40.210   3.982  1.00  0.00    -0.393 OA
ATOM     34  H   UNL     1    -128.842  41.212   3.908  1.00  0.00     0.210 HD
ENDBRANCH  27  33
TORSDOF 2
ENDMDL
MODEL 3
REMARK VINA RESULT:    -3.870      1.852      2.315
REMARK INTER + INTRA:          -4.427
REMARK INTER:                  -4.205
REMARK INTRA:                  -0.222
REMARK UNBOUND:                -0.218
REMARK SMILES C[C@H]1[C@H](C)CC[C@]2(C(=O)[O-])CC[C@@]3(C)C(=CC[C@@H]4[C@@]5(C)CC[C@@H](O)C(C)(C)[C@H]5CC[C@]43C)[C@H]12
REMARK SMILES IDX 7 1 6 2 11 3 33 4 5 5 12 6 15 7 2 8 3 9 13 10 16 11 1 12
REMARK SMILES IDX 4 13 14 14 31 15 17 16 18 17 30 18 32 19 19 20 29 21 28 22
REMARK SMILES IDX 21 23 20 24 25 25 22 26 23 27 26 28 27 29 8 30 9 31 10 32
REMARK SMILES IDX 24 33
REMARK H PARENT 24 34
REMARK Flexibility Score: inf
ROOT
ATOM      1  C   UNL     1    -123.016  39.238  15.129  1.00  0.00     0.017 C 
ATOM      2  C   UNL     1    -121.614  38.939  15.762  1.00  0.00     0.014 C 
ATOM      3  C   UNL     1    -123.977  39.875  16.179  1.00  0.00     0.014 C 
ATOM      4  C   UNL     1    -123.754  37.968  14.480  1.00  0.00     0.030 C 
ATOM      5  C   UNL     1    -120.950  37.693  15.209  1.00  0.00     0.004 C 
ATOM      6  C   UNL     1    -125.353  40.330  15.628  1.00  0.00     0.013 C 
ATOM      7  C   UNL     1    -125.326  38.083  14.495  1.00  0.00    -0.063 C 
ATOM      8  C   UNL     1    -123.180  36.528  14.897  1.00  0.00    -0.003 C 
ATOM      9  C   UNL     1    -121.754  36.430  15.555  1.00  0.00    -0.011 C 
ATOM     10  C   UNL     1    -126.039  39.481  14.496  1.00  0.00    -0.006 C 
ATOM     11  C   UNL     1    -126.081  36.936  14.557  1.00  0.00    -0.027 C 
ATOM     12  C   UNL     1    -123.293  35.528  13.706  1.00  0.00     0.008 C 
ATOM     13  C   UNL     1    -121.805  36.093  17.105  1.00  0.00     0.008 C 
ATOM     14  C   UNL     1    -125.704  40.133  13.128  1.00  0.00     0.017 C 
ATOM     15  C   UNL     1    -127.707  39.445  14.713  1.00  0.00    -0.020 C 
ATOM     16  C   UNL     1    -127.558  36.936  14.407  1.00  0.00     0.032 C 
ATOM     17  C   UNL     1    -128.092  38.027  15.332  1.00  0.00     0.006 C 
ATOM     18  C   UNL     1    -128.365  40.536  15.641  1.00  0.00     0.008 C 
ATOM     19  C   UNL     1    -128.425  39.672  13.318  1.00  0.00     0.012 C 
ATOM     20  C   UNL     1    -129.546  37.839  15.956  1.00  0.00    -0.025 C 
ATOM     21  C   UNL     1    -128.746  40.095  17.079  1.00  0.00     0.005 C 
ATOM     22  C   UNL     1    -129.655  38.812  17.198  1.00  0.00     0.003 C 
ATOM     23  C   UNL     1    -129.771  36.355  16.378  1.00  0.00     0.010 C 
ATOM     24  C   UNL     1    -130.661  38.166  14.926  1.00  0.00     0.012 C 
ATOM     25  C   UNL     1    -129.531  38.104  18.625  1.00  0.00    -0.006 C 
ATOM     26  C   UNL     1    -130.856  36.150  17.451  1.00  0.00     0.033 C 
ATOM     27  C   UNL     1    -130.569  36.920  18.748  1.00  0.00     0.120 C 
ATOM     28  C   UNL     1    -128.074  37.625  18.945  1.00  0.00     0.014 C 
ATOM     29  C   UNL     1    -129.867  39.128  19.727  1.00  0.00     0.014 C 
ENDROOT
BRANCH   1  30
ATOM     30  C   UNL     1    -122.608  40.314  14.105  1.00  0.00     0.048 C 
ATOM     31  O   UNL     1    -122.338  40.017  12.891  1.00  0.00    -0.550 OA
ATOM     32  O   UNL     1    -122.446  41.641  14.500  1.00  0.00    -0.550 OA
ENDBRANCH   1  30
BRANCH  27  33
ATOM     33  O   UNL     1    -130.235  36.031  19.799  1.00  0.00    -0.393 OA
ATOM     34  H   UNL     1    -131.083  35.772  20.276  1.00  0.00     0.210 HD
ENDBRANCH  27  33
TORSDOF 2
ENDMDL
MODEL 4
REMARK VINA RESULT:    -3.865      8.793     13.237
REMARK INTER + INTRA:          -4.422
REMARK INTER:                  -4.200
REMARK INTRA:                  -0.222
REMARK UNBOUND:                -0.218
REMARK SMILES C[C@H]1[C@H](C)CC[C@]2(C(=O)[O-])CC[C@@]3(C)C(=CC[C@@H]4[C@@]5(C)CC[C@@H](O)C(C)(C)[C@H]5CC[C@]43C)[C@H]12
REMARK SMILES IDX 7 1 6 2 11 3 33 4 5 5 12 6 15 7 2 8 3 9 13 10 16 11 1 12
REMARK SMILES IDX 4 13 14 14 31 15 17 16 18 17 30 18 32 19 19 20 29 21 28 22
REMARK SMILES IDX 21 23 20 24 25 25 22 26 23 27 26 28 27 29 8 30 9 31 10 32
REMARK SMILES IDX 24 33
REMARK H PARENT 24 34
REMARK Flexibility Score: inf
ROOT
ATOM      1  C   UNL     1    -125.889  39.245   6.104  1.00  0.00     0.017 C 
ATOM      2  C   UNL     1    -127.286  38.557   5.925  1.00  0.00     0.014 C 
ATOM      3  C   UNL     1    -125.384  39.837   4.753  1.00  0.00     0.014 C 
ATOM      4  C   UNL     1    -124.738  38.297   6.698  1.00  0.00     0.030 C 
ATOM      5  C   UNL     1    -127.483  37.340   6.807  1.00  0.00     0.004 C 
ATOM      6  C   UNL     1    -124.067  40.651   4.838  1.00  0.00     0.013 C 
ATOM      7  C   UNL     1    -123.287  38.712   6.240  1.00  0.00    -0.063 C 
ATOM      8  C   UNL     1    -125.030  36.719   6.660  1.00  0.00    -0.003 C 
ATOM      9  C   UNL     1    -126.503  36.216   6.436  1.00  0.00    -0.011 C 
ATOM     10  C   UNL     1    -122.951  40.195   5.848  1.00  0.00    -0.006 C 
ATOM     11  C   UNL     1    -122.315  37.746   6.137  1.00  0.00    -0.027 C 
ATOM     12  C   UNL     1    -124.404  36.016   7.903  1.00  0.00     0.008 C 
ATOM     13  C   UNL     1    -126.737  35.595   4.994  1.00  0.00     0.008 C 
ATOM     14  C   UNL     1    -123.104  41.026   7.150  1.00  0.00     0.017 C 
ATOM     15  C   UNL     1    -121.422  40.443   5.193  1.00  0.00    -0.020 C 
ATOM     16  C   UNL     1    -120.888  38.065   5.876  1.00  0.00     0.032 C 
ATOM     17  C   UNL     1    -120.864  39.035   4.697  1.00  0.00     0.006 C 
ATOM     18  C   UNL     1    -121.283  41.437   3.976  1.00  0.00     0.008 C 
ATOM     19  C   UNL     1    -120.474  41.078   6.293  1.00  0.00     0.012 C 
ATOM     20  C   UNL     1    -119.596  39.015   3.734  1.00  0.00    -0.025 C 
ATOM     21  C   UNL     1    -121.154  40.803   2.566  1.00  0.00     0.005 C 
ATOM     22  C   UNL     1    -120.018  39.726   2.385  1.00  0.00     0.003 C 
ATOM     23  C   UNL     1    -119.126  37.551   3.479  1.00  0.00     0.010 C 
ATOM     24  C   UNL     1    -118.383  39.751   4.365  1.00  0.00     0.012 C 
ATOM     25  C   UNL     1    -120.298  38.739   1.160  1.00  0.00    -0.006 C 
ATOM     26  C   UNL     1    -118.306  37.354   2.190  1.00  0.00     0.033 C 
ATOM     27  C   UNL     1    -119.065  37.781   0.926  1.00  0.00     0.120 C 
ATOM     28  C   UNL     1    -121.631  37.931   1.320  1.00  0.00     0.014 C 
ATOM     29  C   UNL     1    -120.486  39.570  -0.125  1.00  0.00     0.014 C 
ENDROOT
BRANCH   1  30
ATOM     30  C   UNL     1    -126.293  40.400   7.038  1.00  0.00     0.048 C 
ATOM     31  O   UNL     1    -126.192  40.302   8.310  1.00  0.00    -0.550 OA
ATOM     32  O   UNL     1    -126.856  41.565   6.520  1.00  0.00    -0.550 OA
ENDBRANCH   1  30
BRANCH  27  33
ATOM     33  O   UNL     1    -119.412  36.653   0.142  1.00  0.00    -0.393 OA
ATOM     34  H   UNL     1    -119.443  35.847   0.743  1.00  0.00     0.210 HD
ENDBRANCH  27  33
TORSDOF 2
ENDMDL
MODEL 5
REMARK VINA RESULT:    -3.854      1.949      7.285
REMARK INTER + INTRA:          -4.410
REMARK INTER:                  -4.189
REMARK INTRA:                  -0.221
REMARK UNBOUND:                -0.218
REMARK SMILES C[C@H]1[C@H](C)CC[C@]2(C(=O)[O-])CC[C@@]3(C)C(=CC[C@@H]4[C@@]5(C)CC[C@@H](O)C(C)(C)[C@H]5CC[C@]43C)[C@H]12
REMARK SMILES IDX 7 1 6 2 11 3 33 4 5 5 12 6 15 7 2 8 3 9 13 10 16 11 1 12
REMARK SMILES IDX 4 13 14 14 31 15 17 16 18 17 30 18 32 19 19 20 29 21 28 22
REMARK SMILES IDX 21 23 20 24 25 25 22 26 23 27 26 28 27 29 8 30 9 31 10 32
REMARK SMILES IDX 24 33
REMARK H PARENT 24 34
REMARK Flexibility Score: inf
ROOT
ATOM      1  C   UNL     1    -130.580  37.387  16.682  1.00  0.00     0.017 C 
ATOM      2  C   UNL     1    -131.101  37.011  18.112  1.00  0.00     0.014 C 
ATOM      3  C   UNL     1    -129.200  36.719  16.400  1.00  0.00     0.014 C 
ATOM      4  C   UNL     1    -130.440  38.962  16.404  1.00  0.00     0.030 C 
ATOM      5  C   UNL     1    -131.884  38.121  18.786  1.00  0.00     0.004 C 
ATOM      6  C   UNL     1    -128.647  36.921  14.966  1.00  0.00     0.013 C 
ATOM      7  C   UNL     1    -129.329  39.314  15.341  1.00  0.00    -0.063 C 
ATOM      8  C   UNL     1    -130.461  39.914  17.696  1.00  0.00    -0.003 C 
ATOM      9  C   UNL     1    -130.995  39.344  19.061  1.00  0.00    -0.011 C 
ATOM     10  C   UNL     1    -128.912  38.286  14.231  1.00  0.00    -0.006 C 
ATOM     11  C   UNL     1    -128.683  40.524  15.423  1.00  0.00    -0.027 C 
ATOM     12  C   UNL     1    -131.162  41.268  17.367  1.00  0.00     0.008 C 
ATOM     13  C   UNL     1    -129.843  39.088  20.123  1.00  0.00     0.008 C 
ATOM     14  C   UNL     1    -130.155  38.114  13.318  1.00  0.00     0.017 C 
ATOM     15  C   UNL     1    -127.581  38.724  13.300  1.00  0.00    -0.020 C 
ATOM     16  C   UNL     1    -127.748  41.009  14.377  1.00  0.00     0.032 C 
ATOM     17  C   UNL     1    -126.785  39.861  14.084  1.00  0.00     0.006 C 
ATOM     18  C   UNL     1    -126.528  37.610  12.929  1.00  0.00     0.008 C 
ATOM     19  C   UNL     1    -128.075  39.245  11.886  1.00  0.00     0.012 C 
ATOM     20  C   UNL     1    -125.308  40.222  13.608  1.00  0.00    -0.025 C 
ATOM     21  C   UNL     1    -125.217  37.584  13.756  1.00  0.00     0.005 C 
ATOM     22  C   UNL     1    -124.413  38.938  13.836  1.00  0.00     0.003 C 
ATOM     23  C   UNL     1    -124.760  41.443  14.407  1.00  0.00     0.010 C 
ATOM     24  C   UNL     1    -125.271  40.636  12.112  1.00  0.00     0.012 C 
ATOM     25  C   UNL     1    -123.448  39.004  15.108  1.00  0.00    -0.006 C 
ATOM     26  C   UNL     1    -123.224  41.546  14.449  1.00  0.00     0.033 C 
ATOM     27  C   UNL     1    -122.557  40.306  15.061  1.00  0.00     0.120 C 
ATOM     28  C   UNL     1    -124.219  38.885  16.466  1.00  0.00     0.014 C 
ATOM     29  C   UNL     1    -122.495  37.792  15.081  1.00  0.00     0.014 C 
ENDROOT
BRANCH   1  30
ATOM     30  C   UNL     1    -131.657  36.694  15.828  1.00  0.00     0.048 C 
ATOM     31  O   UNL     1    -132.705  37.314  15.436  1.00  0.00    -0.550 OA
ATOM     32  O   UNL     1    -131.553  35.338  15.523  1.00  0.00    -0.550 OA
ENDBRANCH   1  30
BRANCH  27  33
ATOM     33  O   UNL     1    -121.994  40.609  16.326  1.00  0.00    -0.393 OA
ATOM     34  H   UNL     1    -121.518  39.790  16.664  1.00  0.00     0.210 HD
ENDBRANCH  27  33
TORSDOF 2
ENDMDL
MODEL 6
REMARK VINA RESULT:    -3.704      8.586     12.895
REMARK INTER + INTRA:          -4.247
REMARK INTER:                  -4.025
REMARK INTRA:                  -0.222
REMARK UNBOUND:                -0.218
REMARK SMILES C[C@H]1[C@H](C)CC[C@]2(C(=O)[O-])CC[C@@]3(C)C(=CC[C@@H]4[C@@]5(C)CC[C@@H](O)C(C)(C)[C@H]5CC[C@]43C)[C@H]12
REMARK SMILES IDX 7 1 6 2 11 3 33 4 5 5 12 6 15 7 2 8 3 9 13 10 16 11 1 12
REMARK SMILES IDX 4 13 14 14 31 15 17 16 18 17 30 18 32 19 19 20 29 21 28 22
REMARK SMILES IDX 21 23 20 24 25 25 22 26 23 27 26 28 27 29 8 30 9 31 10 32
REMARK SMILES IDX 24 33
REMARK H PARENT 24 34
REMARK Flexibility Score: inf
ROOT
ATOM      1  C   UNL     1    -127.338  39.168   5.399  1.00  0.00     0.017 C 
ATOM      2  C   UNL     1    -128.681  38.710   4.734  1.00  0.00     0.014 C 
ATOM      3  C   UNL     1    -126.420  39.886   4.362  1.00  0.00     0.014 C 
ATOM      4  C   UNL     1    -126.489  37.994   6.091  1.00  0.00     0.030 C 
ATOM      5  C   UNL     1    -129.226  37.410   5.293  1.00  0.00     0.004 C 
ATOM      6  C   UNL     1    -125.116  40.493   4.940  1.00  0.00     0.013 C 
ATOM      7  C   UNL     1    -124.937  38.275   6.116  1.00  0.00    -0.063 C 
ATOM      8  C   UNL     1    -126.894  36.495   5.687  1.00  0.00    -0.003 C 
ATOM      9  C   UNL     1    -128.283  36.235   4.994  1.00  0.00    -0.011 C 
ATOM     10  C   UNL     1    -124.377  39.741   6.107  1.00  0.00    -0.006 C 
ATOM     11  C   UNL     1    -124.064  37.214   6.097  1.00  0.00    -0.027 C 
ATOM     12  C   UNL     1    -126.710  35.532   6.900  1.00  0.00     0.008 C 
ATOM     13  C   UNL     1    -128.152  35.879   3.452  1.00  0.00     0.008 C 
ATOM     14  C   UNL     1    -124.818  40.377   7.452  1.00  0.00     0.017 C 
ATOM     15  C   UNL     1    -122.708  39.879   5.936  1.00  0.00    -0.020 C 
ATOM     16  C   UNL     1    -122.600  37.374   6.286  1.00  0.00     0.032 C 
ATOM     17  C   UNL     1    -122.158  38.500   5.355  1.00  0.00     0.006 C 
ATOM     18  C   UNL     1    -122.144  41.019   5.004  1.00  0.00     0.008 C 
ATOM     19  C   UNL     1    -122.059  40.204   7.344  1.00  0.00     0.012 C 
ATOM     20  C   UNL     1    -120.676  38.458   4.774  1.00  0.00    -0.025 C 
ATOM     21  C   UNL     1    -121.677  40.597   3.586  1.00  0.00     0.005 C 
ATOM     22  C   UNL     1    -120.635  39.416   3.516  1.00  0.00     0.003 C 
ATOM     23  C   UNL     1    -120.282  37.000   4.386  1.00  0.00     0.010 C 
ATOM     24  C   UNL     1    -119.631  38.918   5.827  1.00  0.00     0.012 C 
ATOM     25  C   UNL     1    -120.642  38.675   2.101  1.00  0.00    -0.006 C 
ATOM     26  C   UNL     1    -119.151  36.893   3.347  1.00  0.00     0.033 C 
ATOM     27  C   UNL     1    -119.481  37.607   2.028  1.00  0.00     0.120 C 
ATOM     28  C   UNL     1    -122.030  38.039   1.751  1.00  0.00     0.014 C 
ATOM     29  C   UNL     1    -120.384  39.710   0.988  1.00  0.00     0.014 C 
ENDROOT
BRANCH   1  30
ATOM     30  C   UNL     1    -127.887  40.211   6.390  1.00  0.00     0.048 C 
ATOM     31  O   UNL     1    -128.162  39.906   7.601  1.00  0.00    -0.550 OA
ATOM     32  O   UNL     1    -128.174  41.507   5.965  1.00  0.00    -0.550 OA
ENDBRANCH   1  30
BRANCH  27  33
ATOM     33  O   UNL     1    -119.689  36.669   0.986  1.00  0.00    -0.393 OA
ATOM     34  H   UNL     1    -120.675  36.482   0.921  1.00  0.00     0.210 HD
ENDBRANCH  27  33
TORSDOF 2
ENDMDL
MODEL 7
REMARK VINA RESULT:    -3.602      2.923      5.158
REMARK INTER + INTRA:          -4.136
REMARK INTER:                  -3.914
REMARK INTRA:                  -0.222
REMARK UNBOUND:                -0.218
REMARK SMILES C[C@H]1[C@H](C)CC[C@]2(C(=O)[O-])CC[C@@]3(C)C(=CC[C@@H]4[C@@]5(C)CC[C@@H](O)C(C)(C)[C@H]5CC[C@]43C)[C@H]12
REMARK SMILES IDX 7 1 6 2 11 3 33 4 5 5 12 6 15 7 2 8 3 9 13 10 16 11 1 12
REMARK SMILES IDX 4 13 14 14 31 15 17 16 18 17 30 18 32 19 19 20 29 21 28 22
REMARK SMILES IDX 21 23 20 24 25 25 22 26 23 27 26 28 27 29 8 30 9 31 10 32
REMARK SMILES IDX 24 33
REMARK H PARENT 24 34
REMARK Flexibility Score: inf
ROOT
ATOM      1  C   UNL     1    -126.558  36.873  15.775  1.00  0.00     0.017 C 
ATOM      2  C   UNL     1    -125.590  36.417  14.630  1.00  0.00     0.014 C 
ATOM      3  C   UNL     1    -128.023  36.426  15.476  1.00  0.00     0.014 C 
ATOM      4  C   UNL     1    -126.566  38.451  16.070  1.00  0.00     0.030 C 
ATOM      5  C   UNL     1    -124.458  37.391  14.366  1.00  0.00     0.004 C 
ATOM      6  C   UNL     1    -129.046  36.715  16.604  1.00  0.00     0.013 C 
ATOM      7  C   UNL     1    -127.936  38.973  16.652  1.00  0.00    -0.063 C 
ATOM      8  C   UNL     1    -125.916  39.385  14.938  1.00  0.00    -0.003 C 
ATOM      9  C   UNL     1    -124.989  38.736  13.845  1.00  0.00    -0.011 C 
ATOM     10  C   UNL     1    -128.889  38.024  17.461  1.00  0.00    -0.006 C 
ATOM     11  C   UNL     1    -128.320  40.268  16.401  1.00  0.00    -0.027 C 
ATOM     12  C   UNL     1    -125.207  40.615  15.584  1.00  0.00     0.008 C 
ATOM     13  C   UNL     1    -125.672  38.659  12.415  1.00  0.00     0.008 C 
ATOM     14  C   UNL     1    -128.128  37.664  18.765  1.00  0.00     0.017 C 
ATOM     15  C   UNL     1    -130.397  38.665  17.844  1.00  0.00    -0.020 C 
ATOM     16  C   UNL     1    -129.504  40.894  17.042  1.00  0.00     0.032 C 
ATOM     17  C   UNL     1    -130.660  39.910  16.883  1.00  0.00     0.006 C 
ATOM     18  C   UNL     1    -131.659  37.728  17.725  1.00  0.00     0.008 C 
ATOM     19  C   UNL     1    -130.411  39.106  19.367  1.00  0.00     0.012 C 
ATOM     20  C   UNL     1    -132.138  40.496  16.786  1.00  0.00    -0.025 C 
ATOM     21  C   UNL     1    -132.544  37.903  16.464  1.00  0.00     0.005 C 
ATOM     22  C   UNL     1    -133.053  39.365  16.163  1.00  0.00     0.003 C 
ATOM     23  C   UNL     1    -132.158  41.785  15.910  1.00  0.00     0.010 C 
ATOM     24  C   UNL     1    -132.684  40.914  18.178  1.00  0.00     0.012 C 
ATOM     25  C   UNL     1    -133.438  39.577  14.627  1.00  0.00    -0.006 C 
ATOM     26  C   UNL     1    -133.529  42.125  15.297  1.00  0.00     0.033 C 
ATOM     27  C   UNL     1    -134.082  41.002  14.408  1.00  0.00     0.120 C 
ATOM     28  C   UNL     1    -132.232  39.337  13.657  1.00  0.00     0.014 C 
ATOM     29  C   UNL     1    -134.493  38.528  14.222  1.00  0.00     0.014 C 
ENDROOT
BRANCH   1  30
ATOM     30  C   UNL     1    -126.001  36.023  16.932  1.00  0.00     0.048 C 
ATOM     31  O   UNL     1    -125.116  36.479  17.735  1.00  0.00    -0.550 OA
ATOM     32  O   UNL     1    -126.396  34.695  17.088  1.00  0.00    -0.550 OA
ENDBRANCH   1  30
BRANCH  27  33
ATOM     33  O   UNL     1    -134.069  41.385  13.044  1.00  0.00    -0.393 OA
ATOM     34  H   UNL     1    -133.110  41.464  12.748  1.00  0.00     0.210 HD
ENDBRANCH  27  33
TORSDOF 2
ENDMDL
MODEL 8
REMARK VINA RESULT:    -3.565      2.177      7.914
REMARK INTER + INTRA:          -4.095
REMARK INTER:                  -3.873
REMARK INTRA:                  -0.222
REMARK UNBOUND:                -0.218
REMARK SMILES C[C@H]1[C@H](C)CC[C@]2(C(=O)[O-])CC[C@@]3(C)C(=CC[C@@H]4[C@@]5(C)CC[C@@H](O)C(C)(C)[C@H]5CC[C@]43C)[C@H]12
REMARK SMILES IDX 7 1 6 2 11 3 33 4 5 5 12 6 15 7 2 8 3 9 13 10 16 11 1 12
REMARK SMILES IDX 4 13 14 14 31 15 17 16 18 17 30 18 32 19 19 20 29 21 28 22
REMARK SMILES IDX 21 23 20 24 25 25 22 26 23 27 26 28 27 29 8 30 9 31 10 32
REMARK SMILES IDX 24 33
REMARK H PARENT 24 34
REMARK Flexibility Score: inf
ROOT
ATOM      1  C   UNL     1    -128.097  39.698  14.656  1.00  0.00     0.017 C 
ATOM      2  C   UNL     1    -128.999  40.445  13.613  1.00  0.00     0.014 C 
ATOM      3  C   UNL     1    -126.796  40.508  14.945  1.00  0.00     0.014 C 
ATOM      4  C   UNL     1    -127.677  38.205  14.243  1.00  0.00     0.030 C 
ATOM      5  C   UNL     1    -129.762  39.513  12.690  1.00  0.00     0.004 C 
ATOM      6  C   UNL     1    -125.887  39.924  16.057  1.00  0.00     0.013 C 
ATOM      7  C   UNL     1    -126.302  37.747  14.865  1.00  0.00    -0.063 C 
ATOM      8  C   UNL     1    -127.881  37.813  12.700  1.00  0.00    -0.003 C 
ATOM      9  C   UNL     1    -128.806  38.708  11.796  1.00  0.00    -0.011 C 
ATOM     10  C   UNL     1    -125.773  38.363  16.209  1.00  0.00    -0.006 C 
ATOM     11  C   UNL     1    -125.535  36.828  14.191  1.00  0.00    -0.027 C 
ATOM     12  C   UNL     1    -128.286  36.313  12.565  1.00  0.00     0.008 C 
ATOM     13  C   UNL     1    -127.995  39.585  10.751  1.00  0.00     0.008 C 
ATOM     14  C   UNL     1    -126.767  37.907  17.310  1.00  0.00     0.017 C 
ATOM     15  C   UNL     1    -124.207  37.924  16.641  1.00  0.00    -0.020 C 
ATOM     16  C   UNL     1    -124.314  36.216  14.775  1.00  0.00     0.032 C 
ATOM     17  C   UNL     1    -123.477  37.361  15.340  1.00  0.00     0.006 C 
ATOM     18  C   UNL     1    -123.261  39.030  17.246  1.00  0.00     0.008 C 
ATOM     19  C   UNL     1    -124.264  36.826  17.783  1.00  0.00     0.012 C 
ATOM     20  C   UNL     1    -121.894  37.191  15.370  1.00  0.00    -0.025 C 
ATOM     21  C   UNL     1    -122.208  39.649  16.291  1.00  0.00     0.005 C 
ATOM     22  C   UNL     1    -121.268  38.635  15.533  1.00  0.00     0.003 C 
ATOM     23  C   UNL     1    -121.394  36.503  14.063  1.00  0.00     0.010 C 
ATOM     24  C   UNL     1    -121.435  36.278  16.539  1.00  0.00     0.012 C 
ATOM     25  C   UNL     1    -120.644  39.256  14.200  1.00  0.00    -0.006 C 
ATOM     26  C   UNL     1    -119.916  36.768  13.723  1.00  0.00     0.033 C 
ATOM     27  C   UNL     1    -119.596  38.262  13.562  1.00  0.00     0.120 C 
ATOM     28  C   UNL     1    -121.732  39.688  13.160  1.00  0.00     0.014 C 
ATOM     29  C   UNL     1    -119.890  40.554  14.553  1.00  0.00     0.014 C 
ENDROOT
BRANCH   1  30
ATOM     30  C   UNL     1    -129.019  39.772  15.888  1.00  0.00     0.048 C 
ATOM     31  O   UNL     1    -129.816  38.818  16.187  1.00  0.00    -0.550 OA
ATOM     32  O   UNL     1    -129.062  40.924  16.670  1.00  0.00    -0.550 OA
ENDBRANCH   1  30
BRANCH  27  33
ATOM     33  O   UNL     1    -119.324  38.576  12.208  1.00  0.00    -0.393 OA
ATOM     34  H   UNL     1    -119.656  37.819  11.634  1.00  0.00     0.210 HD
ENDBRANCH  27  33
TORSDOF 2
ENDMDL
MODEL 9
REMARK VINA RESULT:    -2.231      1.802      3.012
REMARK INTER + INTRA:          -2.645
REMARK INTER:                  -2.424
REMARK INTRA:                  -0.221
REMARK UNBOUND:                -0.218
REMARK SMILES C[C@H]1[C@H](C)CC[C@]2(C(=O)[O-])CC[C@@]3(C)C(=CC[C@@H]4[C@@]5(C)CC[C@@H](O)C(C)(C)[C@H]5CC[C@]43C)[C@H]12
REMARK SMILES IDX 7 1 6 2 11 3 33 4 5 5 12 6 15 7 2 8 3 9 13 10 16 11 1 12
REMARK SMILES IDX 4 13 14 14 31 15 17 16 18 17 30 18 32 19 19 20 29 21 28 22
REMARK SMILES IDX 21 23 20 24 25 25 22 26 23 27 26 28 27 29 8 30 9 31 10 32
REMARK SMILES IDX 24 33
REMARK H PARENT 24 34
REMARK Flexibility Score: inf
ROOT
ATOM      1  C   UNL     1    -124.998  38.602  14.621  1.00  0.00     0.017 C 
ATOM      2  C   UNL     1    -123.766  37.643  14.760  1.00  0.00     0.014 C 
ATOM      3  C   UNL     1    -125.599  38.942  16.019  1.00  0.00     0.014 C 
ATOM      4  C   UNL     1    -126.182  38.055  13.685  1.00  0.00     0.030 C 
ATOM      5  C   UNL     1    -123.632  36.654  13.618  1.00  0.00     0.004 C 
ATOM      6  C   UNL     1    -126.746  39.985  16.010  1.00  0.00     0.013 C 
ATOM      7  C   UNL     1    -127.602  38.613  14.082  1.00  0.00    -0.063 C 
ATOM      8  C   UNL     1    -126.147  36.487  13.344  1.00  0.00    -0.003 C 
ATOM      9  C   UNL     1    -124.818  35.678  13.582  1.00  0.00    -0.011 C 
ATOM     10  C   UNL     1    -127.758  39.997  14.807  1.00  0.00    -0.006 C 
ATOM     11  C   UNL     1    -128.717  37.850  13.830  1.00  0.00    -0.027 C 
ATOM     12  C   UNL     1    -126.684  36.227  11.903  1.00  0.00     0.008 C 
ATOM     13  C   UNL     1    -124.898  34.701  14.831  1.00  0.00     0.008 C 
ATOM     14  C   UNL     1    -127.288  41.069  13.787  1.00  0.00     0.017 C 
ATOM     15  C   UNL     1    -129.310  40.365  15.342  1.00  0.00    -0.020 C 
ATOM     16  C   UNL     1    -130.099  38.359  14.015  1.00  0.00     0.032 C 
ATOM     17  C   UNL     1    -130.147  39.009  15.395  1.00  0.00     0.006 C 
ATOM     18  C   UNL     1    -129.472  41.051  16.752  1.00  0.00     0.008 C 
ATOM     19  C   UNL     1    -129.976  41.408  14.350  1.00  0.00     0.012 C 
ATOM     20  C   UNL     1    -131.531  39.000  16.183  1.00  0.00    -0.025 C 
ATOM     21  C   UNL     1    -129.903  40.137  17.929  1.00  0.00     0.005 C 
ATOM     22  C   UNL     1    -131.207  39.279  17.706  1.00  0.00     0.003 C 
ATOM     23  C   UNL     1    -132.254  37.631  16.001  1.00  0.00     0.010 C 
ATOM     24  C   UNL     1    -132.509  40.077  15.642  1.00  0.00     0.012 C 
ATOM     25  C   UNL     1    -131.266  37.996  18.657  1.00  0.00    -0.006 C 
ATOM     26  C   UNL     1    -133.276  37.292  17.102  1.00  0.00     0.033 C 
ATOM     27  C   UNL     1    -132.654  37.258  18.506  1.00  0.00     0.120 C 
ATOM     28  C   UNL     1    -130.067  37.015  18.433  1.00  0.00     0.014 C 
ATOM     29  C   UNL     1    -131.144  38.450  20.125  1.00  0.00     0.014 C 
ENDROOT
BRANCH   1  30
ATOM     30  C   UNL     1    -124.287  39.850  14.064  1.00  0.00     0.048 C 
ATOM     31  O   UNL     1    -124.205  40.071  12.807  1.00  0.00    -0.550 OA
ATOM     32  O   UNL     1    -123.641  40.738  14.922  1.00  0.00    -0.550 OA
ENDBRANCH   1  30
BRANCH  27  33
ATOM     33  O   UNL     1    -132.606  35.933  19.004  1.00  0.00    -0.393 OA
ATOM     34  H   UNL     1    -131.656  35.606  18.941  1.00  0.00     0.210 HD
ENDBRANCH  27  33
TORSDOF 2
ENDMDL
