MODEL 1
REMARK VINA RESULT:    -5.799      0.000      0.000
REMARK INTER + INTRA:          -7.309
REMARK INTER:                  -6.986
REMARK INTRA:                  -0.323
REMARK UNBOUND:                -0.323
REMARK SMILES O=c1c(O)c(-c2ccc(O)c(O)c2)oc2cc(O)cc(O)c12
REMARK SMILES IDX 5 1 3 2 2 3 1 4 22 5 20 6 19 7 17 8 16 9 15 10 14 11 6 12
REMARK SMILES IDX 7 13 8 14 9 15 13 16 11 17 10 18 12 20 4 22 21 24 18 26
REMARK H PARENT 10 19 12 21 4 23 21 25 18 27
REMARK Flexibility Score: inf
ROOT
ATOM      1  C   UNL     1      16.480  -5.926   8.326  1.00  0.00     0.180 A 
ATOM      2  C   UNL     1      17.474  -6.425   9.185  1.00  0.00     0.208 A 
ATOM      3  C   UNL     1      17.653  -7.814   9.284  1.00  0.00     0.238 A 
ATOM      4  O   UNL     1      18.494  -8.257  10.110  1.00  0.00    -0.285 OA
ATOM      5  C   UNL     1      16.876  -8.684   8.482  1.00  0.00     0.111 A 
ATOM      6  C   UNL     1      17.004 -10.108   8.467  1.00  0.00     0.134 A 
ATOM      7  C   UNL     1      16.108 -10.873   7.710  1.00  0.00     0.093 A 
ATOM      8  C   UNL     1      15.130 -10.266   6.919  1.00  0.00     0.123 A 
ATOM      9  C   UNL     1      15.033  -8.877   6.885  1.00  0.00     0.094 A 
ATOM     10  C   UNL     1      15.886  -8.087   7.658  1.00  0.00     0.146 A 
ATOM     11  O   UNL     1      15.745  -6.768   7.610  1.00  0.00    -0.452 OA
ENDROOT
BRANCH   1  12
ATOM     12  C   UNL     1      16.221  -4.476   8.179  1.00  0.00     0.025 A 
ATOM     13  C   UNL     1      15.318  -3.845   9.049  1.00  0.00     0.016 A 
ATOM     14  C   UNL     1      15.073  -2.473   8.942  1.00  0.00     0.051 A 
ATOM     15  C   UNL     1      15.738  -1.709   7.975  1.00  0.00     0.157 A 
ATOM     16  C   UNL     1      16.903  -3.702   7.222  1.00  0.00     0.062 A 
ATOM     17  C   UNL     1      16.661  -2.327   7.115  1.00  0.00     0.158 A 
BRANCH  15  18
ATOM     18  O   UNL     1      15.490  -0.342   7.870  1.00  0.00    -0.504 OA
ATOM     19  H   UNL     1      14.955   0.157   8.571  1.00  0.00     0.293 HD
ENDBRANCH  15  18
BRANCH  17  20
ATOM     20  O   UNL     1      17.351  -1.593   6.150  1.00  0.00    -0.504 OA
ATOM     21  H   UNL     1      18.362  -1.542   6.134  1.00  0.00     0.293 HD
ENDBRANCH  17  20
ENDBRANCH   1  12
BRANCH   2  22
ATOM     22  O   UNL     1      18.282  -5.547   9.911  1.00  0.00    -0.502 OA
ATOM     23  H   UNL     1      19.293  -5.619   9.921  1.00  0.00     0.293 HD
ENDBRANCH   2  22
BRANCH   6  24
ATOM     24  O   UNL     1      18.000 -10.811   9.149  1.00  0.00    -0.507 OA
ATOM     25  H   UNL     1      18.312 -11.742   8.920  1.00  0.00     0.293 HD
ENDBRANCH   6  24
BRANCH   8  26
ATOM     26  O   UNL     1      14.253 -11.036   6.158  1.00  0.00    -0.508 OA
ATOM     27  H   UNL     1      14.017 -11.985   6.420  1.00  0.00     0.293 HD
ENDBRANCH   8  26
TORSDOF 6
ENDMDL
MODEL 2
REMARK VINA RESULT:    -5.556      1.243      2.837
REMARK INTER + INTRA:          -7.016
REMARK INTER:                  -6.734
REMARK INTRA:                  -0.282
REMARK UNBOUND:                -0.323
REMARK SMILES O=c1c(O)c(-c2ccc(O)c(O)c2)oc2cc(O)cc(O)c12
REMARK SMILES IDX 5 1 3 2 2 3 1 4 22 5 20 6 19 7 17 8 16 9 15 10 14 11 6 12
REMARK SMILES IDX 7 13 8 14 9 15 13 16 11 17 10 18 12 20 4 22 21 24 18 26
REMARK H PARENT 10 19 12 21 4 23 21 25 18 27
REMARK Flexibility Score: inf
ROOT
ATOM      1  C   UNL     1      16.098  -5.714   7.889  1.00  0.00     0.180 A 
ATOM      2  C   UNL     1      15.502  -6.487   6.878  1.00  0.00     0.208 A 
ATOM      3  C   UNL     1      15.659  -7.881   6.906  1.00  0.00     0.238 A 
ATOM      4  O   UNL     1      15.187  -8.560   5.957  1.00  0.00    -0.285 OA
ATOM      5  C   UNL     1      16.362  -8.491   7.973  1.00  0.00     0.111 A 
ATOM      6  C   UNL     1      16.544  -9.900   8.126  1.00  0.00     0.134 A 
ATOM      7  C   UNL     1      17.349 -10.383   9.166  1.00  0.00     0.093 A 
ATOM      8  C   UNL     1      17.925  -9.513  10.096  1.00  0.00     0.123 A 
ATOM      9  C   UNL     1      17.707  -8.142   9.986  1.00  0.00     0.094 A 
ATOM     10  C   UNL     1      16.942  -7.627   8.938  1.00  0.00     0.146 A 
ATOM     11  O   UNL     1      16.778  -6.311   8.860  1.00  0.00    -0.452 OA
ENDROOT
BRANCH   1  12
ATOM     12  C   UNL     1      15.990  -4.238   7.921  1.00  0.00     0.025 A 
ATOM     13  C   UNL     1      15.162  -3.627   8.876  1.00  0.00     0.016 A 
ATOM     14  C   UNL     1      15.060  -2.234   8.937  1.00  0.00     0.051 A 
ATOM     15  C   UNL     1      15.796  -1.432   8.056  1.00  0.00     0.157 A 
ATOM     16  C   UNL     1      16.743  -3.429   7.050  1.00  0.00     0.062 A 
ATOM     17  C   UNL     1      16.644  -2.034   7.112  1.00  0.00     0.158 A 
BRANCH  15  18
ATOM     18  O   UNL     1      15.691  -0.044   8.118  1.00  0.00    -0.504 OA
ATOM     19  H   UNL     1      14.938   0.454   7.657  1.00  0.00     0.293 HD
ENDBRANCH  15  18
BRANCH  17  20
ATOM     20  O   UNL     1      17.401  -1.263   6.228  1.00  0.00    -0.504 OA
ATOM     21  H   UNL     1      17.035  -0.951   5.337  1.00  0.00     0.293 HD
ENDBRANCH  17  20
ENDBRANCH   1  12
BRANCH   2  22
ATOM     22  O   UNL     1      14.748  -5.872   5.875  1.00  0.00    -0.502 OA
ATOM     23  H   UNL     1      14.406  -4.922   5.957  1.00  0.00     0.293 HD
ENDBRANCH   2  22
BRANCH   6  24
ATOM     24  O   UNL     1      15.943 -10.861   7.308  1.00  0.00    -0.507 OA
ATOM     25  H   UNL     1      16.117 -11.853   7.357  1.00  0.00     0.293 HD
ENDBRANCH   6  24
BRANCH   8  26
ATOM     26  O   UNL     1      18.710 -10.004  11.136  1.00  0.00    -0.508 OA
ATOM     27  H   UNL     1      18.669 -10.976  11.418  1.00  0.00     0.293 HD
ENDBRANCH   8  26
TORSDOF 6
ENDMDL
MODEL 3
REMARK VINA RESULT:    -5.445      1.819      6.678
REMARK INTER + INTRA:          -6.883
REMARK INTER:                  -7.010
REMARK INTRA:                   0.127
REMARK UNBOUND:                -0.323
REMARK SMILES O=c1c(O)c(-c2ccc(O)c(O)c2)oc2cc(O)cc(O)c12
REMARK SMILES IDX 5 1 3 2 2 3 1 4 22 5 20 6 19 7 17 8 16 9 15 10 14 11 6 12
REMARK SMILES IDX 7 13 8 14 9 15 13 16 11 17 10 18 12 20 4 22 21 24 18 26
REMARK H PARENT 10 19 12 21 4 23 21 25 18 27
REMARK Flexibility Score: inf
ROOT
ATOM      1  C   UNL     1      16.269  -6.107   8.565  1.00  0.00     0.180 A 
ATOM      2  C   UNL     1      16.980  -5.105   9.246  1.00  0.00     0.208 A 
ATOM      3  C   UNL     1      16.520  -3.780   9.180  1.00  0.00     0.238 A 
ATOM      4  O   UNL     1      17.203  -2.877   9.729  1.00  0.00    -0.285 OA
ATOM      5  C   UNL     1      15.324  -3.482   8.482  1.00  0.00     0.111 A 
ATOM      6  C   UNL     1      14.740  -2.181   8.389  1.00  0.00     0.134 A 
ATOM      7  C   UNL     1      13.611  -1.988   7.582  1.00  0.00     0.093 A 
ATOM      8  C   UNL     1      13.008  -3.059   6.918  1.00  0.00     0.123 A 
ATOM      9  C   UNL     1      13.538  -4.340   7.048  1.00  0.00     0.094 A 
ATOM     10  C   UNL     1      14.685  -4.559   7.813  1.00  0.00     0.146 A 
ATOM     11  O   UNL     1      15.168  -5.793   7.892  1.00  0.00    -0.452 OA
ENDROOT
BRANCH   1  12
ATOM     12  C   UNL     1      16.699  -7.524   8.574  1.00  0.00     0.025 A 
ATOM     13  C   UNL     1      16.682  -8.257   7.377  1.00  0.00     0.016 A 
ATOM     14  C   UNL     1      17.104  -9.590   7.358  1.00  0.00     0.051 A 
ATOM     15  C   UNL     1      17.562 -10.204   8.530  1.00  0.00     0.157 A 
ATOM     16  C   UNL     1      17.179  -8.137   9.745  1.00  0.00     0.062 A 
ATOM     17  C   UNL     1      17.604  -9.471   9.728  1.00  0.00     0.158 A 
BRANCH  15  18
ATOM     18  O   UNL     1      17.980 -11.533   8.508  1.00  0.00    -0.504 OA
ATOM     19  H   UNL     1      17.877 -12.108   7.680  1.00  0.00     0.293 HD
ENDBRANCH  15  18
BRANCH  17  20
ATOM     20  O   UNL     1      18.069 -10.048  10.910  1.00  0.00    -0.504 OA
ATOM     21  H   UNL     1      17.784  -9.711  11.821  1.00  0.00     0.293 HD
ENDBRANCH  17  20
ENDBRANCH   1  12
BRANCH   2  22
ATOM     22  O   UNL     1      18.116  -5.431   9.991  1.00  0.00    -0.502 OA
ATOM     23  H   UNL     1      19.046  -5.136   9.721  1.00  0.00     0.293 HD
ENDBRANCH   2  22
BRANCH   6  24
ATOM     24  O   UNL     1      15.209  -1.061   9.081  1.00  0.00    -0.507 OA
ATOM     25  H   UNL     1      15.998  -0.497   8.802  1.00  0.00     0.293 HD
ENDBRANCH   6  24
BRANCH   8  26
ATOM     26  O   UNL     1      11.875  -2.859   6.131  1.00  0.00    -0.508 OA
ATOM     27  H   UNL     1      11.498  -3.597   5.549  1.00  0.00     0.293 HD
ENDBRANCH   8  26
TORSDOF 6
ENDMDL
MODEL 4
REMARK VINA RESULT:    -5.290      3.895      6.888
REMARK INTER + INTRA:          -6.695
REMARK INTER:                  -6.409
REMARK INTRA:                  -0.286
REMARK UNBOUND:                -0.323
REMARK SMILES O=c1c(O)c(-c2ccc(O)c(O)c2)oc2cc(O)cc(O)c12
REMARK SMILES IDX 5 1 3 2 2 3 1 4 22 5 20 6 19 7 17 8 16 9 15 10 14 11 6 12
REMARK SMILES IDX 7 13 8 14 9 15 13 16 11 17 10 18 12 20 4 22 21 24 18 26
REMARK H PARENT 10 19 12 21 4 23 21 25 18 27
REMARK Flexibility Score: inf
ROOT
ATOM      1  C   UNL     1      17.507 -11.822   7.105  1.00  0.00     0.180 A 
ATOM      2  C   UNL     1      16.423 -12.689   6.888  1.00  0.00     0.208 A 
ATOM      3  C   UNL     1      16.678 -14.015   6.503  1.00  0.00     0.238 A 
ATOM      4  O   UNL     1      15.702 -14.764   6.238  1.00  0.00    -0.285 OA
ATOM      5  C   UNL     1      18.014 -14.473   6.395  1.00  0.00     0.111 A 
ATOM      6  C   UNL     1      18.389 -15.810   6.057  1.00  0.00     0.134 A 
ATOM      7  C   UNL     1      19.743 -16.121   5.876  1.00  0.00     0.093 A 
ATOM      8  C   UNL     1      20.737 -15.163   6.084  1.00  0.00     0.123 A 
ATOM      9  C   UNL     1      20.384 -13.872   6.467  1.00  0.00     0.094 A 
ATOM     10  C   UNL     1      19.041 -13.519   6.618  1.00  0.00     0.146 A 
ATOM     11  O   UNL     1      18.748 -12.271   6.965  1.00  0.00    -0.452 OA
ENDROOT
BRANCH   1  12
ATOM     12  C   UNL     1      17.319 -10.407   7.497  1.00  0.00     0.025 A 
ATOM     13  C   UNL     1      16.960  -9.463   6.522  1.00  0.00     0.016 A 
ATOM     14  C   UNL     1      16.757  -8.125   6.873  1.00  0.00     0.051 A 
ATOM     15  C   UNL     1      16.895  -7.715   8.205  1.00  0.00     0.157 A 
ATOM     16  C   UNL     1      17.437  -9.996   8.837  1.00  0.00     0.062 A 
ATOM     17  C   UNL     1      17.232  -8.656   9.192  1.00  0.00     0.158 A 
BRANCH  15  18
ATOM     18  O   UNL     1      16.694  -6.380   8.551  1.00  0.00    -0.504 OA
ATOM     19  H   UNL     1      16.329  -5.708   7.887  1.00  0.00     0.293 HD
ENDBRANCH  15  18
BRANCH  17  20
ATOM     20  O   UNL     1      17.363  -8.283  10.530  1.00  0.00    -0.504 OA
ATOM     21  H   UNL     1      17.258  -8.948  11.286  1.00  0.00     0.293 HD
ENDBRANCH  17  20
ENDBRANCH   1  12
BRANCH   2  22
ATOM     22  O   UNL     1      15.114 -12.238   7.073  1.00  0.00    -0.502 OA
ATOM     23  H   UNL     1      14.641 -12.293   7.967  1.00  0.00     0.293 HD
ENDBRANCH   2  22
BRANCH   6  24
ATOM     24  O   UNL     1      17.484 -16.864   5.913  1.00  0.00    -0.507 OA
ATOM     25  H   UNL     1      17.736 -17.839   5.847  1.00  0.00     0.293 HD
ENDBRANCH   6  24
BRANCH   8  26
ATOM     26  O   UNL     1      22.082 -15.487   5.918  1.00  0.00    -0.508 OA
ATOM     27  H   UNL     1      22.371 -16.271   5.345  1.00  0.00     0.293 HD
ENDBRANCH   8  26
TORSDOF 6
ENDMDL
MODEL 5
REMARK VINA RESULT:    -5.250      1.956      7.285
REMARK INTER + INTRA:          -6.647
REMARK INTER:                  -6.730
REMARK INTRA:                   0.083
REMARK UNBOUND:                -0.323
REMARK SMILES O=c1c(O)c(-c2ccc(O)c(O)c2)oc2cc(O)cc(O)c12
REMARK SMILES IDX 5 1 3 2 2 3 1 4 22 5 20 6 19 7 17 8 16 9 15 10 14 11 6 12
REMARK SMILES IDX 7 13 8 14 9 15 13 16 11 17 10 18 12 20 4 22 21 24 18 26
REMARK H PARENT 10 19 12 21 4 23 21 25 18 27
REMARK Flexibility Score: inf
ROOT
ATOM      1  C   UNL     1      15.829  -6.303   8.282  1.00  0.00     0.180 A 
ATOM      2  C   UNL     1      14.634  -6.055   7.585  1.00  0.00     0.208 A 
ATOM      3  C   UNL     1      14.117  -4.750   7.565  1.00  0.00     0.238 A 
ATOM      4  O   UNL     1      13.008  -4.550   7.003  1.00  0.00    -0.285 OA
ATOM      5  C   UNL     1      14.829  -3.699   8.193  1.00  0.00     0.111 A 
ATOM      6  C   UNL     1      14.420  -2.330   8.196  1.00  0.00     0.134 A 
ATOM      7  C   UNL     1      15.150  -1.394   8.941  1.00  0.00     0.093 A 
ATOM      8  C   UNL     1      16.308  -1.765   9.629  1.00  0.00     0.123 A 
ATOM      9  C   UNL     1      16.743  -3.087   9.587  1.00  0.00     0.094 A 
ATOM     10  C   UNL     1      16.017  -4.052   8.885  1.00  0.00     0.146 A 
ATOM     11  O   UNL     1      16.458  -5.304   8.889  1.00  0.00    -0.452 OA
ENDROOT
BRANCH   1  12
ATOM     12  C   UNL     1      16.429  -7.655   8.362  1.00  0.00     0.025 A 
ATOM     13  C   UNL     1      16.561  -8.421   7.194  1.00  0.00     0.016 A 
ATOM     14  C   UNL     1      17.143  -9.691   7.242  1.00  0.00     0.051 A 
ATOM     15  C   UNL     1      17.615 -10.206   8.456  1.00  0.00     0.157 A 
ATOM     16  C   UNL     1      16.922  -8.167   9.576  1.00  0.00     0.062 A 
ATOM     17  C   UNL     1      17.508  -9.438   9.627  1.00  0.00     0.158 A 
BRANCH  15  18
ATOM     18  O   UNL     1      18.193 -11.473   8.502  1.00  0.00    -0.504 OA
ATOM     19  H   UNL     1      19.196 -11.603   8.433  1.00  0.00     0.293 HD
ENDBRANCH  15  18
BRANCH  17  20
ATOM     20  O   UNL     1      17.980  -9.916  10.849  1.00  0.00    -0.504 OA
ATOM     21  H   UNL     1      18.793 -10.516  10.914  1.00  0.00     0.293 HD
ENDBRANCH  17  20
ENDBRANCH   1  12
BRANCH   2  22
ATOM     22  O   UNL     1      13.986  -7.092   6.908  1.00  0.00    -0.502 OA
ATOM     23  H   UNL     1      13.027  -7.018   6.592  1.00  0.00     0.293 HD
ENDBRANCH   2  22
BRANCH   6  24
ATOM     24  O   UNL     1      13.332  -1.836   7.472  1.00  0.00    -0.507 OA
ATOM     25  H   UNL     1      13.257  -0.898   7.107  1.00  0.00     0.293 HD
ENDBRANCH   6  24
BRANCH   8  26
ATOM     26  O   UNL     1      17.036  -0.824  10.353  1.00  0.00    -0.508 OA
ATOM     27  H   UNL     1      17.501  -1.067  11.220  1.00  0.00     0.293 HD
ENDBRANCH   8  26
TORSDOF 6
ENDMDL
MODEL 6
REMARK VINA RESULT:    -5.250      1.894      7.143
REMARK INTER + INTRA:          -6.647
REMARK INTER:                  -6.609
REMARK INTRA:                  -0.037
REMARK UNBOUND:                -0.323
REMARK SMILES O=c1c(O)c(-c2ccc(O)c(O)c2)oc2cc(O)cc(O)c12
REMARK SMILES IDX 5 1 3 2 2 3 1 4 22 5 20 6 19 7 17 8 16 9 15 10 14 11 6 12
REMARK SMILES IDX 7 13 8 14 9 15 13 16 11 17 10 18 12 20 4 22 21 24 18 26
REMARK H PARENT 10 19 12 21 4 23 21 25 18 27
REMARK Flexibility Score: inf
ROOT
ATOM      1  C   UNL     1      16.212  -9.508   8.079  1.00  0.00     0.180 A 
ATOM      2  C   UNL     1      17.148  -9.350   9.115  1.00  0.00     0.208 A 
ATOM      3  C   UNL     1      17.634  -8.065   9.404  1.00  0.00     0.238 A 
ATOM      4  O   UNL     1      18.527  -7.941  10.281  1.00  0.00    -0.285 OA
ATOM      5  C   UNL     1      17.136  -6.946   8.692  1.00  0.00     0.111 A 
ATOM      6  C   UNL     1      17.524  -5.592   8.933  1.00  0.00     0.134 A 
ATOM      7  C   UNL     1      17.043  -4.578   8.095  1.00  0.00     0.093 A 
ATOM      8  C   UNL     1      16.140  -4.859   7.067  1.00  0.00     0.123 A 
ATOM      9  C   UNL     1      15.714  -6.169   6.860  1.00  0.00     0.094 A 
ATOM     10  C   UNL     1      16.205  -7.208   7.653  1.00  0.00     0.146 A 
ATOM     11  O   UNL     1      15.787  -8.444   7.407  1.00  0.00    -0.452 OA
ENDROOT
BRANCH   1  12
ATOM     12  C   UNL     1      15.665 -10.832   7.705  1.00  0.00     0.025 A 
ATOM     13  C   UNL     1      14.277 -10.992   7.572  1.00  0.00     0.016 A 
ATOM     14  C   UNL     1      13.740 -12.228   7.199  1.00  0.00     0.051 A 
ATOM     15  C   UNL     1      14.583 -13.316   6.940  1.00  0.00     0.157 A 
ATOM     16  C   UNL     1      16.510 -11.920   7.423  1.00  0.00     0.062 A 
ATOM     17  C   UNL     1      15.974 -13.158   7.047  1.00  0.00     0.158 A 
BRANCH  15  18
ATOM     18  O   UNL     1      14.044 -14.546   6.570  1.00  0.00    -0.504 OA
ATOM     19  H   UNL     1      14.555 -15.411   6.702  1.00  0.00     0.293 HD
ENDBRANCH  15  18
BRANCH  17  20
ATOM     20  O   UNL     1      16.842 -14.218   6.782  1.00  0.00    -0.504 OA
ATOM     21  H   UNL     1      16.738 -14.807   5.965  1.00  0.00     0.293 HD
ENDBRANCH  17  20
ENDBRANCH   1  12
BRANCH   2  22
ATOM     22  O   UNL     1      17.571 -10.457   9.855  1.00  0.00    -0.502 OA
ATOM     23  H   UNL     1      17.742 -11.361   9.431  1.00  0.00     0.293 HD
ENDBRANCH   2  22
BRANCH   6  24
ATOM     24  O   UNL     1      18.349  -5.190   9.986  1.00  0.00    -0.507 OA
ATOM     25  H   UNL     1      18.052  -4.640  10.777  1.00  0.00     0.293 HD
ENDBRANCH   6  24
BRANCH   8  26
ATOM     26  O   UNL     1      15.655  -3.841   6.249  1.00  0.00    -0.508 OA
ATOM     27  H   UNL     1      14.672  -3.771   6.015  1.00  0.00     0.293 HD
ENDBRANCH   8  26
TORSDOF 6
ENDMDL
MODEL 7
REMARK VINA RESULT:    -4.802      2.259      4.571
REMARK INTER + INTRA:          -6.108
REMARK INTER:                  -6.293
REMARK INTRA:                   0.185
REMARK UNBOUND:                -0.323
REMARK SMILES O=c1c(O)c(-c2ccc(O)c(O)c2)oc2cc(O)cc(O)c12
REMARK SMILES IDX 5 1 3 2 2 3 1 4 22 5 20 6 19 7 17 8 16 9 15 10 14 11 6 12
REMARK SMILES IDX 7 13 8 14 9 15 13 16 11 17 10 18 12 20 4 22 21 24 18 26
REMARK H PARENT 10 19 12 21 4 23 21 25 18 27
REMARK Flexibility Score: inf
ROOT
ATOM      1  C   UNL     1      16.424  -9.395   7.762  1.00  0.00     0.180 A 
ATOM      2  C   UNL     1      15.157 -10.003   7.757  1.00  0.00     0.208 A 
ATOM      3  C   UNL     1      15.049 -11.347   7.366  1.00  0.00     0.238 A 
ATOM      4  O   UNL     1      13.903 -11.863   7.292  1.00  0.00    -0.285 OA
ATOM      5  C   UNL     1      16.213 -12.082   7.038  1.00  0.00     0.111 A 
ATOM      6  C   UNL     1      16.226 -13.464   6.672  1.00  0.00     0.134 A 
ATOM      7  C   UNL     1      17.427 -14.058   6.266  1.00  0.00     0.093 A 
ATOM      8  C   UNL     1      18.626 -13.342   6.275  1.00  0.00     0.123 A 
ATOM      9  C   UNL     1      18.632 -12.010   6.683  1.00  0.00     0.094 A 
ATOM     10  C   UNL     1      17.445 -11.377   7.056  1.00  0.00     0.146 A 
ATOM     11  O   UNL     1      17.494 -10.101   7.419  1.00  0.00    -0.452 OA
ENDROOT
BRANCH   1  12
ATOM     12  C   UNL     1      16.617  -7.979   8.147  1.00  0.00     0.025 A 
ATOM     13  C   UNL     1      15.673  -7.020   7.747  1.00  0.00     0.016 A 
ATOM     14  C   UNL     1      15.825  -5.680   8.116  1.00  0.00     0.051 A 
ATOM     15  C   UNL     1      16.913  -5.282   8.902  1.00  0.00     0.157 A 
ATOM     16  C   UNL     1      17.698  -7.579   8.954  1.00  0.00     0.062 A 
ATOM     17  C   UNL     1      17.851  -6.238   9.327  1.00  0.00     0.158 A 
BRANCH  15  18
ATOM     18  O   UNL     1      17.062  -3.946   9.267  1.00  0.00    -0.504 OA
ATOM     19  H   UNL     1      17.373  -3.245   8.605  1.00  0.00     0.293 HD
ENDBRANCH  15  18
BRANCH  17  20
ATOM     20  O   UNL     1      18.938  -5.878  10.123  1.00  0.00    -0.504 OA
ATOM     21  H   UNL     1      19.543  -6.567  10.551  1.00  0.00     0.293 HD
ENDBRANCH  17  20
ENDBRANCH   1  12
BRANCH   2  22
ATOM     22  O   UNL     1      14.029  -9.281   8.156  1.00  0.00    -0.502 OA
ATOM     23  H   UNL     1      13.173  -9.732   8.457  1.00  0.00     0.293 HD
ENDBRANCH   2  22
BRANCH   6  24
ATOM     24  O   UNL     1      15.103 -14.294   6.713  1.00  0.00    -0.507 OA
ATOM     25  H   UNL     1      14.646 -14.690   5.905  1.00  0.00     0.293 HD
ENDBRANCH   6  24
BRANCH   8  26
ATOM     26  O   UNL     1      19.819 -13.947   5.885  1.00  0.00    -0.508 OA
ATOM     27  H   UNL     1      19.941 -14.326   4.953  1.00  0.00     0.293 HD
ENDBRANCH   8  26
TORSDOF 6
ENDMDL
MODEL 8
REMARK VINA RESULT:    -4.734     11.197     13.595
REMARK INTER + INTRA:          -6.026
REMARK INTER:                  -5.737
REMARK INTRA:                  -0.289
REMARK UNBOUND:                -0.323
REMARK SMILES O=c1c(O)c(-c2ccc(O)c(O)c2)oc2cc(O)cc(O)c12
REMARK SMILES IDX 5 1 3 2 2 3 1 4 22 5 20 6 19 7 17 8 16 9 15 10 14 11 6 12
REMARK SMILES IDX 7 13 8 14 9 15 13 16 11 17 10 18 12 20 4 22 21 24 18 26
REMARK H PARENT 10 19 12 21 4 23 21 25 18 27
REMARK Flexibility Score: inf
ROOT
ATOM      1  C   UNL     1      13.957 -16.789  14.143  1.00  0.00     0.180 A 
ATOM      2  C   UNL     1      13.794 -17.646  15.245  1.00  0.00     0.208 A 
ATOM      3  C   UNL     1      13.323 -17.114  16.456  1.00  0.00     0.238 A 
ATOM      4  O   UNL     1      13.251 -17.872  17.459  1.00  0.00    -0.285 OA
ATOM      5  C   UNL     1      12.968 -15.746  16.535  1.00  0.00     0.111 A 
ATOM      6  C   UNL     1      12.437 -15.111  17.700  1.00  0.00     0.134 A 
ATOM      7  C   UNL     1      12.222 -13.726  17.693  1.00  0.00     0.093 A 
ATOM      8  C   UNL     1      12.456 -12.966  16.545  1.00  0.00     0.123 A 
ATOM      9  C   UNL     1      12.922 -13.586  15.389  1.00  0.00     0.094 A 
ATOM     10  C   UNL     1      13.183 -14.957  15.375  1.00  0.00     0.146 A 
ATOM     11  O   UNL     1      13.646 -15.503  14.256  1.00  0.00    -0.452 OA
ENDROOT
BRANCH   1  12
ATOM     12  C   UNL     1      14.462 -17.271  12.837  1.00  0.00     0.025 A 
ATOM     13  C   UNL     1      15.813 -17.078  12.507  1.00  0.00     0.016 A 
ATOM     14  C   UNL     1      16.317 -17.543  11.289  1.00  0.00     0.051 A 
ATOM     15  C   UNL     1      15.482 -18.219  10.391  1.00  0.00     0.157 A 
ATOM     16  C   UNL     1      13.631 -17.968  11.942  1.00  0.00     0.062 A 
ATOM     17  C   UNL     1      14.134 -18.437  10.722  1.00  0.00     0.158 A 
BRANCH  15  18
ATOM     18  O   UNL     1      15.987 -18.680   9.176  1.00  0.00    -0.504 OA
ATOM     19  H   UNL     1      16.982 -18.794   9.023  1.00  0.00     0.293 HD
ENDBRANCH  15  18
BRANCH  17  20
ATOM     20  O   UNL     1      13.280 -19.119   9.855  1.00  0.00    -0.504 OA
ATOM     21  H   UNL     1      12.857 -20.005  10.104  1.00  0.00     0.293 HD
ENDBRANCH  17  20
ENDBRANCH   1  12
BRANCH   2  22
ATOM     22  O   UNL     1      14.079 -19.008  15.124  1.00  0.00    -0.502 OA
ATOM     23  H   UNL     1      14.527 -19.399  14.304  1.00  0.00     0.293 HD
ENDBRANCH   2  22
BRANCH   6  24
ATOM     24  O   UNL     1      12.084 -15.789  18.870  1.00  0.00    -0.507 OA
ATOM     25  H   UNL     1      11.788 -15.348  19.728  1.00  0.00     0.293 HD
ENDBRANCH   6  24
BRANCH   8  26
ATOM     26  O   UNL     1      12.223 -11.592  16.543  1.00  0.00    -0.508 OA
ATOM     27  H   UNL     1      12.980 -10.926  16.449  1.00  0.00     0.293 HD
ENDBRANCH   8  26
TORSDOF 6
ENDMDL
MODEL 9
REMARK VINA RESULT:    -4.434      1.581      3.186
REMARK INTER + INTRA:          -5.665
REMARK INTER:                  -5.593
REMARK INTRA:                  -0.072
REMARK UNBOUND:                -0.323
REMARK SMILES O=c1c(O)c(-c2ccc(O)c(O)c2)oc2cc(O)cc(O)c12
REMARK SMILES IDX 5 1 3 2 2 3 1 4 22 5 20 6 19 7 17 8 16 9 15 10 14 11 6 12
REMARK SMILES IDX 7 13 8 14 9 15 13 16 11 17 10 18 12 20 4 22 21 24 18 26
REMARK H PARENT 10 19 12 21 4 23 21 25 18 27
REMARK Flexibility Score: inf
ROOT
ATOM      1  C   UNL     1      15.531  -6.789   7.773  1.00  0.00     0.180 A 
ATOM      2  C   UNL     1      14.246  -7.299   7.522  1.00  0.00     0.208 A 
ATOM      3  C   UNL     1      14.076  -8.687   7.406  1.00  0.00     0.238 A 
ATOM      4  O   UNL     1      12.937  -9.132   7.107  1.00  0.00    -0.285 OA
ATOM      5  C   UNL     1      15.180  -9.552   7.600  1.00  0.00     0.111 A 
ATOM      6  C   UNL     1      15.113 -10.979   7.551  1.00  0.00     0.134 A 
ATOM      7  C   UNL     1      16.292 -11.729   7.652  1.00  0.00     0.093 A 
ATOM      8  C   UNL     1      17.525 -11.108   7.865  1.00  0.00     0.123 A 
ATOM      9  C   UNL     1      17.592  -9.721   7.968  1.00  0.00     0.094 A 
ATOM     10  C   UNL     1      16.441  -8.943   7.832  1.00  0.00     0.146 A 
ATOM     11  O   UNL     1      16.554  -7.623   7.918  1.00  0.00    -0.452 OA
ENDROOT
BRANCH   1  12
ATOM     12  C   UNL     1      15.794  -5.337   7.892  1.00  0.00     0.025 A 
ATOM     13  C   UNL     1      15.448  -4.484   6.833  1.00  0.00     0.016 A 
ATOM     14  C   UNL     1      15.668  -3.107   6.932  1.00  0.00     0.051 A 
ATOM     15  C   UNL     1      16.223  -2.562   8.096  1.00  0.00     0.157 A 
ATOM     16  C   UNL     1      16.333  -4.784   9.068  1.00  0.00     0.062 A 
ATOM     17  C   UNL     1      16.552  -3.404   9.170  1.00  0.00     0.158 A 
BRANCH  15  18
ATOM     18  O   UNL     1      16.443  -1.189   8.190  1.00  0.00    -0.504 OA
ATOM     19  H   UNL     1      17.112  -0.715   7.595  1.00  0.00     0.293 HD
ENDBRANCH  15  18
BRANCH  17  20
ATOM     20  O   UNL     1      17.094  -2.891  10.349  1.00  0.00    -0.504 OA
ATOM     21  H   UNL     1      16.649  -3.026  11.249  1.00  0.00     0.293 HD
ENDBRANCH  17  20
ENDBRANCH   1  12
BRANCH   2  22
ATOM     22  O   UNL     1      13.156  -6.433   7.409  1.00  0.00    -0.502 OA
ATOM     23  H   UNL     1      13.038  -5.625   8.010  1.00  0.00     0.293 HD
ENDBRANCH   2  22
BRANCH   6  24
ATOM     24  O   UNL     1      13.924 -11.703   7.431  1.00  0.00    -0.507 OA
ATOM     25  H   UNL     1      13.111 -11.400   6.917  1.00  0.00     0.293 HD
ENDBRANCH   6  24
BRANCH   8  26
ATOM     26  O   UNL     1      18.690 -11.863   7.981  1.00  0.00    -0.508 OA
ATOM     27  H   UNL     1      19.092 -12.083   8.885  1.00  0.00     0.293 HD
ENDBRANCH   8  26
TORSDOF 6
ENDMDL
