MODEL 1
REMARK VINA RESULT:     3.158      0.000      0.000
REMARK INTER + INTRA:           7.014
REMARK INTER:                   8.326
REMARK INTRA:                  -1.312
REMARK UNBOUND:                -1.312
REMARK SMILES CCCCCCCCCCCCCCCCCCCCCCCCCCCCCC(=O)[O-]
REMARK SMILES IDX 16 1 17 2 18 3 19 4 20 5 21 6 22 7 23 8 24 9 25 10 26 11
REMARK SMILES IDX 27 12 28 13 29 14 30 15 31 16 32 17 15 18 14 19 13 20 12 21
REMARK SMILES IDX 11 22 10 23 9 24 8 25 7 26 6 27 5 28 4 29 3 30 2 31 1 32
REMARK H PARENT
REMARK Flexibility Score: inf
ROOT
ATOM      1  C   UNL     1       4.484 -35.672  22.386  1.00  0.00     0.000 C 
ENDROOT
BRANCH   1   2
ATOM      2  C   UNL     1       5.766 -36.242  23.026  1.00  0.00     0.000 C 
BRANCH   2   3
ATOM      3  C   UNL     1       5.808 -37.786  23.009  1.00  0.00     0.000 C 
BRANCH   3   4
ATOM      4  C   UNL     1       5.224 -38.421  21.735  1.00  0.00     0.000 C 
BRANCH   4   5
ATOM      5  C   UNL     1       4.719 -39.854  21.958  1.00  0.00     0.000 C 
BRANCH   5   6
ATOM      6  C   UNL     1       5.849 -40.857  22.266  1.00  0.00     0.000 C 
BRANCH   6   7
ATOM      7  C   UNL     1       5.524 -41.929  23.323  1.00  0.00     0.000 C 
BRANCH   7   8
ATOM      8  C   UNL     1       5.505 -41.380  24.760  1.00  0.00     0.000 C 
BRANCH   8   9
ATOM      9  C   UNL     1       4.640 -40.116  24.901  1.00  0.00     0.000 C 
BRANCH   9  10
ATOM     10  C   UNL     1       5.133 -39.099  25.946  1.00  0.00     0.000 C 
BRANCH  10  11
ATOM     11  C   UNL     1       4.298 -37.801  25.994  1.00  0.00     0.000 C 
BRANCH  11  12
ATOM     12  C   UNL     1       2.918 -38.016  26.637  1.00  0.00     0.000 C 
BRANCH  12  13
ATOM     13  C   UNL     1       2.710 -37.158  27.897  1.00  0.00     0.006 C 
BRANCH  13  14
ATOM     14  C   UNL     1       1.354 -36.418  27.917  1.00  0.00     0.053 C 
BRANCH  14  15
ATOM     15  C   UNL     1       1.282 -35.339  28.963  1.00  0.00     0.041 C 
ATOM     16  O   UNL     1       2.339 -34.945  29.524  1.00  0.00    -0.550 OA
ATOM     17  O   UNL     1       0.081 -34.707  29.259  1.00  0.00    -0.550 OA
ENDBRANCH  14  15
ENDBRANCH  13  14
ENDBRANCH  12  13
ENDBRANCH  11  12
ENDBRANCH  10  11
ENDBRANCH   9  10
ENDBRANCH   8   9
ENDBRANCH   7   8
ENDBRANCH   6   7
ENDBRANCH   5   6
ENDBRANCH   4   5
ENDBRANCH   3   4
ENDBRANCH   2   3
ENDBRANCH   1   2
BRANCH   1  18
ATOM     18  C   UNL     1       4.768 -34.876  21.102  1.00  0.00     0.000 C 
BRANCH  18  19
ATOM     19  C   UNL     1       5.836 -35.537  20.215  1.00  0.00     0.000 C 
BRANCH  19  20
ATOM     20  C   UNL     1       5.790 -35.048  18.755  1.00  0.00     0.000 C 
BRANCH  20  21
ATOM     21  C   UNL     1       4.438 -35.243  18.044  1.00  0.00     0.000 C 
BRANCH  21  22
ATOM     22  C   UNL     1       4.233 -36.672  17.521  1.00  0.00     0.000 C 
BRANCH  22  23
ATOM     23  C   UNL     1       4.159 -37.675  18.680  1.00  0.00     0.000 C 
BRANCH  23  24
ATOM     24  C   UNL     1       2.817 -37.564  19.420  1.00  0.00    -0.000 C 
BRANCH  24  25
ATOM     25  C   UNL     1       1.997 -38.865  19.355  1.00  0.00    -0.000 C 
BRANCH  25  26
ATOM     26  C   UNL     1       0.575 -38.641  18.813  1.00  0.00    -0.000 C 
BRANCH  26  27
ATOM     27  C   UNL     1       0.516 -37.518  17.765  1.00  0.00    -0.000 C 
BRANCH  27  28
ATOM     28  C   UNL     1       1.341 -37.833  16.508  1.00  0.00    -0.000 C 
BRANCH  28  29
ATOM     29  C   UNL     1       1.624 -36.559  15.703  1.00  0.00    -0.000 C 
BRANCH  29  30
ATOM     30  C   UNL     1       2.262 -36.895  14.349  1.00  0.00    -0.000 C 
BRANCH  30  31
ATOM     31  C   UNL     1       2.761 -38.344  14.320  1.00  0.00    -0.003 C 
ATOM     32  C   UNL     1       4.276 -38.404  14.146  1.00  0.00     0.004 C 
ENDBRANCH  30  31
ENDBRANCH  29  30
ENDBRANCH  28  29
ENDBRANCH  27  28
ENDBRANCH  26  27
ENDBRANCH  25  26
ENDBRANCH  24  25
ENDBRANCH  23  24
ENDBRANCH  22  23
ENDBRANCH  21  22
ENDBRANCH  20  21
ENDBRANCH  19  20
ENDBRANCH  18  19
ENDBRANCH   1  18
TORSDOF 28
ENDMDL
MODEL 2
REMARK VINA RESULT:     3.184      1.071      2.137
REMARK INTER + INTRA:           7.084
REMARK INTER:                   7.381
REMARK INTRA:                  -0.297
REMARK UNBOUND:                -1.312
REMARK SMILES CCCCCCCCCCCCCCCCCCCCCCCCCCCCCC(=O)[O-]
REMARK SMILES IDX 16 1 17 2 18 3 19 4 20 5 21 6 22 7 23 8 24 9 25 10 26 11
REMARK SMILES IDX 27 12 28 13 29 14 30 15 31 16 32 17 15 18 14 19 13 20 12 21
REMARK SMILES IDX 11 22 10 23 9 24 8 25 7 26 6 27 5 28 4 29 3 30 2 31 1 32
REMARK H PARENT
REMARK Flexibility Score: inf
ROOT
ATOM      1  C   UNL     1       6.054 -37.029  23.137  1.00  0.00     0.000 C 
ENDROOT
BRANCH   1   2
ATOM      2  C   UNL     1       5.009 -38.008  22.566  1.00  0.00     0.000 C 
BRANCH   2   3
ATOM      3  C   UNL     1       5.643 -39.150  21.744  1.00  0.00     0.000 C 
BRANCH   3   4
ATOM      4  C   UNL     1       5.021 -40.534  21.999  1.00  0.00     0.000 C 
BRANCH   4   5
ATOM      5  C   UNL     1       6.069 -41.654  22.091  1.00  0.00     0.000 C 
BRANCH   5   6
ATOM      6  C   UNL     1       5.904 -42.541  23.341  1.00  0.00     0.000 C 
BRANCH   6   7
ATOM      7  C   UNL     1       5.691 -41.794  24.671  1.00  0.00     0.000 C 
BRANCH   7   8
ATOM      8  C   UNL     1       4.982 -40.439  24.501  1.00  0.00     0.000 C 
BRANCH   8   9
ATOM      9  C   UNL     1       4.912 -39.637  25.811  1.00  0.00     0.000 C 
BRANCH   9  10
ATOM     10  C   UNL     1       3.817 -38.555  25.859  1.00  0.00     0.000 C 
BRANCH  10  11
ATOM     11  C   UNL     1       3.702 -37.846  27.226  1.00  0.00     0.000 C 
BRANCH  11  12
ATOM     12  C   UNL     1       2.276 -37.908  27.798  1.00  0.00     0.000 C 
BRANCH  12  13
ATOM     13  C   UNL     1       1.511 -36.584  27.627  1.00  0.00     0.006 C 
BRANCH  13  14
ATOM     14  C   UNL     1       2.082 -35.431  28.482  1.00  0.00     0.053 C 
BRANCH  14  15
ATOM     15  C   UNL     1       1.109 -34.913  29.506  1.00  0.00     0.041 C 
ATOM     16  O   UNL     1      -0.092 -34.719  29.182  1.00  0.00    -0.550 OA
ATOM     17  O   UNL     1       1.493 -34.726  30.828  1.00  0.00    -0.550 OA
ENDBRANCH  14  15
ENDBRANCH  13  14
ENDBRANCH  12  13
ENDBRANCH  11  12
ENDBRANCH  10  11
ENDBRANCH   9  10
ENDBRANCH   8   9
ENDBRANCH   7   8
ENDBRANCH   6   7
ENDBRANCH   5   6
ENDBRANCH   4   5
ENDBRANCH   3   4
ENDBRANCH   2   3
ENDBRANCH   1   2
BRANCH   1  18
ATOM     18  C   UNL     1       5.659 -35.557  22.932  1.00  0.00     0.000 C 
BRANCH  18  19
ATOM     19  C   UNL     1       4.826 -35.335  21.658  1.00  0.00     0.000 C 
BRANCH  19  20
ATOM     20  C   UNL     1       5.504 -35.893  20.392  1.00  0.00     0.000 C 
BRANCH  20  21
ATOM     21  C   UNL     1       4.564 -36.119  19.194  1.00  0.00     0.000 C 
BRANCH  21  22
ATOM     22  C   UNL     1       4.044 -37.561  19.100  1.00  0.00     0.000 C 
BRANCH  22  23
ATOM     23  C   UNL     1       2.589 -37.652  19.579  1.00  0.00     0.000 C 
BRANCH  23  24
ATOM     24  C   UNL     1       1.757 -38.549  18.649  1.00  0.00    -0.000 C 
BRANCH  24  25
ATOM     25  C   UNL     1       2.181 -38.427  17.174  1.00  0.00    -0.000 C 
BRANCH  25  26
ATOM     26  C   UNL     1       1.794 -37.072  16.558  1.00  0.00    -0.000 C 
BRANCH  26  27
ATOM     27  C   UNL     1       2.918 -36.475  15.696  1.00  0.00    -0.000 C 
BRANCH  27  28
ATOM     28  C   UNL     1       2.936 -37.040  14.268  1.00  0.00    -0.000 C 
BRANCH  28  29
ATOM     29  C   UNL     1       4.174 -37.917  14.040  1.00  0.00    -0.000 C 
BRANCH  29  30
ATOM     30  C   UNL     1       3.791 -39.400  13.966  1.00  0.00    -0.000 C 
BRANCH  30  31
ATOM     31  C   UNL     1       5.038 -40.287  13.876  1.00  0.00    -0.003 C 
ATOM     32  C   UNL     1       4.872 -41.561  14.699  1.00  0.00     0.004 C 
ENDBRANCH  30  31
ENDBRANCH  29  30
ENDBRANCH  28  29
ENDBRANCH  27  28
ENDBRANCH  26  27
ENDBRANCH  25  26
ENDBRANCH  24  25
ENDBRANCH  23  24
ENDBRANCH  22  23
ENDBRANCH  21  22
ENDBRANCH  20  21
ENDBRANCH  19  20
ENDBRANCH  18  19
ENDBRANCH   1  18
TORSDOF 28
ENDMDL
MODEL 3
REMARK VINA RESULT:     3.690      0.892      2.156
REMARK INTER + INTRA:           8.417
REMARK INTER:                  10.152
REMARK INTRA:                  -1.735
REMARK UNBOUND:                -1.312
REMARK SMILES CCCCCCCCCCCCCCCCCCCCCCCCCCCCCC(=O)[O-]
REMARK SMILES IDX 16 1 17 2 18 3 19 4 20 5 21 6 22 7 23 8 24 9 25 10 26 11
REMARK SMILES IDX 27 12 28 13 29 14 30 15 31 16 32 17 15 18 14 19 13 20 12 21
REMARK SMILES IDX 11 22 10 23 9 24 8 25 7 26 6 27 5 28 4 29 3 30 2 31 1 32
REMARK H PARENT
REMARK Flexibility Score: inf
ROOT
ATOM      1  C   UNL     1       3.878 -38.397  22.814  1.00  0.00     0.000 C 
ENDROOT
BRANCH   1   2
ATOM      2  C   UNL     1       4.007 -39.706  22.009  1.00  0.00     0.000 C 
BRANCH   2   3
ATOM      3  C   UNL     1       5.388 -39.863  21.338  1.00  0.00     0.000 C 
BRANCH   3   4
ATOM      4  C   UNL     1       6.125 -41.163  21.704  1.00  0.00     0.000 C 
BRANCH   4   5
ATOM      5  C   UNL     1       5.240 -42.155  22.476  1.00  0.00     0.000 C 
BRANCH   5   6
ATOM      6  C   UNL     1       5.954 -42.795  23.683  1.00  0.00     0.000 C 
BRANCH   6   7
ATOM      7  C   UNL     1       5.778 -42.067  25.029  1.00  0.00     0.000 C 
BRANCH   7   8
ATOM      8  C   UNL     1       4.943 -40.779  24.919  1.00  0.00     0.000 C 
BRANCH   8   9
ATOM      9  C   UNL     1       5.041 -39.900  26.178  1.00  0.00     0.000 C 
BRANCH   9  10
ATOM     10  C   UNL     1       5.445 -38.435  25.924  1.00  0.00     0.000 C 
BRANCH  10  11
ATOM     11  C   UNL     1       4.319 -37.419  26.214  1.00  0.00     0.000 C 
BRANCH  11  12
ATOM     12  C   UNL     1       2.967 -38.103  26.471  1.00  0.00     0.000 C 
BRANCH  12  13
ATOM     13  C   UNL     1       2.251 -37.552  27.717  1.00  0.00     0.006 C 
BRANCH  13  14
ATOM     14  C   UNL     1       2.436 -36.031  27.908  1.00  0.00     0.053 C 
BRANCH  14  15
ATOM     15  C   UNL     1       1.454 -35.429  28.876  1.00  0.00     0.041 C 
ATOM     16  O   UNL     1       0.219 -35.520  28.646  1.00  0.00    -0.550 OA
ATOM     17  O   UNL     1       1.882 -34.852  30.064  1.00  0.00    -0.550 OA
ENDBRANCH  14  15
ENDBRANCH  13  14
ENDBRANCH  12  13
ENDBRANCH  11  12
ENDBRANCH  10  11
ENDBRANCH   9  10
ENDBRANCH   8   9
ENDBRANCH   7   8
ENDBRANCH   6   7
ENDBRANCH   5   6
ENDBRANCH   4   5
ENDBRANCH   3   4
ENDBRANCH   2   3
ENDBRANCH   1   2
BRANCH   1  18
ATOM     18  C   UNL     1       5.214 -37.650  22.946  1.00  0.00     0.000 C 
BRANCH  18  19
ATOM     19  C   UNL     1       5.085 -36.144  22.660  1.00  0.00     0.000 C 
BRANCH  19  20
ATOM     20  C   UNL     1       6.124 -35.635  21.643  1.00  0.00     0.000 C 
BRANCH  20  21
ATOM     21  C   UNL     1       6.030 -36.269  20.242  1.00  0.00     0.000 C 
BRANCH  21  22
ATOM     22  C   UNL     1       5.923 -35.229  19.116  1.00  0.00     0.000 C 
BRANCH  22  23
ATOM     23  C   UNL     1       4.455 -34.931  18.783  1.00  0.00     0.000 C 
BRANCH  23  24
ATOM     24  C   UNL     1       4.002 -35.714  17.541  1.00  0.00    -0.000 C 
BRANCH  24  25
ATOM     25  C   UNL     1       4.037 -37.238  17.756  1.00  0.00    -0.000 C 
BRANCH  25  26
ATOM     26  C   UNL     1       3.075 -37.701  18.863  1.00  0.00    -0.000 C 
BRANCH  26  27
ATOM     27  C   UNL     1       1.625 -37.824  18.367  1.00  0.00    -0.000 C 
BRANCH  27  28
ATOM     28  C   UNL     1       1.534 -38.210  16.884  1.00  0.00    -0.000 C 
BRANCH  28  29
ATOM     29  C   UNL     1       1.393 -36.964  16.000  1.00  0.00    -0.000 C 
BRANCH  29  30
ATOM     30  C   UNL     1       1.980 -37.210  14.604  1.00  0.00    -0.000 C 
BRANCH  30  31
ATOM     31  C   UNL     1       3.488 -37.479  14.681  1.00  0.00    -0.003 C 
ATOM     32  C   UNL     1       3.810 -38.927  14.328  1.00  0.00     0.004 C 
ENDBRANCH  30  31
ENDBRANCH  29  30
ENDBRANCH  28  29
ENDBRANCH  27  28
ENDBRANCH  26  27
ENDBRANCH  25  26
ENDBRANCH  24  25
ENDBRANCH  23  24
ENDBRANCH  22  23
ENDBRANCH  21  22
ENDBRANCH  20  21
ENDBRANCH  19  20
ENDBRANCH  18  19
ENDBRANCH   1  18
TORSDOF 28
ENDMDL
MODEL 4
REMARK VINA RESULT:     4.395      4.073      9.942
REMARK INTER + INTRA:          10.276
REMARK INTER:                   9.641
REMARK INTRA:                   0.636
REMARK UNBOUND:                -1.312
REMARK SMILES CCCCCCCCCCCCCCCCCCCCCCCCCCCCCC(=O)[O-]
REMARK SMILES IDX 16 1 17 2 18 3 19 4 20 5 21 6 22 7 23 8 24 9 25 10 26 11
REMARK SMILES IDX 27 12 28 13 29 14 30 15 31 16 32 17 15 18 14 19 13 20 12 21
REMARK SMILES IDX 11 22 10 23 9 24 8 25 7 26 6 27 5 28 4 29 3 30 2 31 1 32
REMARK H PARENT
REMARK Flexibility Score: inf
ROOT
ATOM      1  C   UNL     1       5.018 -38.179  22.334  1.00  0.00     0.000 C 
ENDROOT
BRANCH   1   2
ATOM      2  C   UNL     1       6.024 -37.224  23.005  1.00  0.00     0.000 C 
BRANCH   2   3
ATOM      3  C   UNL     1       5.338 -36.114  23.829  1.00  0.00     0.000 C 
BRANCH   3   4
ATOM      4  C   UNL     1       5.356 -34.727  23.160  1.00  0.00     0.000 C 
BRANCH   4   5
ATOM      5  C   UNL     1       4.348 -34.607  22.006  1.00  0.00     0.000 C 
BRANCH   5   6
ATOM      6  C   UNL     1       4.730 -35.452  20.775  1.00  0.00     0.000 C 
BRANCH   6   7
ATOM      7  C   UNL     1       5.646 -34.763  19.747  1.00  0.00     0.000 C 
BRANCH   7   8
ATOM      8  C   UNL     1       5.421 -35.253  18.305  1.00  0.00     0.000 C 
BRANCH   8   9
ATOM      9  C   UNL     1       4.064 -35.952  18.122  1.00  0.00     0.000 C 
BRANCH   9  10
ATOM     10  C   UNL     1       4.007 -37.412  18.610  1.00  0.00     0.000 C 
BRANCH  10  11
ATOM     11  C   UNL     1       2.951 -38.272  17.883  1.00  0.00     0.000 C 
BRANCH  11  12
ATOM     12  C   UNL     1       1.825 -37.423  17.273  1.00  0.00     0.000 C 
BRANCH  12  13
ATOM     13  C   UNL     1       1.580 -37.742  15.787  1.00  0.00     0.006 C 
BRANCH  13  14
ATOM     14  C   UNL     1       2.563 -37.025  14.836  1.00  0.00     0.053 C 
BRANCH  14  15
ATOM     15  C   UNL     1       3.672 -37.915  14.345  1.00  0.00     0.041 C 
ATOM     16  O   UNL     1       4.721 -37.401  13.875  1.00  0.00    -0.550 OA
ATOM     17  O   UNL     1       3.594 -39.295  14.480  1.00  0.00    -0.550 OA
ENDBRANCH  14  15
ENDBRANCH  13  14
ENDBRANCH  12  13
ENDBRANCH  11  12
ENDBRANCH  10  11
ENDBRANCH   9  10
ENDBRANCH   8   9
ENDBRANCH   7   8
ENDBRANCH   6   7
ENDBRANCH   5   6
ENDBRANCH   4   5
ENDBRANCH   3   4
ENDBRANCH   2   3
ENDBRANCH   1   2
BRANCH   1  18
ATOM     18  C   UNL     1       5.705 -39.263  21.488  1.00  0.00     0.000 C 
BRANCH  18  19
ATOM     19  C   UNL     1       5.076 -40.654  21.676  1.00  0.00     0.000 C 
BRANCH  19  20
ATOM     20  C   UNL     1       6.125 -41.775  21.803  1.00  0.00     0.000 C 
BRANCH  20  21
ATOM     21  C   UNL     1       5.866 -42.785  22.937  1.00  0.00     0.000 C 
BRANCH  21  22
ATOM     22  C   UNL     1       5.799 -42.130  24.324  1.00  0.00     0.000 C 
BRANCH  22  23
ATOM     23  C   UNL     1       5.174 -40.731  24.241  1.00  0.00     0.000 C 
BRANCH  23  24
ATOM     24  C   UNL     1       4.881 -40.174  25.642  1.00  0.00    -0.000 C 
BRANCH  24  25
ATOM     25  C   UNL     1       5.160 -38.664  25.750  1.00  0.00    -0.000 C 
BRANCH  25  26
ATOM     26  C   UNL     1       3.936 -37.869  26.235  1.00  0.00    -0.000 C 
BRANCH  26  27
ATOM     27  C   UNL     1       3.060 -38.675  27.208  1.00  0.00    -0.000 C 
BRANCH  27  28
ATOM     28  C   UNL     1       1.901 -37.850  27.786  1.00  0.00    -0.000 C 
BRANCH  28  29
ATOM     29  C   UNL     1       2.267 -36.362  27.856  1.00  0.00    -0.000 C 
BRANCH  29  30
ATOM     30  C   UNL     1       1.149 -35.551  28.523  1.00  0.00    -0.000 C 
BRANCH  30  31
ATOM     31  C   UNL     1       1.726 -34.491  29.469  1.00  0.00    -0.003 C 
ATOM     32  C   UNL     1       1.528 -34.887  30.929  1.00  0.00     0.004 C 
ENDBRANCH  30  31
ENDBRANCH  29  30
ENDBRANCH  28  29
ENDBRANCH  27  28
ENDBRANCH  26  27
ENDBRANCH  25  26
ENDBRANCH  24  25
ENDBRANCH  23  24
ENDBRANCH  22  23
ENDBRANCH  21  22
ENDBRANCH  20  21
ENDBRANCH  19  20
ENDBRANCH  18  19
ENDBRANCH   1  18
TORSDOF 28
ENDMDL
MODEL 5
REMARK VINA RESULT:     4.564      2.764      9.233
REMARK INTER + INTRA:          10.721
REMARK INTER:                   9.282
REMARK INTRA:                   1.439
REMARK UNBOUND:                -1.312
REMARK SMILES CCCCCCCCCCCCCCCCCCCCCCCCCCCCCC(=O)[O-]
REMARK SMILES IDX 16 1 17 2 18 3 19 4 20 5 21 6 22 7 23 8 24 9 25 10 26 11
REMARK SMILES IDX 27 12 28 13 29 14 30 15 31 16 32 17 15 18 14 19 13 20 12 21
REMARK SMILES IDX 11 22 10 23 9 24 8 25 7 26 6 27 5 28 4 29 3 30 2 31 1 32
REMARK H PARENT
REMARK Flexibility Score: inf
ROOT
ATOM      1  C   UNL     1       5.077 -37.792  22.689  1.00  0.00     0.000 C 
ENDROOT
BRANCH   1   2
ATOM      2  C   UNL     1       6.055 -36.708  23.183  1.00  0.00     0.000 C 
BRANCH   2   3
ATOM      3  C   UNL     1       5.336 -35.439  23.691  1.00  0.00     0.000 C 
BRANCH   3   4
ATOM      4  C   UNL     1       4.978 -34.430  22.586  1.00  0.00     0.000 C 
BRANCH   4   5
ATOM      5  C   UNL     1       3.807 -34.896  21.707  1.00  0.00     0.000 C 
BRANCH   5   6
ATOM      6  C   UNL     1       4.247 -35.800  20.538  1.00  0.00     0.000 C 
BRANCH   6   7
ATOM      7  C   UNL     1       5.628 -35.489  19.932  1.00  0.00     0.000 C 
BRANCH   7   8
ATOM      8  C   UNL     1       5.581 -35.213  18.419  1.00  0.00     0.000 C 
BRANCH   8   9
ATOM      9  C   UNL     1       4.148 -35.201  17.862  1.00  0.00     0.000 C 
BRANCH   9  10
ATOM     10  C   UNL     1       3.656 -36.543  17.288  1.00  0.00     0.000 C 
BRANCH  10  11
ATOM     11  C   UNL     1       3.282 -36.480  15.791  1.00  0.00     0.000 C 
BRANCH  11  12
ATOM     12  C   UNL     1       1.870 -37.023  15.519  1.00  0.00     0.000 C 
BRANCH  12  13
ATOM     13  C   UNL     1       1.144 -37.460  16.804  1.00  0.00     0.006 C 
BRANCH  13  14
ATOM     14  C   UNL     1       2.063 -38.190  17.808  1.00  0.00     0.053 C 
BRANCH  14  15
ATOM     15  C   UNL     1       1.372 -38.544  19.097  1.00  0.00     0.041 C 
ATOM     16  O   UNL     1       0.123 -38.419  19.187  1.00  0.00    -0.550 OA
ATOM     17  O   UNL     1       2.079 -39.089  20.162  1.00  0.00    -0.550 OA
ENDBRANCH  14  15
ENDBRANCH  13  14
ENDBRANCH  12  13
ENDBRANCH  11  12
ENDBRANCH  10  11
ENDBRANCH   9  10
ENDBRANCH   8   9
ENDBRANCH   7   8
ENDBRANCH   6   7
ENDBRANCH   5   6
ENDBRANCH   4   5
ENDBRANCH   3   4
ENDBRANCH   2   3
ENDBRANCH   1   2
BRANCH   1  18
ATOM     18  C   UNL     1       5.739 -38.791  21.727  1.00  0.00     0.000 C 
BRANCH  18  19
ATOM     19  C   UNL     1       5.091 -40.185  21.776  1.00  0.00     0.000 C 
BRANCH  19  20
ATOM     20  C   UNL     1       6.125 -41.326  21.824  1.00  0.00     0.000 C 
BRANCH  20  21
ATOM     21  C   UNL     1       5.863 -42.399  22.898  1.00  0.00     0.000 C 
BRANCH  21  22
ATOM     22  C   UNL     1       5.763 -41.819  24.316  1.00  0.00     0.000 C 
BRANCH  22  23
ATOM     23  C   UNL     1       4.970 -40.506  24.318  1.00  0.00     0.000 C 
BRANCH  23  24
ATOM     24  C   UNL     1       4.643 -40.061  25.752  1.00  0.00    -0.000 C 
BRANCH  24  25
ATOM     25  C   UNL     1       5.233 -38.681  26.092  1.00  0.00    -0.000 C 
BRANCH  25  26
ATOM     26  C   UNL     1       4.151 -37.601  26.262  1.00  0.00    -0.000 C 
BRANCH  26  27
ATOM     27  C   UNL     1       2.766 -38.198  26.564  1.00  0.00    -0.000 C 
BRANCH  27  28
ATOM     28  C   UNL     1       2.170 -37.679  27.880  1.00  0.00    -0.000 C 
BRANCH  28  29
ATOM     29  C   UNL     1       2.115 -36.146  27.891  1.00  0.00    -0.000 C 
BRANCH  29  30
ATOM     30  C   UNL     1       1.848 -35.615  29.305  1.00  0.00    -0.000 C 
BRANCH  30  31
ATOM     31  C   UNL     1       0.835 -34.464  29.280  1.00  0.00    -0.003 C 
ATOM     32  C   UNL     1      -0.597 -34.987  29.322  1.00  0.00     0.004 C 
ENDBRANCH  30  31
ENDBRANCH  29  30
ENDBRANCH  28  29
ENDBRANCH  27  28
ENDBRANCH  26  27
ENDBRANCH  25  26
ENDBRANCH  24  25
ENDBRANCH  23  24
ENDBRANCH  22  23
ENDBRANCH  21  22
ENDBRANCH  20  21
ENDBRANCH  19  20
ENDBRANCH  18  19
ENDBRANCH   1  18
TORSDOF 28
ENDMDL
MODEL 6
REMARK VINA RESULT:     4.738      0.719      2.413
REMARK INTER + INTRA:          11.181
REMARK INTER:                  11.696
REMARK INTRA:                  -0.515
REMARK UNBOUND:                -1.312
REMARK SMILES CCCCCCCCCCCCCCCCCCCCCCCCCCCCCC(=O)[O-]
REMARK SMILES IDX 16 1 17 2 18 3 19 4 20 5 21 6 22 7 23 8 24 9 25 10 26 11
REMARK SMILES IDX 27 12 28 13 29 14 30 15 31 16 32 17 15 18 14 19 13 20 12 21
REMARK SMILES IDX 11 22 10 23 9 24 8 25 7 26 6 27 5 28 4 29 3 30 2 31 1 32
REMARK H PARENT
REMARK Flexibility Score: inf
ROOT
ATOM      1  C   UNL     1       4.252 -35.677  22.379  1.00  0.00     0.000 C 
ENDROOT
BRANCH   1   2
ATOM      2  C   UNL     1       5.669 -35.995  22.898  1.00  0.00     0.000 C 
BRANCH   2   3
ATOM      3  C   UNL     1       6.040 -37.486  22.754  1.00  0.00     0.000 C 
BRANCH   3   4
ATOM      4  C   UNL     1       5.418 -38.177  21.528  1.00  0.00     0.000 C 
BRANCH   4   5
ATOM      5  C   UNL     1       4.614 -39.435  21.893  1.00  0.00     0.000 C 
BRANCH   5   6
ATOM      6  C   UNL     1       5.497 -40.681  22.107  1.00  0.00     0.000 C 
BRANCH   6   7
ATOM      7  C   UNL     1       5.201 -41.502  23.376  1.00  0.00     0.000 C 
BRANCH   7   8
ATOM      8  C   UNL     1       5.449 -40.720  24.678  1.00  0.00     0.000 C 
BRANCH   8   9
ATOM      9  C   UNL     1       4.436 -39.581  24.888  1.00  0.00     0.000 C 
BRANCH   9  10
ATOM     10  C   UNL     1       4.866 -38.500  25.897  1.00  0.00     0.000 C 
BRANCH  10  11
ATOM     11  C   UNL     1       3.734 -37.525  26.285  1.00  0.00     0.000 C 
BRANCH  11  12
ATOM     12  C   UNL     1       2.589 -38.225  27.035  1.00  0.00     0.000 C 
BRANCH  12  13
ATOM     13  C   UNL     1       1.622 -37.232  27.703  1.00  0.00     0.006 C 
BRANCH  13  14
ATOM     14  C   UNL     1       2.335 -36.022  28.348  1.00  0.00     0.053 C 
BRANCH  14  15
ATOM     15  C   UNL     1       1.421 -35.176  29.192  1.00  0.00     0.041 C 
ATOM     16  O   UNL     1       0.198 -35.101  28.903  1.00  0.00    -0.550 OA
ATOM     17  O   UNL     1       1.888 -34.543  30.337  1.00  0.00    -0.550 OA
ENDBRANCH  14  15
ENDBRANCH  13  14
ENDBRANCH  12  13
ENDBRANCH  11  12
ENDBRANCH  10  11
ENDBRANCH   9  10
ENDBRANCH   8   9
ENDBRANCH   7   8
ENDBRANCH   6   7
ENDBRANCH   5   6
ENDBRANCH   4   5
ENDBRANCH   3   4
ENDBRANCH   2   3
ENDBRANCH   1   2
BRANCH   1  18
ATOM     18  C   UNL     1       4.260 -35.089  20.959  1.00  0.00     0.000 C 
BRANCH  18  19
ATOM     19  C   UNL     1       5.610 -35.275  20.245  1.00  0.00     0.000 C 
BRANCH  19  20
ATOM     20  C   UNL     1       5.507 -35.112  18.716  1.00  0.00     0.000 C 
BRANCH  20  21
ATOM     21  C   UNL     1       4.252 -35.735  18.077  1.00  0.00     0.000 C 
BRANCH  21  22
ATOM     22  C   UNL     1       3.858 -37.079  18.707  1.00  0.00     0.000 C 
BRANCH  22  23
ATOM     23  C   UNL     1       3.662 -38.153  17.629  1.00  0.00     0.000 C 
BRANCH  23  24
ATOM     24  C   UNL     1       4.104 -37.638  16.251  1.00  0.00    -0.000 C 
BRANCH  24  25
ATOM     25  C   UNL     1       3.408 -38.374  15.092  1.00  0.00    -0.000 C 
BRANCH  25  26
ATOM     26  C   UNL     1       2.868 -37.413  14.020  1.00  0.00    -0.000 C 
BRANCH  26  27
ATOM     27  C   UNL     1       1.471 -36.870  14.367  1.00  0.00    -0.000 C 
BRANCH  27  28
ATOM     28  C   UNL     1       1.306 -36.569  15.864  1.00  0.00    -0.000 C 
BRANCH  28  29
ATOM     29  C   UNL     1       0.482 -37.662  16.557  1.00  0.00    -0.000 C 
BRANCH  29  30
ATOM     30  C   UNL     1       0.451 -37.447  18.075  1.00  0.00    -0.000 C 
BRANCH  30  31
ATOM     31  C   UNL     1       0.571 -38.781  18.822  1.00  0.00    -0.003 C 
ATOM     32  C   UNL     1       1.351 -38.618  20.123  1.00  0.00     0.004 C 
ENDBRANCH  30  31
ENDBRANCH  29  30
ENDBRANCH  28  29
ENDBRANCH  27  28
ENDBRANCH  26  27
ENDBRANCH  25  26
ENDBRANCH  24  25
ENDBRANCH  23  24
ENDBRANCH  22  23
ENDBRANCH  21  22
ENDBRANCH  20  21
ENDBRANCH  19  20
ENDBRANCH  18  19
ENDBRANCH   1  18
TORSDOF 28
ENDMDL
MODEL 7
REMARK VINA RESULT:     4.813      1.002      2.675
REMARK INTER + INTRA:          11.378
REMARK INTER:                  11.814
REMARK INTRA:                  -0.435
REMARK UNBOUND:                -1.312
REMARK SMILES CCCCCCCCCCCCCCCCCCCCCCCCCCCCCC(=O)[O-]
REMARK SMILES IDX 16 1 17 2 18 3 19 4 20 5 21 6 22 7 23 8 24 9 25 10 26 11
REMARK SMILES IDX 27 12 28 13 29 14 30 15 31 16 32 17 15 18 14 19 13 20 12 21
REMARK SMILES IDX 11 22 10 23 9 24 8 25 7 26 6 27 5 28 4 29 3 30 2 31 1 32
REMARK H PARENT
REMARK Flexibility Score: inf
ROOT
ATOM      1  C   UNL     1       4.700 -37.132  22.871  1.00  0.00     0.000 C 
ENDROOT
BRANCH   1   2
ATOM      2  C   UNL     1       5.663 -38.211  22.337  1.00  0.00     0.000 C 
BRANCH   2   3
ATOM      3  C   UNL     1       4.987 -39.589  22.172  1.00  0.00     0.000 C 
BRANCH   3   4
ATOM      4  C   UNL     1       5.956 -40.730  21.814  1.00  0.00     0.000 C 
BRANCH   4   5
ATOM      5  C   UNL     1       5.785 -41.963  22.715  1.00  0.00     0.000 C 
BRANCH   5   6
ATOM      6  C   UNL     1       5.756 -41.621  24.218  1.00  0.00     0.000 C 
BRANCH   6   7
ATOM      7  C   UNL     1       4.776 -40.508  24.632  1.00  0.00     0.000 C 
BRANCH   7   8
ATOM      8  C   UNL     1       5.217 -39.747  25.895  1.00  0.00     0.000 C 
BRANCH   8   9
ATOM      9  C   UNL     1       5.072 -38.223  25.751  1.00  0.00     0.000 C 
BRANCH   9  10
ATOM     10  C   UNL     1       3.712 -37.650  26.190  1.00  0.00     0.000 C 
BRANCH  10  11
ATOM     11  C   UNL     1       2.894 -38.604  27.088  1.00  0.00     0.000 C 
BRANCH  11  12
ATOM     12  C   UNL     1       1.632 -37.934  27.655  1.00  0.00     0.000 C 
BRANCH  12  13
ATOM     13  C   UNL     1       1.723 -36.398  27.651  1.00  0.00     0.006 C 
BRANCH  13  14
ATOM     14  C   UNL     1       2.072 -35.802  29.033  1.00  0.00     0.053 C 
BRANCH  14  15
ATOM     15  C   UNL     1       1.076 -34.778  29.507  1.00  0.00     0.041 C 
ATOM     16  O   UNL     1       1.466 -33.813  30.216  1.00  0.00    -0.550 OA
ATOM     17  O   UNL     1      -0.252 -34.830  29.102  1.00  0.00    -0.550 OA
ENDBRANCH  14  15
ENDBRANCH  13  14
ENDBRANCH  12  13
ENDBRANCH  11  12
ENDBRANCH  10  11
ENDBRANCH   9  10
ENDBRANCH   8   9
ENDBRANCH   7   8
ENDBRANCH   6   7
ENDBRANCH   5   6
ENDBRANCH   4   5
ENDBRANCH   3   4
ENDBRANCH   2   3
ENDBRANCH   1   2
BRANCH   1  18
ATOM     18  C   UNL     1       5.004 -35.735  22.305  1.00  0.00     0.000 C 
BRANCH  18  19
ATOM     19  C   UNL     1       6.101 -35.756  21.226  1.00  0.00     0.000 C 
BRANCH  19  20
ATOM     20  C   UNL     1       5.557 -36.092  19.824  1.00  0.00     0.000 C 
BRANCH  20  21
ATOM     21  C   UNL     1       5.858 -35.041  18.739  1.00  0.00     0.000 C 
BRANCH  21  22
ATOM     22  C   UNL     1       4.625 -34.666  17.904  1.00  0.00     0.000 C 
BRANCH  22  23
ATOM     23  C   UNL     1       3.809 -35.914  17.540  1.00  0.00     0.000 C 
BRANCH  23  24
ATOM     24  C   UNL     1       3.493 -35.946  16.037  1.00  0.00    -0.000 C 
BRANCH  24  25
ATOM     25  C   UNL     1       2.721 -37.211  15.621  1.00  0.00    -0.000 C 
BRANCH  25  26
ATOM     26  C   UNL     1       1.289 -37.240  16.183  1.00  0.00    -0.000 C 
BRANCH  26  27
ATOM     27  C   UNL     1       1.040 -38.451  17.096  1.00  0.00    -0.000 C 
BRANCH  27  28
ATOM     28  C   UNL     1       0.047 -38.148  18.228  1.00  0.00    -0.000 C 
BRANCH  28  29
ATOM     29  C   UNL     1       0.635 -38.533  19.592  1.00  0.00    -0.000 C 
BRANCH  29  30
ATOM     30  C   UNL     1       1.894 -37.711  19.900  1.00  0.00    -0.000 C 
BRANCH  30  31
ATOM     31  C   UNL     1       3.122 -38.618  20.039  1.00  0.00    -0.003 C 
ATOM     32  C   UNL     1       3.987 -38.574  18.783  1.00  0.00     0.004 C 
ENDBRANCH  30  31
ENDBRANCH  29  30
ENDBRANCH  28  29
ENDBRANCH  27  28
ENDBRANCH  26  27
ENDBRANCH  25  26
ENDBRANCH  24  25
ENDBRANCH  23  24
ENDBRANCH  22  23
ENDBRANCH  21  22
ENDBRANCH  20  21
ENDBRANCH  19  20
ENDBRANCH  18  19
ENDBRANCH   1  18
TORSDOF 28
ENDMDL
MODEL 8
REMARK VINA RESULT:     4.932      1.213      2.893
REMARK INTER + INTRA:          11.694
REMARK INTER:                  12.471
REMARK INTRA:                  -0.777
REMARK UNBOUND:                -1.312
REMARK SMILES CCCCCCCCCCCCCCCCCCCCCCCCCCCCCC(=O)[O-]
REMARK SMILES IDX 16 1 17 2 18 3 19 4 20 5 21 6 22 7 23 8 24 9 25 10 26 11
REMARK SMILES IDX 27 12 28 13 29 14 30 15 31 16 32 17 15 18 14 19 13 20 12 21
REMARK SMILES IDX 11 22 10 23 9 24 8 25 7 26 6 27 5 28 4 29 3 30 2 31 1 32
REMARK H PARENT
REMARK Flexibility Score: inf
ROOT
ATOM      1  C   UNL     1       4.849 -37.165  23.408  1.00  0.00     0.000 C 
ENDROOT
BRANCH   1   2
ATOM      2  C   UNL     1       5.796 -38.135  22.673  1.00  0.00     0.000 C 
BRANCH   2   3
ATOM      3  C   UNL     1       5.047 -39.112  21.741  1.00  0.00     0.000 C 
BRANCH   3   4
ATOM      4  C   UNL     1       5.747 -40.471  21.557  1.00  0.00     0.000 C 
BRANCH   4   5
ATOM      5  C   UNL     1       5.090 -41.597  22.370  1.00  0.00     0.000 C 
BRANCH   5   6
ATOM      6  C   UNL     1       6.006 -42.166  23.472  1.00  0.00     0.000 C 
BRANCH   6   7
ATOM      7  C   UNL     1       5.784 -41.600  24.887  1.00  0.00     0.000 C 
BRANCH   7   8
ATOM      8  C   UNL     1       5.020 -40.264  24.895  1.00  0.00     0.000 C 
BRANCH   8   9
ATOM      9  C   UNL     1       5.074 -39.557  26.260  1.00  0.00     0.000 C 
BRANCH   9  10
ATOM     10  C   UNL     1       4.200 -38.295  26.379  1.00  0.00     0.000 C 
BRANCH  10  11
ATOM     11  C   UNL     1       2.684 -38.586  26.390  1.00  0.00     0.000 C 
BRANCH  11  12
ATOM     12  C   UNL     1       2.037 -38.266  27.747  1.00  0.00     0.000 C 
BRANCH  12  13
ATOM     13  C   UNL     1       1.352 -36.888  27.767  1.00  0.00     0.006 C 
BRANCH  13  14
ATOM     14  C   UNL     1       2.183 -35.801  28.486  1.00  0.00     0.053 C 
BRANCH  14  15
ATOM     15  C   UNL     1       1.378 -34.988  29.463  1.00  0.00     0.041 C 
ATOM     16  O   UNL     1       0.151 -34.799  29.253  1.00  0.00    -0.550 OA
ATOM     17  O   UNL     1       1.946 -34.514  30.639  1.00  0.00    -0.550 OA
ENDBRANCH  14  15
ENDBRANCH  13  14
ENDBRANCH  12  13
ENDBRANCH  11  12
ENDBRANCH  10  11
ENDBRANCH   9  10
ENDBRANCH   8   9
ENDBRANCH   7   8
ENDBRANCH   6   7
ENDBRANCH   5   6
ENDBRANCH   4   5
ENDBRANCH   3   4
ENDBRANCH   2   3
ENDBRANCH   1   2
BRANCH   1  18
ATOM     18  C   UNL     1       5.586 -36.271  24.418  1.00  0.00     0.000 C 
BRANCH  18  19
ATOM     19  C   UNL     1       6.071 -34.949  23.800  1.00  0.00     0.000 C 
BRANCH  19  20
ATOM     20  C   UNL     1       6.124 -34.989  22.261  1.00  0.00     0.000 C 
BRANCH  20  21
ATOM     21  C   UNL     1       4.950 -34.291  21.550  1.00  0.00     0.000 C 
BRANCH  21  22
ATOM     22  C   UNL     1       3.800 -35.248  21.203  1.00  0.00     0.000 C 
BRANCH  22  23
ATOM     23  C   UNL     1       4.276 -36.355  20.253  1.00  0.00     0.000 C 
BRANCH  23  24
ATOM     24  C   UNL     1       5.590 -35.961  19.562  1.00  0.00    -0.000 C 
BRANCH  24  25
ATOM     25  C   UNL     1       5.398 -35.626  18.072  1.00  0.00    -0.000 C 
BRANCH  25  26
ATOM     26  C   UNL     1       4.025 -34.996  17.780  1.00  0.00    -0.000 C 
BRANCH  26  27
ATOM     27  C   UNL     1       3.242 -35.765  16.703  1.00  0.00    -0.000 C 
BRANCH  27  28
ATOM     28  C   UNL     1       3.660 -37.240  16.604  1.00  0.00    -0.000 C 
BRANCH  28  29
ATOM     29  C   UNL     1       2.430 -38.156  16.547  1.00  0.00    -0.000 C 
BRANCH  29  30
ATOM     30  C   UNL     1       1.229 -37.507  17.246  1.00  0.00    -0.000 C 
BRANCH  30  31
ATOM     31  C   UNL     1       0.684 -38.411  18.358  1.00  0.00    -0.003 C 
ATOM     32  C   UNL     1       1.785 -38.806  19.338  1.00  0.00     0.004 C 
ENDBRANCH  30  31
ENDBRANCH  29  30
ENDBRANCH  28  29
ENDBRANCH  27  28
ENDBRANCH  26  27
ENDBRANCH  25  26
ENDBRANCH  24  25
ENDBRANCH  23  24
ENDBRANCH  22  23
ENDBRANCH  21  22
ENDBRANCH  20  21
ENDBRANCH  19  20
ENDBRANCH  18  19
ENDBRANCH   1  18
TORSDOF 28
ENDMDL
