MODEL 1
REMARK VINA RESULT:    -3.085      0.000      0.000
REMARK INTER + INTRA:          -3.149
REMARK INTER:                  -3.626
REMARK INTRA:                   0.477
REMARK UNBOUND:                 0.477
REMARK SMILES O=c1c(O)c(-c2ccc(O)cc2)oc2cc(O)cc(O)c12
REMARK SMILES IDX 5 1 3 2 2 3 1 4 21 5 19 6 18 7 16 8 15 9 14 10 13 11 6 12
REMARK SMILES IDX 7 13 8 14 9 15 12 16 11 17 10 18 4 20 20 22 17 24
REMARK H PARENT 10 19 4 21 20 23 17 25
REMARK Flexibility Score: inf
ROOT
ATOM      1  C   UNL     1      48.618   6.745  67.010  1.00  0.00     0.180 A 
ATOM      2  C   UNL     1      47.505   7.572  67.240  1.00  0.00     0.208 A 
ATOM      3  C   UNL     1      46.293   6.987  67.642  1.00  0.00     0.238 A 
ATOM      4  O   UNL     1      45.286   7.728  67.793  1.00  0.00    -0.285 OA
ATOM      5  C   UNL     1      46.213   5.586  67.824  1.00  0.00     0.111 A 
ATOM      6  C   UNL     1      45.049   4.892  68.268  1.00  0.00     0.134 A 
ATOM      7  C   UNL     1      45.044   3.491  68.289  1.00  0.00     0.093 A 
ATOM      8  C   UNL     1      46.183   2.763  67.945  1.00  0.00     0.123 A 
ATOM      9  C   UNL     1      47.347   3.433  67.566  1.00  0.00     0.094 A 
ATOM     10  C   UNL     1      47.369   4.829  67.501  1.00  0.00     0.146 A 
ATOM     11  O   UNL     1      48.494   5.428  67.126  1.00  0.00    -0.452 OA
ENDROOT
BRANCH   1  12
ATOM     12  C   UNL     1      49.935   7.290  66.609  1.00  0.00     0.021 A 
ATOM     13  C   UNL     1      51.076   6.473  66.695  1.00  0.00     0.016 A 
ATOM     14  C   UNL     1      52.333   6.974  66.343  1.00  0.00     0.047 A 
ATOM     15  C   UNL     1      52.469   8.299  65.917  1.00  0.00     0.115 A 
ATOM     16  C   UNL     1      50.082   8.627  66.198  1.00  0.00     0.016 A 
ATOM     17  C   UNL     1      51.341   9.125  65.847  1.00  0.00     0.047 A 
BRANCH  15  18
ATOM     18  O   UNL     1      53.728   8.783  65.569  1.00  0.00    -0.508 OA
ATOM     19  H   UNL     1      54.108   9.621  65.994  1.00  0.00     0.293 HD
ENDBRANCH  15  18
ENDBRANCH   1  12
BRANCH   2  20
ATOM     20  O   UNL     1      47.599   8.952  67.031  1.00  0.00    -0.502 OA
ATOM     21  H   UNL     1      47.496   9.623  67.782  1.00  0.00     0.293 HD
ENDBRANCH   2  20
BRANCH   6  22
ATOM     22  O   UNL     1      43.888   5.526  68.723  1.00  0.00    -0.507 OA
ATOM     23  H   UNL     1      43.040   5.050  68.990  1.00  0.00     0.293 HD
ENDBRANCH   6  22
BRANCH   8  24
ATOM     24  O   UNL     1      46.148   1.371  67.991  1.00  0.00    -0.508 OA
ATOM     25  H   UNL     1      45.495   0.877  68.589  1.00  0.00     0.293 HD
ENDBRANCH   8  24
TORSDOF 5
ENDMDL
MODEL 2
REMARK VINA RESULT:    -3.020      1.600      3.132
REMARK INTER + INTRA:          -3.073
REMARK INTER:                  -3.225
REMARK INTRA:                   0.152
REMARK UNBOUND:                 0.477
REMARK SMILES O=c1c(O)c(-c2ccc(O)cc2)oc2cc(O)cc(O)c12
REMARK SMILES IDX 5 1 3 2 2 3 1 4 21 5 19 6 18 7 16 8 15 9 14 10 13 11 6 12
REMARK SMILES IDX 7 13 8 14 9 15 12 16 11 17 10 18 4 20 20 22 17 24
REMARK H PARENT 10 19 4 21 20 23 17 25
REMARK Flexibility Score: inf
ROOT
ATOM      1  C   UNL     1      48.221   6.278  67.529  1.00  0.00     0.180 A 
ATOM      2  C   UNL     1      47.816   5.029  67.024  1.00  0.00     0.208 A 
ATOM      3  C   UNL     1      46.625   4.457  67.498  1.00  0.00     0.238 A 
ATOM      4  O   UNL     1      46.296   3.315  67.082  1.00  0.00    -0.285 OA
ATOM      5  C   UNL     1      45.846   5.145  68.459  1.00  0.00     0.111 A 
ATOM      6  C   UNL     1      44.603   4.678  68.979  1.00  0.00     0.134 A 
ATOM      7  C   UNL     1      43.982   5.378  70.021  1.00  0.00     0.093 A 
ATOM      8  C   UNL     1      44.526   6.563  70.517  1.00  0.00     0.123 A 
ATOM      9  C   UNL     1      45.712   7.061  69.974  1.00  0.00     0.094 A 
ATOM     10  C   UNL     1      46.372   6.365  68.959  1.00  0.00     0.146 A 
ATOM     11  O   UNL     1      47.503   6.867  68.477  1.00  0.00    -0.452 OA
ENDROOT
BRANCH   1  12
ATOM     12  C   UNL     1      49.451   6.956  67.059  1.00  0.00     0.021 A 
ATOM     13  C   UNL     1      49.411   8.330  66.761  1.00  0.00     0.016 A 
ATOM     14  C   UNL     1      50.554   8.986  66.295  1.00  0.00     0.047 A 
ATOM     15  C   UNL     1      51.745   8.278  66.106  1.00  0.00     0.115 A 
ATOM     16  C   UNL     1      50.647   6.246  66.849  1.00  0.00     0.016 A 
ATOM     17  C   UNL     1      51.788   6.905  66.382  1.00  0.00     0.047 A 
BRANCH  15  18
ATOM     18  O   UNL     1      52.875   8.945  65.642  1.00  0.00    -0.508 OA
ATOM     19  H   UNL     1      52.832   9.566  64.841  1.00  0.00     0.293 HD
ENDBRANCH  15  18
ENDBRANCH   1  12
BRANCH   2  20
ATOM     20  O   UNL     1      48.612   4.356  66.092  1.00  0.00    -0.502 OA
ATOM     21  H   UNL     1      49.438   3.835  66.359  1.00  0.00     0.293 HD
ENDBRANCH   2  20
BRANCH   6  22
ATOM     22  O   UNL     1      43.925   3.555  68.492  1.00  0.00    -0.507 OA
ATOM     23  H   UNL     1      44.362   2.783  68.013  1.00  0.00     0.293 HD
ENDBRANCH   6  22
BRANCH   8  24
ATOM     24  O   UNL     1      43.875   7.241  71.544  1.00  0.00    -0.508 OA
ATOM     25  H   UNL     1      44.297   7.348  72.459  1.00  0.00     0.293 HD
ENDBRANCH   8  24
TORSDOF 5
ENDMDL
MODEL 3
REMARK VINA RESULT:    -2.393      1.642      2.063
REMARK INTER + INTRA:          -2.336
REMARK INTER:                  -2.159
REMARK INTRA:                  -0.177
REMARK UNBOUND:                 0.477
REMARK SMILES O=c1c(O)c(-c2ccc(O)cc2)oc2cc(O)cc(O)c12
REMARK SMILES IDX 5 1 3 2 2 3 1 4 21 5 19 6 18 7 16 8 15 9 14 10 13 11 6 12
REMARK SMILES IDX 7 13 8 14 9 15 12 16 11 17 10 18 4 20 20 22 17 24
REMARK H PARENT 10 19 4 21 20 23 17 25
REMARK Flexibility Score: inf
ROOT
ATOM      1  C   UNL     1      47.948   6.405  67.869  1.00  0.00     0.180 A 
ATOM      2  C   UNL     1      47.403   6.766  69.114  1.00  0.00     0.208 A 
ATOM      3  C   UNL     1      46.235   6.124  69.557  1.00  0.00     0.238 A 
ATOM      4  O   UNL     1      45.721   6.491  70.646  1.00  0.00    -0.285 OA
ATOM      5  C   UNL     1      45.637   5.119  68.760  1.00  0.00     0.111 A 
ATOM      6  C   UNL     1      44.476   4.376  69.129  1.00  0.00     0.134 A 
ATOM      7  C   UNL     1      43.896   3.497  68.206  1.00  0.00     0.093 A 
ATOM      8  C   UNL     1      44.471   3.286  66.953  1.00  0.00     0.123 A 
ATOM      9  C   UNL     1      45.640   3.963  66.604  1.00  0.00     0.094 A 
ATOM     10  C   UNL     1      46.222   4.873  67.490  1.00  0.00     0.146 A 
ATOM     11  O   UNL     1      47.328   5.505  67.115  1.00  0.00    -0.452 OA
ENDROOT
BRANCH   1  12
ATOM     12  C   UNL     1      49.191   7.017  67.346  1.00  0.00     0.021 A 
ATOM     13  C   UNL     1      49.170   8.351  66.903  1.00  0.00     0.016 A 
ATOM     14  C   UNL     1      50.326   8.942  66.385  1.00  0.00     0.047 A 
ATOM     15  C   UNL     1      51.511   8.207  66.289  1.00  0.00     0.115 A 
ATOM     16  C   UNL     1      50.381   6.277  67.229  1.00  0.00     0.016 A 
ATOM     17  C   UNL     1      51.536   6.871  66.709  1.00  0.00     0.047 A 
BRANCH  15  18
ATOM     18  O   UNL     1      52.655   8.810  65.771  1.00  0.00    -0.508 OA
ATOM     19  H   UNL     1      53.445   9.042  66.362  1.00  0.00     0.293 HD
ENDBRANCH  15  18
ENDBRANCH   1  12
BRANCH   2  20
ATOM     20  O   UNL     1      47.997   7.777  69.875  1.00  0.00    -0.502 OA
ATOM     21  H   UNL     1      48.452   8.578  69.453  1.00  0.00     0.293 HD
ENDBRANCH   2  20
BRANCH   6  22
ATOM     22  O   UNL     1      43.875   4.443  70.390  1.00  0.00    -0.507 OA
ATOM     23  H   UNL     1      44.323   4.793  71.223  1.00  0.00     0.293 HD
ENDBRANCH   6  22
BRANCH   8  24
ATOM     24  O   UNL     1      43.875   2.393  66.066  1.00  0.00    -0.508 OA
ATOM     25  H   UNL     1      44.405   1.649  65.627  1.00  0.00     0.293 HD
ENDBRANCH   8  24
TORSDOF 5
ENDMDL
