MODEL 1
REMARK VINA RESULT:    -3.652      0.000      0.000
REMARK INTER + INTRA:          -7.091
REMARK INTER:                  -5.788
REMARK INTRA:                  -1.303
REMARK UNBOUND:                -1.303
REMARK SMILES CCCCCCCCCCCC(=O)[O-]
REMARK SMILES IDX 7 1 8 2 9 3 10 4 11 5 12 6 13 7 14 8 6 9 5 10 4 11 3 12 2 13
REMARK SMILES IDX 1 14
REMARK H PARENT
REMARK Flexibility Score: inf
ROOT
ATOM      1  C   UNL     1     129.910 143.701 120.242  1.00  0.00     0.000 C 
ENDROOT
BRANCH   1   2
ATOM      2  C   UNL     1     131.123 144.604 119.988  1.00  0.00     0.000 C 
BRANCH   2   3
ATOM      3  C   UNL     1     130.686 146.050 119.724  1.00  0.00     0.000 C 
BRANCH   3   4
ATOM      4  C   UNL     1     131.637 147.044 120.406  1.00  0.00     0.006 C 
BRANCH   4   5
ATOM      5  C   UNL     1     132.703 146.339 121.256  1.00  0.00     0.053 C 
BRANCH   5   6
ATOM      6  C   UNL     1     134.076 146.512 120.682  1.00  0.00     0.041 C 
ATOM      7  O   UNL     1     134.285 146.285 119.462  1.00  0.00    -0.550 OA
ATOM      8  O   UNL     1     135.117 146.958 121.488  1.00  0.00    -0.550 OA
ENDBRANCH   5   6
ENDBRANCH   4   5
ENDBRANCH   3   4
ENDBRANCH   2   3
ENDBRANCH   1   2
BRANCH   1   9
ATOM      9  C   UNL     1     128.933 143.745 119.062  1.00  0.00     0.000 C 
BRANCH   9  10
ATOM     10  C   UNL     1     127.513 144.086 119.535  1.00  0.00    -0.000 C 
BRANCH  10  11
ATOM     11  C   UNL     1     127.100 145.533 119.210  1.00  0.00    -0.000 C 
BRANCH  11  12
ATOM     12  C   UNL     1     126.914 146.446 120.435  1.00  0.00    -0.000 C 
BRANCH  12  13
ATOM     13  C   UNL     1     127.172 145.724 121.766  1.00  0.00    -0.003 C 
ATOM     14  C   UNL     1     128.322 146.373 122.530  1.00  0.00     0.004 C 
ENDBRANCH  12  13
ENDBRANCH  11  12
ENDBRANCH  10  11
ENDBRANCH   9  10
ENDBRANCH   1   9
TORSDOF 10
ENDMDL
MODEL 2
REMARK VINA RESULT:    -3.538      1.013      2.528
REMARK INTER + INTRA:          -6.910
REMARK INTER:                  -5.447
REMARK INTRA:                  -1.463
REMARK UNBOUND:                -1.303
REMARK SMILES CCCCCCCCCCCC(=O)[O-]
REMARK SMILES IDX 7 1 8 2 9 3 10 4 11 5 12 6 13 7 14 8 6 9 5 10 4 11 3 12 2 13
REMARK SMILES IDX 1 14
REMARK H PARENT
REMARK Flexibility Score: inf
ROOT
ATOM      1  C   UNL     1     129.428 145.183 122.881  1.00  0.00     0.000 C 
ENDROOT
BRANCH   1   2
ATOM      2  C   UNL     1     130.687 145.213 122.006  1.00  0.00     0.000 C 
BRANCH   2   3
ATOM      3  C   UNL     1     130.761 146.510 121.192  1.00  0.00     0.000 C 
BRANCH   3   4
ATOM      4  C   UNL     1     131.439 146.269 119.835  1.00  0.00     0.006 C 
BRANCH   4   5
ATOM      5  C   UNL     1     132.714 145.425 119.964  1.00  0.00     0.053 C 
BRANCH   5   6
ATOM      6  C   UNL     1     133.945 146.279 119.995  1.00  0.00     0.041 C 
ATOM      7  O   UNL     1     134.313 146.820 121.070  1.00  0.00    -0.550 OA
ATOM      8  O   UNL     1     134.704 146.448 118.843  1.00  0.00    -0.550 OA
ENDBRANCH   5   6
ENDBRANCH   4   5
ENDBRANCH   3   4
ENDBRANCH   2   3
ENDBRANCH   1   2
BRANCH   1   9
ATOM      9  C   UNL     1     128.446 146.286 122.471  1.00  0.00     0.000 C 
BRANCH   9  10
ATOM     10  C   UNL     1     127.213 145.695 121.773  1.00  0.00    -0.000 C 
BRANCH  10  11
ATOM     11  C   UNL     1     126.917 146.354 120.413  1.00  0.00    -0.000 C 
BRANCH  11  12
ATOM     12  C   UNL     1     127.421 145.570 119.188  1.00  0.00    -0.000 C 
BRANCH  12  13
ATOM     13  C   UNL     1     127.530 144.060 119.446  1.00  0.00    -0.003 C 
ATOM     14  C   UNL     1     128.939 143.552 119.154  1.00  0.00     0.004 C 
ENDBRANCH  12  13
ENDBRANCH  11  12
ENDBRANCH  10  11
ENDBRANCH   9  10
ENDBRANCH   1   9
TORSDOF 10
ENDMDL
MODEL 3
REMARK VINA RESULT:    -3.445      4.234      6.051
REMARK INTER + INTRA:          -6.763
REMARK INTER:                  -6.028
REMARK INTRA:                  -0.735
REMARK UNBOUND:                -1.303
REMARK SMILES CCCCCCCCCCCC(=O)[O-]
REMARK SMILES IDX 7 1 8 2 9 3 10 4 11 5 12 6 13 7 14 8 6 9 5 10 4 11 3 12 2 13
REMARK SMILES IDX 1 14
REMARK H PARENT
REMARK Flexibility Score: inf
ROOT
ATOM      1  C   UNL     1     128.797 142.487 120.173  1.00  0.00     0.000 C 
ENDROOT
BRANCH   1   2
ATOM      2  C   UNL     1     128.894 143.723 119.271  1.00  0.00     0.000 C 
BRANCH   2   3
ATOM      3  C   UNL     1     127.557 144.471 119.217  1.00  0.00     0.000 C 
BRANCH   3   4
ATOM      4  C   UNL     1     127.715 145.916 119.712  1.00  0.00     0.006 C 
BRANCH   4   5
ATOM      5  C   UNL     1     126.879 146.194 120.969  1.00  0.00     0.053 C 
BRANCH   5   6
ATOM      6  C   UNL     1     127.670 145.977 122.222  1.00  0.00     0.041 C 
ATOM      7  O   UNL     1     128.701 146.663 122.447  1.00  0.00    -0.550 OA
ATOM      8  O   UNL     1     127.249 145.040 123.158  1.00  0.00    -0.550 OA
ENDBRANCH   5   6
ENDBRANCH   4   5
ENDBRANCH   3   4
ENDBRANCH   2   3
ENDBRANCH   1   2
BRANCH   1   9
ATOM      9  C   UNL     1     127.388 142.340 120.757  1.00  0.00     0.000 C 
BRANCH   9  10
ATOM     10  C   UNL     1     126.876 140.900 120.605  1.00  0.00    -0.000 C 
BRANCH  10  11
ATOM     11  C   UNL     1     127.915 139.956 119.973  1.00  0.00    -0.000 C 
BRANCH  11  12
ATOM     12  C   UNL     1     127.532 138.465 119.989  1.00  0.00    -0.000 C 
BRANCH  12  13
ATOM     13  C   UNL     1     127.655 137.799 118.610  1.00  0.00    -0.003 C 
ATOM     14  C   UNL     1     129.096 137.383 118.328  1.00  0.00     0.004 C 
ENDBRANCH  12  13
ENDBRANCH  11  12
ENDBRANCH  10  11
ENDBRANCH   9  10
ENDBRANCH   1   9
TORSDOF 10
ENDMDL
MODEL 4
REMARK VINA RESULT:    -3.425      2.586      4.673
REMARK INTER + INTRA:          -6.731
REMARK INTER:                  -5.605
REMARK INTRA:                  -1.127
REMARK UNBOUND:                -1.303
REMARK SMILES CCCCCCCCCCCC(=O)[O-]
REMARK SMILES IDX 7 1 8 2 9 3 10 4 11 5 12 6 13 7 14 8 6 9 5 10 4 11 3 12 2 13
REMARK SMILES IDX 1 14
REMARK H PARENT
REMARK Flexibility Score: inf
ROOT
ATOM      1  C   UNL     1     127.160 145.383 119.135  1.00  0.00     0.000 C 
ENDROOT
BRANCH   1   2
ATOM      2  C   UNL     1     126.985 146.302 120.350  1.00  0.00     0.000 C 
BRANCH   2   3
ATOM      3  C   UNL     1     127.287 145.553 121.654  1.00  0.00     0.000 C 
BRANCH   3   4
ATOM      4  C   UNL     1     127.613 146.536 122.788  1.00  0.00     0.006 C 
BRANCH   4   5
ATOM      5  C   UNL     1     127.949 145.817 124.102  1.00  0.00     0.053 C 
BRANCH   5   6
ATOM      6  C   UNL     1     129.267 146.262 124.658  1.00  0.00     0.041 C 
ATOM      7  O   UNL     1     129.952 147.125 124.049  1.00  0.00    -0.550 OA
ATOM      8  O   UNL     1     129.722 145.748 125.866  1.00  0.00    -0.550 OA
ENDBRANCH   5   6
ENDBRANCH   4   5
ENDBRANCH   3   4
ENDBRANCH   2   3
ENDBRANCH   1   2
BRANCH   1   9
ATOM      9  C   UNL     1     127.697 144.010 119.555  1.00  0.00     0.000 C 
BRANCH   9  10
ATOM     10  C   UNL     1     129.092 143.759 118.965  1.00  0.00    -0.000 C 
BRANCH  10  11
ATOM     11  C   UNL     1     130.177 143.575 120.042  1.00  0.00    -0.000 C 
BRANCH  11  12
ATOM     12  C   UNL     1     131.277 144.652 120.046  1.00  0.00    -0.000 C 
BRANCH  12  13
ATOM     13  C   UNL     1     130.730 146.067 120.290  1.00  0.00    -0.003 C 
ATOM     14  C   UNL     1     131.439 147.090 119.408  1.00  0.00     0.004 C 
ENDBRANCH  12  13
ENDBRANCH  11  12
ENDBRANCH  10  11
ENDBRANCH   9  10
ENDBRANCH   1   9
TORSDOF 10
ENDMDL
MODEL 5
REMARK VINA RESULT:    -3.417      3.594      5.330
REMARK INTER + INTRA:          -6.719
REMARK INTER:                  -5.473
REMARK INTRA:                  -1.246
REMARK UNBOUND:                -1.303
REMARK SMILES CCCCCCCCCCCC(=O)[O-]
REMARK SMILES IDX 7 1 8 2 9 3 10 4 11 5 12 6 13 7 14 8 6 9 5 10 4 11 3 12 2 13
REMARK SMILES IDX 1 14
REMARK H PARENT
REMARK Flexibility Score: inf
ROOT
ATOM      1  C   UNL     1     127.057 145.323 120.638  1.00  0.00     0.000 C 
ENDROOT
BRANCH   1   2
ATOM      2  C   UNL     1     126.875 146.705 121.275  1.00  0.00     0.000 C 
BRANCH   2   3
ATOM      3  C   UNL     1     127.404 146.722 122.714  1.00  0.00     0.000 C 
BRANCH   3   4
ATOM      4  C   UNL     1     127.892 145.329 123.136  1.00  0.00     0.006 C 
BRANCH   4   5
ATOM      5  C   UNL     1     128.160 145.239 124.645  1.00  0.00     0.053 C 
BRANCH   5   6
ATOM      6  C   UNL     1     128.249 143.818 125.110  1.00  0.00     0.041 C 
ATOM      7  O   UNL     1     128.905 143.531 126.145  1.00  0.00    -0.550 OA
ATOM      8  O   UNL     1     127.579 142.815 124.420  1.00  0.00    -0.550 OA
ENDBRANCH   5   6
ENDBRANCH   4   5
ENDBRANCH   3   4
ENDBRANCH   2   3
ENDBRANCH   1   2
BRANCH   1   9
ATOM      9  C   UNL     1     127.261 145.436 119.123  1.00  0.00     0.000 C 
BRANCH   9  10
ATOM     10  C   UNL     1     128.111 144.272 118.593  1.00  0.00    -0.000 C 
BRANCH  10  11
ATOM     11  C   UNL     1     128.960 143.600 119.687  1.00  0.00    -0.000 C 
BRANCH  11  12
ATOM     12  C   UNL     1     130.440 144.025 119.714  1.00  0.00    -0.000 C 
BRANCH  12  13
ATOM     13  C   UNL     1     130.706 145.207 120.658  1.00  0.00    -0.003 C 
ATOM     14  C   UNL     1     130.788 146.520 119.885  1.00  0.00     0.004 C 
ENDBRANCH  12  13
ENDBRANCH  11  12
ENDBRANCH  10  11
ENDBRANCH   9  10
ENDBRANCH   1   9
TORSDOF 10
ENDMDL
MODEL 6
REMARK VINA RESULT:    -3.416      1.520      2.470
REMARK INTER + INTRA:          -6.716
REMARK INTER:                  -5.465
REMARK INTRA:                  -1.251
REMARK UNBOUND:                -1.303
REMARK SMILES CCCCCCCCCCCC(=O)[O-]
REMARK SMILES IDX 7 1 8 2 9 3 10 4 11 5 12 6 13 7 14 8 6 9 5 10 4 11 3 12 2 13
REMARK SMILES IDX 1 14
REMARK H PARENT
REMARK Flexibility Score: inf
ROOT
ATOM      1  C   UNL     1     130.986 142.279 120.467  1.00  0.00     0.000 C 
ENDROOT
BRANCH   1   2
ATOM      2  C   UNL     1     131.014 143.377 119.398  1.00  0.00     0.000 C 
BRANCH   2   3
ATOM      3  C   UNL     1     131.832 144.585 119.870  1.00  0.00     0.000 C 
BRANCH   3   4
ATOM      4  C   UNL     1     130.971 145.856 119.894  1.00  0.00     0.006 C 
BRANCH   4   5
ATOM      5  C   UNL     1     131.799 147.113 120.195  1.00  0.00     0.053 C 
BRANCH   5   6
ATOM      6  C   UNL     1     132.461 147.035 121.536  1.00  0.00     0.041 C 
ATOM      7  O   UNL     1     131.765 146.950 122.581  1.00  0.00    -0.550 OA
ATOM      8  O   UNL     1     133.847 147.021 121.629  1.00  0.00    -0.550 OA
ENDBRANCH   5   6
ENDBRANCH   4   5
ENDBRANCH   3   4
ENDBRANCH   2   3
ENDBRANCH   1   2
BRANCH   1   9
ATOM      9  C   UNL     1     129.553 142.001 120.936  1.00  0.00     0.000 C 
BRANCH   9  10
ATOM     10  C   UNL     1     128.999 143.184 121.743  1.00  0.00    -0.000 C 
BRANCH  10  11
ATOM     11  C   UNL     1     127.613 143.646 121.259  1.00  0.00    -0.000 C 
BRANCH  11  12
ATOM     12  C   UNL     1     127.365 143.485 119.748  1.00  0.00    -0.000 C 
BRANCH  12  13
ATOM     13  C   UNL     1     127.593 144.784 118.961  1.00  0.00    -0.003 C 
ATOM     14  C   UNL     1     127.150 146.001 119.768  1.00  0.00     0.004 C 
ENDBRANCH  12  13
ENDBRANCH  11  12
ENDBRANCH  10  11
ENDBRANCH   9  10
ENDBRANCH   1   9
TORSDOF 10
ENDMDL
MODEL 7
REMARK VINA RESULT:    -3.405      3.158      5.810
REMARK INTER + INTRA:          -6.699
REMARK INTER:                  -6.027
REMARK INTRA:                  -0.673
REMARK UNBOUND:                -1.303
REMARK SMILES CCCCCCCCCCCC(=O)[O-]
REMARK SMILES IDX 7 1 8 2 9 3 10 4 11 5 12 6 13 7 14 8 6 9 5 10 4 11 3 12 2 13
REMARK SMILES IDX 1 14
REMARK H PARENT
REMARK Flexibility Score: inf
ROOT
ATOM      1  C   UNL     1     129.508 144.859 119.760  1.00  0.00     0.000 C 
ENDROOT
BRANCH   1   2
ATOM      2  C   UNL     1     128.197 144.994 118.975  1.00  0.00     0.000 C 
BRANCH   2   3
ATOM      3  C   UNL     1     127.176 145.837 119.749  1.00  0.00     0.000 C 
BRANCH   3   4
ATOM      4  C   UNL     1     127.207 145.498 121.247  1.00  0.00     0.006 C 
BRANCH   4   5
ATOM      5  C   UNL     1     126.965 146.732 122.127  1.00  0.00     0.053 C 
BRANCH   5   6
ATOM      6  C   UNL     1     127.524 146.550 123.505  1.00  0.00     0.041 C 
ATOM      7  O   UNL     1     126.908 145.851 124.351  1.00  0.00    -0.550 OA
ATOM      8  O   UNL     1     128.743 147.125 123.844  1.00  0.00    -0.550 OA
ENDBRANCH   5   6
ENDBRANCH   4   5
ENDBRANCH   3   4
ENDBRANCH   2   3
ENDBRANCH   1   2
BRANCH   1   9
ATOM      9  C   UNL     1     130.291 146.177 119.755  1.00  0.00     0.000 C 
BRANCH   9  10
ATOM     10  C   UNL     1     130.957 146.427 121.116  1.00  0.00    -0.000 C 
BRANCH  10  11
ATOM     11  C   UNL     1     132.434 146.844 120.995  1.00  0.00    -0.000 C 
BRANCH  11  12
ATOM     12  C   UNL     1     133.023 146.747 119.576  1.00  0.00    -0.000 C 
BRANCH  12  13
ATOM     13  C   UNL     1     134.259 145.838 119.501  1.00  0.00    -0.003 C 
ATOM     14  C   UNL     1     135.544 146.660 119.464  1.00  0.00     0.004 C 
ENDBRANCH  12  13
ENDBRANCH  11  12
ENDBRANCH  10  11
ENDBRANCH   9  10
ENDBRANCH   1   9
TORSDOF 10
ENDMDL
MODEL 8
REMARK VINA RESULT:    -3.400      3.540      5.533
REMARK INTER + INTRA:          -6.690
REMARK INTER:                  -5.408
REMARK INTRA:                  -1.282
REMARK UNBOUND:                -1.303
REMARK SMILES CCCCCCCCCCCC(=O)[O-]
REMARK SMILES IDX 7 1 8 2 9 3 10 4 11 5 12 6 13 7 14 8 6 9 5 10 4 11 3 12 2 13
REMARK SMILES IDX 1 14
REMARK H PARENT
REMARK Flexibility Score: inf
ROOT
ATOM      1  C   UNL     1     127.101 146.388 120.155  1.00  0.00     0.000 C 
ENDROOT
BRANCH   1   2
ATOM      2  C   UNL     1     127.191 145.166 119.233  1.00  0.00     0.000 C 
BRANCH   2   3
ATOM      3  C   UNL     1     128.628 144.633 119.166  1.00  0.00     0.000 C 
BRANCH   3   4
ATOM      4  C   UNL     1     128.702 143.190 119.686  1.00  0.00     0.006 C 
BRANCH   4   5
ATOM      5  C   UNL     1     127.347 142.689 120.206  1.00  0.00     0.053 C 
BRANCH   5   6
ATOM      6  C   UNL     1     127.484 141.975 121.516  1.00  0.00     0.041 C 
ATOM      7  O   UNL     1     127.558 142.629 122.588  1.00  0.00    -0.550 OA
ATOM      8  O   UNL     1     127.494 140.586 121.554  1.00  0.00    -0.550 OA
ENDBRANCH   5   6
ENDBRANCH   4   5
ENDBRANCH   3   4
ENDBRANCH   2   3
ENDBRANCH   1   2
BRANCH   1   9
ATOM      9  C   UNL     1     126.929 145.962 121.618  1.00  0.00     0.000 C 
BRANCH   9  10
ATOM     10  C   UNL     1     127.342 147.092 122.572  1.00  0.00    -0.000 C 
BRANCH  10  11
ATOM     11  C   UNL     1     128.529 146.712 123.477  1.00  0.00    -0.000 C 
BRANCH  11  12
ATOM     12  C   UNL     1     129.418 145.576 122.939  1.00  0.00    -0.000 C 
BRANCH  12  13
ATOM     13  C   UNL     1     130.839 146.042 122.588  1.00  0.00    -0.003 C 
ATOM     14  C   UNL     1     130.931 146.471 121.126  1.00  0.00     0.004 C 
ENDBRANCH  12  13
ENDBRANCH  11  12
ENDBRANCH  10  11
ENDBRANCH   9  10
ENDBRANCH   1   9
TORSDOF 10
ENDMDL
MODEL 9
REMARK VINA RESULT:    -3.315      2.747      4.535
REMARK INTER + INTRA:          -6.556
REMARK INTER:                  -5.071
REMARK INTRA:                  -1.485
REMARK UNBOUND:                -1.303
REMARK SMILES CCCCCCCCCCCC(=O)[O-]
REMARK SMILES IDX 7 1 8 2 9 3 10 4 11 5 12 6 13 7 14 8 6 9 5 10 4 11 3 12 2 13
REMARK SMILES IDX 1 14
REMARK H PARENT
REMARK Flexibility Score: inf
ROOT
ATOM      1  C   UNL     1     128.373 144.980 118.999  1.00  0.00     0.000 C 
ENDROOT
BRANCH   1   2
ATOM      2  C   UNL     1     127.320 145.897 119.632  1.00  0.00     0.000 C 
BRANCH   2   3
ATOM      3  C   UNL     1     126.898 145.379 121.013  1.00  0.00     0.000 C 
BRANCH   3   4
ATOM      4  C   UNL     1     127.310 146.363 122.118  1.00  0.00     0.006 C 
BRANCH   4   5
ATOM      5  C   UNL     1     128.033 145.663 123.277  1.00  0.00     0.053 C 
BRANCH   5   6
ATOM      6  C   UNL     1     129.291 146.381 123.662  1.00  0.00     0.041 C 
ATOM      7  O   UNL     1     129.538 146.620 124.872  1.00  0.00    -0.550 OA
ATOM      8  O   UNL     1     130.206 146.754 122.685  1.00  0.00    -0.550 OA
ENDBRANCH   5   6
ENDBRANCH   4   5
ENDBRANCH   3   4
ENDBRANCH   2   3
ENDBRANCH   1   2
BRANCH   1   9
ATOM      9  C   UNL     1     129.721 145.111 119.717  1.00  0.00     0.000 C 
BRANCH   9  10
ATOM     10  C   UNL     1     130.399 143.742 119.870  1.00  0.00    -0.000 C 
BRANCH  10  11
ATOM     11  C   UNL     1     129.397 142.598 120.116  1.00  0.00    -0.000 C 
BRANCH  11  12
ATOM     12  C   UNL     1     129.062 142.335 121.595  1.00  0.00    -0.000 C 
BRANCH  12  13
ATOM     13  C   UNL     1     127.616 141.862 121.806  1.00  0.00    -0.003 C 
ATOM     14  C   UNL     1     126.875 141.746 120.478  1.00  0.00     0.004 C 
ENDBRANCH  12  13
ENDBRANCH  11  12
ENDBRANCH  10  11
ENDBRANCH   9  10
ENDBRANCH   1   9
TORSDOF 10
ENDMDL
