MODEL 1
REMARK VINA RESULT:    -4.880      0.000      0.000
REMARK INTER + INTRA:         -16.823
REMARK INTER:                 -12.297
REMARK INTRA:                  -4.525
REMARK UNBOUND:                -4.525
REMARK SMILES CCCCCCCCCCCCCCCCCCCCCCCCCCCC(=O)[O-]
REMARK SMILES IDX 15 1 16 2 17 3 18 4 19 5 20 6 21 7 22 8 23 9 24 10 25 11
REMARK SMILES IDX 26 12 27 13 28 14 29 15 30 16 14 17 13 18 12 19 11 20 10 21
REMARK SMILES IDX 9 22 8 23 7 24 6 25 5 26 4 27 3 28 2 29 1 30
REMARK H PARENT
REMARK Flexibility Score: inf
ROOT
ATOM      1  C   UNL     1      11.393 -23.238 -14.471  1.00  0.00     0.000 C 
ENDROOT
BRANCH   1   2
ATOM      2  C   UNL     1      12.290 -22.344 -13.595  1.00  0.00     0.000 C 
BRANCH   2   3
ATOM      3  C   UNL     1      13.683 -22.059 -14.201  1.00  0.00     0.000 C 
BRANCH   3   4
ATOM      4  C   UNL     1      14.607 -21.258 -13.264  1.00  0.00     0.000 C 
BRANCH   4   5
ATOM      5  C   UNL     1      15.389 -20.145 -13.993  1.00  0.00     0.000 C 
BRANCH   5   6
ATOM      6  C   UNL     1      15.626 -18.878 -13.149  1.00  0.00     0.000 C 
BRANCH   6   7
ATOM      7  C   UNL     1      15.178 -18.975 -11.673  1.00  0.00     0.000 C 
BRANCH   7   8
ATOM      8  C   UNL     1      14.244 -17.832 -11.221  1.00  0.00     0.000 C 
BRANCH   8   9
ATOM      9  C   UNL     1      13.047 -17.623 -12.180  1.00  0.00     0.000 C 
BRANCH   9  10
ATOM     10  C   UNL     1      11.956 -18.699 -12.044  1.00  0.00     0.000 C 
BRANCH  10  11
ATOM     11  C   UNL     1      11.162 -18.908 -13.345  1.00  0.00     0.000 C 
BRANCH  11  12
ATOM     12  C   UNL     1      11.997 -18.586 -14.599  1.00  0.00     0.006 C 
BRANCH  12  13
ATOM     13  C   UNL     1      11.665 -19.518 -15.779  1.00  0.00     0.053 C 
BRANCH  13  14
ATOM     14  C   UNL     1      12.740 -19.433 -16.823  1.00  0.00     0.041 C 
ATOM     15  O   UNL     1      12.636 -20.093 -17.890  1.00  0.00    -0.550 OA
ATOM     16  O   UNL     1      13.806 -18.555 -16.655  1.00  0.00    -0.550 OA
ENDBRANCH  13  14
ENDBRANCH  12  13
ENDBRANCH  11  12
ENDBRANCH  10  11
ENDBRANCH   9  10
ENDBRANCH   8   9
ENDBRANCH   7   8
ENDBRANCH   6   7
ENDBRANCH   5   6
ENDBRANCH   4   5
ENDBRANCH   3   4
ENDBRANCH   2   3
ENDBRANCH   1   2
BRANCH   1  17
ATOM     17  C   UNL     1      11.139 -24.652 -13.901  1.00  0.00     0.000 C 
BRANCH  17  18
ATOM     18  C   UNL     1      12.118 -25.741 -14.391  1.00  0.00     0.000 C 
BRANCH  18  19
ATOM     19  C   UNL     1      13.486 -25.789 -13.672  1.00  0.00     0.000 C 
BRANCH  19  20
ATOM     20  C   UNL     1      14.721 -25.798 -14.601  1.00  0.00     0.000 C 
BRANCH  20  21
ATOM     21  C   UNL     1      15.928 -25.010 -14.053  1.00  0.00     0.000 C 
BRANCH  21  22
ATOM     22  C   UNL     1      15.821 -24.762 -12.542  1.00  0.00    -0.000 C 
BRANCH  22  23
ATOM     23  C   UNL     1      16.476 -25.899 -11.740  1.00  0.00    -0.000 C 
BRANCH  23  24
ATOM     24  C   UNL     1      17.682 -26.518 -12.471  1.00  0.00    -0.000 C 
BRANCH  24  25
ATOM     25  C   UNL     1      17.551 -28.024 -12.774  1.00  0.00    -0.000 C 
BRANCH  25  26
ATOM     26  C   UNL     1      16.144 -28.618 -12.563  1.00  0.00    -0.000 C 
BRANCH  26  27
ATOM     27  C   UNL     1      15.536 -29.299 -13.803  1.00  0.00    -0.000 C 
BRANCH  27  28
ATOM     28  C   UNL     1      16.607 -29.776 -14.799  1.00  0.00    -0.000 C 
BRANCH  28  29
ATOM     29  C   UNL     1      16.218 -31.090 -15.500  1.00  0.00    -0.003 C 
ATOM     30  C   UNL     1      15.658 -32.125 -14.523  1.00  0.00     0.004 C 
ENDBRANCH  28  29
ENDBRANCH  27  28
ENDBRANCH  26  27
ENDBRANCH  25  26
ENDBRANCH  24  25
ENDBRANCH  23  24
ENDBRANCH  22  23
ENDBRANCH  21  22
ENDBRANCH  20  21
ENDBRANCH  19  20
ENDBRANCH  18  19
ENDBRANCH  17  18
ENDBRANCH   1  17
TORSDOF 26
ENDMDL
MODEL 2
REMARK VINA RESULT:    -4.874      2.913      9.264
REMARK INTER + INTRA:         -16.808
REMARK INTER:                 -13.129
REMARK INTRA:                  -3.679
REMARK UNBOUND:                -4.525
REMARK SMILES CCCCCCCCCCCCCCCCCCCCCCCCCCCC(=O)[O-]
REMARK SMILES IDX 15 1 16 2 17 3 18 4 19 5 20 6 21 7 22 8 23 9 24 10 25 11
REMARK SMILES IDX 26 12 27 13 28 14 29 15 30 16 14 17 13 18 12 19 11 20 10 21
REMARK SMILES IDX 9 22 8 23 7 24 6 25 5 26 4 27 3 28 2 29 1 30
REMARK H PARENT
REMARK Flexibility Score: inf
ROOT
ATOM      1  C   UNL     1      11.426 -21.918 -15.135  1.00  0.00     0.000 C 
ENDROOT
BRANCH   1   2
ATOM      2  C   UNL     1      11.764 -22.867 -13.970  1.00  0.00     0.000 C 
BRANCH   2   3
ATOM      3  C   UNL     1      13.280 -23.076 -13.745  1.00  0.00     0.000 C 
BRANCH   3   4
ATOM      4  C   UNL     1      13.708 -24.555 -13.794  1.00  0.00     0.000 C 
BRANCH   4   5
ATOM      5  C   UNL     1      12.556 -25.504 -14.187  1.00  0.00     0.000 C 
BRANCH   5   6
ATOM      6  C   UNL     1      12.957 -26.991 -14.262  1.00  0.00     0.000 C 
BRANCH   6   7
ATOM      7  C   UNL     1      14.347 -27.270 -14.876  1.00  0.00     0.000 C 
BRANCH   7   8
ATOM      8  C   UNL     1      15.055 -28.513 -14.295  1.00  0.00     0.000 C 
BRANCH   8   9
ATOM      9  C   UNL     1      16.502 -28.216 -13.833  1.00  0.00     0.000 C 
BRANCH   9  10
ATOM     10  C   UNL     1      16.613 -27.884 -12.335  1.00  0.00     0.000 C 
BRANCH  10  11
ATOM     11  C   UNL     1      16.951 -26.405 -12.076  1.00  0.00     0.000 C 
BRANCH  11  12
ATOM     12  C   UNL     1      15.942 -25.732 -11.127  1.00  0.00     0.006 C 
BRANCH  12  13
ATOM     13  C   UNL     1      16.145 -24.208 -11.043  1.00  0.00     0.053 C 
BRANCH  13  14
ATOM     14  C   UNL     1      16.748 -23.839  -9.719  1.00  0.00     0.041 C 
ATOM     15  O   UNL     1      16.603 -22.674  -9.263  1.00  0.00    -0.550 OA
ATOM     16  O   UNL     1      17.388 -24.806  -8.951  1.00  0.00    -0.550 OA
ENDBRANCH  13  14
ENDBRANCH  12  13
ENDBRANCH  11  12
ENDBRANCH  10  11
ENDBRANCH   9  10
ENDBRANCH   8   9
ENDBRANCH   7   8
ENDBRANCH   6   7
ENDBRANCH   5   6
ENDBRANCH   4   5
ENDBRANCH   3   4
ENDBRANCH   2   3
ENDBRANCH   1   2
BRANCH   1  17
ATOM     17  C   UNL     1      12.568 -20.959 -15.539  1.00  0.00     0.000 C 
BRANCH  17  18
ATOM     18  C   UNL     1      12.155 -19.480 -15.701  1.00  0.00     0.000 C 
BRANCH  18  19
ATOM     19  C   UNL     1      11.004 -18.999 -14.788  1.00  0.00     0.000 C 
BRANCH  19  20
ATOM     20  C   UNL     1      11.444 -18.309 -13.477  1.00  0.00     0.000 C 
BRANCH  20  21
ATOM     21  C   UNL     1      11.480 -19.247 -12.253  1.00  0.00     0.000 C 
BRANCH  21  22
ATOM     22  C   UNL     1      10.530 -18.784 -11.139  1.00  0.00    -0.000 C 
BRANCH  22  23
ATOM     23  C   UNL     1      11.284 -18.014 -10.043  1.00  0.00    -0.000 C 
BRANCH  23  24
ATOM     24  C   UNL     1      12.794 -18.317 -10.040  1.00  0.00    -0.000 C 
BRANCH  24  25
ATOM     25  C   UNL     1      13.703 -17.073 -10.054  1.00  0.00    -0.000 C 
BRANCH  25  26
ATOM     26  C   UNL     1      14.956 -17.183 -10.946  1.00  0.00    -0.000 C 
BRANCH  26  27
ATOM     27  C   UNL     1      15.035 -18.463 -11.798  1.00  0.00    -0.000 C 
BRANCH  27  28
ATOM     28  C   UNL     1      15.213 -18.164 -13.297  1.00  0.00    -0.000 C 
BRANCH  28  29
ATOM     29  C   UNL     1      14.670 -16.779 -13.691  1.00  0.00    -0.003 C 
ATOM     30  C   UNL     1      14.532 -16.619 -15.205  1.00  0.00     0.004 C 
ENDBRANCH  28  29
ENDBRANCH  27  28
ENDBRANCH  26  27
ENDBRANCH  25  26
ENDBRANCH  24  25
ENDBRANCH  23  24
ENDBRANCH  22  23
ENDBRANCH  21  22
ENDBRANCH  20  21
ENDBRANCH  19  20
ENDBRANCH  18  19
ENDBRANCH  17  18
ENDBRANCH   1  17
TORSDOF 26
ENDMDL
MODEL 3
REMARK VINA RESULT:    -4.831      5.756      9.838
REMARK INTER + INTRA:         -16.699
REMARK INTER:                 -12.031
REMARK INTRA:                  -4.668
REMARK UNBOUND:                -4.525
REMARK SMILES CCCCCCCCCCCCCCCCCCCCCCCCCCCC(=O)[O-]
REMARK SMILES IDX 15 1 16 2 17 3 18 4 19 5 20 6 21 7 22 8 23 9 24 10 25 11
REMARK SMILES IDX 26 12 27 13 28 14 29 15 30 16 14 17 13 18 12 19 11 20 10 21
REMARK SMILES IDX 9 22 8 23 7 24 6 25 5 26 4 27 3 28 2 29 1 30
REMARK H PARENT
REMARK Flexibility Score: inf
ROOT
ATOM      1  C   UNL     1      10.628 -19.296 -10.690  1.00  0.00     0.000 C 
ENDROOT
BRANCH   1   2
ATOM      2  C   UNL     1      10.708 -18.225 -11.793  1.00  0.00     0.000 C 
BRANCH   2   3
ATOM      3  C   UNL     1      11.102 -18.777 -13.183  1.00  0.00     0.000 C 
BRANCH   3   4
ATOM      4  C   UNL     1      12.063 -19.979 -13.114  1.00  0.00     0.000 C 
BRANCH   4   5
ATOM      5  C   UNL     1      12.488 -20.492 -14.507  1.00  0.00     0.000 C 
BRANCH   5   6
ATOM      6  C   UNL     1      11.961 -19.645 -15.683  1.00  0.00     0.000 C 
BRANCH   6   7
ATOM      7  C   UNL     1      13.050 -18.995 -16.567  1.00  0.00     0.000 C 
BRANCH   7   8
ATOM      8  C   UNL     1      14.172 -18.294 -15.772  1.00  0.00     0.000 C 
BRANCH   8   9
ATOM      9  C   UNL     1      13.710 -16.961 -15.134  1.00  0.00     0.000 C 
BRANCH   9  10
ATOM     10  C   UNL     1      14.608 -16.491 -13.976  1.00  0.00     0.000 C 
BRANCH  10  11
ATOM     11  C   UNL     1      13.917 -16.598 -12.606  1.00  0.00     0.000 C 
BRANCH  11  12
ATOM     12  C   UNL     1      14.757 -17.391 -11.587  1.00  0.00     0.006 C 
BRANCH  12  13
ATOM     13  C   UNL     1      15.473 -18.594 -12.228  1.00  0.00     0.053 C 
BRANCH  13  14
ATOM     14  C   UNL     1      15.400 -19.784 -11.317  1.00  0.00     0.041 C 
ATOM     15  O   UNL     1      15.132 -19.628 -10.097  1.00  0.00    -0.550 OA
ATOM     16  O   UNL     1      15.538 -21.068 -11.835  1.00  0.00    -0.550 OA
ENDBRANCH  13  14
ENDBRANCH  12  13
ENDBRANCH  11  12
ENDBRANCH  10  11
ENDBRANCH   9  10
ENDBRANCH   8   9
ENDBRANCH   7   8
ENDBRANCH   6   7
ENDBRANCH   5   6
ENDBRANCH   4   5
ENDBRANCH   3   4
ENDBRANCH   2   3
ENDBRANCH   1   2
BRANCH   1  17
ATOM     17  C   UNL     1      10.838 -18.761  -9.255  1.00  0.00     0.000 C 
BRANCH  17  18
ATOM     18  C   UNL     1      12.147 -17.972  -9.036  1.00  0.00     0.000 C 
BRANCH  18  19
ATOM     19  C   UNL     1      11.989 -16.446  -8.841  1.00  0.00     0.000 C 
BRANCH  19  20
ATOM     20  C   UNL     1      12.747 -15.852  -7.633  1.00  0.00     0.000 C 
BRANCH  20  21
ATOM     21  C   UNL     1      11.973 -14.746  -6.886  1.00  0.00     0.000 C 
BRANCH  21  22
ATOM     22  C   UNL     1      10.460 -14.831  -7.131  1.00  0.00    -0.000 C 
BRANCH  22  23
ATOM     23  C   UNL     1       9.699 -15.158  -5.836  1.00  0.00    -0.000 C 
BRANCH  23  24
ATOM     24  C   UNL     1       8.528 -16.131  -6.068  1.00  0.00    -0.000 C 
BRANCH  24  25
ATOM     25  C   UNL     1       8.944 -17.590  -6.337  1.00  0.00    -0.000 C 
BRANCH  25  26
ATOM     26  C   UNL     1       8.899 -18.525  -5.112  1.00  0.00    -0.000 C 
BRANCH  26  27
ATOM     27  C   UNL     1      10.230 -19.229  -4.786  1.00  0.00    -0.000 C 
BRANCH  27  28
ATOM     28  C   UNL     1      11.437 -18.546  -5.452  1.00  0.00    -0.000 C 
BRANCH  28  29
ATOM     29  C   UNL     1      12.751 -19.313  -5.218  1.00  0.00    -0.003 C 
ATOM     30  C   UNL     1      13.068 -20.281  -6.359  1.00  0.00     0.004 C 
ENDBRANCH  28  29
ENDBRANCH  27  28
ENDBRANCH  26  27
ENDBRANCH  25  26
ENDBRANCH  24  25
ENDBRANCH  23  24
ENDBRANCH  22  23
ENDBRANCH  21  22
ENDBRANCH  20  21
ENDBRANCH  19  20
ENDBRANCH  18  19
ENDBRANCH  17  18
ENDBRANCH   1  17
TORSDOF 26
ENDMDL
MODEL 4
REMARK VINA RESULT:    -4.797      2.658      5.141
REMARK INTER + INTRA:         -16.615
REMARK INTER:                 -12.395
REMARK INTRA:                  -4.219
REMARK UNBOUND:                -4.525
REMARK SMILES CCCCCCCCCCCCCCCCCCCCCCCCCCCC(=O)[O-]
REMARK SMILES IDX 15 1 16 2 17 3 18 4 19 5 20 6 21 7 22 8 23 9 24 10 25 11
REMARK SMILES IDX 26 12 27 13 28 14 29 15 30 16 14 17 13 18 12 19 11 20 10 21
REMARK SMILES IDX 9 22 8 23 7 24 6 25 5 26 4 27 3 28 2 29 1 30
REMARK H PARENT
REMARK Flexibility Score: inf
ROOT
ATOM      1  C   UNL     1      15.311 -19.223 -12.588  1.00  0.00     0.000 C 
ENDROOT
BRANCH   1   2
ATOM      2  C   UNL     1      15.632 -17.869 -13.250  1.00  0.00     0.000 C 
BRANCH   2   3
ATOM      3  C   UNL     1      14.431 -16.897 -13.316  1.00  0.00     0.000 C 
BRANCH   3   4
ATOM      4  C   UNL     1      13.993 -16.561 -14.754  1.00  0.00     0.000 C 
BRANCH   4   5
ATOM      5  C   UNL     1      14.516 -17.573 -15.796  1.00  0.00     0.000 C 
BRANCH   5   6
ATOM      6  C   UNL     1      13.418 -18.437 -16.448  1.00  0.00     0.000 C 
BRANCH   6   7
ATOM      7  C   UNL     1      12.848 -19.562 -15.555  1.00  0.00     0.000 C 
BRANCH   7   8
ATOM      8  C   UNL     1      11.350 -19.402 -15.219  1.00  0.00     0.000 C 
BRANCH   8   9
ATOM      9  C   UNL     1      11.107 -18.498 -13.987  1.00  0.00     0.000 C 
BRANCH   9  10
ATOM     10  C   UNL     1      11.507 -19.155 -12.654  1.00  0.00     0.000 C 
BRANCH  10  11
ATOM     11  C   UNL     1      10.547 -18.802 -11.504  1.00  0.00     0.000 C 
BRANCH  11  12
ATOM     12  C   UNL     1      11.289 -18.542 -10.181  1.00  0.00     0.006 C 
BRANCH  12  13
ATOM     13  C   UNL     1      12.382 -17.466 -10.322  1.00  0.00     0.053 C 
BRANCH  13  14
ATOM     14  C   UNL     1      13.618 -17.883  -9.581  1.00  0.00     0.041 C 
ATOM     15  O   UNL     1      13.623 -18.953  -8.916  1.00  0.00    -0.550 OA
ATOM     16  O   UNL     1      14.787 -17.139  -9.700  1.00  0.00    -0.550 OA
ENDBRANCH  13  14
ENDBRANCH  12  13
ENDBRANCH  11  12
ENDBRANCH  10  11
ENDBRANCH   9  10
ENDBRANCH   8   9
ENDBRANCH   7   8
ENDBRANCH   6   7
ENDBRANCH   5   6
ENDBRANCH   4   5
ENDBRANCH   3   4
ENDBRANCH   2   3
ENDBRANCH   1   2
BRANCH   1  17
ATOM     17  C   UNL     1      15.545 -20.454 -13.493  1.00  0.00     0.000 C 
BRANCH  17  18
ATOM     18  C   UNL     1      14.847 -21.750 -13.027  1.00  0.00     0.000 C 
BRANCH  18  19
ATOM     19  C   UNL     1      13.913 -22.421 -14.061  1.00  0.00     0.000 C 
BRANCH  19  20
ATOM     20  C   UNL     1      12.433 -22.540 -13.635  1.00  0.00     0.000 C 
BRANCH  20  21
ATOM     21  C   UNL     1      11.581 -23.432 -14.561  1.00  0.00     0.000 C 
BRANCH  21  22
ATOM     22  C   UNL     1      11.073 -24.692 -13.846  1.00  0.00    -0.000 C 
BRANCH  22  23
ATOM     23  C   UNL     1      11.690 -25.965 -14.447  1.00  0.00    -0.000 C 
BRANCH  23  24
ATOM     24  C   UNL     1      13.197 -26.088 -14.151  1.00  0.00    -0.000 C 
BRANCH  24  25
ATOM     25  C   UNL     1      13.845 -27.402 -14.631  1.00  0.00    -0.000 C 
BRANCH  25  26
ATOM     26  C   UNL     1      15.382 -27.451 -14.535  1.00  0.00    -0.000 C 
BRANCH  26  27
ATOM     27  C   UNL     1      16.082 -26.082 -14.631  1.00  0.00    -0.000 C 
BRANCH  27  28
ATOM     28  C   UNL     1      16.987 -25.796 -13.420  1.00  0.00    -0.000 C 
BRANCH  28  29
ATOM     29  C   UNL     1      16.290 -24.930 -12.355  1.00  0.00    -0.003 C 
ATOM     30  C   UNL     1      15.890 -25.740 -11.121  1.00  0.00     0.004 C 
ENDBRANCH  28  29
ENDBRANCH  27  28
ENDBRANCH  26  27
ENDBRANCH  25  26
ENDBRANCH  24  25
ENDBRANCH  23  24
ENDBRANCH  22  23
ENDBRANCH  21  22
ENDBRANCH  20  21
ENDBRANCH  19  20
ENDBRANCH  18  19
ENDBRANCH  17  18
ENDBRANCH   1  17
TORSDOF 26
ENDMDL
MODEL 5
REMARK VINA RESULT:    -4.791      4.085      9.457
REMARK INTER + INTRA:         -16.598
REMARK INTER:                 -13.450
REMARK INTRA:                  -3.148
REMARK UNBOUND:                -4.525
REMARK SMILES CCCCCCCCCCCCCCCCCCCCCCCCCCCC(=O)[O-]
REMARK SMILES IDX 15 1 16 2 17 3 18 4 19 5 20 6 21 7 22 8 23 9 24 10 25 11
REMARK SMILES IDX 26 12 27 13 28 14 29 15 30 16 14 17 13 18 12 19 11 20 10 21
REMARK SMILES IDX 9 22 8 23 7 24 6 25 5 26 4 27 3 28 2 29 1 30
REMARK H PARENT
REMARK Flexibility Score: inf
ROOT
ATOM      1  C   UNL     1      14.756 -17.214 -15.353  1.00  0.00     0.000 C 
ENDROOT
BRANCH   1   2
ATOM      2  C   UNL     1      13.746 -16.345 -14.580  1.00  0.00     0.000 C 
BRANCH   2   3
ATOM      3  C   UNL     1      13.574 -16.743 -13.096  1.00  0.00     0.000 C 
BRANCH   3   4
ATOM      4  C   UNL     1      14.907 -16.843 -12.330  1.00  0.00     0.000 C 
BRANCH   4   5
ATOM      5  C   UNL     1      15.073 -18.181 -11.579  1.00  0.00     0.000 C 
BRANCH   5   6
ATOM      6  C   UNL     1      15.622 -19.331 -12.445  1.00  0.00     0.000 C 
BRANCH   6   7
ATOM      7  C   UNL     1      14.728 -20.590 -12.514  1.00  0.00     0.000 C 
BRANCH   7   8
ATOM      8  C   UNL     1      14.808 -21.347 -13.857  1.00  0.00     0.000 C 
BRANCH   8   9
ATOM      9  C   UNL     1      14.360 -22.824 -13.739  1.00  0.00     0.000 C 
BRANCH   9  10
ATOM     10  C   UNL     1      12.832 -23.000 -13.685  1.00  0.00     0.000 C 
BRANCH  10  11
ATOM     11  C   UNL     1      12.387 -24.433 -14.025  1.00  0.00     0.000 C 
BRANCH  11  12
ATOM     12  C   UNL     1      13.567 -25.421 -14.059  1.00  0.00     0.006 C 
BRANCH  12  13
ATOM     13  C   UNL     1      13.130 -26.845 -14.449  1.00  0.00     0.053 C 
BRANCH  13  14
ATOM     14  C   UNL     1      14.332 -27.698 -14.726  1.00  0.00     0.041 C 
ATOM     15  O   UNL     1      14.599 -28.674 -13.976  1.00  0.00    -0.550 OA
ATOM     16  O   UNL     1      15.102 -27.470 -15.862  1.00  0.00    -0.550 OA
ENDBRANCH  13  14
ENDBRANCH  12  13
ENDBRANCH  11  12
ENDBRANCH  10  11
ENDBRANCH   9  10
ENDBRANCH   8   9
ENDBRANCH   7   8
ENDBRANCH   6   7
ENDBRANCH   5   6
ENDBRANCH   4   5
ENDBRANCH   3   4
ENDBRANCH   2   3
ENDBRANCH   1   2
BRANCH   1  17
ATOM     17  C   UNL     1      14.281 -18.657 -15.639  1.00  0.00     0.000 C 
BRANCH  17  18
ATOM     18  C   UNL     1      12.888 -18.768 -16.296  1.00  0.00     0.000 C 
BRANCH  18  19
ATOM     19  C   UNL     1      11.836 -19.585 -15.511  1.00  0.00     0.000 C 
BRANCH  19  20
ATOM     20  C   UNL     1      11.128 -18.826 -14.367  1.00  0.00     0.000 C 
BRANCH  20  21
ATOM     21  C   UNL     1      11.377 -19.422 -12.966  1.00  0.00     0.000 C 
BRANCH  21  22
ATOM     22  C   UNL     1      10.588 -18.685 -11.874  1.00  0.00    -0.000 C 
BRANCH  22  23
ATOM     23  C   UNL     1      11.149 -18.989 -10.475  1.00  0.00    -0.000 C 
BRANCH  23  24
ATOM     24  C   UNL     1      11.773 -17.749  -9.807  1.00  0.00    -0.000 C 
BRANCH  24  25
ATOM     25  C   UNL     1      11.724 -17.752  -8.266  1.00  0.00    -0.000 C 
BRANCH  25  26
ATOM     26  C   UNL     1      10.387 -18.211  -7.650  1.00  0.00    -0.000 C 
BRANCH  26  27
ATOM     27  C   UNL     1      10.367 -18.261  -6.112  1.00  0.00    -0.000 C 
BRANCH  27  28
ATOM     28  C   UNL     1       8.956 -18.052  -5.533  1.00  0.00    -0.000 C 
BRANCH  28  29
ATOM     29  C   UNL     1       8.804 -18.644  -4.121  1.00  0.00    -0.003 C 
ATOM     30  C   UNL     1       8.655 -17.561  -3.051  1.00  0.00     0.004 C 
ENDBRANCH  28  29
ENDBRANCH  27  28
ENDBRANCH  26  27
ENDBRANCH  25  26
ENDBRANCH  24  25
ENDBRANCH  23  24
ENDBRANCH  22  23
ENDBRANCH  21  22
ENDBRANCH  20  21
ENDBRANCH  19  20
ENDBRANCH  18  19
ENDBRANCH  17  18
ENDBRANCH   1  17
TORSDOF 26
ENDMDL
MODEL 6
REMARK VINA RESULT:    -4.757      6.693     10.289
REMARK INTER + INTRA:         -16.514
REMARK INTER:                 -12.387
REMARK INTRA:                  -4.127
REMARK UNBOUND:                -4.525
REMARK SMILES CCCCCCCCCCCCCCCCCCCCCCCCCCCC(=O)[O-]
REMARK SMILES IDX 15 1 16 2 17 3 18 4 19 5 20 6 21 7 22 8 23 9 24 10 25 11
REMARK SMILES IDX 26 12 27 13 28 14 29 15 30 16 14 17 13 18 12 19 11 20 10 21
REMARK SMILES IDX 9 22 8 23 7 24 6 25 5 26 4 27 3 28 2 29 1 30
REMARK H PARENT
REMARK Flexibility Score: inf
ROOT
ATOM      1  C   UNL     1      11.213 -18.737  -9.008  1.00  0.00     0.000 C 
ENDROOT
BRANCH   1   2
ATOM      2  C   UNL     1      11.546 -17.237  -9.109  1.00  0.00     0.000 C 
BRANCH   2   3
ATOM      3  C   UNL     1      12.402 -16.699  -7.939  1.00  0.00     0.000 C 
BRANCH   3   4
ATOM      4  C   UNL     1      12.573 -15.168  -7.958  1.00  0.00     0.000 C 
BRANCH   4   5
ATOM      5  C   UNL     1      11.233 -14.413  -8.096  1.00  0.00     0.000 C 
BRANCH   5   6
ATOM      6  C   UNL     1      10.404 -14.349  -6.798  1.00  0.00     0.000 C 
BRANCH   6   7
ATOM      7  C   UNL     1       8.964 -14.901  -6.907  1.00  0.00     0.000 C 
BRANCH   7   8
ATOM      8  C   UNL     1       8.639 -16.017  -5.891  1.00  0.00     0.000 C 
BRANCH   8   9
ATOM      9  C   UNL     1       8.841 -17.435  -6.476  1.00  0.00     0.000 C 
BRANCH   9  10
ATOM     10  C   UNL     1       9.750 -18.331  -5.617  1.00  0.00     0.000 C 
BRANCH  10  11
ATOM     11  C   UNL     1       9.005 -18.978  -4.437  1.00  0.00     0.000 C 
BRANCH  11  12
ATOM     12  C   UNL     1       9.258 -18.240  -3.109  1.00  0.00     0.006 C 
BRANCH  12  13
ATOM     13  C   UNL     1       7.973 -17.622  -2.528  1.00  0.00     0.053 C 
BRANCH  13  14
ATOM     14  C   UNL     1       8.223 -17.121  -1.136  1.00  0.00     0.041 C 
ATOM     15  O   UNL     1       8.173 -15.887  -0.891  1.00  0.00    -0.550 OA
ATOM     16  O   UNL     1       8.421 -18.024  -0.095  1.00  0.00    -0.550 OA
ENDBRANCH  13  14
ENDBRANCH  12  13
ENDBRANCH  11  12
ENDBRANCH  10  11
ENDBRANCH   9  10
ENDBRANCH   8   9
ENDBRANCH   7   8
ENDBRANCH   6   7
ENDBRANCH   5   6
ENDBRANCH   4   5
ENDBRANCH   3   4
ENDBRANCH   2   3
ENDBRANCH   1   2
BRANCH   1  17
ATOM     17  C   UNL     1      10.545 -19.335 -10.267  1.00  0.00     0.000 C 
BRANCH  17  18
ATOM     18  C   UNL     1      10.639 -18.461 -11.536  1.00  0.00     0.000 C 
BRANCH  18  19
ATOM     19  C   UNL     1      11.246 -19.146 -12.782  1.00  0.00     0.000 C 
BRANCH  19  20
ATOM     20  C   UNL     1      11.441 -18.230 -14.011  1.00  0.00     0.000 C 
BRANCH  20  21
ATOM     21  C   UNL     1      12.437 -18.777 -15.054  1.00  0.00     0.000 C 
BRANCH  21  22
ATOM     22  C   UNL     1      13.648 -17.852 -15.242  1.00  0.00    -0.000 C 
BRANCH  22  23
ATOM     23  C   UNL     1      13.640 -16.705 -14.218  1.00  0.00    -0.000 C 
BRANCH  23  24
ATOM     24  C   UNL     1      14.736 -16.862 -13.147  1.00  0.00    -0.000 C 
BRANCH  24  25
ATOM     25  C   UNL     1      14.214 -17.137 -11.724  1.00  0.00    -0.000 C 
BRANCH  25  26
ATOM     26  C   UNL     1      14.424 -18.576 -11.212  1.00  0.00    -0.000 C 
BRANCH  26  27
ATOM     27  C   UNL     1      15.873 -19.089 -11.300  1.00  0.00    -0.000 C 
BRANCH  27  28
ATOM     28  C   UNL     1      15.969 -20.477 -11.958  1.00  0.00    -0.000 C 
BRANCH  28  29
ATOM     29  C   UNL     1      15.333 -20.510 -13.360  1.00  0.00    -0.003 C 
ATOM     30  C   UNL     1      14.190 -21.522 -13.454  1.00  0.00     0.004 C 
ENDBRANCH  28  29
ENDBRANCH  27  28
ENDBRANCH  26  27
ENDBRANCH  25  26
ENDBRANCH  24  25
ENDBRANCH  23  24
ENDBRANCH  22  23
ENDBRANCH  21  22
ENDBRANCH  20  21
ENDBRANCH  19  20
ENDBRANCH  18  19
ENDBRANCH  17  18
ENDBRANCH   1  17
TORSDOF 26
ENDMDL
MODEL 7
REMARK VINA RESULT:    -4.742      3.896      9.828
REMARK INTER + INTRA:         -16.474
REMARK INTER:                 -11.867
REMARK INTRA:                  -4.607
REMARK UNBOUND:                -4.525
REMARK SMILES CCCCCCCCCCCCCCCCCCCCCCCCCCCC(=O)[O-]
REMARK SMILES IDX 15 1 16 2 17 3 18 4 19 5 20 6 21 7 22 8 23 9 24 10 25 11
REMARK SMILES IDX 26 12 27 13 28 14 29 15 30 16 14 17 13 18 12 19 11 20 10 21
REMARK SMILES IDX 9 22 8 23 7 24 6 25 5 26 4 27 3 28 2 29 1 30
REMARK H PARENT
REMARK Flexibility Score: inf
ROOT
ATOM      1  C   UNL     1      11.374 -18.749 -14.422  1.00  0.00     0.000 C 
ENDROOT
BRANCH   1   2
ATOM      2  C   UNL     1      12.517 -19.169 -15.366  1.00  0.00     0.000 C 
BRANCH   2   3
ATOM      3  C   UNL     1      13.618 -18.097 -15.541  1.00  0.00     0.000 C 
BRANCH   3   4
ATOM      4  C   UNL     1      13.406 -16.852 -14.659  1.00  0.00     0.000 C 
BRANCH   4   5
ATOM      5  C   UNL     1      14.513 -16.668 -13.599  1.00  0.00     0.000 C 
BRANCH   5   6
ATOM      6  C   UNL     1      14.043 -16.887 -12.147  1.00  0.00     0.000 C 
BRANCH   6   7
ATOM      7  C   UNL     1      14.493 -18.218 -11.502  1.00  0.00     0.000 C 
BRANCH   7   8
ATOM      8  C   UNL     1      15.383 -19.090 -12.413  1.00  0.00     0.000 C 
BRANCH   8   9
ATOM      9  C   UNL     1      15.136 -20.606 -12.216  1.00  0.00     0.000 C 
BRANCH   9  10
ATOM     10  C   UNL     1      14.644 -21.318 -13.487  1.00  0.00     0.000 C 
BRANCH  10  11
ATOM     11  C   UNL     1      15.595 -22.436 -13.949  1.00  0.00     0.000 C 
BRANCH  11  12
ATOM     12  C   UNL     1      14.979 -23.837 -13.778  1.00  0.00     0.006 C 
BRANCH  12  13
ATOM     13  C   UNL     1      13.455 -23.785 -13.560  1.00  0.00     0.053 C 
BRANCH  13  14
ATOM     14  C   UNL     1      12.823 -25.068 -14.013  1.00  0.00     0.041 C 
ATOM     15  O   UNL     1      11.570 -25.158 -14.096  1.00  0.00    -0.550 OA
ATOM     16  O   UNL     1      13.621 -26.129 -14.429  1.00  0.00    -0.550 OA
ENDBRANCH  13  14
ENDBRANCH  12  13
ENDBRANCH  11  12
ENDBRANCH  10  11
ENDBRANCH   9  10
ENDBRANCH   8   9
ENDBRANCH   7   8
ENDBRANCH   6   7
ENDBRANCH   5   6
ENDBRANCH   4   5
ENDBRANCH   3   4
ENDBRANCH   2   3
ENDBRANCH   1   2
BRANCH   1  17
ATOM     17  C   UNL     1      11.425 -19.397 -13.020  1.00  0.00     0.000 C 
BRANCH  17  18
ATOM     18  C   UNL     1      10.696 -18.611 -11.909  1.00  0.00     0.000 C 
BRANCH  18  19
ATOM     19  C   UNL     1      10.900 -19.135 -10.469  1.00  0.00     0.000 C 
BRANCH  19  20
ATOM     20  C   UNL     1      11.084 -18.045  -9.388  1.00  0.00     0.000 C 
BRANCH  20  21
ATOM     21  C   UNL     1      12.077 -18.426  -8.271  1.00  0.00     0.000 C 
BRANCH  21  22
ATOM     22  C   UNL     1      13.141 -17.342  -8.048  1.00  0.00    -0.000 C 
BRANCH  22  23
ATOM     23  C   UNL     1      12.754 -16.025  -8.741  1.00  0.00    -0.000 C 
BRANCH  23  24
ATOM     24  C   UNL     1      12.930 -14.801  -7.822  1.00  0.00    -0.000 C 
BRANCH  24  25
ATOM     25  C   UNL     1      11.670 -13.930  -7.659  1.00  0.00    -0.000 C 
BRANCH  25  26
ATOM     26  C   UNL     1      10.351 -14.586  -8.115  1.00  0.00    -0.000 C 
BRANCH  26  27
ATOM     27  C   UNL     1       9.307 -14.785  -7.001  1.00  0.00    -0.000 C 
BRANCH  27  28
ATOM     28  C   UNL     1       9.934 -15.289  -5.689  1.00  0.00    -0.000 C 
BRANCH  28  29
ATOM     29  C   UNL     1      10.159 -16.811  -5.689  1.00  0.00    -0.003 C 
ATOM     30  C   UNL     1       8.958 -17.575  -6.248  1.00  0.00     0.004 C 
ENDBRANCH  28  29
ENDBRANCH  27  28
ENDBRANCH  26  27
ENDBRANCH  25  26
ENDBRANCH  24  25
ENDBRANCH  23  24
ENDBRANCH  22  23
ENDBRANCH  21  22
ENDBRANCH  20  21
ENDBRANCH  19  20
ENDBRANCH  18  19
ENDBRANCH  17  18
ENDBRANCH   1  17
TORSDOF 26
ENDMDL
MODEL 8
REMARK VINA RESULT:    -4.717      3.703      8.935
REMARK INTER + INTRA:         -16.411
REMARK INTER:                 -12.380
REMARK INTRA:                  -4.031
REMARK UNBOUND:                -4.525
REMARK SMILES CCCCCCCCCCCCCCCCCCCCCCCCCCCC(=O)[O-]
REMARK SMILES IDX 15 1 16 2 17 3 18 4 19 5 20 6 21 7 22 8 23 9 24 10 25 11
REMARK SMILES IDX 26 12 27 13 28 14 29 15 30 16 14 17 13 18 12 19 11 20 10 21
REMARK SMILES IDX 9 22 8 23 7 24 6 25 5 26 4 27 3 28 2 29 1 30
REMARK H PARENT
REMARK Flexibility Score: inf
ROOT
ATOM      1  C   UNL     1      14.476 -17.013 -15.242  1.00  0.00     0.000 C 
ENDROOT
BRANCH   1   2
ATOM      2  C   UNL     1      13.932 -16.555 -13.876  1.00  0.00     0.000 C 
BRANCH   2   3
ATOM      3  C   UNL     1      14.879 -16.843 -12.689  1.00  0.00     0.000 C 
BRANCH   3   4
ATOM      4  C   UNL     1      14.171 -17.491 -11.483  1.00  0.00     0.000 C 
BRANCH   4   5
ATOM      5  C   UNL     1      14.880 -17.204 -10.142  1.00  0.00     0.000 C 
BRANCH   5   6
ATOM      6  C   UNL     1      15.840 -18.319  -9.681  1.00  0.00     0.000 C 
BRANCH   6   7
ATOM      7  C   UNL     1      15.432 -19.752 -10.089  1.00  0.00     0.000 C 
BRANCH   7   8
ATOM      8  C   UNL     1      16.596 -20.610 -10.630  1.00  0.00     0.000 C 
BRANCH   8   9
ATOM      9  C   UNL     1      16.881 -20.355 -12.129  1.00  0.00     0.000 C 
BRANCH   9  10
ATOM     10  C   UNL     1      15.643 -20.520 -13.027  1.00  0.00     0.000 C 
BRANCH  10  11
ATOM     11  C   UNL     1      15.630 -21.861 -13.782  1.00  0.00     0.000 C 
BRANCH  11  12
ATOM     12  C   UNL     1      14.899 -22.967 -12.998  1.00  0.00     0.006 C 
BRANCH  12  13
ATOM     13  C   UNL     1      13.663 -23.498 -13.746  1.00  0.00     0.053 C 
BRANCH  13  14
ATOM     14  C   UNL     1      13.571 -24.988 -13.600  1.00  0.00     0.041 C 
ATOM     15  O   UNL     1      12.512 -25.589 -13.923  1.00  0.00    -0.550 OA
ATOM     16  O   UNL     1      14.683 -25.720 -13.195  1.00  0.00    -0.550 OA
ENDBRANCH  13  14
ENDBRANCH  12  13
ENDBRANCH  11  12
ENDBRANCH  10  11
ENDBRANCH   9  10
ENDBRANCH   8   9
ENDBRANCH   7   8
ENDBRANCH   6   7
ENDBRANCH   5   6
ENDBRANCH   4   5
ENDBRANCH   3   4
ENDBRANCH   2   3
ENDBRANCH   1   2
BRANCH   1  17
ATOM     17  C   UNL     1      14.203 -18.496 -15.581  1.00  0.00     0.000 C 
BRANCH  17  18
ATOM     18  C   UNL     1      12.866 -18.766 -16.305  1.00  0.00     0.000 C 
BRANCH  18  19
ATOM     19  C   UNL     1      11.740 -19.370 -15.435  1.00  0.00     0.000 C 
BRANCH  19  20
ATOM     20  C   UNL     1      12.211 -20.304 -14.298  1.00  0.00     0.000 C 
BRANCH  20  21
ATOM     21  C   UNL     1      11.776 -19.852 -12.889  1.00  0.00     0.000 C 
BRANCH  21  22
ATOM     22  C   UNL     1      11.007 -18.523 -12.919  1.00  0.00    -0.000 C 
BRANCH  22  23
ATOM     23  C   UNL     1      10.664 -18.042 -11.500  1.00  0.00    -0.000 C 
BRANCH  23  24
ATOM     24  C   UNL     1      10.646 -19.191 -10.474  1.00  0.00    -0.000 C 
BRANCH  24  25
ATOM     25  C   UNL     1      11.424 -18.909  -9.174  1.00  0.00    -0.000 C 
BRANCH  25  26
ATOM     26  C   UNL     1      10.734 -17.945  -8.189  1.00  0.00    -0.000 C 
BRANCH  26  27
ATOM     27  C   UNL     1      10.712 -18.421  -6.725  1.00  0.00    -0.000 C 
BRANCH  27  28
ATOM     28  C   UNL     1       9.406 -18.048  -6.002  1.00  0.00    -0.000 C 
BRANCH  28  29
ATOM     29  C   UNL     1       9.178 -18.880  -4.728  1.00  0.00    -0.003 C 
ATOM     30  C   UNL     1       8.473 -18.081  -3.631  1.00  0.00     0.004 C 
ENDBRANCH  28  29
ENDBRANCH  27  28
ENDBRANCH  26  27
ENDBRANCH  25  26
ENDBRANCH  24  25
ENDBRANCH  23  24
ENDBRANCH  22  23
ENDBRANCH  21  22
ENDBRANCH  20  21
ENDBRANCH  19  20
ENDBRANCH  18  19
ENDBRANCH  17  18
ENDBRANCH   1  17
TORSDOF 26
ENDMDL
MODEL 9
REMARK VINA RESULT:    -4.676      2.683      4.624
REMARK INTER + INTRA:         -16.309
REMARK INTER:                 -11.541
REMARK INTRA:                  -4.768
REMARK UNBOUND:                -4.525
REMARK SMILES CCCCCCCCCCCCCCCCCCCCCCCCCCCC(=O)[O-]
REMARK SMILES IDX 15 1 16 2 17 3 18 4 19 5 20 6 21 7 22 8 23 9 24 10 25 11
REMARK SMILES IDX 26 12 27 13 28 14 29 15 30 16 14 17 13 18 12 19 11 20 10 21
REMARK SMILES IDX 9 22 8 23 7 24 6 25 5 26 4 27 3 28 2 29 1 30
REMARK H PARENT
REMARK Flexibility Score: inf
ROOT
ATOM      1  C   UNL     1      11.680 -25.263 -14.167  1.00  0.00     0.000 C 
ENDROOT
BRANCH   1   2
ATOM      2  C   UNL     1      10.973 -23.963 -13.740  1.00  0.00     0.000 C 
BRANCH   2   3
ATOM      3  C   UNL     1      11.833 -22.690 -13.911  1.00  0.00     0.000 C 
BRANCH   3   4
ATOM      4  C   UNL     1      11.533 -21.917 -15.209  1.00  0.00     0.000 C 
BRANCH   4   5
ATOM      5  C   UNL     1      11.789 -20.400 -15.081  1.00  0.00     0.000 C 
BRANCH   5   6
ATOM      6  C   UNL     1      11.711 -19.863 -13.639  1.00  0.00     0.000 C 
BRANCH   6   7
ATOM      7  C   UNL     1      11.288 -18.383 -13.508  1.00  0.00     0.000 C 
BRANCH   7   8
ATOM      8  C   UNL     1      12.290 -17.508 -12.724  1.00  0.00     0.000 C 
BRANCH   8   9
ATOM      9  C   UNL     1      13.123 -16.582 -13.644  1.00  0.00     0.000 C 
BRANCH   9  10
ATOM     10  C   UNL     1      14.623 -16.921 -13.660  1.00  0.00     0.000 C 
BRANCH  10  11
ATOM     11  C   UNL     1      14.938 -18.190 -14.472  1.00  0.00     0.000 C 
BRANCH  11  12
ATOM     12  C   UNL     1      15.817 -19.183 -13.689  1.00  0.00     0.006 C 
BRANCH  12  13
ATOM     13  C   UNL     1      15.172 -19.616 -12.360  1.00  0.00     0.053 C 
BRANCH  13  14
ATOM     14  C   UNL     1      16.120 -19.376 -11.223  1.00  0.00     0.041 C 
ATOM     15  O   UNL     1      15.806 -18.584 -10.296  1.00  0.00    -0.550 OA
ATOM     16  O   UNL     1      17.307 -20.097 -11.141  1.00  0.00    -0.550 OA
ENDBRANCH  13  14
ENDBRANCH  12  13
ENDBRANCH  11  12
ENDBRANCH  10  11
ENDBRANCH   9  10
ENDBRANCH   8   9
ENDBRANCH   7   8
ENDBRANCH   6   7
ENDBRANCH   5   6
ENDBRANCH   4   5
ENDBRANCH   3   4
ENDBRANCH   2   3
ENDBRANCH   1   2
BRANCH   1  17
ATOM     17  C   UNL     1      13.188 -25.317 -13.834  1.00  0.00     0.000 C 
BRANCH  17  18
ATOM     18  C   UNL     1      13.906 -26.617 -14.256  1.00  0.00     0.000 C 
BRANCH  18  19
ATOM     19  C   UNL     1      15.183 -26.435 -15.108  1.00  0.00     0.000 C 
BRANCH  19  20
ATOM     20  C   UNL     1      16.490 -26.937 -14.456  1.00  0.00     0.000 C 
BRANCH  20  21
ATOM     21  C   UNL     1      16.461 -26.951 -12.914  1.00  0.00     0.000 C 
BRANCH  21  22
ATOM     22  C   UNL     1      17.711 -26.300 -12.304  1.00  0.00    -0.000 C 
BRANCH  22  23
ATOM     23  C   UNL     1      17.379 -25.563 -10.997  1.00  0.00    -0.000 C 
BRANCH  23  24
ATOM     24  C   UNL     1      16.008 -24.862 -11.046  1.00  0.00    -0.000 C 
BRANCH  24  25
ATOM     25  C   UNL     1      16.045 -23.404 -11.545  1.00  0.00    -0.000 C 
BRANCH  25  26
ATOM     26  C   UNL     1      15.296 -23.141 -12.867  1.00  0.00    -0.000 C 
BRANCH  26  27
ATOM     27  C   UNL     1      16.200 -22.795 -14.065  1.00  0.00    -0.000 C 
BRANCH  27  28
ATOM     28  C   UNL     1      17.682 -22.671 -13.670  1.00  0.00    -0.000 C 
BRANCH  28  29
ATOM     29  C   UNL     1      18.609 -23.467 -14.605  1.00  0.00    -0.003 C 
ATOM     30  C   UNL     1      17.905 -23.898 -15.893  1.00  0.00     0.004 C 
ENDBRANCH  28  29
ENDBRANCH  27  28
ENDBRANCH  26  27
ENDBRANCH  25  26
ENDBRANCH  24  25
ENDBRANCH  23  24
ENDBRANCH  22  23
ENDBRANCH  21  22
ENDBRANCH  20  21
ENDBRANCH  19  20
ENDBRANCH  18  19
ENDBRANCH  17  18
ENDBRANCH   1  17
TORSDOF 26
ENDMDL
