MODEL 1
REMARK VINA RESULT:    -2.641      0.000      0.000
REMARK INTER + INTRA:         -10.027
REMARK INTER:                  -6.965
REMARK INTRA:                  -3.062
REMARK UNBOUND:                -3.062
REMARK SMILES CCCCCCCCCCCCCCCCCCCCCCCCCCCCCC(=O)[O-]
REMARK SMILES IDX 16 1 17 2 18 3 19 4 20 5 21 6 22 7 23 8 24 9 25 10 26 11
REMARK SMILES IDX 27 12 28 13 29 14 30 15 31 16 32 17 15 18 14 19 13 20 12 21
REMARK SMILES IDX 11 22 10 23 9 24 8 25 7 26 6 27 5 28 4 29 3 30 2 31 1 32
REMARK H PARENT
REMARK Flexibility Score: inf
ROOT
ATOM      1  C   UNL     1     -13.690   8.875   3.104  1.00  0.00     0.000 C 
ENDROOT
BRANCH   1   2
ATOM      2  C   UNL     1     -13.873  10.010   4.125  1.00  0.00     0.000 C 
BRANCH   2   3
ATOM      3  C   UNL     1     -12.534  10.601   4.601  1.00  0.00     0.000 C 
BRANCH   3   4
ATOM      4  C   UNL     1     -12.366  10.523   6.128  1.00  0.00     0.000 C 
BRANCH   4   5
ATOM      5  C   UNL     1     -12.755   9.147   6.696  1.00  0.00     0.000 C 
BRANCH   5   6
ATOM      6  C   UNL     1     -13.239   9.229   8.152  1.00  0.00     0.000 C 
BRANCH   6   7
ATOM      7  C   UNL     1     -14.773   9.294   8.262  1.00  0.00     0.000 C 
BRANCH   7   8
ATOM      8  C   UNL     1     -15.377  10.460   7.457  1.00  0.00     0.000 C 
BRANCH   8   9
ATOM      9  C   UNL     1     -16.918  10.487   7.413  1.00  0.00     0.000 C 
BRANCH   9  10
ATOM     10  C   UNL     1     -17.603   9.151   7.765  1.00  0.00     0.000 C 
BRANCH  10  11
ATOM     11  C   UNL     1     -18.373   9.146   9.100  1.00  0.00     0.000 C 
BRANCH  11  12
ATOM     12  C   UNL     1     -18.310  10.466   9.893  1.00  0.00     0.000 C 
BRANCH  12  13
ATOM     13  C   UNL     1     -18.312  10.245  11.416  1.00  0.00     0.006 C 
BRANCH  13  14
ATOM     14  C   UNL     1     -17.729  11.443  12.177  1.00  0.00     0.053 C 
BRANCH  14  15
ATOM     15  C   UNL     1     -16.443  11.099  12.867  1.00  0.00     0.041 C 
ATOM     16  O   UNL     1     -15.578  11.990  13.078  1.00  0.00    -0.550 OA
ATOM     17  O   UNL     1     -16.200   9.792  13.272  1.00  0.00    -0.550 OA
ENDBRANCH  14  15
ENDBRANCH  13  14
ENDBRANCH  12  13
ENDBRANCH  11  12
ENDBRANCH  10  11
ENDBRANCH   9  10
ENDBRANCH   8   9
ENDBRANCH   7   8
ENDBRANCH   6   7
ENDBRANCH   5   6
ENDBRANCH   4   5
ENDBRANCH   3   4
ENDBRANCH   2   3
ENDBRANCH   1   2
BRANCH   1  18
ATOM     18  C   UNL     1     -13.184   9.382   1.741  1.00  0.00     0.000 C 
BRANCH  18  19
ATOM     19  C   UNL     1     -14.114   8.993   0.577  1.00  0.00     0.000 C 
BRANCH  19  20
ATOM     20  C   UNL     1     -13.425   8.876  -0.798  1.00  0.00     0.000 C 
BRANCH  20  21
ATOM     21  C   UNL     1     -14.247   9.404  -1.991  1.00  0.00     0.000 C 
BRANCH  21  22
ATOM     22  C   UNL     1     -15.339  10.428  -1.634  1.00  0.00     0.000 C 
BRANCH  22  23
ATOM     23  C   UNL     1     -15.311  11.675  -2.534  1.00  0.00     0.000 C 
BRANCH  23  24
ATOM     24  C   UNL     1     -16.702  12.301  -2.741  1.00  0.00    -0.000 C 
BRANCH  24  25
ATOM     25  C   UNL     1     -17.846  11.306  -3.007  1.00  0.00    -0.000 C 
BRANCH  25  26
ATOM     26  C   UNL     1     -18.988  11.407  -1.982  1.00  0.00    -0.000 C 
BRANCH  26  27
ATOM     27  C   UNL     1     -18.723  12.465  -0.896  1.00  0.00    -0.000 C 
BRANCH  27  28
ATOM     28  C   UNL     1     -18.729  11.936   0.552  1.00  0.00    -0.000 C 
BRANCH  28  29
ATOM     29  C   UNL     1     -17.503  11.086   0.940  1.00  0.00    -0.000 C 
BRANCH  29  30
ATOM     30  C   UNL     1     -17.807   9.886   1.859  1.00  0.00    -0.000 C 
BRANCH  30  31
ATOM     31  C   UNL     1     -17.599  10.152   3.361  1.00  0.00    -0.003 C 
ATOM     32  C   UNL     1     -18.590   9.395   4.243  1.00  0.00     0.004 C 
ENDBRANCH  30  31
ENDBRANCH  29  30
ENDBRANCH  28  29
ENDBRANCH  27  28
ENDBRANCH  26  27
ENDBRANCH  25  26
ENDBRANCH  24  25
ENDBRANCH  23  24
ENDBRANCH  22  23
ENDBRANCH  21  22
ENDBRANCH  20  21
ENDBRANCH  19  20
ENDBRANCH  18  19
ENDBRANCH   1  18
TORSDOF 28
ENDMDL
MODEL 2
REMARK VINA RESULT:    -2.489      4.322     10.935
REMARK INTER + INTRA:          -9.624
REMARK INTER:                  -7.852
REMARK INTRA:                  -1.773
REMARK UNBOUND:                -3.062
REMARK SMILES CCCCCCCCCCCCCCCCCCCCCCCCCCCCCC(=O)[O-]
REMARK SMILES IDX 16 1 17 2 18 3 19 4 20 5 21 6 22 7 23 8 24 9 25 10 26 11
REMARK SMILES IDX 27 12 28 13 29 14 30 15 31 16 32 17 15 18 14 19 13 20 12 21
REMARK SMILES IDX 11 22 10 23 9 24 8 25 7 26 6 27 5 28 4 29 3 30 2 31 1 32
REMARK H PARENT
REMARK Flexibility Score: inf
ROOT
ATOM      1  C   UNL     1     -11.713  11.057   5.142  1.00  0.00     0.000 C 
ENDROOT
BRANCH   1   2
ATOM      2  C   UNL     1     -12.811  11.014   4.066  1.00  0.00     0.000 C 
BRANCH   2   3
ATOM      3  C   UNL     1     -13.115   9.584   3.587  1.00  0.00     0.000 C 
BRANCH   3   4
ATOM      4  C   UNL     1     -14.528   9.120   3.978  1.00  0.00     0.000 C 
BRANCH   4   5
ATOM      5  C   UNL     1     -15.479   9.039   2.771  1.00  0.00     0.000 C 
BRANCH   5   6
ATOM      6  C   UNL     1     -16.586  10.104   2.825  1.00  0.00     0.000 C 
BRANCH   6   7
ATOM      7  C   UNL     1     -17.549  10.016   1.627  1.00  0.00     0.000 C 
BRANCH   7   8
ATOM      8  C   UNL     1     -16.817   9.799   0.290  1.00  0.00     0.000 C 
BRANCH   8   9
ATOM      9  C   UNL     1     -17.407  10.572  -0.906  1.00  0.00     0.000 C 
BRANCH   9  10
ATOM     10  C   UNL     1     -16.675  11.881  -1.261  1.00  0.00     0.000 C 
BRANCH  10  11
ATOM     11  C   UNL     1     -17.340  12.719  -2.371  1.00  0.00     0.000 C 
BRANCH  11  12
ATOM     12  C   UNL     1     -16.835  12.428  -3.797  1.00  0.00     0.000 C 
BRANCH  12  13
ATOM     13  C   UNL     1     -15.309  12.240  -3.861  1.00  0.00     0.006 C 
BRANCH  13  14
ATOM     14  C   UNL     1     -14.909  10.759  -3.918  1.00  0.00     0.053 C 
BRANCH  14  15
ATOM     15  C   UNL     1     -13.633  10.493  -3.177  1.00  0.00     0.041 C 
ATOM     16  O   UNL     1     -13.657   9.902  -2.065  1.00  0.00    -0.550 OA
ATOM     17  O   UNL     1     -12.419  10.902  -3.715  1.00  0.00    -0.550 OA
ENDBRANCH  14  15
ENDBRANCH  13  14
ENDBRANCH  12  13
ENDBRANCH  11  12
ENDBRANCH  10  11
ENDBRANCH   9  10
ENDBRANCH   8   9
ENDBRANCH   7   8
ENDBRANCH   6   7
ENDBRANCH   5   6
ENDBRANCH   4   5
ENDBRANCH   3   4
ENDBRANCH   2   3
ENDBRANCH   1   2
BRANCH   1  18
ATOM     18  C   UNL     1     -12.261  10.806   6.557  1.00  0.00     0.000 C 
BRANCH  18  19
ATOM     19  C   UNL     1     -12.512   9.315   6.846  1.00  0.00     0.000 C 
BRANCH  19  20
ATOM     20  C   UNL     1     -13.556   9.028   7.943  1.00  0.00     0.000 C 
BRANCH  20  21
ATOM     21  C   UNL     1     -15.000   9.451   7.602  1.00  0.00     0.000 C 
BRANCH  21  22
ATOM     22  C   UNL     1     -16.045   9.156   8.693  1.00  0.00     0.000 C 
BRANCH  22  23
ATOM     23  C   UNL     1     -17.162  10.212   8.754  1.00  0.00     0.000 C 
BRANCH  23  24
ATOM     24  C   UNL     1     -18.568   9.596   8.884  1.00  0.00    -0.000 C 
BRANCH  24  25
ATOM     25  C   UNL     1     -19.117   9.493  10.319  1.00  0.00    -0.000 C 
BRANCH  25  26
ATOM     26  C   UNL     1     -18.022   9.238  11.369  1.00  0.00    -0.000 C 
BRANCH  26  27
ATOM     27  C   UNL     1     -17.720  10.479  12.230  1.00  0.00    -0.000 C 
BRANCH  27  28
ATOM     28  C   UNL     1     -16.246  10.930  12.235  1.00  0.00    -0.000 C 
BRANCH  28  29
ATOM     29  C   UNL     1     -15.596  11.021  13.630  1.00  0.00    -0.000 C 
BRANCH  29  30
ATOM     30  C   UNL     1     -14.078  10.755  13.660  1.00  0.00    -0.000 C 
BRANCH  30  31
ATOM     31  C   UNL     1     -13.436  10.520  12.281  1.00  0.00    -0.003 C 
ATOM     32  C   UNL     1     -13.612   9.088  11.778  1.00  0.00     0.004 C 
ENDBRANCH  30  31
ENDBRANCH  29  30
ENDBRANCH  28  29
ENDBRANCH  27  28
ENDBRANCH  26  27
ENDBRANCH  25  26
ENDBRANCH  24  25
ENDBRANCH  23  24
ENDBRANCH  22  23
ENDBRANCH  21  22
ENDBRANCH  20  21
ENDBRANCH  19  20
ENDBRANCH  18  19
ENDBRANCH   1  18
TORSDOF 28
ENDMDL
MODEL 3
REMARK VINA RESULT:    -2.408      1.430      2.272
REMARK INTER + INTRA:          -9.412
REMARK INTER:                  -7.546
REMARK INTRA:                  -1.866
REMARK UNBOUND:                -3.062
REMARK SMILES CCCCCCCCCCCCCCCCCCCCCCCCCCCCCC(=O)[O-]
REMARK SMILES IDX 16 1 17 2 18 3 19 4 20 5 21 6 22 7 23 8 24 9 25 10 26 11
REMARK SMILES IDX 27 12 28 13 29 14 30 15 31 16 32 17 15 18 14 19 13 20 12 21
REMARK SMILES IDX 11 22 10 23 9 24 8 25 7 26 6 27 5 28 4 29 3 30 2 31 1 32
REMARK H PARENT
REMARK Flexibility Score: inf
ROOT
ATOM      1  C   UNL     1     -13.269   9.294   2.228  1.00  0.00     0.000 C 
ENDROOT
BRANCH   1   2
ATOM      2  C   UNL     1     -12.759  10.017   3.486  1.00  0.00     0.000 C 
BRANCH   2   3
ATOM      3  C   UNL     1     -11.974   9.086   4.427  1.00  0.00     0.000 C 
BRANCH   3   4
ATOM      4  C   UNL     1     -11.989   9.573   5.885  1.00  0.00     0.000 C 
BRANCH   4   5
ATOM      5  C   UNL     1     -13.067   8.875   6.730  1.00  0.00     0.000 C 
BRANCH   5   6
ATOM      6  C   UNL     1     -13.520   9.729   7.926  1.00  0.00     0.000 C 
BRANCH   6   7
ATOM      7  C   UNL     1     -15.034  10.002   7.918  1.00  0.00     0.000 C 
BRANCH   7   8
ATOM      8  C   UNL     1     -15.763   9.279   6.769  1.00  0.00     0.000 C 
BRANCH   8   9
ATOM      9  C   UNL     1     -17.273   9.571   6.675  1.00  0.00     0.000 C 
BRANCH   9  10
ATOM     10  C   UNL     1     -17.845  10.424   7.825  1.00  0.00     0.000 C 
BRANCH  10  11
ATOM     11  C   UNL     1     -17.938   9.705   9.185  1.00  0.00     0.000 C 
BRANCH  11  12
ATOM     12  C   UNL     1     -17.596  10.578  10.408  1.00  0.00     0.000 C 
BRANCH  12  13
ATOM     13  C   UNL     1     -17.243   9.745  11.653  1.00  0.00     0.006 C 
BRANCH  13  14
ATOM     14  C   UNL     1     -17.375  10.554  12.950  1.00  0.00     0.053 C 
BRANCH  14  15
ATOM     15  C   UNL     1     -16.547  11.803  12.919  1.00  0.00     0.041 C 
ATOM     16  O   UNL     1     -15.339  11.773  13.275  1.00  0.00    -0.550 OA
ATOM     17  O   UNL     1     -17.113  13.001  12.500  1.00  0.00    -0.550 OA
ENDBRANCH  14  15
ENDBRANCH  13  14
ENDBRANCH  12  13
ENDBRANCH  11  12
ENDBRANCH  10  11
ENDBRANCH   9  10
ENDBRANCH   8   9
ENDBRANCH   7   8
ENDBRANCH   6   7
ENDBRANCH   5   6
ENDBRANCH   4   5
ENDBRANCH   3   4
ENDBRANCH   2   3
ENDBRANCH   1   2
BRANCH   1  18
ATOM     18  C   UNL     1     -12.129   8.875   1.283  1.00  0.00     0.000 C 
BRANCH  18  19
ATOM     19  C   UNL     1     -12.156   9.631  -0.058  1.00  0.00     0.000 C 
BRANCH  19  20
ATOM     20  C   UNL     1     -13.186   9.109  -1.081  1.00  0.00     0.000 C 
BRANCH  20  21
ATOM     21  C   UNL     1     -13.826  10.189  -1.978  1.00  0.00     0.000 C 
BRANCH  21  22
ATOM     22  C   UNL     1     -13.453  10.110  -3.469  1.00  0.00     0.000 C 
BRANCH  22  23
ATOM     23  C   UNL     1     -14.682  10.068  -4.393  1.00  0.00     0.000 C 
BRANCH  23  24
ATOM     24  C   UNL     1     -15.197  11.468  -4.775  1.00  0.00    -0.000 C 
BRANCH  24  25
ATOM     25  C   UNL     1     -16.345  11.496  -5.801  1.00  0.00    -0.000 C 
BRANCH  25  26
ATOM     26  C   UNL     1     -17.739  11.502  -5.149  1.00  0.00    -0.000 C 
BRANCH  26  27
ATOM     27  C   UNL     1     -17.685  11.715  -3.626  1.00  0.00    -0.000 C 
BRANCH  27  28
ATOM     28  C   UNL     1     -18.365  10.617  -2.785  1.00  0.00    -0.000 C 
BRANCH  28  29
ATOM     29  C   UNL     1     -17.525  10.079  -1.610  1.00  0.00    -0.000 C 
BRANCH  29  30
ATOM     30  C   UNL     1     -17.273  11.090  -0.474  1.00  0.00    -0.000 C 
BRANCH  30  31
ATOM     31  C   UNL     1     -18.537  11.780   0.070  1.00  0.00    -0.003 C 
ATOM     32  C   UNL     1     -18.566  13.281  -0.217  1.00  0.00     0.004 C 
ENDBRANCH  30  31
ENDBRANCH  29  30
ENDBRANCH  28  29
ENDBRANCH  27  28
ENDBRANCH  26  27
ENDBRANCH  25  26
ENDBRANCH  24  25
ENDBRANCH  23  24
ENDBRANCH  22  23
ENDBRANCH  21  22
ENDBRANCH  20  21
ENDBRANCH  19  20
ENDBRANCH  18  19
ENDBRANCH   1  18
TORSDOF 28
ENDMDL
MODEL 4
REMARK VINA RESULT:    -2.236      1.988      4.217
REMARK INTER + INTRA:          -8.958
REMARK INTER:                  -7.162
REMARK INTRA:                  -1.797
REMARK UNBOUND:                -3.062
REMARK SMILES CCCCCCCCCCCCCCCCCCCCCCCCCCCCCC(=O)[O-]
REMARK SMILES IDX 16 1 17 2 18 3 19 4 20 5 21 6 22 7 23 8 24 9 25 10 26 11
REMARK SMILES IDX 27 12 28 13 29 14 30 15 31 16 32 17 15 18 14 19 13 20 12 21
REMARK SMILES IDX 11 22 10 23 9 24 8 25 7 26 6 27 5 28 4 29 3 30 2 31 1 32
REMARK H PARENT
REMARK Flexibility Score: inf
ROOT
ATOM      1  C   UNL     1     -11.767  10.903  -0.878  1.00  0.00     0.000 C 
ENDROOT
BRANCH   1   2
ATOM      2  C   UNL     1     -11.667   9.529  -0.196  1.00  0.00     0.000 C 
BRANCH   2   3
ATOM      3  C   UNL     1     -11.883   9.606   1.326  1.00  0.00     0.000 C 
BRANCH   3   4
ATOM      4  C   UNL     1     -13.159   8.875   1.777  1.00  0.00     0.000 C 
BRANCH   4   5
ATOM      5  C   UNL     1     -13.470   9.095   3.267  1.00  0.00     0.000 C 
BRANCH   5   6
ATOM      6  C   UNL     1     -12.282   9.700   4.032  1.00  0.00     0.000 C 
BRANCH   6   7
ATOM      7  C   UNL     1     -12.725  10.560   5.229  1.00  0.00     0.000 C 
BRANCH   7   8
ATOM      8  C   UNL     1     -12.537   9.842   6.579  1.00  0.00     0.000 C 
BRANCH   8   9
ATOM      9  C   UNL     1     -13.674   8.876   6.964  1.00  0.00     0.000 C 
BRANCH   9  10
ATOM     10  C   UNL     1     -14.909   9.544   7.602  1.00  0.00     0.000 C 
BRANCH  10  11
ATOM     11  C   UNL     1     -14.983   9.443   9.138  1.00  0.00     0.000 C 
BRANCH  11  12
ATOM     12  C   UNL     1     -13.666   9.040   9.829  1.00  0.00     0.000 C 
BRANCH  12  13
ATOM     13  C   UNL     1     -13.778   9.029  11.364  1.00  0.00     0.006 C 
BRANCH  13  14
ATOM     14  C   UNL     1     -13.629  10.433  11.967  1.00  0.00     0.053 C 
BRANCH  14  15
ATOM     15  C   UNL     1     -14.882  10.883  12.656  1.00  0.00     0.041 C 
ATOM     16  O   UNL     1     -15.957  10.995  12.009  1.00  0.00    -0.550 OA
ATOM     17  O   UNL     1     -14.859  11.184  14.012  1.00  0.00    -0.550 OA
ENDBRANCH  14  15
ENDBRANCH  13  14
ENDBRANCH  12  13
ENDBRANCH  11  12
ENDBRANCH  10  11
ENDBRANCH   9  10
ENDBRANCH   8   9
ENDBRANCH   7   8
ENDBRANCH   6   7
ENDBRANCH   5   6
ENDBRANCH   4   5
ENDBRANCH   3   4
ENDBRANCH   2   3
ENDBRANCH   1   2
BRANCH   1  18
ATOM     18  C   UNL     1     -12.129  10.798  -2.370  1.00  0.00     0.000 C 
BRANCH  18  19
ATOM     19  C   UNL     1     -13.627  10.532  -2.604  1.00  0.00     0.000 C 
BRANCH  19  20
ATOM     20  C   UNL     1     -14.250   9.457  -1.691  1.00  0.00     0.000 C 
BRANCH  20  21
ATOM     21  C   UNL     1     -15.770   9.587  -1.465  1.00  0.00     0.000 C 
BRANCH  21  22
ATOM     22  C   UNL     1     -16.226   9.504   0.003  1.00  0.00     0.000 C 
BRANCH  22  23
ATOM     23  C   UNL     1     -17.693   9.067   0.152  1.00  0.00     0.000 C 
BRANCH  23  24
ATOM     24  C   UNL     1     -18.693  10.197  -0.155  1.00  0.00    -0.000 C 
BRANCH  24  25
ATOM     25  C   UNL     1     -18.222  11.618   0.205  1.00  0.00    -0.000 C 
BRANCH  25  26
ATOM     26  C   UNL     1     -18.960  12.717  -0.578  1.00  0.00    -0.000 C 
BRANCH  26  27
ATOM     27  C   UNL     1     -18.232  14.073  -0.534  1.00  0.00    -0.000 C 
BRANCH  27  28
ATOM     28  C   UNL     1     -18.945  15.225  -1.269  1.00  0.00    -0.000 C 
BRANCH  28  29
ATOM     29  C   UNL     1     -19.097  15.034  -2.791  1.00  0.00    -0.000 C 
BRANCH  29  30
ATOM     30  C   UNL     1     -18.040  14.120  -3.441  1.00  0.00    -0.000 C 
BRANCH  30  31
ATOM     31  C   UNL     1     -18.612  12.970  -4.289  1.00  0.00    -0.003 C 
ATOM     32  C   UNL     1     -17.889  11.644  -4.061  1.00  0.00     0.004 C 
ENDBRANCH  30  31
ENDBRANCH  29  30
ENDBRANCH  28  29
ENDBRANCH  27  28
ENDBRANCH  26  27
ENDBRANCH  25  26
ENDBRANCH  24  25
ENDBRANCH  23  24
ENDBRANCH  22  23
ENDBRANCH  21  22
ENDBRANCH  20  21
ENDBRANCH  19  20
ENDBRANCH  18  19
ENDBRANCH   1  18
TORSDOF 28
ENDMDL
MODEL 5
REMARK VINA RESULT:    -2.195      3.111      6.126
REMARK INTER + INTRA:          -8.851
REMARK INTER:                  -5.774
REMARK INTRA:                  -3.077
REMARK UNBOUND:                -3.062
REMARK SMILES CCCCCCCCCCCCCCCCCCCCCCCCCCCCCC(=O)[O-]
REMARK SMILES IDX 16 1 17 2 18 3 19 4 20 5 21 6 22 7 23 8 24 9 25 10 26 11
REMARK SMILES IDX 27 12 28 13 29 14 30 15 31 16 32 17 15 18 14 19 13 20 12 21
REMARK SMILES IDX 11 22 10 23 9 24 8 25 7 26 6 27 5 28 4 29 3 30 2 31 1 32
REMARK H PARENT
REMARK Flexibility Score: inf
ROOT
ATOM      1  C   UNL     1     -17.840  13.541  -0.175  1.00  0.00     0.000 C 
ENDROOT
BRANCH   1   2
ATOM      2  C   UNL     1     -19.074  13.185   0.670  1.00  0.00     0.000 C 
BRANCH   2   3
ATOM      3  C   UNL     1     -19.056  11.725   1.159  1.00  0.00     0.000 C 
BRANCH   3   4
ATOM      4  C   UNL     1     -17.634  11.220   1.452  1.00  0.00     0.000 C 
BRANCH   4   5
ATOM      5  C   UNL     1     -17.474  10.712   2.895  1.00  0.00     0.000 C 
BRANCH   5   6
ATOM      6  C   UNL     1     -17.920   9.250   3.057  1.00  0.00     0.000 C 
BRANCH   6   7
ATOM      7  C   UNL     1     -18.201   8.875   4.522  1.00  0.00     0.000 C 
BRANCH   7   8
ATOM      8  C   UNL     1     -18.475  10.105   5.408  1.00  0.00     0.000 C 
BRANCH   8   9
ATOM      9  C   UNL     1     -18.059   9.946   6.884  1.00  0.00     0.000 C 
BRANCH   9  10
ATOM     10  C   UNL     1     -16.981   8.876   7.145  1.00  0.00     0.000 C 
BRANCH  10  11
ATOM     11  C   UNL     1     -15.551   9.423   7.329  1.00  0.00     0.000 C 
BRANCH  11  12
ATOM     12  C   UNL     1     -14.546   8.997   6.242  1.00  0.00     0.000 C 
BRANCH  12  13
ATOM     13  C   UNL     1     -14.739   9.764   4.921  1.00  0.00     0.006 C 
BRANCH  13  14
ATOM     14  C   UNL     1     -13.799  10.972   4.808  1.00  0.00     0.053 C 
BRANCH  14  15
ATOM     15  C   UNL     1     -12.381  10.612   5.130  1.00  0.00     0.041 C 
ATOM     16  O   UNL     1     -11.655  11.410   5.782  1.00  0.00    -0.550 OA
ATOM     17  O   UNL     1     -11.859   9.396   4.706  1.00  0.00    -0.550 OA
ENDBRANCH  14  15
ENDBRANCH  13  14
ENDBRANCH  12  13
ENDBRANCH  11  12
ENDBRANCH  10  11
ENDBRANCH   9  10
ENDBRANCH   8   9
ENDBRANCH   7   8
ENDBRANCH   6   7
ENDBRANCH   5   6
ENDBRANCH   4   5
ENDBRANCH   3   4
ENDBRANCH   2   3
ENDBRANCH   1   2
BRANCH   1  18
ATOM     18  C   UNL     1     -18.204  13.927  -1.620  1.00  0.00     0.000 C 
BRANCH  18  19
ATOM     19  C   UNL     1     -17.643  12.942  -2.662  1.00  0.00     0.000 C 
BRANCH  19  20
ATOM     20  C   UNL     1     -18.415  12.892  -3.996  1.00  0.00     0.000 C 
BRANCH  20  21
ATOM     21  C   UNL     1     -18.997  11.513  -4.366  1.00  0.00     0.000 C 
BRANCH  21  22
ATOM     22  C   UNL     1     -17.958  10.399  -4.585  1.00  0.00     0.000 C 
BRANCH  22  23
ATOM     23  C   UNL     1     -17.211  10.530  -5.923  1.00  0.00     0.000 C 
BRANCH  23  24
ATOM     24  C   UNL     1     -16.139   9.443  -6.124  1.00  0.00    -0.000 C 
BRANCH  24  25
ATOM     25  C   UNL     1     -14.679   9.923  -6.026  1.00  0.00    -0.000 C 
BRANCH  25  26
ATOM     26  C   UNL     1     -14.506  11.150  -5.115  1.00  0.00    -0.000 C 
BRANCH  26  27
ATOM     27  C   UNL     1     -13.180  11.131  -4.332  1.00  0.00    -0.000 C 
BRANCH  27  28
ATOM     28  C   UNL     1     -13.289  10.661  -2.869  1.00  0.00    -0.000 C 
BRANCH  28  29
ATOM     29  C   UNL     1     -14.718  10.651  -2.290  1.00  0.00    -0.000 C 
BRANCH  29  30
ATOM     30  C   UNL     1     -15.054   9.434  -1.406  1.00  0.00    -0.000 C 
BRANCH  30  31
ATOM     31  C   UNL     1     -16.464   9.452  -0.791  1.00  0.00    -0.003 C 
ATOM     32  C   UNL     1     -17.535   8.914  -1.739  1.00  0.00     0.004 C 
ENDBRANCH  30  31
ENDBRANCH  29  30
ENDBRANCH  28  29
ENDBRANCH  27  28
ENDBRANCH  26  27
ENDBRANCH  25  26
ENDBRANCH  24  25
ENDBRANCH  23  24
ENDBRANCH  22  23
ENDBRANCH  21  22
ENDBRANCH  20  21
ENDBRANCH  19  20
ENDBRANCH  18  19
ENDBRANCH   1  18
TORSDOF 28
ENDMDL
MODEL 6
REMARK VINA RESULT:    -2.139      1.491      2.599
REMARK INTER + INTRA:          -8.704
REMARK INTER:                  -5.905
REMARK INTRA:                  -2.799
REMARK UNBOUND:                -3.062
REMARK SMILES CCCCCCCCCCCCCCCCCCCCCCCCCCCCCC(=O)[O-]
REMARK SMILES IDX 16 1 17 2 18 3 19 4 20 5 21 6 22 7 23 8 24 9 25 10 26 11
REMARK SMILES IDX 27 12 28 13 29 14 30 15 31 16 32 17 15 18 14 19 13 20 12 21
REMARK SMILES IDX 11 22 10 23 9 24 8 25 7 26 6 27 5 28 4 29 3 30 2 31 1 32
REMARK H PARENT
REMARK Flexibility Score: inf
ROOT
ATOM      1  C   UNL     1     -12.205  10.017  -0.262  1.00  0.00     0.000 C 
ENDROOT
BRANCH   1   2
ATOM      2  C   UNL     1     -12.132   8.875   0.765  1.00  0.00     0.000 C 
BRANCH   2   3
ATOM      3  C   UNL     1     -12.206   9.379   2.218  1.00  0.00     0.000 C 
BRANCH   3   4
ATOM      4  C   UNL     1     -13.602   9.192   2.835  1.00  0.00     0.000 C 
BRANCH   4   5
ATOM      5  C   UNL     1     -13.554   9.014   4.362  1.00  0.00     0.000 C 
BRANCH   5   6
ATOM      6  C   UNL     1     -14.024  10.269   5.115  1.00  0.00     0.000 C 
BRANCH   6   7
ATOM      7  C   UNL     1     -15.322  10.855   4.533  1.00  0.00     0.000 C 
BRANCH   7   8
ATOM      8  C   UNL     1     -16.551   9.969   4.811  1.00  0.00     0.000 C 
BRANCH   8   9
ATOM      9  C   UNL     1     -16.595   9.344   6.219  1.00  0.00     0.000 C 
BRANCH   9  10
ATOM     10  C   UNL     1     -17.653   9.946   7.166  1.00  0.00     0.000 C 
BRANCH  10  11
ATOM     11  C   UNL     1     -17.351   9.781   8.669  1.00  0.00     0.000 C 
BRANCH  11  12
ATOM     12  C   UNL     1     -18.201  10.662   9.604  1.00  0.00     0.000 C 
BRANCH  12  13
ATOM     13  C   UNL     1     -17.790  10.530  11.081  1.00  0.00     0.006 C 
BRANCH  13  14
ATOM     14  C   UNL     1     -16.295  10.805  11.295  1.00  0.00     0.053 C 
BRANCH  14  15
ATOM     15  C   UNL     1     -15.957  10.976  12.745  1.00  0.00     0.041 C 
ATOM     16  O   UNL     1     -16.796  10.667  13.632  1.00  0.00    -0.550 OA
ATOM     17  O   UNL     1     -14.716  11.480  13.114  1.00  0.00    -0.550 OA
ENDBRANCH  14  15
ENDBRANCH  13  14
ENDBRANCH  12  13
ENDBRANCH  11  12
ENDBRANCH  10  11
ENDBRANCH   9  10
ENDBRANCH   8   9
ENDBRANCH   7   8
ENDBRANCH   6   7
ENDBRANCH   5   6
ENDBRANCH   4   5
ENDBRANCH   3   4
ENDBRANCH   2   3
ENDBRANCH   1   2
BRANCH   1  18
ATOM     18  C   UNL     1     -12.805   9.567  -1.605  1.00  0.00     0.000 C 
BRANCH  18  19
ATOM     19  C   UNL     1     -14.331   9.759  -1.673  1.00  0.00     0.000 C 
BRANCH  19  20
ATOM     20  C   UNL     1     -15.015   9.132  -2.905  1.00  0.00     0.000 C 
BRANCH  20  21
ATOM     21  C   UNL     1     -16.539   8.930  -2.778  1.00  0.00     0.000 C 
BRANCH  21  22
ATOM     22  C   UNL     1     -17.337   9.123  -4.080  1.00  0.00     0.000 C 
BRANCH  22  23
ATOM     23  C   UNL     1     -18.267  10.348  -4.038  1.00  0.00     0.000 C 
BRANCH  23  24
ATOM     24  C   UNL     1     -17.706  11.558  -4.809  1.00  0.00    -0.000 C 
BRANCH  24  25
ATOM     25  C   UNL     1     -16.556  12.312  -4.115  1.00  0.00    -0.000 C 
BRANCH  25  26
ATOM     26  C   UNL     1     -16.859  12.660  -2.648  1.00  0.00    -0.000 C 
BRANCH  26  27
ATOM     27  C   UNL     1     -18.229  13.337  -2.466  1.00  0.00    -0.000 C 
BRANCH  27  28
ATOM     28  C   UNL     1     -19.094  12.772  -1.322  1.00  0.00    -0.000 C 
BRANCH  28  29
ATOM     29  C   UNL     1     -18.313  12.335  -0.067  1.00  0.00    -0.000 C 
BRANCH  29  30
ATOM     30  C   UNL     1     -17.777  10.890  -0.104  1.00  0.00    -0.000 C 
BRANCH  30  31
ATOM     31  C   UNL     1     -17.243  10.364   1.240  1.00  0.00    -0.003 C 
ATOM     32  C   UNL     1     -16.902   8.875   1.204  1.00  0.00     0.004 C 
ENDBRANCH  30  31
ENDBRANCH  29  30
ENDBRANCH  28  29
ENDBRANCH  27  28
ENDBRANCH  26  27
ENDBRANCH  25  26
ENDBRANCH  24  25
ENDBRANCH  23  24
ENDBRANCH  22  23
ENDBRANCH  21  22
ENDBRANCH  20  21
ENDBRANCH  19  20
ENDBRANCH  18  19
ENDBRANCH   1  18
TORSDOF 28
ENDMDL
MODEL 7
REMARK VINA RESULT:    -2.137      1.764      3.608
REMARK INTER + INTRA:          -8.697
REMARK INTER:                  -5.784
REMARK INTRA:                  -2.913
REMARK UNBOUND:                -3.062
REMARK SMILES CCCCCCCCCCCCCCCCCCCCCCCCCCCCCC(=O)[O-]
REMARK SMILES IDX 16 1 17 2 18 3 19 4 20 5 21 6 22 7 23 8 24 9 25 10 26 11
REMARK SMILES IDX 27 12 28 13 29 14 30 15 31 16 32 17 15 18 14 19 13 20 12 21
REMARK SMILES IDX 11 22 10 23 9 24 8 25 7 26 6 27 5 28 4 29 3 30 2 31 1 32
REMARK H PARENT
REMARK Flexibility Score: inf
ROOT
ATOM      1  C   UNL     1     -12.749  10.871  -2.011  1.00  0.00     0.000 C 
ENDROOT
BRANCH   1   2
ATOM      2  C   UNL     1     -11.443  10.369  -1.372  1.00  0.00     0.000 C 
BRANCH   2   3
ATOM      3  C   UNL     1     -11.631   9.925   0.089  1.00  0.00     0.000 C 
BRANCH   3   4
ATOM      4  C   UNL     1     -12.756   8.889   0.250  1.00  0.00     0.000 C 
BRANCH   4   5
ATOM      5  C   UNL     1     -13.347   8.875   1.671  1.00  0.00     0.000 C 
BRANCH   5   6
ATOM      6  C   UNL     1     -12.347   9.373   2.728  1.00  0.00     0.000 C 
BRANCH   6   7
ATOM      7  C   UNL     1     -12.927   9.337   4.153  1.00  0.00     0.000 C 
BRANCH   7   8
ATOM      8  C   UNL     1     -14.409   9.752   4.203  1.00  0.00     0.000 C 
BRANCH   8   9
ATOM      9  C   UNL     1     -14.687  11.074   4.946  1.00  0.00     0.000 C 
BRANCH   9  10
ATOM     10  C   UNL     1     -15.796  11.000   6.014  1.00  0.00     0.000 C 
BRANCH  10  11
ATOM     11  C   UNL     1     -15.442  10.170   7.265  1.00  0.00     0.000 C 
BRANCH  11  12
ATOM     12  C   UNL     1     -16.625   9.875   8.207  1.00  0.00     0.000 C 
BRANCH  12  13
ATOM     13  C   UNL     1     -16.531  10.640   9.538  1.00  0.00     0.006 C 
BRANCH  13  14
ATOM     14  C   UNL     1     -15.631   9.925  10.556  1.00  0.00     0.053 C 
BRANCH  14  15
ATOM     15  C   UNL     1     -15.514  10.693  11.838  1.00  0.00     0.041 C 
ATOM     16  O   UNL     1     -14.400  10.792  12.419  1.00  0.00    -0.550 OA
ATOM     17  O   UNL     1     -16.637  11.294  12.393  1.00  0.00    -0.550 OA
ENDBRANCH  14  15
ENDBRANCH  13  14
ENDBRANCH  12  13
ENDBRANCH  11  12
ENDBRANCH  10  11
ENDBRANCH   9  10
ENDBRANCH   8   9
ENDBRANCH   7   8
ENDBRANCH   6   7
ENDBRANCH   5   6
ENDBRANCH   4   5
ENDBRANCH   3   4
ENDBRANCH   2   3
ENDBRANCH   1   2
BRANCH   1  18
ATOM     18  C   UNL     1     -12.694  10.868  -3.549  1.00  0.00     0.000 C 
BRANCH  18  19
ATOM     19  C   UNL     1     -13.117   9.519  -4.159  1.00  0.00     0.000 C 
BRANCH  19  20
ATOM     20  C   UNL     1     -14.601   9.424  -4.569  1.00  0.00     0.000 C 
BRANCH  20  21
ATOM     21  C   UNL     1     -15.038  10.395  -5.684  1.00  0.00     0.000 C 
BRANCH  21  22
ATOM     22  C   UNL     1     -16.554  10.458  -5.944  1.00  0.00     0.000 C 
BRANCH  22  23
ATOM     23  C   UNL     1     -17.274  11.482  -5.050  1.00  0.00     0.000 C 
BRANCH  23  24
ATOM     24  C   UNL     1     -18.200  10.827  -4.008  1.00  0.00    -0.000 C 
BRANCH  24  25
ATOM     25  C   UNL     1     -17.517  10.371  -2.706  1.00  0.00    -0.000 C 
BRANCH  25  26
ATOM     26  C   UNL     1     -16.526  11.407  -2.148  1.00  0.00    -0.000 C 
BRANCH  26  27
ATOM     27  C   UNL     1     -17.219  12.536  -1.364  1.00  0.00    -0.000 C 
BRANCH  27  28
ATOM     28  C   UNL     1     -18.582  12.166  -0.747  1.00  0.00    -0.000 C 
BRANCH  28  29
ATOM     29  C   UNL     1     -18.580  11.997   0.785  1.00  0.00    -0.000 C 
BRANCH  29  30
ATOM     30  C   UNL     1     -18.199  10.590   1.285  1.00  0.00    -0.000 C 
BRANCH  30  31
ATOM     31  C   UNL     1     -17.618  10.544   2.709  1.00  0.00    -0.003 C 
ATOM     32  C   UNL     1     -18.207   9.418   3.558  1.00  0.00     0.004 C 
ENDBRANCH  30  31
ENDBRANCH  29  30
ENDBRANCH  28  29
ENDBRANCH  27  28
ENDBRANCH  26  27
ENDBRANCH  25  26
ENDBRANCH  24  25
ENDBRANCH  23  24
ENDBRANCH  22  23
ENDBRANCH  21  22
ENDBRANCH  20  21
ENDBRANCH  19  20
ENDBRANCH  18  19
ENDBRANCH   1  18
TORSDOF 28
ENDMDL
MODEL 8
REMARK VINA RESULT:    -2.132      3.375     10.477
REMARK INTER + INTRA:          -8.683
REMARK INTER:                  -7.211
REMARK INTRA:                  -1.472
REMARK UNBOUND:                -3.062
REMARK SMILES CCCCCCCCCCCCCCCCCCCCCCCCCCCCCC(=O)[O-]
REMARK SMILES IDX 16 1 17 2 18 3 19 4 20 5 21 6 22 7 23 8 24 9 25 10 26 11
REMARK SMILES IDX 27 12 28 13 29 14 30 15 31 16 32 17 15 18 14 19 13 20 12 21
REMARK SMILES IDX 11 22 10 23 9 24 8 25 7 26 6 27 5 28 4 29 3 30 2 31 1 32
REMARK H PARENT
REMARK Flexibility Score: inf
ROOT
ATOM      1  C   UNL     1     -11.577  10.283  -0.515  1.00  0.00     0.000 C 
ENDROOT
BRANCH   1   2
ATOM      2  C   UNL     1     -12.893  10.027  -1.267  1.00  0.00     0.000 C 
BRANCH   2   3
ATOM      3  C   UNL     1     -12.953  10.753  -2.623  1.00  0.00     0.000 C 
BRANCH   3   4
ATOM      4  C   UNL     1     -13.373   9.822  -3.771  1.00  0.00     0.000 C 
BRANCH   4   5
ATOM      5  C   UNL     1     -13.026  10.397  -5.155  1.00  0.00     0.000 C 
BRANCH   5   6
ATOM      6  C   UNL     1     -14.218  10.357  -6.124  1.00  0.00     0.000 C 
BRANCH   6   7
ATOM      7  C   UNL     1     -15.500  10.944  -5.508  1.00  0.00     0.000 C 
BRANCH   7   8
ATOM      8  C   UNL     1     -15.290  12.356  -4.930  1.00  0.00     0.000 C 
BRANCH   8   9
ATOM      9  C   UNL     1     -16.075  12.651  -3.637  1.00  0.00     0.000 C 
BRANCH   9  10
ATOM     10  C   UNL     1     -17.443  11.947  -3.532  1.00  0.00     0.000 C 
BRANCH  10  11
ATOM     11  C   UNL     1     -17.403  10.415  -3.701  1.00  0.00     0.000 C 
BRANCH  11  12
ATOM     12  C   UNL     1     -17.130   9.624  -2.407  1.00  0.00     0.000 C 
BRANCH  12  13
ATOM     13  C   UNL     1     -17.738  10.293  -1.162  1.00  0.00     0.006 C 
BRANCH  13  14
ATOM     14  C   UNL     1     -16.849  10.128   0.079  1.00  0.00     0.053 C 
BRANCH  14  15
ATOM     15  C   UNL     1     -17.597  10.408   1.347  1.00  0.00     0.041 C 
ATOM     16  O   UNL     1     -18.006  11.574   1.598  1.00  0.00    -0.550 OA
ATOM     17  O   UNL     1     -17.839   9.383   2.252  1.00  0.00    -0.550 OA
ENDBRANCH  14  15
ENDBRANCH  13  14
ENDBRANCH  12  13
ENDBRANCH  11  12
ENDBRANCH  10  11
ENDBRANCH   9  10
ENDBRANCH   8   9
ENDBRANCH   7   8
ENDBRANCH   6   7
ENDBRANCH   5   6
ENDBRANCH   4   5
ENDBRANCH   3   4
ENDBRANCH   2   3
ENDBRANCH   1   2
BRANCH   1  18
ATOM     18  C   UNL     1     -11.346   9.284   0.632  1.00  0.00     0.000 C 
BRANCH  18  19
ATOM     19  C   UNL     1     -12.651   8.875   1.341  1.00  0.00     0.000 C 
BRANCH  19  20
ATOM     20  C   UNL     1     -12.705   9.197   2.848  1.00  0.00     0.000 C 
BRANCH  20  21
ATOM     21  C   UNL     1     -14.115   9.470   3.411  1.00  0.00     0.000 C 
BRANCH  21  22
ATOM     22  C   UNL     1     -14.153  10.008   4.853  1.00  0.00     0.000 C 
BRANCH  22  23
ATOM     23  C   UNL     1     -13.145   9.308   5.781  1.00  0.00     0.000 C 
BRANCH  23  24
ATOM     24  C   UNL     1     -12.923  10.061   7.106  1.00  0.00    -0.000 C 
BRANCH  24  25
ATOM     25  C   UNL     1     -13.367   9.314   8.377  1.00  0.00    -0.000 C 
BRANCH  25  26
ATOM     26  C   UNL     1     -14.819   9.619   8.782  1.00  0.00    -0.000 C 
BRANCH  26  27
ATOM     27  C   UNL     1     -15.121   9.252  10.246  1.00  0.00    -0.000 C 
BRANCH  27  28
ATOM     28  C   UNL     1     -14.323  10.046  11.300  1.00  0.00    -0.000 C 
BRANCH  28  29
ATOM     29  C   UNL     1     -14.740   9.792  12.762  1.00  0.00    -0.000 C 
BRANCH  29  30
ATOM     30  C   UNL     1     -16.214  10.110  13.083  1.00  0.00    -0.000 C 
BRANCH  30  31
ATOM     31  C   UNL     1     -16.599  11.595  12.953  1.00  0.00    -0.003 C 
ATOM     32  C   UNL     1     -18.070  11.859  13.267  1.00  0.00     0.004 C 
ENDBRANCH  30  31
ENDBRANCH  29  30
ENDBRANCH  28  29
ENDBRANCH  27  28
ENDBRANCH  26  27
ENDBRANCH  25  26
ENDBRANCH  24  25
ENDBRANCH  23  24
ENDBRANCH  22  23
ENDBRANCH  21  22
ENDBRANCH  20  21
ENDBRANCH  19  20
ENDBRANCH  18  19
ENDBRANCH   1  18
TORSDOF 28
ENDMDL
MODEL 9
REMARK VINA RESULT:    -2.004      1.780      4.288
REMARK INTER + INTRA:          -8.348
REMARK INTER:                  -6.637
REMARK INTRA:                  -1.711
REMARK UNBOUND:                -3.062
REMARK SMILES CCCCCCCCCCCCCCCCCCCCCCCCCCCCCC(=O)[O-]
REMARK SMILES IDX 16 1 17 2 18 3 19 4 20 5 21 6 22 7 23 8 24 9 25 10 26 11
REMARK SMILES IDX 27 12 28 13 29 14 30 15 31 16 32 17 15 18 14 19 13 20 12 21
REMARK SMILES IDX 11 22 10 23 9 24 8 25 7 26 6 27 5 28 4 29 3 30 2 31 1 32
REMARK H PARENT
REMARK Flexibility Score: inf
ROOT
ATOM      1  C   UNL     1     -12.036  10.744   5.861  1.00  0.00     0.000 C 
ENDROOT
BRANCH   1   2
ATOM      2  C   UNL     1     -13.229  11.619   6.281  1.00  0.00     0.000 C 
BRANCH   2   3
ATOM      3  C   UNL     1     -14.575  11.063   5.783  1.00  0.00     0.000 C 
BRANCH   3   4
ATOM      4  C   UNL     1     -15.329  10.282   6.871  1.00  0.00     0.000 C 
BRANCH   4   5
ATOM      5  C   UNL     1     -15.857   8.927   6.368  1.00  0.00     0.000 C 
BRANCH   5   6
ATOM      6  C   UNL     1     -16.902   9.082   5.252  1.00  0.00     0.000 C 
BRANCH   6   7
ATOM      7  C   UNL     1     -18.071   9.996   5.659  1.00  0.00     0.000 C 
BRANCH   7   8
ATOM      8  C   UNL     1     -18.987   9.354   6.718  1.00  0.00     0.000 C 
BRANCH   8   9
ATOM      9  C   UNL     1     -19.090  10.133   8.044  1.00  0.00     0.000 C 
BRANCH   9  10
ATOM     10  C   UNL     1     -19.094   9.259   9.314  1.00  0.00     0.000 C 
BRANCH  10  11
ATOM     11  C   UNL     1     -17.700   8.924   9.880  1.00  0.00     0.000 C 
BRANCH  11  12
ATOM     12  C   UNL     1     -17.508   9.251  11.374  1.00  0.00     0.000 C 
BRANCH  12  13
ATOM     13  C   UNL     1     -16.034   9.183  11.812  1.00  0.00     0.006 C 
BRANCH  13  14
ATOM     14  C   UNL     1     -15.646  10.354  12.726  1.00  0.00     0.053 C 
BRANCH  14  15
ATOM     15  C   UNL     1     -14.160  10.486  12.870  1.00  0.00     0.041 C 
ATOM     16  O   UNL     1     -13.439  10.677  11.854  1.00  0.00    -0.550 OA
ATOM     17  O   UNL     1     -13.572  10.393  14.125  1.00  0.00    -0.550 OA
ENDBRANCH  14  15
ENDBRANCH  13  14
ENDBRANCH  12  13
ENDBRANCH  11  12
ENDBRANCH  10  11
ENDBRANCH   9  10
ENDBRANCH   8   9
ENDBRANCH   7   8
ENDBRANCH   6   7
ENDBRANCH   5   6
ENDBRANCH   4   5
ENDBRANCH   3   4
ENDBRANCH   2   3
ENDBRANCH   1   2
BRANCH   1  18
ATOM     18  C   UNL     1     -12.080  10.358   4.372  1.00  0.00     0.000 C 
BRANCH  18  19
ATOM     19  C   UNL     1     -13.020   9.171   4.090  1.00  0.00     0.000 C 
BRANCH  19  20
ATOM     20  C   UNL     1     -14.220   9.491   3.176  1.00  0.00     0.000 C 
BRANCH  20  21
ATOM     21  C   UNL     1     -14.123   8.927   1.744  1.00  0.00     0.000 C 
BRANCH  21  22
ATOM     22  C   UNL     1     -15.451   8.875   0.967  1.00  0.00     0.000 C 
BRANCH  22  23
ATOM     23  C   UNL     1     -16.659   9.310   1.814  1.00  0.00     0.000 C 
BRANCH  23  24
ATOM     24  C   UNL     1     -17.940   9.506   0.982  1.00  0.00    -0.000 C 
BRANCH  24  25
ATOM     25  C   UNL     1     -17.791  10.396  -0.266  1.00  0.00    -0.000 C 
BRANCH  25  26
ATOM     26  C   UNL     1     -18.341   9.742  -1.545  1.00  0.00    -0.000 C 
BRANCH  26  27
ATOM     27  C   UNL     1     -17.271   9.575  -2.638  1.00  0.00    -0.000 C 
BRANCH  27  28
ATOM     28  C   UNL     1     -16.219  10.699  -2.704  1.00  0.00    -0.000 C 
BRANCH  28  29
ATOM     29  C   UNL     1     -15.099  10.485  -3.741  1.00  0.00    -0.000 C 
BRANCH  29  30
ATOM     30  C   UNL     1     -13.679  10.370  -3.152  1.00  0.00    -0.000 C 
BRANCH  30  31
ATOM     31  C   UNL     1     -12.542  10.712  -4.131  1.00  0.00    -0.003 C 
ATOM     32  C   UNL     1     -12.695  10.023  -5.486  1.00  0.00     0.004 C 
ENDBRANCH  30  31
ENDBRANCH  29  30
ENDBRANCH  28  29
ENDBRANCH  27  28
ENDBRANCH  26  27
ENDBRANCH  25  26
ENDBRANCH  24  25
ENDBRANCH  23  24
ENDBRANCH  22  23
ENDBRANCH  21  22
ENDBRANCH  20  21
ENDBRANCH  19  20
ENDBRANCH  18  19
ENDBRANCH   1  18
TORSDOF 28
ENDMDL
