MODEL 1
REMARK VINA RESULT:    -5.266      0.000      0.000
REMARK INTER + INTRA:          -5.956
REMARK INTER:                  -5.727
REMARK INTRA:                  -0.229
REMARK UNBOUND:                -0.229
REMARK SMILES C[C@@H]1[C@H]2C3=CC[C@@H]4[C@]5(C)CC[C@@H](O)C(C)(C)[C@@H]5CC[C@@]4(C)[C@@]3(C)CC[C@@]2(C(=O)[O-])CC[C@@H]1C
REMARK SMILES IDX 26 1 30 2 25 3 3 4 31 5 24 6 4 7 2 8 32 9 22 10 5 11 1 12
REMARK SMILES IDX 33 13 23 14 20 15 6 16 7 17 19 18 21 19 8 20 18 21 17 22
REMARK SMILES IDX 10 23 9 24 14 25 11 26 12 27 15 28 16 29 27 30 28 31 29 32
REMARK SMILES IDX 13 33
REMARK H PARENT 13 34
REMARK Flexibility Score: inf
ROOT
ATOM      1  C   UNL     1      13.934 -10.240  26.862  1.00  0.00     0.017 C 
ATOM      2  C   UNL     1      13.742 -10.721  25.386  1.00  0.00     0.014 C 
ATOM      3  C   UNL     1      13.360  -8.772  26.952  1.00  0.00     0.014 C 
ATOM      4  C   UNL     1      15.475 -10.390  27.309  1.00  0.00     0.030 C 
ATOM      5  C   UNL     1      14.626  -9.989  24.362  1.00  0.00     0.004 C 
ATOM      6  C   UNL     1      14.326  -7.671  27.426  1.00  0.00     0.013 C 
ATOM      7  C   UNL     1      16.010  -9.250  28.212  1.00  0.00    -0.063 C 
ATOM      8  C   UNL     1      16.436 -10.660  26.078  1.00  0.00    -0.003 C 
ATOM      9  C   UNL     1      16.067  -9.758  24.864  1.00  0.00    -0.011 C 
ATOM     10  C   UNL     1      15.139  -8.076  28.689  1.00  0.00    -0.006 C 
ATOM     11  C   UNL     1      17.321  -9.267  28.542  1.00  0.00    -0.027 C 
ATOM     12  C   UNL     1      16.552 -12.176  25.720  1.00  0.00     0.008 C 
ATOM     13  C   UNL     1      17.112  -9.737  23.719  1.00  0.00     0.008 C 
ATOM     14  C   UNL     1      14.153  -8.602  29.776  1.00  0.00     0.017 C 
ATOM     15  C   UNL     1      16.039  -6.877  29.331  1.00  0.00    -0.020 C 
ATOM     16  C   UNL     1      18.171  -8.035  28.464  1.00  0.00     0.032 C 
ATOM     17  C   UNL     1      17.340  -6.718  28.462  1.00  0.00     0.006 C 
ATOM     18  C   UNL     1      15.236  -5.523  29.398  1.00  0.00     0.008 C 
ATOM     19  C   UNL     1      16.431  -7.206  30.818  1.00  0.00     0.012 C 
ATOM     20  C   UNL     1      18.191  -5.376  28.650  1.00  0.00    -0.025 C 
ATOM     21  C   UNL     1      15.724  -4.481  28.397  1.00  0.00     0.005 C 
ATOM     22  C   UNL     1      17.235  -4.086  28.573  1.00  0.00     0.003 C 
ATOM     23  C   UNL     1      19.152  -5.441  29.926  1.00  0.00     0.010 C 
ATOM     24  C   UNL     1      19.146  -5.280  27.411  1.00  0.00     0.012 C 
ATOM     25  C   UNL     1      17.558  -2.938  29.607  1.00  0.00    -0.006 C 
ATOM     26  C   UNL     1      18.961  -4.482  31.113  1.00  0.00     0.033 C 
ATOM     27  C   UNL     1      17.755  -3.543  31.019  1.00  0.00     0.120 C 
ATOM     28  C   UNL     1      18.846  -2.182  29.155  1.00  0.00     0.014 C 
ATOM     29  C   UNL     1      16.437  -1.867  29.662  1.00  0.00     0.014 C 
ENDROOT
BRANCH   1  30
ATOM     30  C   UNL     1      13.034 -11.160  27.684  1.00  0.00     0.048 C 
ATOM     31  O   UNL     1      11.885 -10.808  28.071  1.00  0.00    -0.550 OA
ATOM     32  O   UNL     1      13.464 -12.466  27.993  1.00  0.00    -0.550 OA
ENDBRANCH   1  30
BRANCH  27  33
ATOM     33  O   UNL     1      17.792  -2.592  32.038  1.00  0.00    -0.393 OA
ATOM     34  H   UNL     1      18.720  -2.247  32.123  1.00  0.00     0.210 HD
ENDBRANCH  27  33
TORSDOF 2
ENDMDL
MODEL 2
REMARK VINA RESULT:    -5.263      2.662      4.980
REMARK INTER + INTRA:          -5.953
REMARK INTER:                  -5.730
REMARK INTRA:                  -0.224
REMARK UNBOUND:                -0.229
REMARK SMILES C[C@@H]1[C@H]2C3=CC[C@@H]4[C@]5(C)CC[C@@H](O)C(C)(C)[C@@H]5CC[C@@]4(C)[C@@]3(C)CC[C@@]2(C(=O)[O-])CC[C@@H]1C
REMARK SMILES IDX 26 1 30 2 25 3 3 4 31 5 24 6 4 7 2 8 32 9 22 10 5 11 1 12
REMARK SMILES IDX 33 13 23 14 20 15 6 16 7 17 19 18 21 19 8 20 18 21 17 22
REMARK SMILES IDX 10 23 9 24 14 25 11 26 12 27 15 28 16 29 27 30 28 31 29 32
REMARK SMILES IDX 13 33
REMARK H PARENT 13 34
REMARK Flexibility Score: inf
ROOT
ATOM      1  C   UNL     1      16.069  -7.351  28.399  1.00  0.00     0.017 C 
ATOM      2  C   UNL     1      16.327  -8.890  28.304  1.00  0.00     0.014 C 
ATOM      3  C   UNL     1      17.159  -6.639  27.505  1.00  0.00     0.014 C 
ATOM      4  C   UNL     1      16.046  -6.876  29.939  1.00  0.00     0.030 C 
ATOM      5  C   UNL     1      17.626  -9.358  28.983  1.00  0.00     0.004 C 
ATOM      6  C   UNL     1      18.070  -5.611  28.199  1.00  0.00     0.013 C 
ATOM      7  C   UNL     1      16.696  -5.496  30.211  1.00  0.00    -0.063 C 
ATOM      8  C   UNL     1      16.605  -7.988  30.921  1.00  0.00    -0.003 C 
ATOM      9  C   UNL     1      17.881  -8.667  30.339  1.00  0.00    -0.011 C 
ATOM     10  C   UNL     1      17.287  -4.612  29.100  1.00  0.00    -0.006 C 
ATOM     11  C   UNL     1      16.794  -5.085  31.495  1.00  0.00    -0.027 C 
ATOM     12  C   UNL     1      15.509  -9.003  31.376  1.00  0.00     0.008 C 
ATOM     13  C   UNL     1      18.665  -9.558  31.336  1.00  0.00     0.008 C 
ATOM     14  C   UNL     1      16.113  -4.003  28.275  1.00  0.00     0.017 C 
ATOM     15  C   UNL     1      18.188  -3.397  29.709  1.00  0.00    -0.020 C 
ATOM     16  C   UNL     1      18.058  -4.490  32.038  1.00  0.00     0.032 C 
ATOM     17  C   UNL     1      19.010  -3.956  30.928  1.00  0.00     0.006 C 
ATOM     18  C   UNL     1      19.144  -2.782  28.619  1.00  0.00     0.008 C 
ATOM     19  C   UNL     1      17.275  -2.208  30.186  1.00  0.00     0.012 C 
ATOM     20  C   UNL     1      20.241  -3.076  31.451  1.00  0.00    -0.025 C 
ATOM     21  C   UNL     1      20.613  -3.122  28.842  1.00  0.00     0.005 C 
ATOM     22  C   UNL     1      21.179  -2.633  30.224  1.00  0.00     0.003 C 
ATOM     23  C   UNL     1      19.772  -1.892  32.418  1.00  0.00     0.010 C 
ATOM     24  C   UNL     1      21.115  -4.024  32.342  1.00  0.00     0.012 C 
ATOM     25  C   UNL     1      21.728  -1.154  30.288  1.00  0.00    -0.006 C 
ATOM     26  C   UNL     1      19.980  -0.420  32.027  1.00  0.00     0.033 C 
ATOM     27  C   UNL     1      20.576  -0.180  30.637  1.00  0.00     0.120 C 
ATOM     28  C   UNL     1      22.857  -1.069  31.363  1.00  0.00     0.014 C 
ATOM     29  C   UNL     1      22.383  -0.714  28.952  1.00  0.00     0.014 C 
ENDROOT
BRANCH   1  30
ATOM     30  C   UNL     1      14.704  -7.151  27.745  1.00  0.00     0.048 C 
ATOM     31  O   UNL     1      14.510  -7.358  26.515  1.00  0.00    -0.550 OA
ATOM     32  O   UNL     1      13.601  -6.764  28.532  1.00  0.00    -0.550 OA
ENDBRANCH   1  30
BRANCH  27  33
ATOM     33  O   UNL     1      20.906   1.164  30.469  1.00  0.00    -0.393 OA
ATOM     34  H   UNL     1      20.075   1.683  30.310  1.00  0.00     0.210 HD
ENDBRANCH  27  33
TORSDOF 2
ENDMDL
MODEL 3
REMARK VINA RESULT:    -5.219      1.680      7.492
REMARK INTER + INTRA:          -5.906
REMARK INTER:                  -5.689
REMARK INTRA:                  -0.217
REMARK UNBOUND:                -0.229
REMARK SMILES C[C@@H]1[C@H]2C3=CC[C@@H]4[C@]5(C)CC[C@@H](O)C(C)(C)[C@@H]5CC[C@@]4(C)[C@@]3(C)CC[C@@]2(C(=O)[O-])CC[C@@H]1C
REMARK SMILES IDX 26 1 30 2 25 3 3 4 31 5 24 6 4 7 2 8 32 9 22 10 5 11 1 12
REMARK SMILES IDX 33 13 23 14 20 15 6 16 7 17 19 18 21 19 8 20 18 21 17 22
REMARK SMILES IDX 10 23 9 24 14 25 11 26 12 27 15 28 16 29 27 30 28 31 29 32
REMARK SMILES IDX 13 33
REMARK H PARENT 13 34
REMARK Flexibility Score: inf
ROOT
ATOM      1  C   UNL     1      17.557  -5.788  30.873  1.00  0.00     0.017 C 
ATOM      2  C   UNL     1      18.732  -4.768  31.023  1.00  0.00     0.014 C 
ATOM      3  C   UNL     1      18.200  -7.221  30.708  1.00  0.00     0.014 C 
ATOM      4  C   UNL     1      16.577  -5.348  29.672  1.00  0.00     0.030 C 
ATOM      5  C   UNL     1      19.572  -4.577  29.748  1.00  0.00     0.004 C 
ATOM      6  C   UNL     1      17.842  -8.006  29.434  1.00  0.00     0.013 C 
ATOM      7  C   UNL     1      16.011  -6.515  28.824  1.00  0.00    -0.063 C 
ATOM      8  C   UNL     1      17.212  -4.218  28.759  1.00  0.00    -0.003 C 
ATOM      9  C   UNL     1      18.714  -4.506  28.466  1.00  0.00    -0.011 C 
ATOM     10  C   UNL     1      16.319  -7.994  29.118  1.00  0.00    -0.006 C 
ATOM     11  C   UNL     1      15.261  -6.207  27.743  1.00  0.00    -0.027 C 
ATOM     12  C   UNL     1      16.945  -2.778  29.301  1.00  0.00     0.008 C 
ATOM     13  C   UNL     1      19.350  -3.625  27.360  1.00  0.00     0.008 C 
ATOM     14  C   UNL     1      15.534  -8.417  30.397  1.00  0.00     0.017 C 
ATOM     15  C   UNL     1      15.873  -8.960  27.883  1.00  0.00    -0.020 C 
ATOM     16  C   UNL     1      15.468  -6.879  26.420  1.00  0.00     0.032 C 
ATOM     17  C   UNL     1      16.228  -8.234  26.535  1.00  0.00     0.006 C 
ATOM     18  C   UNL     1      16.576 -10.368  27.967  1.00  0.00     0.008 C 
ATOM     19  C   UNL     1      14.330  -9.259  27.934  1.00  0.00     0.012 C 
ATOM     20  C   UNL     1      16.244  -9.121  25.202  1.00  0.00    -0.025 C 
ATOM     21  C   UNL     1      17.642 -10.576  26.897  1.00  0.00     0.005 C 
ATOM     22  C   UNL     1      17.102 -10.461  25.426  1.00  0.00     0.003 C 
ATOM     23  C   UNL     1      14.778  -9.339  24.602  1.00  0.00     0.010 C 
ATOM     24  C   UNL     1      17.018  -8.287  24.125  1.00  0.00     0.012 C 
ATOM     25  C   UNL     1      16.499 -11.769  24.782  1.00  0.00    -0.006 C 
ATOM     26  C   UNL     1      14.156 -10.742  24.518  1.00  0.00     0.033 C 
ATOM     27  C   UNL     1      14.992 -11.875  25.119  1.00  0.00     0.120 C 
ATOM     28  C   UNL     1      16.710 -11.728  23.236  1.00  0.00     0.014 C 
ATOM     29  C   UNL     1      17.224 -13.050  25.273  1.00  0.00     0.014 C 
ENDROOT
BRANCH   1  30
ATOM     30  C   UNL     1      16.832  -5.737  32.216  1.00  0.00     0.048 C 
ATOM     31  O   UNL     1      16.074  -4.779  32.536  1.00  0.00    -0.550 OA
ATOM     32  O   UNL     1      16.967  -6.805  33.125  1.00  0.00    -0.550 OA
ENDBRANCH   1  30
BRANCH  27  33
ATOM     33  O   UNL     1      14.433 -13.115  24.812  1.00  0.00    -0.393 OA
ATOM     34  H   UNL     1      13.457 -13.002  24.667  1.00  0.00     0.210 HD
ENDBRANCH  27  33
TORSDOF 2
ENDMDL
MODEL 4
REMARK VINA RESULT:    -5.089      1.765      7.909
REMARK INTER + INTRA:          -5.764
REMARK INTER:                  -5.532
REMARK INTRA:                  -0.232
REMARK UNBOUND:                -0.229
REMARK SMILES C[C@@H]1[C@H]2C3=CC[C@@H]4[C@]5(C)CC[C@@H](O)C(C)(C)[C@@H]5CC[C@@]4(C)[C@@]3(C)CC[C@@]2(C(=O)[O-])CC[C@@H]1C
REMARK SMILES IDX 26 1 30 2 25 3 3 4 31 5 24 6 4 7 2 8 32 9 22 10 5 11 1 12
REMARK SMILES IDX 33 13 23 14 20 15 6 16 7 17 19 18 21 19 8 20 18 21 17 22
REMARK SMILES IDX 10 23 9 24 14 25 11 26 12 27 15 28 16 29 27 30 28 31 29 32
REMARK SMILES IDX 13 33
REMARK H PARENT 13 34
REMARK Flexibility Score: inf
ROOT
ATOM      1  C   UNL     1      18.783  -3.346  29.878  1.00  0.00     0.017 C 
ATOM      2  C   UNL     1      18.224  -1.950  30.308  1.00  0.00     0.014 C 
ATOM      3  C   UNL     1      18.494  -3.507  28.334  1.00  0.00     0.014 C 
ATOM      4  C   UNL     1      18.166  -4.511  30.805  1.00  0.00     0.030 C 
ATOM      5  C   UNL     1      16.690  -1.845  30.276  1.00  0.00     0.004 C 
ATOM      6  C   UNL     1      17.655  -4.724  27.903  1.00  0.00     0.013 C 
ATOM      7  C   UNL     1      17.842  -5.835  30.066  1.00  0.00    -0.063 C 
ATOM      8  C   UNL     1      16.936  -4.008  31.668  1.00  0.00    -0.003 C 
ATOM      9  C   UNL     1      15.987  -3.104  30.827  1.00  0.00    -0.011 C 
ATOM     10  C   UNL     1      18.118  -6.052  28.569  1.00  0.00    -0.006 C 
ATOM     11  C   UNL     1      17.233  -6.817  30.767  1.00  0.00    -0.027 C 
ATOM     12  C   UNL     1      17.368  -3.367  33.025  1.00  0.00     0.008 C 
ATOM     13  C   UNL     1      14.618  -2.795  31.484  1.00  0.00     0.008 C 
ATOM     14  C   UNL     1      19.657  -6.206  28.368  1.00  0.00     0.017 C 
ATOM     15  C   UNL     1      17.376  -7.389  28.005  1.00  0.00    -0.020 C 
ATOM     16  C   UNL     1      16.063  -7.573  30.214  1.00  0.00     0.032 C 
ATOM     17  C   UNL     1      15.952  -7.478  28.663  1.00  0.00     0.006 C 
ATOM     18  C   UNL     1      17.272  -7.374  26.433  1.00  0.00     0.008 C 
ATOM     19  C   UNL     1      18.204  -8.679  28.357  1.00  0.00     0.012 C 
ATOM     20  C   UNL     1      14.892  -8.474  27.994  1.00  0.00    -0.025 C 
ATOM     21  C   UNL     1      15.851  -7.154  25.924  1.00  0.00     0.005 C 
ATOM     22  C   UNL     1      14.825  -8.242  26.405  1.00  0.00     0.003 C 
ATOM     23  C   UNL     1      15.108  -9.989  28.457  1.00  0.00     0.010 C 
ATOM     24  C   UNL     1      13.486  -8.062  28.550  1.00  0.00     0.012 C 
ATOM     25  C   UNL     1      14.711  -9.552  25.532  1.00  0.00    -0.006 C 
ATOM     26  C   UNL     1      15.500 -11.079  27.446  1.00  0.00     0.033 C 
ATOM     27  C   UNL     1      15.747 -10.597  26.014  1.00  0.00     0.120 C 
ATOM     28  C   UNL     1      13.264 -10.126  25.649  1.00  0.00     0.014 C 
ATOM     29  C   UNL     1      14.933  -9.271  24.023  1.00  0.00     0.014 C 
ENDROOT
BRANCH   1  30
ATOM     30  C   UNL     1      20.293  -3.231  30.076  1.00  0.00     0.048 C 
ATOM     31  O   UNL     1      20.836  -3.376  31.207  1.00  0.00    -0.550 OA
ATOM     32  O   UNL     1      21.128  -2.999  28.966  1.00  0.00    -0.550 OA
ENDBRANCH   1  30
BRANCH  27  33
ATOM     33  O   UNL     1      15.895 -11.681  25.150  1.00  0.00    -0.393 OA
ATOM     34  H   UNL     1      15.474 -11.459  24.278  1.00  0.00     0.210 HD
ENDBRANCH  27  33
TORSDOF 2
ENDMDL
MODEL 5
REMARK VINA RESULT:    -5.002      1.771      3.190
REMARK INTER + INTRA:          -5.670
REMARK INTER:                  -5.442
REMARK INTRA:                  -0.228
REMARK UNBOUND:                -0.229
REMARK SMILES C[C@@H]1[C@H]2C3=CC[C@@H]4[C@]5(C)CC[C@@H](O)C(C)(C)[C@@H]5CC[C@@]4(C)[C@@]3(C)CC[C@@]2(C(=O)[O-])CC[C@@H]1C
REMARK SMILES IDX 26 1 30 2 25 3 3 4 31 5 24 6 4 7 2 8 32 9 22 10 5 11 1 12
REMARK SMILES IDX 33 13 23 14 20 15 6 16 7 17 19 18 21 19 8 20 18 21 17 22
REMARK SMILES IDX 10 23 9 24 14 25 11 26 12 27 15 28 16 29 27 30 28 31 29 32
REMARK SMILES IDX 13 33
REMARK H PARENT 13 34
REMARK Flexibility Score: inf
ROOT
ATOM      1  C   UNL     1      15.369 -10.024  26.260  1.00  0.00     0.017 C 
ATOM      2  C   UNL     1      15.758 -11.535  26.155  1.00  0.00     0.014 C 
ATOM      3  C   UNL     1      16.612  -9.187  25.765  1.00  0.00     0.014 C 
ATOM      4  C   UNL     1      14.870  -9.673  27.752  1.00  0.00     0.030 C 
ATOM      5  C   UNL     1      16.839 -11.982  27.153  1.00  0.00     0.004 C 
ATOM      6  C   UNL     1      17.207  -8.167  26.752  1.00  0.00     0.013 C 
ATOM      7  C   UNL     1      15.310  -8.284  28.280  1.00  0.00    -0.063 C 
ATOM      8  C   UNL     1      15.207 -10.825  28.787  1.00  0.00    -0.003 C 
ATOM      9  C   UNL     1      16.642 -11.385  28.563  1.00  0.00    -0.011 C 
ATOM     10  C   UNL     1      16.127  -7.285  27.443  1.00  0.00    -0.006 C 
ATOM     11  C   UNL     1      15.006  -7.968  29.559  1.00  0.00    -0.027 C 
ATOM     12  C   UNL     1      14.105 -11.930  28.844  1.00  0.00     0.008 C 
ATOM     13  C   UNL     1      17.173 -12.307  29.691  1.00  0.00     0.008 C 
ATOM     14  C   UNL     1      15.196  -6.680  26.349  1.00  0.00     0.017 C 
ATOM     15  C   UNL     1      16.722  -6.074  28.358  1.00  0.00    -0.020 C 
ATOM     16  C   UNL     1      16.013  -7.350  30.480  1.00  0.00     0.032 C 
ATOM     17  C   UNL     1      17.200  -6.679  29.727  1.00  0.00     0.006 C 
ATOM     18  C   UNL     1      17.901  -5.325  27.629  1.00  0.00     0.008 C 
ATOM     19  C   UNL     1      15.625  -4.978  28.616  1.00  0.00     0.012 C 
ATOM     20  C   UNL     1      18.160  -5.777  30.636  1.00  0.00    -0.025 C 
ATOM     21  C   UNL     1      19.267  -5.600  28.250  1.00  0.00     0.005 C 
ATOM     22  C   UNL     1      19.375  -5.189  29.763  1.00  0.00     0.003 C 
ATOM     23  C   UNL     1      17.347  -4.699  31.492  1.00  0.00     0.010 C 
ATOM     24  C   UNL     1      18.811  -6.741  31.686  1.00  0.00     0.012 C 
ATOM     25  C   UNL     1      19.770  -3.692  30.070  1.00  0.00    -0.006 C 
ATOM     26  C   UNL     1      17.548  -3.191  31.265  1.00  0.00     0.033 C 
ATOM     27  C   UNL     1      18.497  -2.813  30.125  1.00  0.00     0.120 C 
ATOM     28  C   UNL     1      20.534  -3.629  31.429  1.00  0.00     0.014 C 
ATOM     29  C   UNL     1      20.745  -3.115  29.010  1.00  0.00     0.014 C 
ENDROOT
BRANCH   1  30
ATOM     30  C   UNL     1      14.237  -9.850  25.250  1.00  0.00     0.048 C 
ATOM     31  O   UNL     1      13.029  -9.750  25.603  1.00  0.00    -0.550 OA
ATOM     32  O   UNL     1      14.534  -9.750  23.876  1.00  0.00    -0.550 OA
ENDBRANCH   1  30
BRANCH  27  33
ATOM     33  O   UNL     1      18.760  -1.444  30.138  1.00  0.00    -0.393 OA
ATOM     34  H   UNL     1      18.740  -1.102  29.206  1.00  0.00     0.210 HD
ENDBRANCH  27  33
TORSDOF 2
ENDMDL
MODEL 6
REMARK VINA RESULT:    -4.954      2.044      4.211
REMARK INTER + INTRA:          -5.618
REMARK INTER:                  -5.388
REMARK INTRA:                  -0.229
REMARK UNBOUND:                -0.229
REMARK SMILES C[C@@H]1[C@H]2C3=CC[C@@H]4[C@]5(C)CC[C@@H](O)C(C)(C)[C@@H]5CC[C@@]4(C)[C@@]3(C)CC[C@@]2(C(=O)[O-])CC[C@@H]1C
REMARK SMILES IDX 26 1 30 2 25 3 3 4 31 5 24 6 4 7 2 8 32 9 22 10 5 11 1 12
REMARK SMILES IDX 33 13 23 14 20 15 6 16 7 17 19 18 21 19 8 20 18 21 17 22
REMARK SMILES IDX 10 23 9 24 14 25 11 26 12 27 15 28 16 29 27 30 28 31 29 32
REMARK SMILES IDX 13 33
REMARK H PARENT 13 34
REMARK Flexibility Score: inf
ROOT
ATOM      1  C   UNL     1      14.855  -9.471  28.840  1.00  0.00     0.017 C 
ATOM      2  C   UNL     1      13.568  -9.957  29.582  1.00  0.00     0.014 C 
ATOM      3  C   UNL     1      16.016  -9.412  29.909  1.00  0.00     0.014 C 
ATOM      4  C   UNL     1      14.574  -8.082  28.072  1.00  0.00     0.030 C 
ATOM      5  C   UNL     1      12.997  -8.944  30.590  1.00  0.00     0.004 C 
ATOM      6  C   UNL     1      16.716  -8.056  30.107  1.00  0.00     0.013 C 
ATOM      7  C   UNL     1      15.747  -7.069  28.098  1.00  0.00    -0.063 C 
ATOM      8  C   UNL     1      13.212  -7.409  28.524  1.00  0.00    -0.003 C 
ATOM      9  C   UNL     1      13.024  -7.493  30.067  1.00  0.00    -0.011 C 
ATOM     10  C   UNL     1      17.101  -7.366  28.766  1.00  0.00    -0.006 C 
ATOM     11  C   UNL     1      15.541  -5.848  27.556  1.00  0.00    -0.027 C 
ATOM     12  C   UNL     1      11.981  -7.928  27.714  1.00  0.00     0.008 C 
ATOM     13  C   UNL     1      11.876  -6.622  30.638  1.00  0.00     0.008 C 
ATOM     14  C   UNL     1      17.876  -8.386  27.878  1.00  0.00     0.017 C 
ATOM     15  C   UNL     1      18.003  -6.018  28.930  1.00  0.00    -0.020 C 
ATOM     16  C   UNL     1      15.966  -4.592  28.254  1.00  0.00     0.032 C 
ATOM     17  C   UNL     1      17.052  -4.836  29.343  1.00  0.00     0.006 C 
ATOM     18  C   UNL     1      19.152  -6.216  29.990  1.00  0.00     0.008 C 
ATOM     19  C   UNL     1      18.732  -5.665  27.582  1.00  0.00     0.012 C 
ATOM     20  C   UNL     1      17.736  -3.513  29.932  1.00  0.00    -0.025 C 
ATOM     21  C   UNL     1      18.920  -5.442  31.283  1.00  0.00     0.005 C 
ATOM     22  C   UNL     1      18.792  -3.888  31.083  1.00  0.00     0.003 C 
ATOM     23  C   UNL     1      18.290  -2.553  28.779  1.00  0.00     0.010 C 
ATOM     24  C   UNL     1      16.596  -2.703  30.639  1.00  0.00     0.012 C 
ATOM     25  C   UNL     1      20.134  -3.056  31.071  1.00  0.00    -0.006 C 
ATOM     26  C   UNL     1      19.793  -2.254  28.651  1.00  0.00     0.033 C 
ATOM     27  C   UNL     1      20.703  -2.998  29.633  1.00  0.00     0.120 C 
ATOM     28  C   UNL     1      19.854  -1.617  31.605  1.00  0.00     0.014 C 
ATOM     29  C   UNL     1      21.204  -3.658  32.020  1.00  0.00     0.014 C 
ENDROOT
BRANCH   1  30
ATOM     30  C   UNL     1      15.170 -10.589  27.848  1.00  0.00     0.048 C 
ATOM     31  O   UNL     1      14.907 -10.491  26.617  1.00  0.00    -0.550 OA
ATOM     32  O   UNL     1      15.815 -11.759  28.295  1.00  0.00    -0.550 OA
ENDBRANCH   1  30
BRANCH  27  33
ATOM     33  O   UNL     1      22.006  -2.505  29.564  1.00  0.00    -0.393 OA
ATOM     34  H   UNL     1      22.642  -3.266  29.617  1.00  0.00     0.210 HD
ENDBRANCH  27  33
TORSDOF 2
ENDMDL
MODEL 7
REMARK VINA RESULT:    -4.825      2.092      3.998
REMARK INTER + INTRA:          -5.477
REMARK INTER:                  -5.275
REMARK INTRA:                  -0.202
REMARK UNBOUND:                -0.229
REMARK SMILES C[C@@H]1[C@H]2C3=CC[C@@H]4[C@]5(C)CC[C@@H](O)C(C)(C)[C@@H]5CC[C@@]4(C)[C@@]3(C)CC[C@@]2(C(=O)[O-])CC[C@@H]1C
REMARK SMILES IDX 26 1 30 2 25 3 3 4 31 5 24 6 4 7 2 8 32 9 22 10 5 11 1 12
REMARK SMILES IDX 33 13 23 14 20 15 6 16 7 17 19 18 21 19 8 20 18 21 17 22
REMARK SMILES IDX 10 23 9 24 14 25 11 26 12 27 15 28 16 29 27 30 28 31 29 32
REMARK SMILES IDX 13 33
REMARK H PARENT 13 34
REMARK Flexibility Score: inf
ROOT
ATOM      1  C   UNL     1      15.487 -10.673  24.697  1.00  0.00     0.017 C 
ATOM      2  C   UNL     1      15.376 -12.232  24.709  1.00  0.00     0.014 C 
ATOM      3  C   UNL     1      16.920 -10.303  25.248  1.00  0.00     0.014 C 
ATOM      4  C   UNL     1      14.261 -10.013  25.509  1.00  0.00     0.030 C 
ATOM      5  C   UNL     1      15.327 -12.853  26.116  1.00  0.00     0.004 C 
ATOM      6  C   UNL     1      16.979  -9.391  26.487  1.00  0.00     0.013 C 
ATOM      7  C   UNL     1      14.627  -8.761  26.346  1.00  0.00    -0.063 C 
ATOM      8  C   UNL     1      13.466 -11.079  26.371  1.00  0.00    -0.003 C 
ATOM      9  C   UNL     1      14.436 -12.059  27.095  1.00  0.00    -0.011 C 
ATOM     10  C   UNL     1      16.040  -8.155  26.379  1.00  0.00    -0.006 C 
ATOM     11  C   UNL     1      13.665  -8.218  27.126  1.00  0.00    -0.027 C 
ATOM     12  C   UNL     1      12.341 -11.798  25.559  1.00  0.00     0.008 C 
ATOM     13  C   UNL     1      13.781 -12.952  28.179  1.00  0.00     0.008 C 
ATOM     14  C   UNL     1      16.303  -7.439  25.019  1.00  0.00     0.017 C 
ATOM     15  C   UNL     1      16.204  -7.070  27.585  1.00  0.00    -0.020 C 
ATOM     16  C   UNL     1      13.933  -7.816  28.544  1.00  0.00     0.032 C 
ATOM     17  C   UNL     1      15.447  -7.619  28.849  1.00  0.00     0.006 C 
ATOM     18  C   UNL     1      17.721  -6.793  27.912  1.00  0.00     0.008 C 
ATOM     19  C   UNL     1      15.604  -5.677  27.171  1.00  0.00     0.012 C 
ATOM     20  C   UNL     1      15.775  -6.935  30.259  1.00  0.00    -0.025 C 
ATOM     21  C   UNL     1      18.168  -7.380  29.246  1.00  0.00     0.005 C 
ATOM     22  C   UNL     1      17.364  -6.839  30.483  1.00  0.00     0.003 C 
ATOM     23  C   UNL     1      14.969  -5.571  30.472  1.00  0.00     0.010 C 
ATOM     24  C   UNL     1      15.242  -7.913  31.360  1.00  0.00     0.012 C 
ATOM     25  C   UNL     1      17.877  -5.498  31.139  1.00  0.00    -0.006 C 
ATOM     26  C   UNL     1      15.706  -4.227  30.605  1.00  0.00     0.033 C 
ATOM     27  C   UNL     1      17.226  -4.284  30.432  1.00  0.00     0.120 C 
ATOM     28  C   UNL     1      17.523  -5.498  32.659  1.00  0.00     0.014 C 
ATOM     29  C   UNL     1      19.421  -5.364  31.065  1.00  0.00     0.014 C 
ENDROOT
BRANCH   1  30
ATOM     30  C   UNL     1      15.429 -10.297  23.218  1.00  0.00     0.048 C 
ATOM     31  O   UNL     1      16.182 -10.831  22.357  1.00  0.00    -0.550 OA
ATOM     32  O   UNL     1      14.479  -9.356  22.773  1.00  0.00    -0.550 OA
ENDBRANCH   1  30
BRANCH  27  33
ATOM     33  O   UNL     1      17.805  -3.061  30.769  1.00  0.00    -0.393 OA
ATOM     34  H   UNL     1      18.734  -3.219  31.082  1.00  0.00     0.210 HD
ENDBRANCH  27  33
TORSDOF 2
ENDMDL
MODEL 8
REMARK VINA RESULT:    -4.810      1.832      3.183
REMARK INTER + INTRA:          -5.460
REMARK INTER:                  -5.232
REMARK INTRA:                  -0.228
REMARK UNBOUND:                -0.229
REMARK SMILES C[C@@H]1[C@H]2C3=CC[C@@H]4[C@]5(C)CC[C@@H](O)C(C)(C)[C@@H]5CC[C@@]4(C)[C@@]3(C)CC[C@@]2(C(=O)[O-])CC[C@@H]1C
REMARK SMILES IDX 26 1 30 2 25 3 3 4 31 5 24 6 4 7 2 8 32 9 22 10 5 11 1 12
REMARK SMILES IDX 33 13 23 14 20 15 6 16 7 17 19 18 21 19 8 20 18 21 17 22
REMARK SMILES IDX 10 23 9 24 14 25 11 26 12 27 15 28 16 29 27 30 28 31 29 32
REMARK SMILES IDX 13 33
REMARK H PARENT 13 34
REMARK Flexibility Score: inf
ROOT
ATOM      1  C   UNL     1      15.226 -11.136  27.734  1.00  0.00     0.017 C 
ATOM      2  C   UNL     1      13.729 -11.585  27.678  1.00  0.00     0.014 C 
ATOM      3  C   UNL     1      15.540 -10.748  29.232  1.00  0.00     0.014 C 
ATOM      4  C   UNL     1      15.504  -9.966  26.662  1.00  0.00     0.030 C 
ATOM      5  C   UNL     1      12.718 -10.451  27.914  1.00  0.00     0.004 C 
ATOM      6  C   UNL     1      16.046  -9.318  29.492  1.00  0.00     0.013 C 
ATOM      7  C   UNL     1      16.479  -8.858  27.137  1.00  0.00    -0.063 C 
ATOM      8  C   UNL     1      14.165  -9.352  26.077  1.00  0.00    -0.003 C 
ATOM      9  C   UNL     1      13.104  -9.139  27.197  1.00  0.00    -0.011 C 
ATOM     10  C   UNL     1      17.171  -8.880  28.511  1.00  0.00    -0.006 C 
ATOM     11  C   UNL     1      16.679  -7.799  26.321  1.00  0.00    -0.027 C 
ATOM     12  C   UNL     1      13.623 -10.143  24.844  1.00  0.00     0.008 C 
ATOM     13  C   UNL     1      11.875  -8.288  26.787  1.00  0.00     0.008 C 
ATOM     14  C   UNL     1      18.278  -9.977  28.490  1.00  0.00     0.017 C 
ATOM     15  C   UNL     1      17.859  -7.444  28.863  1.00  0.00    -0.020 C 
ATOM     16  C   UNL     1      16.665  -6.392  26.837  1.00  0.00     0.032 C 
ATOM     17  C   UNL     1      16.896  -6.302  28.375  1.00  0.00     0.006 C 
ATOM     18  C   UNL     1      18.160  -7.309  30.403  1.00  0.00     0.008 C 
ATOM     19  C   UNL     1      19.254  -7.303  28.150  1.00  0.00     0.012 C 
ATOM     20  C   UNL     1      17.157  -4.827  28.939  1.00  0.00    -0.025 C 
ATOM     21  C   UNL     1      17.246  -6.316  31.112  1.00  0.00     0.005 C 
ATOM     22  C   UNL     1      17.322  -4.855  30.537  1.00  0.00     0.003 C 
ATOM     23  C   UNL     1      18.320  -4.071  28.144  1.00  0.00     0.010 C 
ATOM     24  C   UNL     1      15.853  -4.007  28.654  1.00  0.00     0.012 C 
ATOM     25  C   UNL     1      18.448  -3.915  31.121  1.00  0.00    -0.006 C 
ATOM     26  C   UNL     1      19.623  -3.658  28.847  1.00  0.00     0.033 C 
ATOM     27  C   UNL     1      19.754  -4.094  30.309  1.00  0.00     0.120 C 
ATOM     28  C   UNL     1      17.966  -2.432  31.058  1.00  0.00     0.014 C 
ATOM     29  C   UNL     1      18.733  -4.204  32.618  1.00  0.00     0.014 C 
ENDROOT
BRANCH   1  30
ATOM     30  C   UNL     1      16.016 -12.395  27.386  1.00  0.00     0.048 C 
ATOM     31  O   UNL     1      16.150 -12.800  26.198  1.00  0.00    -0.550 OA
ATOM     32  O   UNL     1      16.662 -13.120  28.408  1.00  0.00    -0.550 OA
ENDBRANCH   1  30
BRANCH  27  33
ATOM     33  O   UNL     1      20.869  -3.500  30.901  1.00  0.00    -0.393 OA
ATOM     34  H   UNL     1      21.561  -4.196  31.056  1.00  0.00     0.210 HD
ENDBRANCH  27  33
TORSDOF 2
ENDMDL
MODEL 9
REMARK VINA RESULT:    -4.786      2.235      7.370
REMARK INTER + INTRA:          -5.434
REMARK INTER:                  -5.203
REMARK INTRA:                  -0.231
REMARK UNBOUND:                -0.229
REMARK SMILES C[C@@H]1[C@H]2C3=CC[C@@H]4[C@]5(C)CC[C@@H](O)C(C)(C)[C@@H]5CC[C@@]4(C)[C@@]3(C)CC[C@@]2(C(=O)[O-])CC[C@@H]1C
REMARK SMILES IDX 26 1 30 2 25 3 3 4 31 5 24 6 4 7 2 8 32 9 22 10 5 11 1 12
REMARK SMILES IDX 33 13 23 14 20 15 6 16 7 17 19 18 21 19 8 20 18 21 17 22
REMARK SMILES IDX 10 23 9 24 14 25 11 26 12 27 15 28 16 29 27 30 28 31 29 32
REMARK SMILES IDX 13 33
REMARK H PARENT 13 34
REMARK Flexibility Score: inf
ROOT
ATOM      1  C   UNL     1      16.528  -5.686  31.329  1.00  0.00     0.017 C 
ATOM      2  C   UNL     1      16.476  -6.073  32.843  1.00  0.00     0.014 C 
ATOM      3  C   UNL     1      15.100  -5.981  30.723  1.00  0.00     0.014 C 
ATOM      4  C   UNL     1      17.743  -6.448  30.593  1.00  0.00     0.030 C 
ATOM      5  C   UNL     1      16.342  -7.583  33.107  1.00  0.00     0.004 C 
ATOM      6  C   UNL     1      15.032  -6.959  29.537  1.00  0.00     0.013 C 
ATOM      7  C   UNL     1      17.440  -6.927  29.150  1.00  0.00    -0.063 C 
ATOM      8  C   UNL     1      18.349  -7.614  31.479  1.00  0.00    -0.003 C 
ATOM      9  C   UNL     1      17.225  -8.439  32.174  1.00  0.00    -0.011 C 
ATOM     10  C   UNL     1      16.099  -6.667  28.442  1.00  0.00    -0.006 C 
ATOM     11  C   UNL     1      18.383  -7.656  28.514  1.00  0.00    -0.027 C 
ATOM     12  C   UNL     1      19.457  -7.116  32.461  1.00  0.00     0.008 C 
ATOM     13  C   UNL     1      17.691  -9.765  32.828  1.00  0.00     0.008 C 
ATOM     14  C   UNL     1      16.027  -5.158  28.058  1.00  0.00     0.017 C 
ATOM     15  C   UNL     1      15.947  -7.563  27.089  1.00  0.00    -0.020 C 
ATOM     16  C   UNL     1      18.041  -8.905  27.760  1.00  0.00     0.032 C 
ATOM     17  C   UNL     1      16.535  -8.993  27.375  1.00  0.00     0.006 C 
ATOM     18  C   UNL     1      14.446  -7.653  26.620  1.00  0.00     0.008 C 
ATOM     19  C   UNL     1      16.721  -6.902  25.890  1.00  0.00     0.012 C 
ATOM     20  C   UNL     1      16.162 -10.162  26.346  1.00  0.00    -0.025 C 
ATOM     21  C   UNL     1      13.829  -9.033  26.829  1.00  0.00     0.005 C 
ATOM     22  C   UNL     1      14.579 -10.188  26.072  1.00  0.00     0.003 C 
ATOM     23  C   UNL     1      17.084 -10.136  25.040  1.00  0.00     0.010 C 
ATOM     24  C   UNL     1      16.497 -11.511  27.069  1.00  0.00     0.012 C 
ATOM     25  C   UNL     1      14.153 -10.455  24.575  1.00  0.00    -0.006 C 
ATOM     26  C   UNL     1      16.482  -9.873  23.650  1.00  0.00     0.033 C 
ATOM     27  C   UNL     1      14.984  -9.558  23.624  1.00  0.00     0.120 C 
ATOM     28  C   UNL     1      14.377 -11.962  24.236  1.00  0.00     0.014 C 
ATOM     29  C   UNL     1      12.643 -10.189  24.339  1.00  0.00     0.014 C 
ENDROOT
BRANCH   1  30
ATOM     30  C   UNL     1      16.749  -4.176  31.328  1.00  0.00     0.048 C 
ATOM     31  O   UNL     1      17.888  -3.662  31.144  1.00  0.00    -0.550 OA
ATOM     32  O   UNL     1      15.651  -3.308  31.491  1.00  0.00    -0.550 OA
ENDBRANCH   1  30
BRANCH  27  33
ATOM     33  O   UNL     1      14.508  -9.537  22.314  1.00  0.00    -0.393 OA
ATOM     34  H   UNL     1      13.526  -9.391  22.329  1.00  0.00     0.210 HD
ENDBRANCH  27  33
TORSDOF 2
ENDMDL
