MODEL 1
REMARK VINA RESULT:    -5.600      0.000      0.000
REMARK INTER + INTRA:          -6.564
REMARK INTER:                  -6.582
REMARK INTRA:                   0.017
REMARK UNBOUND:                 0.017
REMARK SMILES O=c1c(O)c(-c2ccc(O)cc2)oc2cc(O)cc(O)c12
REMARK SMILES IDX 5 1 3 2 2 3 1 4 21 5 19 6 18 7 16 8 15 9 14 10 13 11 6 12
REMARK SMILES IDX 7 13 8 14 9 15 12 16 11 17 10 18 4 20 20 22 17 24
REMARK H PARENT 10 19 4 21 20 23 17 25
REMARK Flexibility Score: inf
ROOT
ATOM      1  C   UNL     1      14.093 -17.174  20.096  1.00  0.00     0.180 A 
ATOM      2  C   UNL     1      14.975 -17.842  20.967  1.00  0.00     0.208 A 
ATOM      3  C   UNL     1      16.224 -17.263  21.245  1.00  0.00     0.238 A 
ATOM      4  O   UNL     1      17.027 -17.859  22.014  1.00  0.00    -0.285 OA
ATOM      5  C   UNL     1      16.560 -16.021  20.668  1.00  0.00     0.111 A 
ATOM      6  C   UNL     1      17.795 -15.369  20.899  1.00  0.00     0.134 A 
ATOM      7  C   UNL     1      18.050 -14.129  20.295  1.00  0.00     0.093 A 
ATOM      8  C   UNL     1      17.096 -13.530  19.465  1.00  0.00     0.123 A 
ATOM      9  C   UNL     1      15.878 -14.171  19.233  1.00  0.00     0.094 A 
ATOM     10  C   UNL     1      15.604 -15.408  19.824  1.00  0.00     0.146 A 
ATOM     11  O   UNL     1      14.439 -15.996  19.582  1.00  0.00    -0.452 OA
ENDROOT
BRANCH   1  12
ATOM     12  C   UNL     1      12.768 -17.730  19.739  1.00  0.00     0.021 A 
ATOM     13  C   UNL     1      11.867 -18.076  20.760  1.00  0.00     0.016 A 
ATOM     14  C   UNL     1      10.601 -18.581  20.445  1.00  0.00     0.047 A 
ATOM     15  C   UNL     1      10.217 -18.733  19.109  1.00  0.00     0.115 A 
ATOM     16  C   UNL     1      12.368 -17.867  18.397  1.00  0.00     0.016 A 
ATOM     17  C   UNL     1      11.102 -18.372  18.086  1.00  0.00     0.047 A 
BRANCH  15  18
ATOM     18  O   UNL     1       8.954 -19.239  18.810  1.00  0.00    -0.508 OA
ATOM     19  H   UNL     1       8.205 -18.637  18.485  1.00  0.00     0.293 HD
ENDBRANCH  15  18
ENDBRANCH   1  12
BRANCH   2  20
ATOM     20  O   UNL     1      14.599 -19.048  21.565  1.00  0.00    -0.502 OA
ATOM     21  H   UNL     1      15.037 -19.395  22.410  1.00  0.00     0.293 HD
ENDBRANCH   2  20
BRANCH   6  22
ATOM     22  O   UNL     1      18.765 -15.940  21.724  1.00  0.00    -0.507 OA
ATOM     23  H   UNL     1      19.625 -16.322  21.348  1.00  0.00     0.293 HD
ENDBRANCH   6  22
BRANCH   8  24
ATOM     24  O   UNL     1      17.349 -12.299  18.865  1.00  0.00    -0.508 OA
ATOM     25  H   UNL     1      16.672 -11.546  18.894  1.00  0.00     0.293 HD
ENDBRANCH   8  24
TORSDOF 5
ENDMDL
MODEL 2
REMARK VINA RESULT:    -5.367     12.803     15.771
REMARK INTER + INTRA:          -6.290
REMARK INTER:                  -6.014
REMARK INTRA:                  -0.276
REMARK UNBOUND:                 0.017
REMARK SMILES O=c1c(O)c(-c2ccc(O)cc2)oc2cc(O)cc(O)c12
REMARK SMILES IDX 5 1 3 2 2 3 1 4 21 5 19 6 18 7 16 8 15 9 14 10 13 11 6 12
REMARK SMILES IDX 7 13 8 14 9 15 12 16 11 17 10 18 4 20 20 22 17 24
REMARK H PARENT 10 19 4 21 20 23 17 25
REMARK Flexibility Score: inf
ROOT
ATOM      1  C   UNL     1      15.244  -6.908   9.546  1.00  0.00     0.180 A 
ATOM      2  C   UNL     1      14.041  -6.938   8.815  1.00  0.00     0.208 A 
ATOM      3  C   UNL     1      14.079  -6.680   7.435  1.00  0.00     0.238 A 
ATOM      4  O   UNL     1      13.006  -6.693   6.772  1.00  0.00    -0.285 OA
ATOM      5  C   UNL     1      15.315  -6.419   6.808  1.00  0.00     0.111 A 
ATOM      6  C   UNL     1      15.441  -6.154   5.424  1.00  0.00     0.134 A 
ATOM      7  C   UNL     1      16.708  -5.914   4.873  1.00  0.00     0.093 A 
ATOM      8  C   UNL     1      17.851  -5.933   5.681  1.00  0.00     0.123 A 
ATOM      9  C   UNL     1      17.732  -6.193   7.047  1.00  0.00     0.094 A 
ATOM     10  C   UNL     1      16.478  -6.433   7.615  1.00  0.00     0.146 A 
ATOM     11  O   UNL     1      16.393  -6.673   8.919  1.00  0.00    -0.452 OA
ENDROOT
BRANCH   1  12
ATOM     12  C   UNL     1      15.283  -7.149  11.007  1.00  0.00     0.021 A 
ATOM     13  C   UNL     1      15.241  -6.056  11.889  1.00  0.00     0.016 A 
ATOM     14  C   UNL     1      15.254  -6.261  13.272  1.00  0.00     0.047 A 
ATOM     15  C   UNL     1      15.296  -7.559  13.790  1.00  0.00     0.115 A 
ATOM     16  C   UNL     1      15.306  -8.453  11.535  1.00  0.00     0.016 A 
ATOM     17  C   UNL     1      15.319  -8.655  12.918  1.00  0.00     0.047 A 
BRANCH  15  18
ATOM     18  O   UNL     1      15.310  -7.749  15.170  1.00  0.00    -0.508 OA
ATOM     19  H   UNL     1      15.386  -8.674  15.576  1.00  0.00     0.293 HD
ENDBRANCH  15  18
ENDBRANCH   1  12
BRANCH   2  20
ATOM     20  O   UNL     1      12.836  -7.247   9.450  1.00  0.00    -0.502 OA
ATOM     21  H   UNL     1      12.170  -7.904   9.061  1.00  0.00     0.293 HD
ENDBRANCH   2  20
BRANCH   6  22
ATOM     22  O   UNL     1      14.319  -6.130   4.593  1.00  0.00    -0.507 OA
ATOM     23  H   UNL     1      13.710  -6.935   4.497  1.00  0.00     0.293 HD
ENDBRANCH   6  22
BRANCH   8  24
ATOM     24  O   UNL     1      19.110  -5.694   5.135  1.00  0.00    -0.508 OA
ATOM     25  H   UNL     1      19.825  -5.195   5.650  1.00  0.00     0.293 HD
ENDBRANCH   8  24
TORSDOF 5
ENDMDL
MODEL 3
REMARK VINA RESULT:    -5.194     12.054     15.228
REMARK INTER + INTRA:          -6.087
REMARK INTER:                  -5.826
REMARK INTRA:                  -0.261
REMARK UNBOUND:                 0.017
REMARK SMILES O=c1c(O)c(-c2ccc(O)cc2)oc2cc(O)cc(O)c12
REMARK SMILES IDX 5 1 3 2 2 3 1 4 21 5 19 6 18 7 16 8 15 9 14 10 13 11 6 12
REMARK SMILES IDX 7 13 8 14 9 15 12 16 11 17 10 18 4 20 20 22 17 24
REMARK H PARENT 10 19 4 21 20 23 17 25
REMARK Flexibility Score: inf
ROOT
ATOM      1  C   UNL     1      15.713  -7.095   8.965  1.00  0.00     0.180 A 
ATOM      2  C   UNL     1      15.104  -8.361   8.874  1.00  0.00     0.208 A 
ATOM      3  C   UNL     1      14.654  -8.985  10.048  1.00  0.00     0.238 A 
ATOM      4  O   UNL     1      14.118 -10.124   9.979  1.00  0.00    -0.285 OA
ATOM      5  C   UNL     1      14.801  -8.327  11.287  1.00  0.00     0.111 A 
ATOM      6  C   UNL     1      14.372  -8.884  12.516  1.00  0.00     0.134 A 
ATOM      7  C   UNL     1      14.545  -8.161  13.705  1.00  0.00     0.093 A 
ATOM      8  C   UNL     1      15.138  -6.894  13.690  1.00  0.00     0.123 A 
ATOM      9  C   UNL     1      15.563  -6.342  12.481  1.00  0.00     0.094 A 
ATOM     10  C   UNL     1      15.402  -7.046  11.284  1.00  0.00     0.146 A 
ATOM     11  O   UNL     1      15.821  -6.498  10.150  1.00  0.00    -0.452 OA
ENDROOT
BRANCH   1  12
ATOM     12  C   UNL     1      16.230  -6.382   7.775  1.00  0.00     0.021 A 
ATOM     13  C   UNL     1      15.339  -5.663   6.960  1.00  0.00     0.016 A 
ATOM     14  C   UNL     1      15.809  -4.964   5.843  1.00  0.00     0.047 A 
ATOM     15  C   UNL     1      17.173  -4.962   5.537  1.00  0.00     0.115 A 
ATOM     16  C   UNL     1      17.604  -6.361   7.472  1.00  0.00     0.016 A 
ATOM     17  C   UNL     1      18.070  -5.660   6.355  1.00  0.00     0.047 A 
BRANCH  15  18
ATOM     18  O   UNL     1      17.627  -4.263   4.421  1.00  0.00    -0.508 OA
ATOM     19  H   UNL     1      17.099  -3.492   4.028  1.00  0.00     0.293 HD
ENDBRANCH  15  18
ENDBRANCH   1  12
BRANCH   2  20
ATOM     20  O   UNL     1      14.925  -8.970   7.629  1.00  0.00    -0.502 OA
ATOM     21  H   UNL     1      15.461  -9.780   7.339  1.00  0.00     0.293 HD
ENDBRANCH   2  20
BRANCH   6  22
ATOM     22  O   UNL     1      13.775 -10.145  12.562  1.00  0.00    -0.507 OA
ATOM     23  H   UNL     1      12.778 -10.257  12.705  1.00  0.00     0.293 HD
ENDBRANCH   6  22
BRANCH   8  24
ATOM     24  O   UNL     1      15.309  -6.176  14.871  1.00  0.00    -0.508 OA
ATOM     25  H   UNL     1      15.689  -5.237  14.870  1.00  0.00     0.293 HD
ENDBRANCH   8  24
TORSDOF 5
ENDMDL
MODEL 4
REMARK VINA RESULT:    -5.159      2.083      6.767
REMARK INTER + INTRA:          -6.046
REMARK INTER:                  -5.801
REMARK INTRA:                  -0.245
REMARK UNBOUND:                 0.017
REMARK SMILES O=c1c(O)c(-c2ccc(O)cc2)oc2cc(O)cc(O)c12
REMARK SMILES IDX 5 1 3 2 2 3 1 4 21 5 19 6 18 7 16 8 15 9 14 10 13 11 6 12
REMARK SMILES IDX 7 13 8 14 9 15 12 16 11 17 10 18 4 20 20 22 17 24
REMARK H PARENT 10 19 4 21 20 23 17 25
REMARK Flexibility Score: inf
ROOT
ATOM      1  C   UNL     1      15.838 -14.138  19.970  1.00  0.00     0.180 A 
ATOM      2  C   UNL     1      15.812 -14.528  21.322  1.00  0.00     0.208 A 
ATOM      3  C   UNL     1      15.022 -15.627  21.697  1.00  0.00     0.238 A 
ATOM      4  O   UNL     1      14.982 -15.978  22.909  1.00  0.00    -0.285 OA
ATOM      5  C   UNL     1      14.291 -16.327  20.716  1.00  0.00     0.111 A 
ATOM      6  C   UNL     1      13.475 -17.446  21.009  1.00  0.00     0.134 A 
ATOM      7  C   UNL     1      12.786 -18.095  19.974  1.00  0.00     0.093 A 
ATOM      8  C   UNL     1      12.898 -17.648  18.653  1.00  0.00     0.123 A 
ATOM      9  C   UNL     1      13.701 -16.545  18.360  1.00  0.00     0.094 A 
ATOM     10  C   UNL     1      14.394 -15.882  19.377  1.00  0.00     0.146 A 
ATOM     11  O   UNL     1      15.147 -14.833  19.069  1.00  0.00    -0.452 OA
ENDROOT
BRANCH   1  12
ATOM     12  C   UNL     1      16.630 -12.979  19.499  1.00  0.00     0.021 A 
ATOM     13  C   UNL     1      18.016 -13.120  19.315  1.00  0.00     0.016 A 
ATOM     14  C   UNL     1      18.781 -12.045  18.850  1.00  0.00     0.047 A 
ATOM     15  C   UNL     1      18.169 -10.824  18.551  1.00  0.00     0.115 A 
ATOM     16  C   UNL     1      16.018 -11.754  19.178  1.00  0.00     0.016 A 
ATOM     17  C   UNL     1      16.785 -10.682  18.713  1.00  0.00     0.047 A 
BRANCH  15  18
ATOM     18  O   UNL     1      18.943  -9.762  18.090  1.00  0.00    -0.508 OA
ATOM     19  H   UNL     1      19.251  -9.710  17.126  1.00  0.00     0.293 HD
ENDBRANCH  15  18
ENDBRANCH   1  12
BRANCH   2  20
ATOM     20  O   UNL     1      16.584 -13.849  22.268  1.00  0.00    -0.502 OA
ATOM     21  H   UNL     1      16.830 -14.256  23.163  1.00  0.00     0.293 HD
ENDBRANCH   2  20
BRANCH   6  22
ATOM     22  O   UNL     1      13.345 -17.916  22.317  1.00  0.00    -0.507 OA
ATOM     23  H   UNL     1      13.734 -17.412  23.105  1.00  0.00     0.293 HD
ENDBRANCH   6  22
BRANCH   8  24
ATOM     24  O   UNL     1      12.215 -18.293  17.625  1.00  0.00    -0.508 OA
ATOM     25  H   UNL     1      12.109 -17.869  16.711  1.00  0.00     0.293 HD
ENDBRANCH   8  24
TORSDOF 5
ENDMDL
MODEL 5
REMARK VINA RESULT:    -5.141     11.615     14.228
REMARK INTER + INTRA:          -6.025
REMARK INTER:                  -5.752
REMARK INTRA:                  -0.273
REMARK UNBOUND:                 0.017
REMARK SMILES O=c1c(O)c(-c2ccc(O)cc2)oc2cc(O)cc(O)c12
REMARK SMILES IDX 5 1 3 2 2 3 1 4 21 5 19 6 18 7 16 8 15 9 14 10 13 11 6 12
REMARK SMILES IDX 7 13 8 14 9 15 12 16 11 17 10 18 4 20 20 22 17 24
REMARK H PARENT 10 19 4 21 20 23 17 25
REMARK Flexibility Score: inf
ROOT
ATOM      1  C   UNL     1      15.199  -6.191  12.673  1.00  0.00     0.180 A 
ATOM      2  C   UNL     1      15.156  -7.540  13.074  1.00  0.00     0.208 A 
ATOM      3  C   UNL     1      14.990  -8.534  12.095  1.00  0.00     0.238 A 
ATOM      4  O   UNL     1      14.938  -9.745  12.444  1.00  0.00    -0.285 OA
ATOM      5  C   UNL     1      14.890  -8.166  10.738  1.00  0.00     0.111 A 
ATOM      6  C   UNL     1      14.724  -9.104   9.691  1.00  0.00     0.134 A 
ATOM      7  C   UNL     1      14.643  -8.658   8.364  1.00  0.00     0.093 A 
ATOM      8  C   UNL     1      14.724  -7.294   8.064  1.00  0.00     0.123 A 
ATOM      9  C   UNL     1      14.886  -6.365   9.093  1.00  0.00     0.094 A 
ATOM     10  C   UNL     1      14.967  -6.789  10.422  1.00  0.00     0.146 A 
ATOM     11  O   UNL     1      15.117  -5.882  11.381  1.00  0.00    -0.452 OA
ENDROOT
BRANCH   1  12
ATOM     12  C   UNL     1      15.353  -5.086  13.646  1.00  0.00     0.021 A 
ATOM     13  C   UNL     1      16.599  -4.448  13.776  1.00  0.00     0.016 A 
ATOM     14  C   UNL     1      16.761  -3.387  14.672  1.00  0.00     0.047 A 
ATOM     15  C   UNL     1      15.679  -2.941  15.438  1.00  0.00     0.115 A 
ATOM     16  C   UNL     1      14.264  -4.620  14.405  1.00  0.00     0.016 A 
ATOM     17  C   UNL     1      14.429  -3.558  15.300  1.00  0.00     0.047 A 
BRANCH  15  18
ATOM     18  O   UNL     1      15.855  -1.884  16.328  1.00  0.00    -0.508 OA
ATOM     19  H   UNL     1      15.205  -1.718  17.088  1.00  0.00     0.293 HD
ENDBRANCH  15  18
ENDBRANCH   1  12
BRANCH   2  20
ATOM     20  O   UNL     1      15.307  -7.883  14.420  1.00  0.00    -0.502 OA
ATOM     21  H   UNL     1      15.805  -8.714  14.716  1.00  0.00     0.293 HD
ENDBRANCH   2  20
BRANCH   6  22
ATOM     22  O   UNL     1      14.642 -10.471   9.959  1.00  0.00    -0.507 OA
ATOM     23  H   UNL     1      14.720 -11.164   9.224  1.00  0.00     0.293 HD
ENDBRANCH   6  22
BRANCH   8  24
ATOM     24  O   UNL     1      14.643  -6.851   6.745  1.00  0.00    -0.508 OA
ATOM     25  H   UNL     1      14.726  -5.869   6.510  1.00  0.00     0.293 HD
ENDBRANCH   8  24
TORSDOF 5
ENDMDL
MODEL 6
REMARK VINA RESULT:    -5.062      9.098     11.352
REMARK INTER + INTRA:          -5.932
REMARK INTER:                  -5.646
REMARK INTRA:                  -0.287
REMARK UNBOUND:                 0.017
REMARK SMILES O=c1c(O)c(-c2ccc(O)cc2)oc2cc(O)cc(O)c12
REMARK SMILES IDX 5 1 3 2 2 3 1 4 21 5 19 6 18 7 16 8 15 9 14 10 13 11 6 12
REMARK SMILES IDX 7 13 8 14 9 15 12 16 11 17 10 18 4 20 20 22 17 24
REMARK H PARENT 10 19 4 21 20 23 17 25
REMARK Flexibility Score: inf
ROOT
ATOM      1  C   UNL     1      14.463 -10.828  11.402  1.00  0.00     0.180 A 
ATOM      2  C   UNL     1      14.519 -10.299  10.099  1.00  0.00     0.208 A 
ATOM      3  C   UNL     1      14.779  -8.929   9.933  1.00  0.00     0.238 A 
ATOM      4  O   UNL     1      14.819  -8.442   8.770  1.00  0.00    -0.285 OA
ATOM      5  C   UNL     1      14.996  -8.118  11.066  1.00  0.00     0.111 A 
ATOM      6  C   UNL     1      15.267  -6.731  10.985  1.00  0.00     0.134 A 
ATOM      7  C   UNL     1      15.483  -5.995  12.160  1.00  0.00     0.093 A 
ATOM      8  C   UNL     1      15.433  -6.619  13.411  1.00  0.00     0.123 A 
ATOM      9  C   UNL     1      15.166  -7.987  13.495  1.00  0.00     0.094 A 
ATOM     10  C   UNL     1      14.946  -8.738  12.337  1.00  0.00     0.146 A 
ATOM     11  O   UNL     1      14.689 -10.036  12.447  1.00  0.00    -0.452 OA
ENDROOT
BRANCH   1  12
ATOM     12  C   UNL     1      14.176 -12.258  11.660  1.00  0.00     0.021 A 
ATOM     13  C   UNL     1      12.841 -12.694  11.720  1.00  0.00     0.016 A 
ATOM     14  C   UNL     1      12.546 -14.043  11.940  1.00  0.00     0.047 A 
ATOM     15  C   UNL     1      13.580 -14.974  12.088  1.00  0.00     0.115 A 
ATOM     16  C   UNL     1      15.210 -13.202  11.790  1.00  0.00     0.016 A 
ATOM     17  C   UNL     1      14.912 -14.551  12.009  1.00  0.00     0.047 A 
BRANCH  15  18
ATOM     18  O   UNL     1      13.272 -16.314  12.307  1.00  0.00    -0.508 OA
ATOM     19  H   UNL     1      12.619 -16.596  13.030  1.00  0.00     0.293 HD
ENDBRANCH  15  18
ENDBRANCH   1  12
BRANCH   2  20
ATOM     20  O   UNL     1      14.349 -11.132   8.990  1.00  0.00    -0.502 OA
ATOM     21  H   UNL     1      13.547 -11.743   8.888  1.00  0.00     0.293 HD
ENDBRANCH   2  20
BRANCH   6  22
ATOM     22  O   UNL     1      15.325  -6.082   9.751  1.00  0.00    -0.507 OA
ATOM     23  H   UNL     1      15.819  -6.482   8.962  1.00  0.00     0.293 HD
ENDBRANCH   6  22
BRANCH   8  24
ATOM     24  O   UNL     1      15.648  -5.889  14.578  1.00  0.00    -0.508 OA
ATOM     25  H   UNL     1      15.643  -6.331  15.489  1.00  0.00     0.293 HD
ENDBRANCH   8  24
TORSDOF 5
ENDMDL
MODEL 7
REMARK VINA RESULT:    -5.007      2.918      5.343
REMARK INTER + INTRA:          -5.867
REMARK INTER:                  -5.671
REMARK INTRA:                  -0.196
REMARK UNBOUND:                 0.017
REMARK SMILES O=c1c(O)c(-c2ccc(O)cc2)oc2cc(O)cc(O)c12
REMARK SMILES IDX 5 1 3 2 2 3 1 4 21 5 19 6 18 7 16 8 15 9 14 10 13 11 6 12
REMARK SMILES IDX 7 13 8 14 9 15 12 16 11 17 10 18 4 20 20 22 17 24
REMARK H PARENT 10 19 4 21 20 23 17 25
REMARK Flexibility Score: inf
ROOT
ATOM      1  C   UNL     1      17.455 -13.812  19.690  1.00  0.00     0.180 A 
ATOM      2  C   UNL     1      18.803 -13.627  20.049  1.00  0.00     0.208 A 
ATOM      3  C   UNL     1      19.396 -12.371  19.839  1.00  0.00     0.238 A 
ATOM      4  O   UNL     1      20.607 -12.198  20.146  1.00  0.00    -0.285 OA
ATOM      5  C   UNL     1      18.629 -11.321  19.295  1.00  0.00     0.111 A 
ATOM      6  C   UNL     1      19.148 -10.026  19.055  1.00  0.00     0.134 A 
ATOM      7  C   UNL     1      18.318  -9.031  18.520  1.00  0.00     0.093 A 
ATOM      8  C   UNL     1      16.978  -9.306  18.220  1.00  0.00     0.123 A 
ATOM      9  C   UNL     1      16.462 -10.581  18.454  1.00  0.00     0.094 A 
ATOM     10  C   UNL     1      17.274 -11.587  18.985  1.00  0.00     0.146 A 
ATOM     11  O   UNL     1      16.757 -12.793  19.193  1.00  0.00    -0.452 OA
ENDROOT
BRANCH   1  12
ATOM     12  C   UNL     1      16.765 -15.110  19.863  1.00  0.00     0.021 A 
ATOM     13  C   UNL     1      16.414 -15.540  21.154  1.00  0.00     0.016 A 
ATOM     14  C   UNL     1      15.742 -16.752  21.339  1.00  0.00     0.047 A 
ATOM     15  C   UNL     1      15.400 -17.542  20.237  1.00  0.00     0.115 A 
ATOM     16  C   UNL     1      16.401 -15.900  18.757  1.00  0.00     0.016 A 
ATOM     17  C   UNL     1      15.729 -17.112  18.945  1.00  0.00     0.047 A 
BRANCH  15  18
ATOM     18  O   UNL     1      14.732 -18.748  20.436  1.00  0.00    -0.508 OA
ATOM     19  H   UNL     1      14.511 -19.365  19.663  1.00  0.00     0.293 HD
ENDBRANCH  15  18
ENDBRANCH   1  12
BRANCH   2  20
ATOM     20  O   UNL     1      19.528 -14.669  20.633  1.00  0.00    -0.502 OA
ATOM     21  H   UNL     1      19.102 -15.553  20.884  1.00  0.00     0.293 HD
ENDBRANCH   2  20
BRANCH   6  22
ATOM     22  O   UNL     1      20.480  -9.722  19.345  1.00  0.00    -0.507 OA
ATOM     23  H   UNL     1      21.233 -10.359  19.116  1.00  0.00     0.293 HD
ENDBRANCH   6  22
BRANCH   8  24
ATOM     24  O   UNL     1      16.152  -8.317  17.689  1.00  0.00    -0.508 OA
ATOM     25  H   UNL     1      15.180  -8.500  17.472  1.00  0.00     0.293 HD
ENDBRANCH   8  24
TORSDOF 5
ENDMDL
MODEL 8
REMARK VINA RESULT:    -4.996      9.239     12.230
REMARK INTER + INTRA:          -5.854
REMARK INTER:                  -5.641
REMARK INTRA:                  -0.214
REMARK UNBOUND:                 0.017
REMARK SMILES O=c1c(O)c(-c2ccc(O)cc2)oc2cc(O)cc(O)c12
REMARK SMILES IDX 5 1 3 2 2 3 1 4 21 5 19 6 18 7 16 8 15 9 14 10 13 11 6 12
REMARK SMILES IDX 7 13 8 14 9 15 12 16 11 17 10 18 4 20 20 22 17 24
REMARK H PARENT 10 19 4 21 20 23 17 25
REMARK Flexibility Score: inf
ROOT
ATOM      1  C   UNL     1      25.114 -12.831  17.950  1.00  0.00     0.180 A 
ATOM      2  C   UNL     1      25.534 -11.944  18.959  1.00  0.00     0.208 A 
ATOM      3  C   UNL     1      25.980 -10.664  18.595  1.00  0.00     0.238 A 
ATOM      4  O   UNL     1      26.370  -9.865  19.490  1.00  0.00    -0.285 OA
ATOM      5  C   UNL     1      25.980 -10.286  17.237  1.00  0.00     0.111 A 
ATOM      6  C   UNL     1      26.411  -9.014  16.786  1.00  0.00     0.134 A 
ATOM      7  C   UNL     1      26.371  -8.711  15.418  1.00  0.00     0.093 A 
ATOM      8  C   UNL     1      25.909  -9.653  14.492  1.00  0.00     0.123 A 
ATOM      9  C   UNL     1      25.484 -10.908  14.931  1.00  0.00     0.094 A 
ATOM     10  C   UNL     1      25.518 -11.231  16.291  1.00  0.00     0.146 A 
ATOM     11  O   UNL     1      25.113 -12.434  16.680  1.00  0.00    -0.452 OA
ENDROOT
BRANCH   1  12
ATOM     12  C   UNL     1      24.648 -14.204  18.252  1.00  0.00     0.021 A 
ATOM     13  C   UNL     1      23.375 -14.392  18.819  1.00  0.00     0.016 A 
ATOM     14  C   UNL     1      22.906 -15.681  19.091  1.00  0.00     0.047 A 
ATOM     15  C   UNL     1      23.694 -16.796  18.789  1.00  0.00     0.115 A 
ATOM     16  C   UNL     1      25.428 -15.330  17.933  1.00  0.00     0.016 A 
ATOM     17  C   UNL     1      24.955 -16.617  18.206  1.00  0.00     0.047 A 
BRANCH  15  18
ATOM     18  O   UNL     1      23.215 -18.073  19.067  1.00  0.00    -0.508 OA
ATOM     19  H   UNL     1      23.765 -18.901  18.870  1.00  0.00     0.293 HD
ENDBRANCH  15  18
ENDBRANCH   1  12
BRANCH   2  20
ATOM     20  O   UNL     1      25.478 -12.325  20.302  1.00  0.00    -0.502 OA
ATOM     21  H   UNL     1      25.164 -11.697  21.033  1.00  0.00     0.293 HD
ENDBRANCH   2  20
BRANCH   6  22
ATOM     22  O   UNL     1      26.874  -8.054  17.686  1.00  0.00    -0.507 OA
ATOM     23  H   UNL     1      27.611  -8.259  18.352  1.00  0.00     0.293 HD
ENDBRANCH   6  22
BRANCH   8  24
ATOM     24  O   UNL     1      25.869  -9.352  13.132  1.00  0.00    -0.508 OA
ATOM     25  H   UNL     1      25.018  -9.455  12.592  1.00  0.00     0.293 HD
ENDBRANCH   8  24
TORSDOF 5
ENDMDL
MODEL 9
REMARK VINA RESULT:    -4.789      2.682      7.728
REMARK INTER + INTRA:          -5.611
REMARK INTER:                  -5.397
REMARK INTRA:                  -0.214
REMARK UNBOUND:                 0.017
REMARK SMILES O=c1c(O)c(-c2ccc(O)cc2)oc2cc(O)cc(O)c12
REMARK SMILES IDX 5 1 3 2 2 3 1 4 21 5 19 6 18 7 16 8 15 9 14 10 13 11 6 12
REMARK SMILES IDX 7 13 8 14 9 15 12 16 11 17 10 18 4 20 20 22 17 24
REMARK H PARENT 10 19 4 21 20 23 17 25
REMARK Flexibility Score: inf
ROOT
ATOM      1  C   UNL     1      16.437 -12.804  19.513  1.00  0.00     0.180 A 
ATOM      2  C   UNL     1      15.111 -12.512  19.883  1.00  0.00     0.208 A 
ATOM      3  C   UNL     1      14.191 -13.566  20.000  1.00  0.00     0.238 A 
ATOM      4  O   UNL     1      12.996 -13.315  20.319  1.00  0.00    -0.285 OA
ATOM      5  C   UNL     1      14.615 -14.891  19.767  1.00  0.00     0.111 A 
ATOM      6  C   UNL     1      13.753 -16.009  19.867  1.00  0.00     0.134 A 
ATOM      7  C   UNL     1      14.254 -17.297  19.630  1.00  0.00     0.093 A 
ATOM      8  C   UNL     1      15.599 -17.488  19.294  1.00  0.00     0.123 A 
ATOM      9  C   UNL     1      16.452 -16.388  19.193  1.00  0.00     0.094 A 
ATOM     10  C   UNL     1      15.972 -15.096  19.424  1.00  0.00     0.146 A 
ATOM     11  O   UNL     1      16.806 -14.068  19.316  1.00  0.00    -0.452 OA
ENDROOT
BRANCH   1  12
ATOM     12  C   UNL     1      17.460 -11.746  19.351  1.00  0.00     0.021 A 
ATOM     13  C   UNL     1      17.396 -10.889  18.239  1.00  0.00     0.016 A 
ATOM     14  C   UNL     1      18.339  -9.868  18.076  1.00  0.00     0.047 A 
ATOM     15  C   UNL     1      19.346  -9.683  19.029  1.00  0.00     0.115 A 
ATOM     16  C   UNL     1      18.465 -11.542  20.314  1.00  0.00     0.016 A 
ATOM     17  C   UNL     1      19.405 -10.521  20.150  1.00  0.00     0.047 A 
BRANCH  15  18
ATOM     18  O   UNL     1      20.279  -8.664  18.853  1.00  0.00    -0.508 OA
ATOM     19  H   UNL     1      20.368  -7.907  19.522  1.00  0.00     0.293 HD
ENDBRANCH  15  18
ENDBRANCH   1  12
BRANCH   2  20
ATOM     20  O   UNL     1      14.727 -11.196  20.157  1.00  0.00    -0.502 OA
ATOM     21  H   UNL     1      14.884 -10.438  19.504  1.00  0.00     0.293 HD
ENDBRANCH   2  20
BRANCH   6  22
ATOM     22  O   UNL     1      12.407 -15.850  20.202  1.00  0.00    -0.507 OA
ATOM     23  H   UNL     1      11.672 -16.331  19.696  1.00  0.00     0.293 HD
ENDBRANCH   6  22
BRANCH   8  24
ATOM     24  O   UNL     1      16.097 -18.768  19.058  1.00  0.00    -0.508 OA
ATOM     25  H   UNL     1      15.847 -19.551  19.649  1.00  0.00     0.293 HD
ENDBRANCH   8  24
TORSDOF 5
ENDMDL
