MODEL 1
REMARK VINA RESULT:    -3.712      0.000      0.000
REMARK INTER + INTRA:         -15.982
REMARK INTER:                  -9.788
REMARK INTRA:                  -6.194
REMARK UNBOUND:                -6.194
REMARK SMILES CCCCCCCCCCCCCCCCCCCCCCCCCCCCCC(=O)[O-]
REMARK SMILES IDX 16 1 17 2 18 3 19 4 20 5 21 6 22 7 23 8 24 9 25 10 26 11
REMARK SMILES IDX 27 12 28 13 29 14 30 15 31 16 32 17 15 18 14 19 13 20 12 21
REMARK SMILES IDX 11 22 10 23 9 24 8 25 7 26 6 27 5 28 4 29 3 30 2 31 1 32
REMARK H PARENT
REMARK Flexibility Score: inf
ROOT
ATOM      1  C   UNL     1      -6.564  14.625  -5.629  1.00  0.00     0.000 C 
ENDROOT
BRANCH   1   2
ATOM      2  C   UNL     1      -7.919  15.347  -5.685  1.00  0.00     0.000 C 
BRANCH   2   3
ATOM      3  C   UNL     1      -8.487  15.669  -4.290  1.00  0.00     0.000 C 
BRANCH   3   4
ATOM      4  C   UNL     1      -7.610  15.212  -3.109  1.00  0.00     0.000 C 
BRANCH   4   5
ATOM      5  C   UNL     1      -7.927  15.959  -1.802  1.00  0.00     0.000 C 
BRANCH   5   6
ATOM      6  C   UNL     1      -8.968  17.075  -1.990  1.00  0.00     0.000 C 
BRANCH   6   7
ATOM      7  C   UNL     1     -10.218  16.885  -1.118  1.00  0.00     0.000 C 
BRANCH   7   8
ATOM      8  C   UNL     1     -10.833  15.493  -1.337  1.00  0.00     0.000 C 
BRANCH   8   9
ATOM      9  C   UNL     1     -10.820  14.635  -0.056  1.00  0.00     0.000 C 
BRANCH   9  10
ATOM     10  C   UNL     1     -10.791  15.456   1.243  1.00  0.00     0.000 C 
BRANCH  10  11
ATOM     11  C   UNL     1      -9.565  15.152   2.115  1.00  0.00     0.000 C 
BRANCH  11  12
ATOM     12  C   UNL     1      -8.888  16.443   2.590  1.00  0.00     0.000 C 
BRANCH  12  13
ATOM     13  C   UNL     1      -7.765  16.858   1.629  1.00  0.00     0.006 C 
BRANCH  13  14
ATOM     14  C   UNL     1      -6.416  17.012   2.345  1.00  0.00     0.053 C 
BRANCH  14  15
ATOM     15  C   UNL     1      -6.528  17.861   3.575  1.00  0.00     0.041 C 
ATOM     16  O   UNL     1      -6.779  19.090   3.475  1.00  0.00    -0.550 OA
ATOM     17  O   UNL     1      -6.350  17.297   4.833  1.00  0.00    -0.550 OA
ENDBRANCH  14  15
ENDBRANCH  13  14
ENDBRANCH  12  13
ENDBRANCH  11  12
ENDBRANCH  10  11
ENDBRANCH   9  10
ENDBRANCH   8   9
ENDBRANCH   7   8
ENDBRANCH   6   7
ENDBRANCH   5   6
ENDBRANCH   4   5
ENDBRANCH   3   4
ENDBRANCH   2   3
ENDBRANCH   1   2
BRANCH   1  18
ATOM     18  C   UNL     1      -6.520  13.447  -6.616  1.00  0.00     0.000 C 
BRANCH  18  19
ATOM     19  C   UNL     1      -7.666  13.489  -7.641  1.00  0.00     0.000 C 
BRANCH  19  20
ATOM     20  C   UNL     1      -8.267  12.099  -7.917  1.00  0.00     0.000 C 
BRANCH  20  21
ATOM     21  C   UNL     1      -9.804  12.096  -7.848  1.00  0.00     0.000 C 
BRANCH  21  22
ATOM     22  C   UNL     1     -10.395  13.514  -7.747  1.00  0.00     0.000 C 
BRANCH  22  23
ATOM     23  C   UNL     1     -11.484  13.626  -6.667  1.00  0.00     0.000 C 
BRANCH  23  24
ATOM     24  C   UNL     1     -11.351  12.549  -5.576  1.00  0.00    -0.000 C 
BRANCH  24  25
ATOM     25  C   UNL     1     -11.145  13.151  -4.176  1.00  0.00    -0.000 C 
BRANCH  25  26
ATOM     26  C   UNL     1     -10.106  12.382  -3.344  1.00  0.00    -0.000 C 
BRANCH  26  27
ATOM     27  C   UNL     1      -8.908  11.902  -4.183  1.00  0.00    -0.000 C 
BRANCH  27  28
ATOM     28  C   UNL     1      -7.629  11.598  -3.376  1.00  0.00    -0.000 C 
BRANCH  28  29
ATOM     29  C   UNL     1      -7.825  11.514  -1.850  1.00  0.00    -0.000 C 
BRANCH  29  30
ATOM     30  C   UNL     1      -6.801  12.310  -1.016  1.00  0.00    -0.000 C 
BRANCH  30  31
ATOM     31  C   UNL     1      -7.385  13.019   0.218  1.00  0.00    -0.003 C 
ATOM     32  C   UNL     1      -6.334  13.318   1.288  1.00  0.00     0.004 C 
ENDBRANCH  30  31
ENDBRANCH  29  30
ENDBRANCH  28  29
ENDBRANCH  27  28
ENDBRANCH  26  27
ENDBRANCH  25  26
ENDBRANCH  24  25
ENDBRANCH  23  24
ENDBRANCH  22  23
ENDBRANCH  21  22
ENDBRANCH  20  21
ENDBRANCH  19  20
ENDBRANCH  18  19
ENDBRANCH   1  18
TORSDOF 28
ENDMDL
MODEL 2
REMARK VINA RESULT:    -3.666      3.279      7.835
REMARK INTER + INTRA:         -15.861
REMARK INTER:                  -9.859
REMARK INTRA:                  -6.002
REMARK UNBOUND:                -6.194
REMARK SMILES CCCCCCCCCCCCCCCCCCCCCCCCCCCCCC(=O)[O-]
REMARK SMILES IDX 16 1 17 2 18 3 19 4 20 5 21 6 22 7 23 8 24 9 25 10 26 11
REMARK SMILES IDX 27 12 28 13 29 14 30 15 31 16 32 17 15 18 14 19 13 20 12 21
REMARK SMILES IDX 11 22 10 23 9 24 8 25 7 26 6 27 5 28 4 29 3 30 2 31 1 32
REMARK H PARENT
REMARK Flexibility Score: inf
ROOT
ATOM      1  C   UNL     1      -8.709  16.648  -1.853  1.00  0.00     0.000 C 
ENDROOT
BRANCH   1   2
ATOM      2  C   UNL     1      -8.746  16.488  -3.381  1.00  0.00     0.000 C 
BRANCH   2   3
ATOM      3  C   UNL     1      -7.859  15.335  -3.887  1.00  0.00     0.000 C 
BRANCH   3   4
ATOM      4  C   UNL     1      -6.922  14.722  -2.829  1.00  0.00     0.000 C 
BRANCH   4   5
ATOM      5  C   UNL     1      -7.205  13.232  -2.568  1.00  0.00     0.000 C 
BRANCH   5   6
ATOM      6  C   UNL     1      -8.345  12.680  -3.440  1.00  0.00     0.000 C 
BRANCH   6   7
ATOM      7  C   UNL     1      -9.419  11.940  -2.629  1.00  0.00     0.000 C 
BRANCH   7   8
ATOM      8  C   UNL     1     -10.754  12.700  -2.664  1.00  0.00     0.000 C 
BRANCH   8   9
ATOM      9  C   UNL     1     -10.951  13.484  -3.978  1.00  0.00     0.000 C 
BRANCH   9  10
ATOM     10  C   UNL     1     -11.575  12.653  -5.110  1.00  0.00     0.000 C 
BRANCH  10  11
ATOM     11  C   UNL     1     -10.736  12.669  -6.395  1.00  0.00     0.000 C 
BRANCH  11  12
ATOM     12  C   UNL     1     -10.056  14.029  -6.597  1.00  0.00     0.000 C 
BRANCH  12  13
ATOM     13  C   UNL     1      -9.029  13.963  -7.736  1.00  0.00     0.006 C 
BRANCH  13  14
ATOM     14  C   UNL     1      -7.642  14.452  -7.296  1.00  0.00     0.053 C 
BRANCH  14  15
ATOM     15  C   UNL     1      -6.803  13.338  -6.749  1.00  0.00     0.041 C 
ATOM     16  O   UNL     1      -5.699  13.588  -6.198  1.00  0.00    -0.550 OA
ATOM     17  O   UNL     1      -7.237  12.020  -6.850  1.00  0.00    -0.550 OA
ENDBRANCH  14  15
ENDBRANCH  13  14
ENDBRANCH  12  13
ENDBRANCH  11  12
ENDBRANCH  10  11
ENDBRANCH   9  10
ENDBRANCH   8   9
ENDBRANCH   7   8
ENDBRANCH   6   7
ENDBRANCH   5   6
ENDBRANCH   4   5
ENDBRANCH   3   4
ENDBRANCH   2   3
ENDBRANCH   1   2
BRANCH   1  18
ATOM     18  C   UNL     1      -9.932  15.989  -1.194  1.00  0.00     0.000 C 
BRANCH  18  19
ATOM     19  C   UNL     1     -10.013  16.265   0.316  1.00  0.00     0.000 C 
BRANCH  19  20
ATOM     20  C   UNL     1     -10.172  14.979   1.147  1.00  0.00     0.000 C 
BRANCH  20  21
ATOM     21  C   UNL     1      -9.288  13.830   0.632  1.00  0.00     0.000 C 
BRANCH  21  22
ATOM     22  C   UNL     1      -8.341  13.280   1.712  1.00  0.00     0.000 C 
BRANCH  22  23
ATOM     23  C   UNL     1      -7.100  12.593   1.118  1.00  0.00     0.000 C 
BRANCH  23  24
ATOM     24  C   UNL     1      -6.034  13.597   0.645  1.00  0.00    -0.000 C 
BRANCH  24  25
ATOM     25  C   UNL     1      -5.977  14.854   1.529  1.00  0.00    -0.000 C 
BRANCH  25  26
ATOM     26  C   UNL     1      -6.138  16.155   0.725  1.00  0.00    -0.000 C 
BRANCH  26  27
ATOM     27  C   UNL     1      -6.683  17.316   1.576  1.00  0.00    -0.000 C 
BRANCH  27  28
ATOM     28  C   UNL     1      -6.800  17.017   3.084  1.00  0.00    -0.000 C 
BRANCH  28  29
ATOM     29  C   UNL     1      -8.241  16.925   3.623  1.00  0.00    -0.000 C 
BRANCH  29  30
ATOM     30  C   UNL     1      -9.111  18.173   3.371  1.00  0.00    -0.000 C 
BRANCH  30  31
ATOM     31  C   UNL     1     -10.628  17.935   3.482  1.00  0.00    -0.003 C 
ATOM     32  C   UNL     1     -11.448  19.205   3.258  1.00  0.00     0.004 C 
ENDBRANCH  30  31
ENDBRANCH  29  30
ENDBRANCH  28  29
ENDBRANCH  27  28
ENDBRANCH  26  27
ENDBRANCH  25  26
ENDBRANCH  24  25
ENDBRANCH  23  24
ENDBRANCH  22  23
ENDBRANCH  21  22
ENDBRANCH  20  21
ENDBRANCH  19  20
ENDBRANCH  18  19
ENDBRANCH   1  18
TORSDOF 28
ENDMDL
MODEL 3
REMARK VINA RESULT:    -3.656      1.244      4.527
REMARK INTER + INTRA:         -15.835
REMARK INTER:                  -9.986
REMARK INTRA:                  -5.849
REMARK UNBOUND:                -6.194
REMARK SMILES CCCCCCCCCCCCCCCCCCCCCCCCCCCCCC(=O)[O-]
REMARK SMILES IDX 16 1 17 2 18 3 19 4 20 5 21 6 22 7 23 8 24 9 25 10 26 11
REMARK SMILES IDX 27 12 28 13 29 14 30 15 31 16 32 17 15 18 14 19 13 20 12 21
REMARK SMILES IDX 11 22 10 23 9 24 8 25 7 26 6 27 5 28 4 29 3 30 2 31 1 32
REMARK H PARENT
REMARK Flexibility Score: inf
ROOT
ATOM      1  C   UNL     1      -6.776  14.299   1.459  1.00  0.00     0.000 C 
ENDROOT
BRANCH   1   2
ATOM      2  C   UNL     1      -6.829  15.373   0.361  1.00  0.00     0.000 C 
BRANCH   2   3
ATOM      3  C   UNL     1      -6.046  14.977  -0.905  1.00  0.00     0.000 C 
BRANCH   3   4
ATOM      4  C   UNL     1      -6.858  15.026  -2.213  1.00  0.00     0.000 C 
BRANCH   4   5
ATOM      5  C   UNL     1      -8.045  16.003  -2.147  1.00  0.00     0.000 C 
BRANCH   5   6
ATOM      6  C   UNL     1      -9.286  15.484  -2.894  1.00  0.00     0.000 C 
BRANCH   6   7
ATOM      7  C   UNL     1     -10.493  15.261  -1.971  1.00  0.00     0.000 C 
BRANCH   7   8
ATOM      8  C   UNL     1     -10.232  15.848  -0.574  1.00  0.00     0.000 C 
BRANCH   8   9
ATOM      9  C   UNL     1     -10.916  15.035   0.544  1.00  0.00     0.000 C 
BRANCH   9  10
ATOM     10  C   UNL     1     -10.523  15.474   1.963  1.00  0.00     0.000 C 
BRANCH  10  11
ATOM     11  C   UNL     1     -10.205  16.972   2.058  1.00  0.00     0.000 C 
BRANCH  11  12
ATOM     12  C   UNL     1      -9.361  17.282   3.301  1.00  0.00     0.000 C 
BRANCH  12  13
ATOM     13  C   UNL     1      -7.926  17.659   2.908  1.00  0.00     0.006 C 
BRANCH  13  14
ATOM     14  C   UNL     1      -6.983  17.695   4.119  1.00  0.00     0.053 C 
BRANCH  14  15
ATOM     15  C   UNL     1      -6.743  19.094   4.601  1.00  0.00     0.041 C 
ATOM     16  O   UNL     1      -7.332  20.062   4.052  1.00  0.00    -0.550 OA
ATOM     17  O   UNL     1      -5.866  19.331   5.653  1.00  0.00    -0.550 OA
ENDBRANCH  14  15
ENDBRANCH  13  14
ENDBRANCH  12  13
ENDBRANCH  11  12
ENDBRANCH  10  11
ENDBRANCH   9  10
ENDBRANCH   8   9
ENDBRANCH   7   8
ENDBRANCH   6   7
ENDBRANCH   5   6
ENDBRANCH   4   5
ENDBRANCH   3   4
ENDBRANCH   2   3
ENDBRANCH   1   2
BRANCH   1  18
ATOM     18  C   UNL     1      -7.774  13.164   1.174  1.00  0.00     0.000 C 
BRANCH  18  19
ATOM     19  C   UNL     1      -7.089  11.890   0.652  1.00  0.00     0.000 C 
BRANCH  19  20
ATOM     20  C   UNL     1      -7.484  11.556  -0.798  1.00  0.00     0.000 C 
BRANCH  20  21
ATOM     21  C   UNL     1      -8.893  12.059  -1.157  1.00  0.00     0.000 C 
BRANCH  21  22
ATOM     22  C   UNL     1      -9.391  11.512  -2.507  1.00  0.00     0.000 C 
BRANCH  22  23
ATOM     23  C   UNL     1      -8.614  12.088  -3.702  1.00  0.00     0.000 C 
BRANCH  23  24
ATOM     24  C   UNL     1      -9.398  11.991  -5.022  1.00  0.00    -0.000 C 
BRANCH  24  25
ATOM     25  C   UNL     1     -10.708  12.796  -4.990  1.00  0.00    -0.000 C 
BRANCH  25  26
ATOM     26  C   UNL     1     -11.035  13.457  -6.339  1.00  0.00    -0.000 C 
BRANCH  26  27
ATOM     27  C   UNL     1      -9.929  13.245  -7.390  1.00  0.00    -0.000 C 
BRANCH  27  28
ATOM     28  C   UNL     1      -9.313  14.541  -7.954  1.00  0.00    -0.000 C 
BRANCH  28  29
ATOM     29  C   UNL     1      -7.812  14.731  -7.660  1.00  0.00    -0.000 C 
BRANCH  29  30
ATOM     30  C   UNL     1      -7.475  15.098  -6.201  1.00  0.00    -0.000 C 
BRANCH  30  31
ATOM     31  C   UNL     1      -6.244  14.377  -5.622  1.00  0.00    -0.003 C 
ATOM     32  C   UNL     1      -6.007  13.004  -6.250  1.00  0.00     0.004 C 
ENDBRANCH  30  31
ENDBRANCH  29  30
ENDBRANCH  28  29
ENDBRANCH  27  28
ENDBRANCH  26  27
ENDBRANCH  25  26
ENDBRANCH  24  25
ENDBRANCH  23  24
ENDBRANCH  22  23
ENDBRANCH  21  22
ENDBRANCH  20  21
ENDBRANCH  19  20
ENDBRANCH  18  19
ENDBRANCH   1  18
TORSDOF 28
ENDMDL
MODEL 4
REMARK VINA RESULT:    -3.655      3.682      7.336
REMARK INTER + INTRA:         -15.832
REMARK INTER:                  -9.583
REMARK INTRA:                  -6.249
REMARK UNBOUND:                -6.194
REMARK SMILES CCCCCCCCCCCCCCCCCCCCCCCCCCCCCC(=O)[O-]
REMARK SMILES IDX 16 1 17 2 18 3 19 4 20 5 21 6 22 7 23 8 24 9 25 10 26 11
REMARK SMILES IDX 27 12 28 13 29 14 30 15 31 16 32 17 15 18 14 19 13 20 12 21
REMARK SMILES IDX 11 22 10 23 9 24 8 25 7 26 6 27 5 28 4 29 3 30 2 31 1 32
REMARK H PARENT
REMARK Flexibility Score: inf
ROOT
ATOM      1  C   UNL     1      -6.514  17.548   3.064  1.00  0.00     0.000 C 
ENDROOT
BRANCH   1   2
ATOM      2  C   UNL     1      -7.801  18.334   3.357  1.00  0.00     0.000 C 
BRANCH   2   3
ATOM      3  C   UNL     1      -9.045  17.432   3.471  1.00  0.00     0.000 C 
BRANCH   3   4
ATOM      4  C   UNL     1      -9.938  17.392   2.217  1.00  0.00     0.000 C 
BRANCH   4   5
ATOM      5  C   UNL     1     -10.312  15.962   1.791  1.00  0.00     0.000 C 
BRANCH   5   6
ATOM      6  C   UNL     1     -10.149  15.728   0.280  1.00  0.00     0.000 C 
BRANCH   6   7
ATOM      7  C   UNL     1      -9.457  16.896  -0.438  1.00  0.00     0.000 C 
BRANCH   7   8
ATOM      8  C   UNL     1      -9.264  16.585  -1.931  1.00  0.00     0.000 C 
BRANCH   8   9
ATOM      9  C   UNL     1      -9.955  15.272  -2.353  1.00  0.00     0.000 C 
BRANCH   9  10
ATOM     10  C   UNL     1      -9.199  14.492  -3.440  1.00  0.00     0.000 C 
BRANCH  10  11
ATOM     11  C   UNL     1      -7.992  15.259  -3.996  1.00  0.00     0.000 C 
BRANCH  11  12
ATOM     12  C   UNL     1      -6.751  14.362  -4.071  1.00  0.00     0.000 C 
BRANCH  12  13
ATOM     13  C   UNL     1      -6.330  14.130  -5.530  1.00  0.00     0.006 C 
BRANCH  13  14
ATOM     14  C   UNL     1      -7.083  15.047  -6.504  1.00  0.00     0.053 C 
BRANCH  14  15
ATOM     15  C   UNL     1      -7.733  14.274  -7.611  1.00  0.00     0.041 C 
ATOM     16  O   UNL     1      -7.639  13.020  -7.648  1.00  0.00    -0.550 OA
ATOM     17  O   UNL     1      -8.441  14.939  -8.607  1.00  0.00    -0.550 OA
ENDBRANCH  14  15
ENDBRANCH  13  14
ENDBRANCH  12  13
ENDBRANCH  11  12
ENDBRANCH  10  11
ENDBRANCH   9  10
ENDBRANCH   8   9
ENDBRANCH   7   8
ENDBRANCH   6   7
ENDBRANCH   5   6
ENDBRANCH   4   5
ENDBRANCH   3   4
ENDBRANCH   2   3
ENDBRANCH   1   2
BRANCH   1  18
ATOM     18  C   UNL     1      -6.380  17.239   1.564  1.00  0.00     0.000 C 
BRANCH  18  19
ATOM     19  C   UNL     1      -6.006  15.772   1.291  1.00  0.00     0.000 C 
BRANCH  19  20
ATOM     20  C   UNL     1      -6.084  15.408  -0.203  1.00  0.00     0.000 C 
BRANCH  20  21
ATOM     21  C   UNL     1      -6.796  14.066  -0.446  1.00  0.00     0.000 C 
BRANCH  21  22
ATOM     22  C   UNL     1      -5.971  12.861   0.040  1.00  0.00     0.000 C 
BRANCH  22  23
ATOM     23  C   UNL     1      -6.599  11.514  -0.358  1.00  0.00     0.000 C 
BRANCH  23  24
ATOM     24  C   UNL     1      -7.476  11.617  -1.618  1.00  0.00    -0.000 C 
BRANCH  24  25
ATOM     25  C   UNL     1      -8.909  11.113  -1.382  1.00  0.00    -0.000 C 
BRANCH  25  26
ATOM     26  C   UNL     1      -9.773  12.117  -0.601  1.00  0.00    -0.000 C 
BRANCH  26  27
ATOM     27  C   UNL     1     -10.500  11.474   0.594  1.00  0.00    -0.000 C 
BRANCH  27  28
ATOM     28  C   UNL     1     -10.307  12.202   1.940  1.00  0.00    -0.000 C 
BRANCH  28  29
ATOM     29  C   UNL     1      -8.903  12.067   2.559  1.00  0.00    -0.000 C 
BRANCH  29  30
ATOM     30  C   UNL     1      -8.224  13.400   2.931  1.00  0.00    -0.000 C 
BRANCH  30  31
ATOM     31  C   UNL     1      -8.473  13.871   4.375  1.00  0.00    -0.003 C 
ATOM     32  C   UNL     1      -7.242  14.516   5.013  1.00  0.00     0.004 C 
ENDBRANCH  30  31
ENDBRANCH  29  30
ENDBRANCH  28  29
ENDBRANCH  27  28
ENDBRANCH  26  27
ENDBRANCH  25  26
ENDBRANCH  24  25
ENDBRANCH  23  24
ENDBRANCH  22  23
ENDBRANCH  21  22
ENDBRANCH  20  21
ENDBRANCH  19  20
ENDBRANCH  18  19
ENDBRANCH   1  18
TORSDOF 28
ENDMDL
MODEL 5
REMARK VINA RESULT:    -3.616      1.373      4.990
REMARK INTER + INTRA:         -15.730
REMARK INTER:                  -9.957
REMARK INTRA:                  -5.772
REMARK UNBOUND:                -6.194
REMARK SMILES CCCCCCCCCCCCCCCCCCCCCCCCCCCCCC(=O)[O-]
REMARK SMILES IDX 16 1 17 2 18 3 19 4 20 5 21 6 22 7 23 8 24 9 25 10 26 11
REMARK SMILES IDX 27 12 28 13 29 14 30 15 31 16 32 17 15 18 14 19 13 20 12 21
REMARK SMILES IDX 11 22 10 23 9 24 8 25 7 26 6 27 5 28 4 29 3 30 2 31 1 32
REMARK H PARENT
REMARK Flexibility Score: inf
ROOT
ATOM      1  C   UNL     1      -6.022  15.200   0.977  1.00  0.00     0.000 C 
ENDROOT
BRANCH   1   2
ATOM      2  C   UNL     1      -6.715  15.597  -0.336  1.00  0.00     0.000 C 
BRANCH   2   3
ATOM      3  C   UNL     1      -6.096  14.918  -1.572  1.00  0.00     0.000 C 
BRANCH   3   4
ATOM      4  C   UNL     1      -6.984  14.925  -2.831  1.00  0.00     0.000 C 
BRANCH   4   5
ATOM      5  C   UNL     1      -8.345  15.606  -2.602  1.00  0.00     0.000 C 
BRANCH   5   6
ATOM      6  C   UNL     1      -9.522  14.618  -2.658  1.00  0.00     0.000 C 
BRANCH   6   7
ATOM      7  C   UNL     1     -10.729  15.074  -1.824  1.00  0.00     0.000 C 
BRANCH   7   8
ATOM      8  C   UNL     1     -10.274  15.877  -0.594  1.00  0.00     0.000 C 
BRANCH   8   9
ATOM      9  C   UNL     1     -10.152  14.999   0.668  1.00  0.00     0.000 C 
BRANCH   9  10
ATOM     10  C   UNL     1     -10.233  15.788   1.985  1.00  0.00     0.000 C 
BRANCH  10  11
ATOM     11  C   UNL     1     -10.194  17.308   1.775  1.00  0.00     0.000 C 
BRANCH  11  12
ATOM     12  C   UNL     1      -9.389  18.000   2.880  1.00  0.00     0.000 C 
BRANCH  12  13
ATOM     13  C   UNL     1      -8.153  17.170   3.259  1.00  0.00     0.006 C 
BRANCH  13  14
ATOM     14  C   UNL     1      -6.890  18.034   3.383  1.00  0.00     0.053 C 
BRANCH  14  15
ATOM     15  C   UNL     1      -6.443  18.172   4.807  1.00  0.00     0.041 C 
ATOM     16  O   UNL     1      -6.322  19.312   5.325  1.00  0.00    -0.550 OA
ATOM     17  O   UNL     1      -6.154  17.040   5.562  1.00  0.00    -0.550 OA
ENDBRANCH  14  15
ENDBRANCH  13  14
ENDBRANCH  12  13
ENDBRANCH  11  12
ENDBRANCH  10  11
ENDBRANCH   9  10
ENDBRANCH   8   9
ENDBRANCH   7   8
ENDBRANCH   6   7
ENDBRANCH   5   6
ENDBRANCH   4   5
ENDBRANCH   3   4
ENDBRANCH   2   3
ENDBRANCH   1   2
BRANCH   1  18
ATOM     18  C   UNL     1      -6.689  13.964   1.605  1.00  0.00     0.000 C 
BRANCH  18  19
ATOM     19  C   UNL     1      -5.889  12.673   1.367  1.00  0.00     0.000 C 
BRANCH  19  20
ATOM     20  C   UNL     1      -6.512  11.781   0.277  1.00  0.00     0.000 C 
BRANCH  20  21
ATOM     21  C   UNL     1      -8.002  12.087   0.045  1.00  0.00     0.000 C 
BRANCH  21  22
ATOM     22  C   UNL     1      -8.576  11.346  -1.175  1.00  0.00     0.000 C 
BRANCH  22  23
ATOM     23  C   UNL     1      -7.643  11.405  -2.397  1.00  0.00     0.000 C 
BRANCH  23  24
ATOM     24  C   UNL     1      -8.338  10.961  -3.696  1.00  0.00    -0.000 C 
BRANCH  24  25
ATOM     25  C   UNL     1      -8.080  11.930  -4.862  1.00  0.00    -0.000 C 
BRANCH  25  26
ATOM     26  C   UNL     1      -6.714  11.707  -5.531  1.00  0.00    -0.000 C 
BRANCH  26  27
ATOM     27  C   UNL     1      -6.059  13.020  -5.998  1.00  0.00    -0.000 C 
BRANCH  27  28
ATOM     28  C   UNL     1      -6.900  13.848  -6.991  1.00  0.00    -0.000 C 
BRANCH  28  29
ATOM     29  C   UNL     1      -7.400  15.202  -6.453  1.00  0.00    -0.000 C 
BRANCH  29  30
ATOM     30  C   UNL     1      -8.925  15.298  -6.246  1.00  0.00    -0.000 C 
BRANCH  30  31
ATOM     31  C   UNL     1      -9.766  14.497  -7.255  1.00  0.00    -0.003 C 
ATOM     32  C   UNL     1     -10.822  13.616  -6.586  1.00  0.00     0.004 C 
ENDBRANCH  30  31
ENDBRANCH  29  30
ENDBRANCH  28  29
ENDBRANCH  27  28
ENDBRANCH  26  27
ENDBRANCH  25  26
ENDBRANCH  24  25
ENDBRANCH  23  24
ENDBRANCH  22  23
ENDBRANCH  21  22
ENDBRANCH  20  21
ENDBRANCH  19  20
ENDBRANCH  18  19
ENDBRANCH   1  18
TORSDOF 28
ENDMDL
MODEL 6
REMARK VINA RESULT:    -3.601      1.187      4.497
REMARK INTER + INTRA:         -15.690
REMARK INTER:                  -9.660
REMARK INTRA:                  -6.030
REMARK UNBOUND:                -6.194
REMARK SMILES CCCCCCCCCCCCCCCCCCCCCCCCCCCCCC(=O)[O-]
REMARK SMILES IDX 16 1 17 2 18 3 19 4 20 5 21 6 22 7 23 8 24 9 25 10 26 11
REMARK SMILES IDX 27 12 28 13 29 14 30 15 31 16 32 17 15 18 14 19 13 20 12 21
REMARK SMILES IDX 11 22 10 23 9 24 8 25 7 26 6 27 5 28 4 29 3 30 2 31 1 32
REMARK H PARENT
REMARK Flexibility Score: inf
ROOT
ATOM      1  C   UNL     1      -8.781  17.182  -2.102  1.00  0.00     0.000 C 
ENDROOT
BRANCH   1   2
ATOM      2  C   UNL     1      -8.709  16.128  -3.218  1.00  0.00     0.000 C 
BRANCH   2   3
ATOM      3  C   UNL     1      -7.537  15.144  -3.042  1.00  0.00     0.000 C 
BRANCH   3   4
ATOM      4  C   UNL     1      -6.715  15.335  -1.754  1.00  0.00     0.000 C 
BRANCH   4   5
ATOM      5  C   UNL     1      -6.211  14.008  -1.161  1.00  0.00     0.000 C 
BRANCH   5   6
ATOM      6  C   UNL     1      -7.189  12.843  -1.390  1.00  0.00     0.000 C 
BRANCH   6   7
ATOM      7  C   UNL     1      -7.169  11.808  -0.256  1.00  0.00     0.000 C 
BRANCH   7   8
ATOM      8  C   UNL     1      -7.962  12.313   0.961  1.00  0.00     0.000 C 
BRANCH   8   9
ATOM      9  C   UNL     1      -7.055  12.606   2.174  1.00  0.00     0.000 C 
BRANCH   9  10
ATOM     10  C   UNL     1      -7.068  14.077   2.619  1.00  0.00     0.000 C 
BRANCH  10  11
ATOM     11  C   UNL     1      -8.335  14.824   2.182  1.00  0.00     0.000 C 
BRANCH  11  12
ATOM     12  C   UNL     1      -7.994  16.197   1.592  1.00  0.00     0.000 C 
BRANCH  12  13
ATOM     13  C   UNL     1      -6.508  16.526   1.792  1.00  0.00     0.006 C 
BRANCH  13  14
ATOM     14  C   UNL     1      -6.291  17.966   2.278  1.00  0.00     0.053 C 
BRANCH  14  15
ATOM     15  C   UNL     1      -6.680  18.137   3.715  1.00  0.00     0.041 C 
ATOM     16  O   UNL     1      -7.219  19.206   4.103  1.00  0.00    -0.550 OA
ATOM     17  O   UNL     1      -6.442  17.117   4.630  1.00  0.00    -0.550 OA
ENDBRANCH  14  15
ENDBRANCH  13  14
ENDBRANCH  12  13
ENDBRANCH  11  12
ENDBRANCH  10  11
ENDBRANCH   9  10
ENDBRANCH   8   9
ENDBRANCH   7   8
ENDBRANCH   6   7
ENDBRANCH   5   6
ENDBRANCH   4   5
ENDBRANCH   3   4
ENDBRANCH   2   3
ENDBRANCH   1   2
BRANCH   1  18
ATOM     18  C   UNL     1      -9.964  16.913  -1.159  1.00  0.00     0.000 C 
BRANCH  18  19
ATOM     19  C   UNL     1     -10.801  15.697  -1.589  1.00  0.00     0.000 C 
BRANCH  19  20
ATOM     20  C   UNL     1     -10.651  14.503  -0.628  1.00  0.00     0.000 C 
BRANCH  20  21
ATOM     21  C   UNL     1     -10.776  13.148  -1.347  1.00  0.00     0.000 C 
BRANCH  21  22
ATOM     22  C   UNL     1     -11.188  13.295  -2.822  1.00  0.00     0.000 C 
BRANCH  22  23
ATOM     23  C   UNL     1     -10.140  12.720  -3.790  1.00  0.00     0.000 C 
BRANCH  23  24
ATOM     24  C   UNL     1     -10.758  11.792  -4.850  1.00  0.00    -0.000 C 
BRANCH  24  25
ATOM     25  C   UNL     1     -10.543  12.310  -6.282  1.00  0.00    -0.000 C 
BRANCH  25  26
ATOM     26  C   UNL     1     -10.812  13.818  -6.418  1.00  0.00    -0.000 C 
BRANCH  26  27
ATOM     27  C   UNL     1      -9.577  14.602  -6.897  1.00  0.00    -0.000 C 
BRANCH  27  28
ATOM     28  C   UNL     1      -8.753  13.905  -8.000  1.00  0.00    -0.000 C 
BRANCH  28  29
ATOM     29  C   UNL     1      -7.280  13.631  -7.640  1.00  0.00    -0.000 C 
BRANCH  29  30
ATOM     30  C   UNL     1      -6.953  13.699  -6.135  1.00  0.00    -0.000 C 
BRANCH  30  31
ATOM     31  C   UNL     1      -6.879  12.333  -5.428  1.00  0.00    -0.003 C 
ATOM     32  C   UNL     1      -6.692  11.168  -6.401  1.00  0.00     0.004 C 
ENDBRANCH  30  31
ENDBRANCH  29  30
ENDBRANCH  28  29
ENDBRANCH  27  28
ENDBRANCH  26  27
ENDBRANCH  25  26
ENDBRANCH  24  25
ENDBRANCH  23  24
ENDBRANCH  22  23
ENDBRANCH  21  22
ENDBRANCH  20  21
ENDBRANCH  19  20
ENDBRANCH  18  19
ENDBRANCH   1  18
TORSDOF 28
ENDMDL
MODEL 7
REMARK VINA RESULT:    -3.570      3.462      7.565
REMARK INTER + INTRA:         -15.608
REMARK INTER:                 -10.176
REMARK INTRA:                  -5.432
REMARK UNBOUND:                -6.194
REMARK SMILES CCCCCCCCCCCCCCCCCCCCCCCCCCCCCC(=O)[O-]
REMARK SMILES IDX 16 1 17 2 18 3 19 4 20 5 21 6 22 7 23 8 24 9 25 10 26 11
REMARK SMILES IDX 27 12 28 13 29 14 30 15 31 16 32 17 15 18 14 19 13 20 12 21
REMARK SMILES IDX 11 22 10 23 9 24 8 25 7 26 6 27 5 28 4 29 3 30 2 31 1 32
REMARK H PARENT
REMARK Flexibility Score: inf
ROOT
ATOM      1  C   UNL     1      -7.721  18.830   3.735  1.00  0.00     0.000 C 
ENDROOT
BRANCH   1   2
ATOM      2  C   UNL     1      -8.969  17.969   3.485  1.00  0.00     0.000 C 
BRANCH   2   3
ATOM      3  C   UNL     1     -10.241  18.807   3.252  1.00  0.00     0.000 C 
BRANCH   3   4
ATOM      4  C   UNL     1     -11.565  18.074   3.542  1.00  0.00     0.000 C 
BRANCH   4   5
ATOM      5  C   UNL     1     -11.369  16.578   3.842  1.00  0.00     0.000 C 
BRANCH   5   6
ATOM      6  C   UNL     1     -11.781  15.675   2.667  1.00  0.00     0.000 C 
BRANCH   6   7
ATOM      7  C   UNL     1     -10.592  14.948   2.023  1.00  0.00     0.000 C 
BRANCH   7   8
ATOM      8  C   UNL     1     -10.495  15.275   0.524  1.00  0.00     0.000 C 
BRANCH   8   9
ATOM      9  C   UNL     1      -9.670  16.550   0.252  1.00  0.00     0.000 C 
BRANCH   9  10
ATOM     10  C   UNL     1      -9.670  16.989  -1.220  1.00  0.00     0.000 C 
BRANCH  10  11
ATOM     11  C   UNL     1      -9.609  15.807  -2.197  1.00  0.00     0.000 C 
BRANCH  11  12
ATOM     12  C   UNL     1      -8.782  16.157  -3.440  1.00  0.00     0.000 C 
BRANCH  12  13
ATOM     13  C   UNL     1      -8.822  15.013  -4.463  1.00  0.00     0.006 C 
BRANCH  13  14
ATOM     14  C   UNL     1      -7.718  15.143  -5.523  1.00  0.00     0.053 C 
BRANCH  14  15
ATOM     15  C   UNL     1      -6.976  13.857  -5.719  1.00  0.00     0.041 C 
ATOM     16  O   UNL     1      -5.735  13.867  -5.931  1.00  0.00    -0.550 OA
ATOM     17  O   UNL     1      -7.653  12.643  -5.672  1.00  0.00    -0.550 OA
ENDBRANCH  14  15
ENDBRANCH  13  14
ENDBRANCH  12  13
ENDBRANCH  11  12
ENDBRANCH  10  11
ENDBRANCH   9  10
ENDBRANCH   8   9
ENDBRANCH   7   8
ENDBRANCH   6   7
ENDBRANCH   5   6
ENDBRANCH   4   5
ENDBRANCH   3   4
ENDBRANCH   2   3
ENDBRANCH   1   2
BRANCH   1  18
ATOM     18  C   UNL     1      -6.498  18.264   2.995  1.00  0.00     0.000 C 
BRANCH  18  19
ATOM     19  C   UNL     1      -6.733  16.841   2.463  1.00  0.00     0.000 C 
BRANCH  19  20
ATOM     20  C   UNL     1      -5.804  16.486   1.287  1.00  0.00     0.000 C 
BRANCH  20  21
ATOM     21  C   UNL     1      -6.178  15.150   0.622  1.00  0.00     0.000 C 
BRANCH  21  22
ATOM     22  C   UNL     1      -6.142  15.222  -0.915  1.00  0.00     0.000 C 
BRANCH  22  23
ATOM     23  C   UNL     1      -6.534  13.892  -1.580  1.00  0.00     0.000 C 
BRANCH  23  24
ATOM     24  C   UNL     1      -6.721  12.753  -0.563  1.00  0.00    -0.000 C 
BRANCH  24  25
ATOM     25  C   UNL     1      -8.202  12.432  -0.302  1.00  0.00    -0.000 C 
BRANCH  25  26
ATOM     26  C   UNL     1      -8.464  11.952   1.135  1.00  0.00    -0.000 C 
BRANCH  26  27
ATOM     27  C   UNL     1      -7.167  11.636   1.903  1.00  0.00    -0.000 C 
BRANCH  27  28
ATOM     28  C   UNL     1      -7.176  12.047   3.389  1.00  0.00    -0.000 C 
BRANCH  28  29
ATOM     29  C   UNL     1      -7.526  13.524   3.657  1.00  0.00    -0.000 C 
BRANCH  29  30
ATOM     30  C   UNL     1      -7.757  13.880   5.139  1.00  0.00    -0.000 C 
BRANCH  30  31
ATOM     31  C   UNL     1      -7.404  15.330   5.517  1.00  0.00    -0.003 C 
ATOM     32  C   UNL     1      -6.018  15.460   6.150  1.00  0.00     0.004 C 
ENDBRANCH  30  31
ENDBRANCH  29  30
ENDBRANCH  28  29
ENDBRANCH  27  28
ENDBRANCH  26  27
ENDBRANCH  25  26
ENDBRANCH  24  25
ENDBRANCH  23  24
ENDBRANCH  22  23
ENDBRANCH  21  22
ENDBRANCH  20  21
ENDBRANCH  19  20
ENDBRANCH  18  19
ENDBRANCH   1  18
TORSDOF 28
ENDMDL
MODEL 8
REMARK VINA RESULT:    -3.562      3.671      8.229
REMARK INTER + INTRA:         -15.586
REMARK INTER:                  -9.966
REMARK INTRA:                  -5.620
REMARK UNBOUND:                -6.194
REMARK SMILES CCCCCCCCCCCCCCCCCCCCCCCCCCCCCC(=O)[O-]
REMARK SMILES IDX 16 1 17 2 18 3 19 4 20 5 21 6 22 7 23 8 24 9 25 10 26 11
REMARK SMILES IDX 27 12 28 13 29 14 30 15 31 16 32 17 15 18 14 19 13 20 12 21
REMARK SMILES IDX 11 22 10 23 9 24 8 25 7 26 6 27 5 28 4 29 3 30 2 31 1 32
REMARK H PARENT
REMARK Flexibility Score: inf
ROOT
ATOM      1  C   UNL     1      -7.982  12.871   1.382  1.00  0.00     0.000 C 
ENDROOT
BRANCH   1   2
ATOM      2  C   UNL     1      -8.182  12.760  -0.138  1.00  0.00     0.000 C 
BRANCH   2   3
ATOM      3  C   UNL     1      -9.639  13.013  -0.573  1.00  0.00     0.000 C 
BRANCH   3   4
ATOM      4  C   UNL     1     -10.556  13.586   0.524  1.00  0.00     0.000 C 
BRANCH   4   5
ATOM      5  C   UNL     1     -11.274  14.876   0.092  1.00  0.00     0.000 C 
BRANCH   5   6
ATOM      6  C   UNL     1     -10.620  15.543  -1.129  1.00  0.00     0.000 C 
BRANCH   6   7
ATOM      7  C   UNL     1      -9.854  16.826  -0.776  1.00  0.00     0.000 C 
BRANCH   7   8
ATOM      8  C   UNL     1      -8.735  17.096  -1.795  1.00  0.00     0.000 C 
BRANCH   8   9
ATOM      9  C   UNL     1      -8.764  16.105  -2.976  1.00  0.00     0.000 C 
BRANCH   9  10
ATOM     10  C   UNL     1      -7.544  15.172  -3.036  1.00  0.00     0.000 C 
BRANCH  10  11
ATOM     11  C   UNL     1      -7.837  13.849  -3.756  1.00  0.00     0.000 C 
BRANCH  11  12
ATOM     12  C   UNL     1      -9.303  13.772  -4.199  1.00  0.00     0.000 C 
BRANCH  12  13
ATOM     13  C   UNL     1      -9.407  13.401  -5.685  1.00  0.00     0.006 C 
BRANCH  13  14
ATOM     14  C   UNL     1      -9.261  14.625  -6.600  1.00  0.00     0.053 C 
BRANCH  14  15
ATOM     15  C   UNL     1      -8.150  14.455  -7.591  1.00  0.00     0.041 C 
ATOM     16  O   UNL     1      -8.268  14.907  -8.759  1.00  0.00    -0.550 OA
ATOM     17  O   UNL     1      -6.984  13.791  -7.227  1.00  0.00    -0.550 OA
ENDBRANCH  14  15
ENDBRANCH  13  14
ENDBRANCH  12  13
ENDBRANCH  11  12
ENDBRANCH  10  11
ENDBRANCH   9  10
ENDBRANCH   8   9
ENDBRANCH   7   8
ENDBRANCH   6   7
ENDBRANCH   5   6
ENDBRANCH   4   5
ENDBRANCH   3   4
ENDBRANCH   2   3
ENDBRANCH   1   2
BRANCH   1  18
ATOM     18  C   UNL     1      -6.897  13.905   1.725  1.00  0.00     0.000 C 
BRANCH  18  19
ATOM     19  C   UNL     1      -6.819  15.047   0.699  1.00  0.00     0.000 C 
BRANCH  19  20
ATOM     20  C   UNL     1      -5.797  16.129   1.091  1.00  0.00     0.000 C 
BRANCH  20  21
ATOM     21  C   UNL     1      -6.467  17.409   1.621  1.00  0.00     0.000 C 
BRANCH  21  22
ATOM     22  C   UNL     1      -6.596  17.420   3.154  1.00  0.00     0.000 C 
BRANCH  22  23
ATOM     23  C   UNL     1      -7.935  18.006   3.632  1.00  0.00     0.000 C 
BRANCH  23  24
ATOM     24  C   UNL     1      -9.117  17.591   2.739  1.00  0.00    -0.000 C 
BRANCH  24  25
ATOM     25  C   UNL     1     -10.391  18.401   3.034  1.00  0.00    -0.000 C 
BRANCH  25  26
ATOM     26  C   UNL     1     -11.498  17.554   3.683  1.00  0.00    -0.000 C 
BRANCH  26  27
ATOM     27  C   UNL     1     -11.306  16.044   3.451  1.00  0.00    -0.000 C 
BRANCH  27  28
ATOM     28  C   UNL     1     -10.828  15.253   4.685  1.00  0.00    -0.000 C 
BRANCH  28  29
ATOM     29  C   UNL     1      -9.655  14.288   4.429  1.00  0.00    -0.000 C 
BRANCH  29  30
ATOM     30  C   UNL     1      -8.334  14.668   5.127  1.00  0.00    -0.000 C 
BRANCH  30  31
ATOM     31  C   UNL     1      -7.710  13.550   5.981  1.00  0.00    -0.003 C 
ATOM     32  C   UNL     1      -6.876  12.566   5.159  1.00  0.00     0.004 C 
ENDBRANCH  30  31
ENDBRANCH  29  30
ENDBRANCH  28  29
ENDBRANCH  27  28
ENDBRANCH  26  27
ENDBRANCH  25  26
ENDBRANCH  24  25
ENDBRANCH  23  24
ENDBRANCH  22  23
ENDBRANCH  21  22
ENDBRANCH  20  21
ENDBRANCH  19  20
ENDBRANCH  18  19
ENDBRANCH   1  18
TORSDOF 28
ENDMDL
MODEL 9
REMARK VINA RESULT:    -3.555      1.518      2.227
REMARK INTER + INTRA:         -15.568
REMARK INTER:                 -10.101
REMARK INTRA:                  -5.467
REMARK UNBOUND:                -6.194
REMARK SMILES CCCCCCCCCCCCCCCCCCCCCCCCCCCCCC(=O)[O-]
REMARK SMILES IDX 16 1 17 2 18 3 19 4 20 5 21 6 22 7 23 8 24 9 25 10 26 11
REMARK SMILES IDX 27 12 28 13 29 14 30 15 31 16 32 17 15 18 14 19 13 20 12 21
REMARK SMILES IDX 11 22 10 23 9 24 8 25 7 26 6 27 5 28 4 29 3 30 2 31 1 32
REMARK H PARENT
REMARK Flexibility Score: inf
ROOT
ATOM      1  C   UNL     1      -7.242  14.628  -4.209  1.00  0.00     0.000 C 
ENDROOT
BRANCH   1   2
ATOM      2  C   UNL     1      -8.299  15.735  -4.344  1.00  0.00     0.000 C 
BRANCH   2   3
ATOM      3  C   UNL     1      -9.122  15.941  -3.058  1.00  0.00     0.000 C 
BRANCH   3   4
ATOM      4  C   UNL     1      -8.769  17.206  -2.255  1.00  0.00     0.000 C 
BRANCH   4   5
ATOM      5  C   UNL     1      -8.580  16.931  -0.753  1.00  0.00     0.000 C 
BRANCH   5   6
ATOM      6  C   UNL     1      -9.779  16.200  -0.126  1.00  0.00     0.000 C 
BRANCH   6   7
ATOM      7  C   UNL     1     -10.047  16.621   1.327  1.00  0.00     0.000 C 
BRANCH   7   8
ATOM      8  C   UNL     1     -10.487  15.417   2.175  1.00  0.00     0.000 C 
BRANCH   8   9
ATOM      9  C   UNL     1      -9.710  15.317   3.503  1.00  0.00     0.000 C 
BRANCH   9  10
ATOM     10  C   UNL     1      -8.372  14.569   3.387  1.00  0.00     0.000 C 
BRANCH  10  11
ATOM     11  C   UNL     1      -7.157  15.482   3.601  1.00  0.00     0.000 C 
BRANCH  11  12
ATOM     12  C   UNL     1      -6.596  15.981   2.264  1.00  0.00     0.000 C 
BRANCH  12  13
ATOM     13  C   UNL     1      -6.484  17.513   2.255  1.00  0.00     0.006 C 
BRANCH  13  14
ATOM     14  C   UNL     1      -6.564  18.109   3.668  1.00  0.00     0.053 C 
BRANCH  14  15
ATOM     15  C   UNL     1      -7.636  19.150   3.776  1.00  0.00     0.041 C 
ATOM     16  O   UNL     1      -7.340  20.335   4.079  1.00  0.00    -0.550 OA
ATOM     17  O   UNL     1      -8.966  18.812   3.549  1.00  0.00    -0.550 OA
ENDBRANCH  14  15
ENDBRANCH  13  14
ENDBRANCH  12  13
ENDBRANCH  11  12
ENDBRANCH  10  11
ENDBRANCH   9  10
ENDBRANCH   8   9
ENDBRANCH   7   8
ENDBRANCH   6   7
ENDBRANCH   5   6
ENDBRANCH   4   5
ENDBRANCH   3   4
ENDBRANCH   2   3
ENDBRANCH   1   2
BRANCH   1  18
ATOM     18  C   UNL     1      -6.975  13.945  -5.560  1.00  0.00     0.000 C 
BRANCH  18  19
ATOM     19  C   UNL     1      -7.236  14.875  -6.756  1.00  0.00     0.000 C 
BRANCH  19  20
ATOM     20  C   UNL     1      -7.907  14.150  -7.938  1.00  0.00     0.000 C 
BRANCH  20  21
ATOM     21  C   UNL     1      -9.326  14.673  -8.223  1.00  0.00     0.000 C 
BRANCH  21  22
ATOM     22  C   UNL     1     -10.339  14.256  -7.142  1.00  0.00     0.000 C 
BRANCH  22  23
ATOM     23  C   UNL     1     -10.776  12.788  -7.276  1.00  0.00     0.000 C 
BRANCH  23  24
ATOM     24  C   UNL     1     -10.764  12.040  -5.931  1.00  0.00    -0.000 C 
BRANCH  24  25
ATOM     25  C   UNL     1     -10.563  12.984  -4.734  1.00  0.00    -0.000 C 
BRANCH  25  26
ATOM     26  C   UNL     1     -11.680  12.862  -3.685  1.00  0.00    -0.000 C 
BRANCH  26  27
ATOM     27  C   UNL     1     -11.212  13.251  -2.270  1.00  0.00    -0.000 C 
BRANCH  27  28
ATOM     28  C   UNL     1     -10.072  12.382  -1.702  1.00  0.00    -0.000 C 
BRANCH  28  29
ATOM     29  C   UNL     1      -9.852  12.507  -0.182  1.00  0.00    -0.000 C 
BRANCH  29  30
ATOM     30  C   UNL     1      -8.404  12.826   0.243  1.00  0.00    -0.000 C 
BRANCH  30  31
ATOM     31  C   UNL     1      -7.497  13.340  -0.890  1.00  0.00    -0.003 C 
ATOM     32  C   UNL     1      -6.039  13.501  -0.460  1.00  0.00     0.004 C 
ENDBRANCH  30  31
ENDBRANCH  29  30
ENDBRANCH  28  29
ENDBRANCH  27  28
ENDBRANCH  26  27
ENDBRANCH  25  26
ENDBRANCH  24  25
ENDBRANCH  23  24
ENDBRANCH  22  23
ENDBRANCH  21  22
ENDBRANCH  20  21
ENDBRANCH  19  20
ENDBRANCH  18  19
ENDBRANCH   1  18
TORSDOF 28
ENDMDL
