MODEL 1
REMARK VINA RESULT:    -5.820      0.000      0.000
REMARK INTER + INTRA:          -7.130
REMARK INTER:                  -6.841
REMARK INTRA:                  -0.289
REMARK UNBOUND:                -0.289
REMARK SMILES O=c1cc(-c2ccc(O)c(O)c2)oc2cc(O)cc(O)c12
REMARK SMILES IDX 4 1 3 2 2 3 1 4 21 5 19 6 18 7 16 8 15 9 14 10 13 11 5 12
REMARK SMILES IDX 6 13 7 14 8 15 12 16 10 17 9 18 11 20 20 22 17 24
REMARK H PARENT 9 19 11 21 20 23 17 25
REMARK Flexibility Score: inf
ROOT
ATOM      1  C   UNL     1      -5.969   0.040   2.203  1.00  0.00     0.138 A 
ATOM      2  C   UNL     1      -6.016   0.172   3.598  1.00  0.00     0.100 A 
ATOM      3  C   UNL     1      -6.329   1.409   4.163  1.00  0.00     0.197 A 
ATOM      4  O   UNL     1      -6.303   1.512   5.417  1.00  0.00    -0.289 OA
ATOM      5  C   UNL     1      -6.628   2.510   3.326  1.00  0.00     0.107 A 
ATOM      6  C   UNL     1      -6.999   3.807   3.791  1.00  0.00     0.134 A 
ATOM      7  C   UNL     1      -7.158   4.851   2.870  1.00  0.00     0.093 A 
ATOM      8  C   UNL     1      -7.018   4.631   1.500  1.00  0.00     0.123 A 
ATOM      9  C   UNL     1      -6.707   3.354   1.030  1.00  0.00     0.094 A 
ATOM     10  C   UNL     1      -6.508   2.300   1.926  1.00  0.00     0.146 A 
ATOM     11  O   UNL     1      -6.199   1.103   1.440  1.00  0.00    -0.456 OA
ENDROOT
BRANCH   1  12
ATOM     12  C   UNL     1      -5.641  -1.252   1.550  1.00  0.00     0.021 A 
ATOM     13  C   UNL     1      -5.994  -1.515   0.212  1.00  0.00     0.016 A 
ATOM     14  C   UNL     1      -5.663  -2.737  -0.381  1.00  0.00     0.051 A 
ATOM     15  C   UNL     1      -4.969  -3.711   0.347  1.00  0.00     0.157 A 
ATOM     16  C   UNL     1      -4.932  -2.231   2.268  1.00  0.00     0.062 A 
ATOM     17  C   UNL     1      -4.601  -3.457   1.673  1.00  0.00     0.158 A 
BRANCH  15  18
ATOM     18  O   UNL     1      -4.638  -4.930  -0.242  1.00  0.00    -0.504 OA
ATOM     19  H   UNL     1      -3.837  -5.468   0.067  1.00  0.00     0.293 HD
ENDBRANCH  15  18
BRANCH  17  20
ATOM     20  O   UNL     1      -3.906  -4.427   2.394  1.00  0.00    -0.504 OA
ATOM     21  H   UNL     1      -2.905  -4.544   2.296  1.00  0.00     0.293 HD
ENDBRANCH  17  20
ENDBRANCH   1  12
BRANCH   6  22
ATOM     22  O   UNL     1      -7.249   4.115   5.132  1.00  0.00    -0.507 OA
ATOM     23  H   UNL     1      -6.715   4.771   5.681  1.00  0.00     0.293 HD
ENDBRANCH   6  22
BRANCH   8  24
ATOM     24  O   UNL     1      -7.199   5.690   0.612  1.00  0.00    -0.508 OA
ATOM     25  H   UNL     1      -6.431   6.058   0.063  1.00  0.00     0.293 HD
ENDBRANCH   8  24
TORSDOF 5
ENDMDL
MODEL 2
REMARK VINA RESULT:    -5.785     11.411     13.680
REMARK INTER + INTRA:          -7.089
REMARK INTER:                  -6.795
REMARK INTRA:                  -0.293
REMARK UNBOUND:                -0.289
REMARK SMILES O=c1cc(-c2ccc(O)c(O)c2)oc2cc(O)cc(O)c12
REMARK SMILES IDX 4 1 3 2 2 3 1 4 21 5 19 6 18 7 16 8 15 9 14 10 13 11 5 12
REMARK SMILES IDX 6 13 7 14 8 15 12 16 10 17 9 18 11 20 20 22 17 24
REMARK H PARENT 9 19 11 21 20 23 17 25
REMARK Flexibility Score: inf
ROOT
ATOM      1  C   UNL     1       5.795   0.357   2.284  1.00  0.00     0.138 A 
ATOM      2  C   UNL     1       5.700   0.261   3.679  1.00  0.00     0.100 A 
ATOM      3  C   UNL     1       5.995  -0.949   4.308  1.00  0.00     0.197 A 
ATOM      4  O   UNL     1       5.841  -1.023   5.555  1.00  0.00    -0.289 OA
ATOM      5  C   UNL     1       6.419  -2.058   3.538  1.00  0.00     0.107 A 
ATOM      6  C   UNL     1       6.786  -3.328   4.075  1.00  0.00     0.134 A 
ATOM      7  C   UNL     1       7.077  -4.387   3.205  1.00  0.00     0.093 A 
ATOM      8  C   UNL     1       7.074  -4.206   1.823  1.00  0.00     0.123 A 
ATOM      9  C   UNL     1       6.769  -2.954   1.287  1.00  0.00     0.094 A 
ATOM     10  C   UNL     1       6.440  -1.886   2.127  1.00  0.00     0.146 A 
ATOM     11  O   UNL     1       6.142  -0.714   1.579  1.00  0.00    -0.456 OA
ENDROOT
BRANCH   1  12
ATOM     12  C   UNL     1       5.492   1.620   1.564  1.00  0.00     0.021 A 
ATOM     13  C   UNL     1       5.774   1.777   0.193  1.00  0.00     0.016 A 
ATOM     14  C   UNL     1       5.469   2.974  -0.461  1.00  0.00     0.051 A 
ATOM     15  C   UNL     1       4.869   4.029   0.238  1.00  0.00     0.157 A 
ATOM     16  C   UNL     1       4.878   2.681   2.254  1.00  0.00     0.062 A 
ATOM     17  C   UNL     1       4.572   3.881   1.597  1.00  0.00     0.158 A 
BRANCH  15  18
ATOM     18  O   UNL     1       4.564   5.222  -0.412  1.00  0.00    -0.504 OA
ATOM     19  H   UNL     1       5.212   5.653  -1.062  1.00  0.00     0.293 HD
ENDBRANCH  15  18
BRANCH  17  20
ATOM     20  O   UNL     1       3.972   4.932   2.289  1.00  0.00    -0.504 OA
ATOM     21  H   UNL     1       2.965   5.041   2.319  1.00  0.00     0.293 HD
ENDBRANCH  17  20
ENDBRANCH   1  12
BRANCH   6  22
ATOM     22  O   UNL     1       6.904  -3.594   5.442  1.00  0.00    -0.507 OA
ATOM     23  H   UNL     1       7.548  -3.132   6.066  1.00  0.00     0.293 HD
ENDBRANCH   6  22
BRANCH   8  24
ATOM     24  O   UNL     1       7.384  -5.278   0.988  1.00  0.00    -0.508 OA
ATOM     25  H   UNL     1       8.047  -5.992   1.268  1.00  0.00     0.293 HD
ENDBRANCH   8  24
TORSDOF 5
ENDMDL
MODEL 3
REMARK VINA RESULT:    -5.628      1.403      6.987
REMARK INTER + INTRA:          -6.904
REMARK INTER:                  -6.590
REMARK INTRA:                  -0.314
REMARK UNBOUND:                -0.289
REMARK SMILES O=c1cc(-c2ccc(O)c(O)c2)oc2cc(O)cc(O)c12
REMARK SMILES IDX 4 1 3 2 2 3 1 4 21 5 19 6 18 7 16 8 15 9 14 10 13 11 5 12
REMARK SMILES IDX 6 13 7 14 8 15 12 16 10 17 9 18 11 20 20 22 17 24
REMARK H PARENT 9 19 11 21 20 23 17 25
REMARK Flexibility Score: inf
ROOT
ATOM      1  C   UNL     1      -5.773   0.362   2.543  1.00  0.00     0.138 A 
ATOM      2  C   UNL     1      -5.021  -0.263   3.547  1.00  0.00     0.100 A 
ATOM      3  C   UNL     1      -4.586  -1.577   3.365  1.00  0.00     0.197 A 
ATOM      4  O   UNL     1      -3.965  -2.133   4.309  1.00  0.00    -0.289 OA
ATOM      5  C   UNL     1      -4.880  -2.255   2.158  1.00  0.00     0.107 A 
ATOM      6  C   UNL     1      -4.454  -3.581   1.847  1.00  0.00     0.134 A 
ATOM      7  C   UNL     1      -4.905  -4.192   0.669  1.00  0.00     0.093 A 
ATOM      8  C   UNL     1      -5.715  -3.505  -0.234  1.00  0.00     0.123 A 
ATOM      9  C   UNL     1      -6.094  -2.190   0.035  1.00  0.00     0.094 A 
ATOM     10  C   UNL     1      -5.690  -1.564   1.217  1.00  0.00     0.146 A 
ATOM     11  O   UNL     1      -6.083  -0.316   1.443  1.00  0.00    -0.456 OA
ENDROOT
BRANCH   1  12
ATOM     12  C   UNL     1      -6.261   1.757   2.685  1.00  0.00     0.021 A 
ATOM     13  C   UNL     1      -6.276   2.413   3.931  1.00  0.00     0.016 A 
ATOM     14  C   UNL     1      -6.731   3.731   4.033  1.00  0.00     0.051 A 
ATOM     15  C   UNL     1      -7.168   4.418   2.894  1.00  0.00     0.157 A 
ATOM     16  C   UNL     1      -6.689   2.460   1.544  1.00  0.00     0.062 A 
ATOM     17  C   UNL     1      -7.145   3.782   1.647  1.00  0.00     0.158 A 
BRANCH  15  18
ATOM     18  O   UNL     1      -7.622   5.731   2.992  1.00  0.00    -0.504 OA
ATOM     19  H   UNL     1      -8.268   6.121   2.316  1.00  0.00     0.293 HD
ENDBRANCH  15  18
BRANCH  17  20
ATOM     20  O   UNL     1      -7.577   4.470   0.514  1.00  0.00    -0.504 OA
ATOM     21  H   UNL     1      -8.504   4.875   0.461  1.00  0.00     0.293 HD
ENDBRANCH  17  20
ENDBRANCH   1  12
BRANCH   6  22
ATOM     22  O   UNL     1      -3.575  -4.326   2.639  1.00  0.00    -0.507 OA
ATOM     23  H   UNL     1      -3.430  -4.186   3.627  1.00  0.00     0.293 HD
ENDBRANCH   6  22
BRANCH   8  24
ATOM     24  O   UNL     1      -6.132  -4.140  -1.403  1.00  0.00    -0.508 OA
ATOM     25  H   UNL     1      -6.262  -3.626  -2.267  1.00  0.00     0.293 HD
ENDBRANCH   8  24
TORSDOF 5
ENDMDL
MODEL 4
REMARK VINA RESULT:    -5.613     11.352     12.029
REMARK INTER + INTRA:          -6.887
REMARK INTER:                  -6.570
REMARK INTRA:                  -0.317
REMARK UNBOUND:                -0.289
REMARK SMILES O=c1cc(-c2ccc(O)c(O)c2)oc2cc(O)cc(O)c12
REMARK SMILES IDX 4 1 3 2 2 3 1 4 21 5 19 6 18 7 16 8 15 9 14 10 13 11 5 12
REMARK SMILES IDX 6 13 7 14 8 15 12 16 10 17 9 18 11 20 20 22 17 24
REMARK H PARENT 9 19 11 21 20 23 17 25
REMARK Flexibility Score: inf
ROOT
ATOM      1  C   UNL     1       5.719  -0.055   2.703  1.00  0.00     0.138 A 
ATOM      2  C   UNL     1       4.998   0.627   3.692  1.00  0.00     0.100 A 
ATOM      3  C   UNL     1       4.580   1.939   3.460  1.00  0.00     0.197 A 
ATOM      4  O   UNL     1       3.988   2.546   4.390  1.00  0.00    -0.289 OA
ATOM      5  C   UNL     1       4.859   2.557   2.218  1.00  0.00     0.107 A 
ATOM      6  C   UNL     1       4.448   3.874   1.855  1.00  0.00     0.134 A 
ATOM      7  C   UNL     1       4.883   4.423   0.642  1.00  0.00     0.093 A 
ATOM      8  C   UNL     1       5.662   3.683  -0.245  1.00  0.00     0.123 A 
ATOM      9  C   UNL     1       6.027   2.375   0.075  1.00  0.00     0.094 A 
ATOM     10  C   UNL     1       5.637   1.811   1.293  1.00  0.00     0.146 A 
ATOM     11  O   UNL     1       6.016   0.567   1.567  1.00  0.00    -0.456 OA
ENDROOT
BRANCH   1  12
ATOM     12  C   UNL     1       6.187  -1.451   2.898  1.00  0.00     0.021 A 
ATOM     13  C   UNL     1       6.042  -2.115   4.131  1.00  0.00     0.016 A 
ATOM     14  C   UNL     1       6.483  -3.433   4.282  1.00  0.00     0.051 A 
ATOM     15  C   UNL     1       7.067  -4.111   3.206  1.00  0.00     0.157 A 
ATOM     16  C   UNL     1       6.762  -2.145   1.818  1.00  0.00     0.062 A 
ATOM     17  C   UNL     1       7.205  -3.467   1.971  1.00  0.00     0.158 A 
BRANCH  15  18
ATOM     18  O   UNL     1       7.507  -5.424   3.354  1.00  0.00    -0.504 OA
ATOM     19  H   UNL     1       8.292  -5.783   2.823  1.00  0.00     0.293 HD
ENDBRANCH  15  18
BRANCH  17  20
ATOM     20  O   UNL     1       7.782  -4.147   0.899  1.00  0.00    -0.504 OA
ATOM     21  H   UNL     1       8.305  -5.004   1.035  1.00  0.00     0.293 HD
ENDBRANCH  17  20
ENDBRANCH   1  12
BRANCH   6  22
ATOM     22  O   UNL     1       3.597   4.669   2.631  1.00  0.00    -0.507 OA
ATOM     23  H   UNL     1       2.669   4.404   2.923  1.00  0.00     0.293 HD
ENDBRANCH   6  22
BRANCH   8  24
ATOM     24  O   UNL     1       6.064   4.257  -1.450  1.00  0.00    -0.508 OA
ATOM     25  H   UNL     1       5.394   4.495  -2.173  1.00  0.00     0.293 HD
ENDBRANCH   8  24
TORSDOF 5
ENDMDL
MODEL 5
REMARK VINA RESULT:    -5.544      4.333      6.626
REMARK INTER + INTRA:          -6.806
REMARK INTER:                  -6.515
REMARK INTRA:                  -0.290
REMARK UNBOUND:                -0.289
REMARK SMILES O=c1cc(-c2ccc(O)c(O)c2)oc2cc(O)cc(O)c12
REMARK SMILES IDX 4 1 3 2 2 3 1 4 21 5 19 6 18 7 16 8 15 9 14 10 13 11 5 12
REMARK SMILES IDX 6 13 7 14 8 15 12 16 10 17 9 18 11 20 20 22 17 24
REMARK H PARENT 9 19 11 21 20 23 17 25
REMARK Flexibility Score: inf
ROOT
ATOM      1  C   UNL     1      -1.808  -1.376   2.284  1.00  0.00     0.138 A 
ATOM      2  C   UNL     1      -2.714  -0.588   3.007  1.00  0.00     0.100 A 
ATOM      3  C   UNL     1      -4.079  -0.673   2.727  1.00  0.00     0.197 A 
ATOM      4  O   UNL     1      -4.861   0.091   3.349  1.00  0.00    -0.289 OA
ATOM      5  C   UNL     1      -4.539  -1.577   1.739  1.00  0.00     0.107 A 
ATOM      6  C   UNL     1      -5.910  -1.778   1.398  1.00  0.00     0.134 A 
ATOM      7  C   UNL     1      -6.238  -2.613   0.323  1.00  0.00     0.093 A 
ATOM      8  C   UNL     1      -5.251  -3.300  -0.383  1.00  0.00     0.123 A 
ATOM      9  C   UNL     1      -3.911  -3.153  -0.024  1.00  0.00     0.094 A 
ATOM     10  C   UNL     1      -3.549  -2.300   1.022  1.00  0.00     0.146 A 
ATOM     11  O   UNL     1      -2.261  -2.176   1.324  1.00  0.00    -0.456 OA
ENDROOT
BRANCH   1  12
ATOM     12  C   UNL     1      -0.346  -1.325   2.541  1.00  0.00     0.021 A 
ATOM     13  C   UNL     1       0.337  -0.102   2.686  1.00  0.00     0.016 A 
ATOM     14  C   UNL     1       1.712  -0.084   2.938  1.00  0.00     0.051 A 
ATOM     15  C   UNL     1       2.424  -1.283   3.059  1.00  0.00     0.157 A 
ATOM     16  C   UNL     1       0.376  -2.524   2.677  1.00  0.00     0.062 A 
ATOM     17  C   UNL     1       1.755  -2.505   2.930  1.00  0.00     0.158 A 
BRANCH  15  18
ATOM     18  O   UNL     1       3.795  -1.268   3.309  1.00  0.00    -0.504 OA
ATOM     19  H   UNL     1       4.411  -0.610   2.846  1.00  0.00     0.293 HD
ENDBRANCH  15  18
BRANCH  17  20
ATOM     20  O   UNL     1       2.466  -3.698   3.054  1.00  0.00    -0.504 OA
ATOM     21  H   UNL     1       2.524  -4.363   2.292  1.00  0.00     0.293 HD
ENDBRANCH  17  20
ENDBRANCH   1  12
BRANCH   6  22
ATOM     22  O   UNL     1      -6.980  -1.207   2.093  1.00  0.00    -0.507 OA
ATOM     23  H   UNL     1      -6.927  -0.362   2.641  1.00  0.00     0.293 HD
ENDBRANCH   6  22
BRANCH   8  24
ATOM     24  O   UNL     1      -5.616  -4.135  -1.438  1.00  0.00    -0.508 OA
ATOM     25  H   UNL     1      -5.299  -3.963  -2.385  1.00  0.00     0.293 HD
ENDBRANCH   8  24
TORSDOF 5
ENDMDL
MODEL 6
REMARK VINA RESULT:    -5.486      8.786      9.979
REMARK INTER + INTRA:          -6.737
REMARK INTER:                  -6.451
REMARK INTRA:                  -0.286
REMARK UNBOUND:                -0.289
REMARK SMILES O=c1cc(-c2ccc(O)c(O)c2)oc2cc(O)cc(O)c12
REMARK SMILES IDX 4 1 3 2 2 3 1 4 21 5 19 6 18 7 16 8 15 9 14 10 13 11 5 12
REMARK SMILES IDX 6 13 7 14 8 15 12 16 10 17 9 18 11 20 20 22 17 24
REMARK H PARENT 9 19 11 21 20 23 17 25
REMARK Flexibility Score: inf
ROOT
ATOM      1  C   UNL     1       1.615   1.910   2.296  1.00  0.00     0.138 A 
ATOM      2  C   UNL     1       2.465   1.081   3.041  1.00  0.00     0.100 A 
ATOM      3  C   UNL     1       3.829   1.050   2.748  1.00  0.00     0.197 A 
ATOM      4  O   UNL     1       4.557   0.251   3.393  1.00  0.00    -0.289 OA
ATOM      5  C   UNL     1       4.348   1.879   1.724  1.00  0.00     0.107 A 
ATOM      6  C   UNL     1       5.726   1.960   1.366  1.00  0.00     0.134 A 
ATOM      7  C   UNL     1       6.106   2.728   0.258  1.00  0.00     0.093 A 
ATOM      8  C   UNL     1       5.169   3.463  -0.466  1.00  0.00     0.123 A 
ATOM      9  C   UNL     1       3.825   3.433  -0.092  1.00  0.00     0.094 A 
ATOM     10  C   UNL     1       3.409   2.649   0.988  1.00  0.00     0.146 A 
ATOM     11  O   UNL     1       2.118   2.636   1.304  1.00  0.00    -0.456 OA
ENDROOT
BRANCH   1  12
ATOM     12  C   UNL     1       0.156   1.981   2.566  1.00  0.00     0.021 A 
ATOM     13  C   UNL     1      -0.635   0.820   2.667  1.00  0.00     0.016 A 
ATOM     14  C   UNL     1      -2.004   0.916   2.932  1.00  0.00     0.051 A 
ATOM     15  C   UNL     1      -2.603   2.169   3.110  1.00  0.00     0.157 A 
ATOM     16  C   UNL     1      -0.452   3.234   2.759  1.00  0.00     0.062 A 
ATOM     17  C   UNL     1      -1.825   3.330   3.025  1.00  0.00     0.158 A 
BRANCH  15  18
ATOM     18  O   UNL     1      -3.967   2.268   3.373  1.00  0.00    -0.504 OA
ATOM     19  H   UNL     1      -4.659   2.145   2.643  1.00  0.00     0.293 HD
ENDBRANCH  15  18
BRANCH  17  20
ATOM     20  O   UNL     1      -2.424   4.576   3.206  1.00  0.00    -0.504 OA
ATOM     21  H   UNL     1      -3.418   4.666   3.382  1.00  0.00     0.293 HD
ENDBRANCH  17  20
ENDBRANCH   1  12
BRANCH   6  22
ATOM     22  O   UNL     1       6.757   1.334   2.074  1.00  0.00    -0.507 OA
ATOM     23  H   UNL     1       6.767   1.192   3.072  1.00  0.00     0.293 HD
ENDBRANCH   6  22
BRANCH   8  24
ATOM     24  O   UNL     1       5.586   4.229  -1.553  1.00  0.00    -0.508 OA
ATOM     25  H   UNL     1       6.503   4.105  -1.968  1.00  0.00     0.293 HD
ENDBRANCH   8  24
TORSDOF 5
ENDMDL
MODEL 7
REMARK VINA RESULT:    -5.421      1.344      2.973
REMARK INTER + INTRA:          -6.661
REMARK INTER:                  -6.346
REMARK INTRA:                  -0.314
REMARK UNBOUND:                -0.289
REMARK SMILES O=c1cc(-c2ccc(O)c(O)c2)oc2cc(O)cc(O)c12
REMARK SMILES IDX 4 1 3 2 2 3 1 4 21 5 19 6 18 7 16 8 15 9 14 10 13 11 5 12
REMARK SMILES IDX 6 13 7 14 8 15 12 16 10 17 9 18 11 20 20 22 17 24
REMARK H PARENT 9 19 11 21 20 23 17 25
REMARK Flexibility Score: inf
ROOT
ATOM      1  C   UNL     1      -5.915  -0.004   2.430  1.00  0.00     0.138 A 
ATOM      2  C   UNL     1      -6.305   1.137   1.717  1.00  0.00     0.100 A 
ATOM      3  C   UNL     1      -6.581   2.320   2.406  1.00  0.00     0.197 A 
ATOM      4  O   UNL     1      -6.987   3.311   1.745  1.00  0.00    -0.289 OA
ATOM      5  C   UNL     1      -6.433   2.366   3.813  1.00  0.00     0.107 A 
ATOM      6  C   UNL     1      -6.647   3.526   4.614  1.00  0.00     0.134 A 
ATOM      7  C   UNL     1      -6.585   3.422   6.010  1.00  0.00     0.093 A 
ATOM      8  C   UNL     1      -6.258   2.216   6.628  1.00  0.00     0.123 A 
ATOM      9  C   UNL     1      -5.995   1.087   5.852  1.00  0.00     0.094 A 
ATOM     10  C   UNL     1      -6.083   1.150   4.459  1.00  0.00     0.146 A 
ATOM     11  O   UNL     1      -5.838   0.050   3.756  1.00  0.00    -0.456 OA
ENDROOT
BRANCH   1  12
ATOM     12  C   UNL     1      -5.610  -1.288   1.748  1.00  0.00     0.021 A 
ATOM     13  C   UNL     1      -5.971  -1.516   0.406  1.00  0.00     0.016 A 
ATOM     14  C   UNL     1      -5.662  -2.730  -0.214  1.00  0.00     0.051 A 
ATOM     15  C   UNL     1      -4.981  -3.731   0.490  1.00  0.00     0.157 A 
ATOM     16  C   UNL     1      -4.915  -2.293   2.443  1.00  0.00     0.062 A 
ATOM     17  C   UNL     1      -4.605  -3.511   1.820  1.00  0.00     0.158 A 
BRANCH  15  18
ATOM     18  O   UNL     1      -4.673  -4.942  -0.125  1.00  0.00    -0.504 OA
ATOM     19  H   UNL     1      -5.080  -5.203  -1.016  1.00  0.00     0.293 HD
ENDBRANCH  15  18
BRANCH  17  20
ATOM     20  O   UNL     1      -3.924  -4.507   2.518  1.00  0.00    -0.504 OA
ATOM     21  H   UNL     1      -4.237  -4.828   3.426  1.00  0.00     0.293 HD
ENDBRANCH  17  20
ENDBRANCH   1  12
BRANCH   6  22
ATOM     22  O   UNL     1      -6.895   4.801   4.095  1.00  0.00    -0.507 OA
ATOM     23  H   UNL     1      -6.251   5.326   3.525  1.00  0.00     0.293 HD
ENDBRANCH   6  22
BRANCH   8  24
ATOM     24  O   UNL     1      -6.190   2.153   8.019  1.00  0.00    -0.508 OA
ATOM     25  H   UNL     1      -6.368   1.290   8.520  1.00  0.00     0.293 HD
ENDBRANCH   8  24
TORSDOF 5
ENDMDL
MODEL 8
REMARK VINA RESULT:    -5.380     11.484     13.181
REMARK INTER + INTRA:          -6.612
REMARK INTER:                  -6.349
REMARK INTRA:                  -0.263
REMARK UNBOUND:                -0.289
REMARK SMILES O=c1cc(-c2ccc(O)c(O)c2)oc2cc(O)cc(O)c12
REMARK SMILES IDX 4 1 3 2 2 3 1 4 21 5 19 6 18 7 16 8 15 9 14 10 13 11 5 12
REMARK SMILES IDX 6 13 7 14 8 15 12 16 10 17 9 18 11 20 20 22 17 24
REMARK H PARENT 9 19 11 21 20 23 17 25
REMARK Flexibility Score: inf
ROOT
ATOM      1  C   UNL     1       5.425   0.529   3.471  1.00  0.00     0.138 A 
ATOM      2  C   UNL     1       5.237  -0.859   3.449  1.00  0.00     0.100 A 
ATOM      3  C   UNL     1       5.681  -1.633   4.523  1.00  0.00     0.197 A 
ATOM      4  O   UNL     1       5.553  -2.882   4.447  1.00  0.00    -0.289 OA
ATOM      5  C   UNL     1       6.287  -1.006   5.637  1.00  0.00     0.107 A 
ATOM      6  C   UNL     1       6.741  -1.689   6.805  1.00  0.00     0.134 A 
ATOM      7  C   UNL     1       7.432  -0.978   7.795  1.00  0.00     0.093 A 
ATOM      8  C   UNL     1       7.633   0.397   7.687  1.00  0.00     0.123 A 
ATOM      9  C   UNL     1       7.146   1.085   6.574  1.00  0.00     0.094 A 
ATOM     10  C   UNL     1       6.483   0.398   5.554  1.00  0.00     0.146 A 
ATOM     11  O   UNL     1       6.047   1.086   4.504  1.00  0.00    -0.456 OA
ENDROOT
BRANCH   1  12
ATOM     12  C   UNL     1       4.972   1.398   2.355  1.00  0.00     0.021 A 
ATOM     13  C   UNL     1       5.822   1.726   1.281  1.00  0.00     0.016 A 
ATOM     14  C   UNL     1       5.365   2.538   0.238  1.00  0.00     0.051 A 
ATOM     15  C   UNL     1       4.054   3.028   0.246  1.00  0.00     0.157 A 
ATOM     16  C   UNL     1       3.653   1.884   2.347  1.00  0.00     0.062 A 
ATOM     17  C   UNL     1       3.196   2.699   1.302  1.00  0.00     0.158 A 
BRANCH  15  18
ATOM     18  O   UNL     1       3.597   3.838  -0.791  1.00  0.00    -0.504 OA
ATOM     19  H   UNL     1       3.583   3.513  -1.750  1.00  0.00     0.293 HD
ENDBRANCH  15  18
BRANCH  17  20
ATOM     20  O   UNL     1       1.889   3.185   1.305  1.00  0.00    -0.504 OA
ATOM     21  H   UNL     1       1.672   4.120   1.629  1.00  0.00     0.293 HD
ENDBRANCH  17  20
ENDBRANCH   1  12
BRANCH   6  22
ATOM     22  O   UNL     1       6.518  -3.047   7.054  1.00  0.00    -0.507 OA
ATOM     23  H   UNL     1       5.781  -3.413   7.636  1.00  0.00     0.293 HD
ENDBRANCH   6  22
BRANCH   8  24
ATOM     24  O   UNL     1       8.311   1.074   8.699  1.00  0.00    -0.508 OA
ATOM     25  H   UNL     1       7.903   1.200   9.619  1.00  0.00     0.293 HD
ENDBRANCH   8  24
TORSDOF 5
ENDMDL
MODEL 9
REMARK VINA RESULT:    -5.368      2.353      3.856
REMARK INTER + INTRA:          -6.598
REMARK INTER:                  -6.336
REMARK INTRA:                  -0.262
REMARK UNBOUND:                -0.289
REMARK SMILES O=c1cc(-c2ccc(O)c(O)c2)oc2cc(O)cc(O)c12
REMARK SMILES IDX 4 1 3 2 2 3 1 4 21 5 19 6 18 7 16 8 15 9 14 10 13 11 5 12
REMARK SMILES IDX 6 13 7 14 8 15 12 16 10 17 9 18 11 20 20 22 17 24
REMARK H PARENT 9 19 11 21 20 23 17 25
REMARK Flexibility Score: inf
ROOT
ATOM      1  C   UNL     1      -5.427  -0.142   3.372  1.00  0.00     0.138 A 
ATOM      2  C   UNL     1      -5.163   1.231   3.282  1.00  0.00     0.100 A 
ATOM      3  C   UNL     1      -5.557   2.078   4.320  1.00  0.00     0.197 A 
ATOM      4  O   UNL     1      -5.362   3.314   4.184  1.00  0.00    -0.289 OA
ATOM      5  C   UNL     1      -6.190   1.540   5.465  1.00  0.00     0.107 A 
ATOM      6  C   UNL     1      -6.599   2.302   6.601  1.00  0.00     0.134 A 
ATOM      7  C   UNL     1      -7.321   1.678   7.626  1.00  0.00     0.093 A 
ATOM      8  C   UNL     1      -7.597   0.312   7.586  1.00  0.00     0.123 A 
ATOM      9  C   UNL     1      -7.156  -0.453   6.505  1.00  0.00     0.094 A 
ATOM     10  C   UNL     1      -6.463   0.146   5.450  1.00  0.00     0.146 A 
ATOM     11  O   UNL     1      -6.072  -0.614   4.433  1.00  0.00    -0.456 OA
ENDROOT
BRANCH   1  12
ATOM     12  C   UNL     1      -5.030  -1.087   2.297  1.00  0.00     0.021 A 
ATOM     13  C   UNL     1      -5.935  -1.496   1.300  1.00  0.00     0.016 A 
ATOM     14  C   UNL     1      -5.531  -2.380   0.294  1.00  0.00     0.051 A 
ATOM     15  C   UNL     1      -4.216  -2.861   0.263  1.00  0.00     0.157 A 
ATOM     16  C   UNL     1      -3.708  -1.565   2.250  1.00  0.00     0.062 A 
ATOM     17  C   UNL     1      -3.303  -2.451   1.241  1.00  0.00     0.158 A 
BRANCH  15  18
ATOM     18  O   UNL     1      -3.811  -3.741  -0.738  1.00  0.00    -0.504 OA
ATOM     19  H   UNL     1      -4.068  -4.721  -0.718  1.00  0.00     0.293 HD
ENDBRANCH  15  18
BRANCH  17  20
ATOM     20  O   UNL     1      -1.994  -2.929   1.205  1.00  0.00    -0.504 OA
ATOM     21  H   UNL     1      -1.649  -3.471   0.422  1.00  0.00     0.293 HD
ENDBRANCH  17  20
ENDBRANCH   1  12
BRANCH   6  22
ATOM     22  O   UNL     1      -6.300   3.656   6.783  1.00  0.00    -0.507 OA
ATOM     23  H   UNL     1      -5.372   4.029   6.911  1.00  0.00     0.293 HD
ENDBRANCH   6  22
BRANCH   8  24
ATOM     24  O   UNL     1      -8.305  -0.277   8.632  1.00  0.00    -0.508 OA
ATOM     25  H   UNL     1      -7.974  -1.121   9.086  1.00  0.00     0.293 HD
ENDBRANCH   8  24
TORSDOF 5
ENDMDL
