MODEL 1
REMARK VINA RESULT:    -8.062      0.000      0.000
REMARK INTER + INTRA:          -9.764
REMARK INTER:                  -9.711
REMARK INTRA:                  -0.052
REMARK UNBOUND:                -0.052
REMARK SMILES O=c1c(O)c(-c2ccc(O)c(O)c2)oc2cc(O)cc(O)c12
REMARK SMILES IDX 5 1 3 2 2 3 1 4 22 5 20 6 19 7 17 8 16 9 15 10 14 11 6 12
REMARK SMILES IDX 7 13 8 14 9 15 13 16 11 17 10 18 12 20 4 22 21 24 18 26
REMARK H PARENT 10 19 12 21 4 23 21 25 18 27
REMARK Flexibility Score: inf
ROOT
ATOM      1  C   UNL     1      38.004  80.571 124.700  1.00  0.00     0.180 A 
ATOM      2  C   UNL     1      37.180  79.955 123.742  1.00  0.00     0.208 A 
ATOM      3  C   UNL     1      37.344  80.289 122.388  1.00  0.00     0.238 A 
ATOM      4  O   UNL     1      36.554  79.792 121.544  1.00  0.00    -0.285 OA
ATOM      5  C   UNL     1      38.365  81.191 122.002  1.00  0.00     0.111 A 
ATOM      6  C   UNL     1      38.651  81.567 120.655  1.00  0.00     0.134 A 
ATOM      7  C   UNL     1      39.617  82.550 120.402  1.00  0.00     0.093 A 
ATOM      8  C   UNL     1      40.352  83.122 121.442  1.00  0.00     0.123 A 
ATOM      9  C   UNL     1      40.118  82.722 122.755  1.00  0.00     0.094 A 
ATOM     10  C   UNL     1      39.136  81.773 123.044  1.00  0.00     0.146 A 
ATOM     11  O   UNL     1      38.932  81.437 124.311  1.00  0.00    -0.452 OA
ENDROOT
BRANCH   1  12
ATOM     12  C   UNL     1      37.882  80.281 126.147  1.00  0.00     0.025 A 
ATOM     13  C   UNL     1      36.644  80.458 126.783  1.00  0.00     0.016 A 
ATOM     14  C   UNL     1      36.500  80.171 128.143  1.00  0.00     0.051 A 
ATOM     15  C   UNL     1      37.583  79.689 128.883  1.00  0.00     0.157 A 
ATOM     16  C   UNL     1      38.966  79.776 126.888  1.00  0.00     0.062 A 
ATOM     17  C   UNL     1      38.822  79.486 128.253  1.00  0.00     0.158 A 
BRANCH  15  18
ATOM     18  O   UNL     1      37.410  79.414 130.239  1.00  0.00    -0.504 OA
ATOM     19  H   UNL     1      36.573  78.969 130.595  1.00  0.00     0.293 HD
ENDBRANCH  15  18
BRANCH  17  20
ATOM     20  O   UNL     1      39.904  78.992 128.981  1.00  0.00    -0.504 OA
ATOM     21  H   UNL     1      40.409  79.572 129.641  1.00  0.00     0.293 HD
ENDBRANCH  17  20
ENDBRANCH   1  12
BRANCH   2  22
ATOM     22  O   UNL     1      36.229  79.011 124.135  1.00  0.00    -0.502 OA
ATOM     23  H   UNL     1      36.364  78.401 124.932  1.00  0.00     0.293 HD
ENDBRANCH   2  22
BRANCH   6  24
ATOM     24  O   UNL     1      38.039  80.994 119.535  1.00  0.00    -0.507 OA
ATOM     25  H   UNL     1      37.425  80.195 119.558  1.00  0.00     0.293 HD
ENDBRANCH   6  24
BRANCH   8  26
ATOM     26  O   UNL     1      41.323  84.086 121.179  1.00  0.00    -0.508 OA
ATOM     27  H   UNL     1      41.310  84.633 120.326  1.00  0.00     0.293 HD
ENDBRANCH   8  26
TORSDOF 6
ENDMDL
MODEL 2
REMARK VINA RESULT:    -7.826      2.668      6.749
REMARK INTER + INTRA:          -9.480
REMARK INTER:                  -9.161
REMARK INTRA:                  -0.319
REMARK UNBOUND:                -0.052
REMARK SMILES O=c1c(O)c(-c2ccc(O)c(O)c2)oc2cc(O)cc(O)c12
REMARK SMILES IDX 5 1 3 2 2 3 1 4 22 5 20 6 19 7 17 8 16 9 15 10 14 11 6 12
REMARK SMILES IDX 7 13 8 14 9 15 13 16 11 17 10 18 12 20 4 22 21 24 18 26
REMARK H PARENT 10 19 12 21 4 23 21 25 18 27
REMARK Flexibility Score: inf
ROOT
ATOM      1  C   UNL     1      36.016  80.710 124.557  1.00  0.00     0.180 A 
ATOM      2  C   UNL     1      37.295  81.027 124.066  1.00  0.00     0.208 A 
ATOM      3  C   UNL     1      38.392  80.974 124.941  1.00  0.00     0.238 A 
ATOM      4  O   UNL     1      39.521  81.331 124.515  1.00  0.00    -0.285 OA
ATOM      5  C   UNL     1      38.207  80.551 126.280  1.00  0.00     0.111 A 
ATOM      6  C   UNL     1      39.254  80.416 127.241  1.00  0.00     0.134 A 
ATOM      7  C   UNL     1      38.937  80.092 128.567  1.00  0.00     0.093 A 
ATOM      8  C   UNL     1      37.619  79.834 128.950  1.00  0.00     0.123 A 
ATOM      9  C   UNL     1      36.598  79.909 128.007  1.00  0.00     0.094 A 
ATOM     10  C   UNL     1      36.876  80.268 126.687  1.00  0.00     0.146 A 
ATOM     11  O   UNL     1      35.869  80.348 125.826  1.00  0.00    -0.452 OA
ENDROOT
BRANCH   1  12
ATOM     12  C   UNL     1      34.809  80.757 123.700  1.00  0.00     0.025 A 
ATOM     13  C   UNL     1      34.057  81.939 123.634  1.00  0.00     0.016 A 
ATOM     14  C   UNL     1      32.926  82.014 122.816  1.00  0.00     0.051 A 
ATOM     15  C   UNL     1      32.540  80.917 122.041  1.00  0.00     0.157 A 
ATOM     16  C   UNL     1      34.432  79.661 122.903  1.00  0.00     0.062 A 
ATOM     17  C   UNL     1      33.299  79.735 122.081  1.00  0.00     0.158 A 
BRANCH  15  18
ATOM     18  O   UNL     1      31.406  81.020 121.237  1.00  0.00    -0.504 OA
ATOM     19  H   UNL     1      30.654  81.664 121.447  1.00  0.00     0.293 HD
ENDBRANCH  15  18
BRANCH  17  20
ATOM     20  O   UNL     1      32.928  78.641 121.299  1.00  0.00    -0.504 OA
ATOM     21  H   UNL     1      33.033  78.648 120.292  1.00  0.00     0.293 HD
ENDBRANCH  17  20
ENDBRANCH   1  12
BRANCH   2  22
ATOM     22  O   UNL     1      37.468  81.369 122.723  1.00  0.00    -0.502 OA
ATOM     23  H   UNL     1      37.160  82.256 122.343  1.00  0.00     0.293 HD
ENDBRANCH   2  22
BRANCH   6  24
ATOM     24  O   UNL     1      40.613  80.564 126.945  1.00  0.00    -0.507 OA
ATOM     25  H   UNL     1      41.231  79.814 126.678  1.00  0.00     0.293 HD
ENDBRANCH   6  24
BRANCH   8  26
ATOM     26  O   UNL     1      37.316  79.494 130.266  1.00  0.00    -0.508 OA
ATOM     27  H   UNL     1      36.949  78.580 130.507  1.00  0.00     0.293 HD
ENDBRANCH   8  26
TORSDOF 6
ENDMDL
MODEL 3
REMARK VINA RESULT:    -7.709      3.223      6.225
REMARK INTER + INTRA:          -9.339
REMARK INTER:                  -9.121
REMARK INTRA:                  -0.218
REMARK UNBOUND:                -0.052
REMARK SMILES O=c1c(O)c(-c2ccc(O)c(O)c2)oc2cc(O)cc(O)c12
REMARK SMILES IDX 5 1 3 2 2 3 1 4 22 5 20 6 19 7 17 8 16 9 15 10 14 11 6 12
REMARK SMILES IDX 7 13 8 14 9 15 13 16 11 17 10 18 12 20 4 22 21 24 18 26
REMARK H PARENT 10 19 12 21 4 23 21 25 18 27
REMARK Flexibility Score: inf
ROOT
ATOM      1  C   UNL     1      35.699  79.560 123.841  1.00  0.00     0.180 A 
ATOM      2  C   UNL     1      35.504  79.864 125.200  1.00  0.00     0.208 A 
ATOM      3  C   UNL     1      36.617  80.185 125.993  1.00  0.00     0.238 A 
ATOM      4  O   UNL     1      36.444  80.382 127.224  1.00  0.00    -0.285 OA
ATOM      5  C   UNL     1      37.905  80.252 125.408  1.00  0.00     0.111 A 
ATOM      6  C   UNL     1      39.097  80.611 126.106  1.00  0.00     0.134 A 
ATOM      7  C   UNL     1      40.332  80.540 125.446  1.00  0.00     0.093 A 
ATOM      8  C   UNL     1      40.408  80.188 124.097  1.00  0.00     0.123 A 
ATOM      9  C   UNL     1      39.245  79.889 123.393  1.00  0.00     0.094 A 
ATOM     10  C   UNL     1      38.004  79.913 124.032  1.00  0.00     0.146 A 
ATOM     11  O   UNL     1      36.923  79.601 123.328  1.00  0.00    -0.452 OA
ENDROOT
BRANCH   1  12
ATOM     12  C   UNL     1      34.577  79.199 122.945  1.00  0.00     0.025 A 
ATOM     13  C   UNL     1      34.437  77.871 122.517  1.00  0.00     0.016 A 
ATOM     14  C   UNL     1      33.375  77.502 121.688  1.00  0.00     0.051 A 
ATOM     15  C   UNL     1      32.428  78.450 121.288  1.00  0.00     0.157 A 
ATOM     16  C   UNL     1      33.612  80.148 122.560  1.00  0.00     0.062 A 
ATOM     17  C   UNL     1      32.544  79.779 121.729  1.00  0.00     0.158 A 
BRANCH  15  18
ATOM     18  O   UNL     1      31.380  78.053 120.459  1.00  0.00    -0.504 OA
ATOM     19  H   UNL     1      31.180  78.522 119.584  1.00  0.00     0.293 HD
ENDBRANCH  15  18
BRANCH  17  20
ATOM     20  O   UNL     1      31.595  80.727 121.346  1.00  0.00    -0.504 OA
ATOM     21  H   UNL     1      30.889  81.061 121.991  1.00  0.00     0.293 HD
ENDBRANCH  17  20
ENDBRANCH   1  12
BRANCH   2  22
ATOM     22  O   UNL     1      34.216  79.866 125.742  1.00  0.00    -0.502 OA
ATOM     23  H   UNL     1      33.433  79.413 125.286  1.00  0.00     0.293 HD
ENDBRANCH   2  22
BRANCH   6  24
ATOM     24  O   UNL     1      39.124  81.063 127.429  1.00  0.00    -0.507 OA
ATOM     25  H   UNL     1      38.315  81.166 128.021  1.00  0.00     0.293 HD
ENDBRANCH   6  24
BRANCH   8  26
ATOM     26  O   UNL     1      41.638  80.138 123.445  1.00  0.00    -0.508 OA
ATOM     27  H   UNL     1      41.852  80.754 122.669  1.00  0.00     0.293 HD
ENDBRANCH   8  26
TORSDOF 6
ENDMDL
MODEL 4
REMARK VINA RESULT:    -7.589      3.296      4.461
REMARK INTER + INTRA:          -9.194
REMARK INTER:                  -8.990
REMARK INTRA:                  -0.205
REMARK UNBOUND:                -0.052
REMARK SMILES O=c1c(O)c(-c2ccc(O)c(O)c2)oc2cc(O)cc(O)c12
REMARK SMILES IDX 5 1 3 2 2 3 1 4 22 5 20 6 19 7 17 8 16 9 15 10 14 11 6 12
REMARK SMILES IDX 7 13 8 14 9 15 13 16 11 17 10 18 12 20 4 22 21 24 18 26
REMARK H PARENT 10 19 12 21 4 23 21 25 18 27
REMARK Flexibility Score: inf
ROOT
ATOM      1  C   UNL     1      36.273  80.269 125.181  1.00  0.00     0.180 A 
ATOM      2  C   UNL     1      36.322  79.316 124.149  1.00  0.00     0.208 A 
ATOM      3  C   UNL     1      35.362  79.371 123.125  1.00  0.00     0.238 A 
ATOM      4  O   UNL     1      35.367  78.471 122.246  1.00  0.00    -0.285 OA
ATOM      5  C   UNL     1      34.401  80.410 123.114  1.00  0.00     0.111 A 
ATOM      6  C   UNL     1      33.410  80.590 122.103  1.00  0.00     0.134 A 
ATOM      7  C   UNL     1      32.443  81.593 122.253  1.00  0.00     0.093 A 
ATOM      8  C   UNL     1      32.471  82.462 123.346  1.00  0.00     0.123 A 
ATOM      9  C   UNL     1      33.466  82.330 124.310  1.00  0.00     0.094 A 
ATOM     10  C   UNL     1      34.421  81.316 124.208  1.00  0.00     0.146 A 
ATOM     11  O   UNL     1      35.339  81.212 125.161  1.00  0.00    -0.452 OA
ENDROOT
BRANCH   1  12
ATOM     12  C   UNL     1      37.240  80.267 126.302  1.00  0.00     0.025 A 
ATOM     13  C   UNL     1      38.575  80.626 126.062  1.00  0.00     0.016 A 
ATOM     14  C   UNL     1      39.501  80.651 127.108  1.00  0.00     0.051 A 
ATOM     15  C   UNL     1      39.105  80.335 128.410  1.00  0.00     0.157 A 
ATOM     16  C   UNL     1      36.838  79.970 127.617  1.00  0.00     0.062 A 
ATOM     17  C   UNL     1      37.766  79.997 128.668  1.00  0.00     0.158 A 
BRANCH  15  18
ATOM     18  O   UNL     1      40.051  80.367 129.434  1.00  0.00    -0.504 OA
ATOM     19  H   UNL     1      40.871  79.773 129.426  1.00  0.00     0.293 HD
ENDBRANCH  15  18
BRANCH  17  20
ATOM     20  O   UNL     1      37.359  79.694 129.968  1.00  0.00    -0.504 OA
ATOM     21  H   UNL     1      36.521  79.156 130.150  1.00  0.00     0.293 HD
ENDBRANCH  17  20
ENDBRANCH   1  12
BRANCH   2  22
ATOM     22  O   UNL     1      37.325  78.343 124.137  1.00  0.00    -0.502 OA
ATOM     23  H   UNL     1      37.133  77.366 123.954  1.00  0.00     0.293 HD
ENDBRANCH   2  22
BRANCH   6  24
ATOM     24  O   UNL     1      33.345  79.835 120.927  1.00  0.00    -0.507 OA
ATOM     25  H   UNL     1      32.513  79.388 120.573  1.00  0.00     0.293 HD
ENDBRANCH   6  24
BRANCH   8  26
ATOM     26  O   UNL     1      31.516  83.468 123.478  1.00  0.00    -0.508 OA
ATOM     27  H   UNL     1      30.640  83.438 122.967  1.00  0.00     0.293 HD
ENDBRANCH   8  26
TORSDOF 6
ENDMDL
MODEL 5
REMARK VINA RESULT:    -7.545      3.000      3.657
REMARK INTER + INTRA:          -9.141
REMARK INTER:                  -8.840
REMARK INTRA:                  -0.301
REMARK UNBOUND:                -0.052
REMARK SMILES O=c1c(O)c(-c2ccc(O)c(O)c2)oc2cc(O)cc(O)c12
REMARK SMILES IDX 5 1 3 2 2 3 1 4 22 5 20 6 19 7 17 8 16 9 15 10 14 11 6 12
REMARK SMILES IDX 7 13 8 14 9 15 13 16 11 17 10 18 12 20 4 22 21 24 18 26
REMARK H PARENT 10 19 12 21 4 23 21 25 18 27
REMARK Flexibility Score: inf
ROOT
ATOM      1  C   UNL     1      36.878  80.820 125.197  1.00  0.00     0.180 A 
ATOM      2  C   UNL     1      36.409  79.925 124.219  1.00  0.00     0.208 A 
ATOM      3  C   UNL     1      35.533  80.398 123.228  1.00  0.00     0.238 A 
ATOM      4  O   UNL     1      35.058  79.577 122.402  1.00  0.00    -0.285 OA
ATOM      5  C   UNL     1      35.182  81.769 123.193  1.00  0.00     0.111 A 
ATOM      6  C   UNL     1      34.339  82.367 122.208  1.00  0.00     0.134 A 
ATOM      7  C   UNL     1      33.974  83.714 122.336  1.00  0.00     0.093 A 
ATOM      8  C   UNL     1      34.475  84.500 123.376  1.00  0.00     0.123 A 
ATOM      9  C   UNL     1      35.342  83.940 124.311  1.00  0.00     0.094 A 
ATOM     10  C   UNL     1      35.693  82.591 124.233  1.00  0.00     0.146 A 
ATOM     11  O   UNL     1      36.505  82.093 125.157  1.00  0.00    -0.452 OA
ENDROOT
BRANCH   1  12
ATOM     12  C   UNL     1      37.791  80.393 126.282  1.00  0.00     0.025 A 
ATOM     13  C   UNL     1      39.167  80.297 126.027  1.00  0.00     0.016 A 
ATOM     14  C   UNL     1      40.051  79.917 127.041  1.00  0.00     0.051 A 
ATOM     15  C   UNL     1      39.576  79.642 128.326  1.00  0.00     0.157 A 
ATOM     16  C   UNL     1      37.317  80.137 127.582  1.00  0.00     0.062 A 
ATOM     17  C   UNL     1      38.202  79.757 128.600  1.00  0.00     0.158 A 
BRANCH  15  18
ATOM     18  O   UNL     1      40.480  79.263 129.317  1.00  0.00    -0.504 OA
ATOM     19  H   UNL     1      40.180  78.830 130.182  1.00  0.00     0.293 HD
ENDBRANCH  15  18
BRANCH  17  20
ATOM     20  O   UNL     1      37.723  79.498 129.884  1.00  0.00    -0.504 OA
ATOM     21  H   UNL     1      38.045  80.025 130.687  1.00  0.00     0.293 HD
ENDBRANCH  17  20
ENDBRANCH   1  12
BRANCH   2  22
ATOM     22  O   UNL     1      36.827  78.592 124.226  1.00  0.00    -0.502 OA
ATOM     23  H   UNL     1      37.711  78.297 123.829  1.00  0.00     0.293 HD
ENDBRANCH   2  22
BRANCH   6  24
ATOM     24  O   UNL     1      33.855  81.697 121.080  1.00  0.00    -0.507 OA
ATOM     25  H   UNL     1      32.958  81.241 121.020  1.00  0.00     0.293 HD
ENDBRANCH   6  24
BRANCH   8  26
ATOM     26  O   UNL     1      34.122  85.843 123.485  1.00  0.00    -0.508 OA
ATOM     27  H   UNL     1      33.856  86.389 122.673  1.00  0.00     0.293 HD
ENDBRANCH   8  26
TORSDOF 6
ENDMDL
MODEL 6
REMARK VINA RESULT:    -7.473      1.851      6.787
REMARK INTER + INTRA:          -9.055
REMARK INTER:                  -8.744
REMARK INTRA:                  -0.311
REMARK UNBOUND:                -0.052
REMARK SMILES O=c1c(O)c(-c2ccc(O)c(O)c2)oc2cc(O)cc(O)c12
REMARK SMILES IDX 5 1 3 2 2 3 1 4 22 5 20 6 19 7 17 8 16 9 15 10 14 11 6 12
REMARK SMILES IDX 7 13 8 14 9 15 13 16 11 17 10 18 12 20 4 22 21 24 18 26
REMARK H PARENT 10 19 12 21 4 23 21 25 18 27
REMARK Flexibility Score: inf
ROOT
ATOM      1  C   UNL     1      37.299  80.258 124.299  1.00  0.00     0.180 A 
ATOM      2  C   UNL     1      36.028  80.396 124.883  1.00  0.00     0.208 A 
ATOM      3  C   UNL     1      35.903  80.283 126.277  1.00  0.00     0.238 A 
ATOM      4  O   UNL     1      34.754  80.332 126.786  1.00  0.00    -0.285 OA
ATOM      5  C   UNL     1      37.057  80.091 127.076  1.00  0.00     0.111 A 
ATOM      6  C   UNL     1      37.054  80.008 128.501  1.00  0.00     0.134 A 
ATOM      7  C   UNL     1      38.244  79.709 129.178  1.00  0.00     0.093 A 
ATOM      8  C   UNL     1      39.448  79.556 128.485  1.00  0.00     0.123 A 
ATOM      9  C   UNL     1      39.470  79.689 127.100  1.00  0.00     0.094 A 
ATOM     10  C   UNL     1      38.295  79.948 126.393  1.00  0.00     0.146 A 
ATOM     11  O   UNL     1      38.358  80.046 125.071  1.00  0.00    -0.452 OA
ENDROOT
BRANCH   1  12
ATOM     12  C   UNL     1      37.508  80.350 122.836  1.00  0.00     0.025 A 
ATOM     13  C   UNL     1      37.655  81.610 122.238  1.00  0.00     0.016 A 
ATOM     14  C   UNL     1      37.874  81.720 120.862  1.00  0.00     0.051 A 
ATOM     15  C   UNL     1      37.966  80.574 120.067  1.00  0.00     0.157 A 
ATOM     16  C   UNL     1      37.623  79.196 122.038  1.00  0.00     0.062 A 
ATOM     17  C   UNL     1      37.844  79.305 120.658  1.00  0.00     0.158 A 
BRANCH  15  18
ATOM     18  O   UNL     1      38.183  80.715 118.698  1.00  0.00    -0.504 OA
ATOM     19  H   UNL     1      37.526  81.195 118.095  1.00  0.00     0.293 HD
ENDBRANCH  15  18
BRANCH  17  20
ATOM     20  O   UNL     1      37.949  78.157 119.873  1.00  0.00    -0.504 OA
ATOM     21  H   UNL     1      38.566  78.117 119.070  1.00  0.00     0.293 HD
ENDBRANCH  17  20
ENDBRANCH   1  12
BRANCH   2  22
ATOM     22  O   UNL     1      34.912  80.661 124.085  1.00  0.00    -0.502 OA
ATOM     23  H   UNL     1      34.971  81.200 123.230  1.00  0.00     0.293 HD
ENDBRANCH   2  22
BRANCH   6  24
ATOM     24  O   UNL     1      35.926  80.232 129.297  1.00  0.00    -0.507 OA
ATOM     25  H   UNL     1      35.484  81.128 129.431  1.00  0.00     0.293 HD
ENDBRANCH   6  24
BRANCH   8  26
ATOM     26  O   UNL     1      40.629  79.277 129.169  1.00  0.00    -0.508 OA
ATOM     27  H   UNL     1      41.059  78.359 129.132  1.00  0.00     0.293 HD
ENDBRANCH   8  26
TORSDOF 6
ENDMDL
MODEL 7
REMARK VINA RESULT:    -7.454      3.083      7.260
REMARK INTER + INTRA:          -9.032
REMARK INTER:                  -8.700
REMARK INTRA:                  -0.331
REMARK UNBOUND:                -0.052
REMARK SMILES O=c1c(O)c(-c2ccc(O)c(O)c2)oc2cc(O)cc(O)c12
REMARK SMILES IDX 5 1 3 2 2 3 1 4 22 5 20 6 19 7 17 8 16 9 15 10 14 11 6 12
REMARK SMILES IDX 7 13 8 14 9 15 13 16 11 17 10 18 12 20 4 22 21 24 18 26
REMARK H PARENT 10 19 12 21 4 23 21 25 18 27
REMARK Flexibility Score: inf
ROOT
ATOM      1  C   UNL     1      37.607  78.851 121.201  1.00  0.00     0.180 A 
ATOM      2  C   UNL     1      36.330  78.840 121.789  1.00  0.00     0.208 A 
ATOM      3  C   UNL     1      36.210  79.119 123.160  1.00  0.00     0.238 A 
ATOM      4  O   UNL     1      35.075  79.034 123.695  1.00  0.00    -0.285 OA
ATOM      5  C   UNL     1      37.359  79.459 123.915  1.00  0.00     0.111 A 
ATOM      6  C   UNL     1      37.349  79.804 125.299  1.00  0.00     0.134 A 
ATOM      7  C   UNL     1      38.562  80.019 125.967  1.00  0.00     0.093 A 
ATOM      8  C   UNL     1      39.779  79.966 125.284  1.00  0.00     0.123 A 
ATOM      9  C   UNL     1      39.795  79.685 123.921  1.00  0.00     0.094 A 
ATOM     10  C   UNL     1      38.606  79.427 123.235  1.00  0.00     0.146 A 
ATOM     11  O   UNL     1      38.670  79.142 121.941  1.00  0.00    -0.452 OA
ENDROOT
BRANCH   1  12
ATOM     12  C   UNL     1      37.816  78.553 119.765  1.00  0.00     0.025 A 
ATOM     13  C   UNL     1      37.834  79.606 118.838  1.00  0.00     0.016 A 
ATOM     14  C   UNL     1      38.050  79.351 117.481  1.00  0.00     0.051 A 
ATOM     15  C   UNL     1      38.267  78.046 117.033  1.00  0.00     0.157 A 
ATOM     16  C   UNL     1      38.056  77.242 119.316  1.00  0.00     0.062 A 
ATOM     17  C   UNL     1      38.275  76.985 117.955  1.00  0.00     0.158 A 
BRANCH  15  18
ATOM     18  O   UNL     1      38.478  77.821 115.673  1.00  0.00    -0.504 OA
ATOM     19  H   UNL     1      39.123  78.381 115.129  1.00  0.00     0.293 HD
ENDBRANCH  15  18
BRANCH  17  20
ATOM     20  O   UNL     1      38.505  75.681 117.517  1.00  0.00    -0.504 OA
ATOM     21  H   UNL     1      38.770  74.944 118.160  1.00  0.00     0.293 HD
ENDBRANCH  17  20
ENDBRANCH   1  12
BRANCH   2  22
ATOM     22  O   UNL     1      35.200  78.576 121.011  1.00  0.00    -0.502 OA
ATOM     23  H   UNL     1      34.283  78.433 121.416  1.00  0.00     0.293 HD
ENDBRANCH   2  22
BRANCH   6  24
ATOM     24  O   UNL     1      36.185  79.971 126.057  1.00  0.00    -0.507 OA
ATOM     25  H   UNL     1      36.155  80.331 126.998  1.00  0.00     0.293 HD
ENDBRANCH   6  24
BRANCH   8  26
ATOM     26  O   UNL     1      40.979  80.200 125.952  1.00  0.00    -0.508 OA
ATOM     27  H   UNL     1      41.343  79.543 126.634  1.00  0.00     0.293 HD
ENDBRANCH   8  26
TORSDOF 6
ENDMDL
MODEL 8
REMARK VINA RESULT:    -7.427      3.488      5.378
REMARK INTER + INTRA:          -8.999
REMARK INTER:                  -8.682
REMARK INTRA:                  -0.317
REMARK UNBOUND:                -0.052
REMARK SMILES O=c1c(O)c(-c2ccc(O)c(O)c2)oc2cc(O)cc(O)c12
REMARK SMILES IDX 5 1 3 2 2 3 1 4 22 5 20 6 19 7 17 8 16 9 15 10 14 11 6 12
REMARK SMILES IDX 7 13 8 14 9 15 13 16 11 17 10 18 12 20 4 22 21 24 18 26
REMARK H PARENT 10 19 12 21 4 23 21 25 18 27
REMARK Flexibility Score: inf
ROOT
ATOM      1  C   UNL     1      35.495  80.298 124.936  1.00  0.00     0.180 A 
ATOM      2  C   UNL     1      35.006  81.501 124.398  1.00  0.00     0.208 A 
ATOM      3  C   UNL     1      34.032  81.449 123.389  1.00  0.00     0.238 A 
ATOM      4  O   UNL     1      33.653  82.526 122.860  1.00  0.00    -0.285 OA
ATOM      5  C   UNL     1      33.517  80.199 122.968  1.00  0.00     0.111 A 
ATOM      6  C   UNL     1      32.497  80.029 121.985  1.00  0.00     0.134 A 
ATOM      7  C   UNL     1      32.142  78.738 121.572  1.00  0.00     0.093 A 
ATOM      8  C   UNL     1      32.726  77.610 122.154  1.00  0.00     0.123 A 
ATOM      9  C   UNL     1      33.684  77.765 123.153  1.00  0.00     0.094 A 
ATOM     10  C   UNL     1      34.086  79.038 123.559  1.00  0.00     0.146 A 
ATOM     11  O   UNL     1      35.017  79.140 124.498  1.00  0.00    -0.452 OA
ENDROOT
BRANCH   1  12
ATOM     12  C   UNL     1      36.533  80.271 125.992  1.00  0.00     0.025 A 
ATOM     13  C   UNL     1      37.887  80.342 125.631  1.00  0.00     0.016 A 
ATOM     14  C   UNL     1      38.882  80.339 126.611  1.00  0.00     0.051 A 
ATOM     15  C   UNL     1      38.541  80.283 127.965  1.00  0.00     0.157 A 
ATOM     16  C   UNL     1      36.190  80.237 127.357  1.00  0.00     0.062 A 
ATOM     17  C   UNL     1      37.188  80.236 128.341  1.00  0.00     0.158 A 
BRANCH  15  18
ATOM     18  O   UNL     1      39.556  80.280 128.921  1.00  0.00    -0.504 OA
ATOM     19  H   UNL     1      40.460  79.858 128.745  1.00  0.00     0.293 HD
ENDBRANCH  15  18
BRANCH  17  20
ATOM     20  O   UNL     1      36.840  80.194 129.691  1.00  0.00    -0.504 OA
ATOM     21  H   UNL     1      36.779  81.036 130.250  1.00  0.00     0.293 HD
ENDBRANCH  17  20
ENDBRANCH   1  12
BRANCH   2  22
ATOM     22  O   UNL     1      35.471  82.728 124.880  1.00  0.00    -0.502 OA
ATOM     23  H   UNL     1      35.277  83.052 125.820  1.00  0.00     0.293 HD
ENDBRANCH   2  22
BRANCH   6  24
ATOM     24  O   UNL     1      31.785  81.084 121.404  1.00  0.00    -0.507 OA
ATOM     25  H   UNL     1      32.202  81.860 120.913  1.00  0.00     0.293 HD
ENDBRANCH   6  24
BRANCH   8  26
ATOM     26  O   UNL     1      32.355  76.330 121.750  1.00  0.00    -0.508 OA
ATOM     27  H   UNL     1      32.678  75.936 120.873  1.00  0.00     0.293 HD
ENDBRANCH   8  26
TORSDOF 6
ENDMDL
MODEL 9
REMARK VINA RESULT:    -7.215      5.554      7.019
REMARK INTER + INTRA:          -8.743
REMARK INTER:                  -8.522
REMARK INTRA:                  -0.221
REMARK UNBOUND:                -0.052
REMARK SMILES O=c1c(O)c(-c2ccc(O)c(O)c2)oc2cc(O)cc(O)c12
REMARK SMILES IDX 5 1 3 2 2 3 1 4 22 5 20 6 19 7 17 8 16 9 15 10 14 11 6 12
REMARK SMILES IDX 7 13 8 14 9 15 13 16 11 17 10 18 12 20 4 22 21 24 18 26
REMARK H PARENT 10 19 12 21 4 23 21 25 18 27
REMARK Flexibility Score: inf
ROOT
ATOM      1  C   UNL     1      32.846  81.851 121.341  1.00  0.00     0.180 A 
ATOM      2  C   UNL     1      31.662  82.522 120.987  1.00  0.00     0.208 A 
ATOM      3  C   UNL     1      31.752  83.770 120.348  1.00  0.00     0.238 A 
ATOM      4  O   UNL     1      30.690  84.399 120.102  1.00  0.00    -0.285 OA
ATOM      5  C   UNL     1      33.021  84.305 120.020  1.00  0.00     0.111 A 
ATOM      6  C   UNL     1      33.230  85.539 119.333  1.00  0.00     0.134 A 
ATOM      7  C   UNL     1      34.534  86.020 119.157  1.00  0.00     0.093 A 
ATOM      8  C   UNL     1      35.638  85.280 119.586  1.00  0.00     0.123 A 
ATOM      9  C   UNL     1      35.447  84.049 120.209  1.00  0.00     0.094 A 
ATOM     10  C   UNL     1      34.159  83.561 120.433  1.00  0.00     0.146 A 
ATOM     11  O   UNL     1      34.022  82.393 121.049  1.00  0.00    -0.452 OA
ENDROOT
BRANCH   1  12
ATOM     12  C   UNL     1      32.832  80.540 122.029  1.00  0.00     0.025 A 
ATOM     13  C   UNL     1      33.191  80.469 123.384  1.00  0.00     0.016 A 
ATOM     14  C   UNL     1      33.166  79.247 124.060  1.00  0.00     0.051 A 
ATOM     15  C   UNL     1      32.767  78.082 123.399  1.00  0.00     0.157 A 
ATOM     16  C   UNL     1      32.411  79.370 121.371  1.00  0.00     0.062 A 
ATOM     17  C   UNL     1      32.384  78.143 122.049  1.00  0.00     0.158 A 
BRANCH  15  18
ATOM     18  O   UNL     1      32.754  76.876 124.098  1.00  0.00    -0.504 OA
ATOM     19  H   UNL     1      32.415  76.810 125.050  1.00  0.00     0.293 HD
ENDBRANCH  15  18
BRANCH  17  20
ATOM     20  O   UNL     1      31.971  76.987 121.386  1.00  0.00    -0.504 OA
ATOM     21  H   UNL     1      31.077  76.553 121.583  1.00  0.00     0.293 HD
ENDBRANCH  17  20
ENDBRANCH   1  12
BRANCH   2  22
ATOM     22  O   UNL     1      30.419  81.942 121.251  1.00  0.00    -0.502 OA
ATOM     23  H   UNL     1      29.573  82.225 120.770  1.00  0.00     0.293 HD
ENDBRANCH   2  22
BRANCH   6  24
ATOM     24  O   UNL     1      32.203  86.314 118.785  1.00  0.00    -0.507 OA
ATOM     25  H   UNL     1      31.737  86.121 117.912  1.00  0.00     0.293 HD
ENDBRANCH   6  24
BRANCH   8  26
ATOM     26  O   UNL     1      36.932  85.758 119.391  1.00  0.00    -0.508 OA
ATOM     27  H   UNL     1      37.161  86.368 118.614  1.00  0.00     0.293 HD
ENDBRANCH   8  26
TORSDOF 6
ENDMDL
