MODEL 1
REMARK VINA RESULT:    -5.995      0.000      0.000
REMARK INTER + INTRA:          -7.556
REMARK INTER:                  -7.221
REMARK INTRA:                  -0.335
REMARK UNBOUND:                -0.335
REMARK SMILES O=c1c(O)c(-c2ccc(O)c(O)c2)oc2cc(O)cc(O)c12
REMARK SMILES IDX 5 1 3 2 2 3 1 4 22 5 20 6 19 7 17 8 16 9 15 10 14 11 6 12
REMARK SMILES IDX 7 13 8 14 9 15 13 16 11 17 10 18 12 20 4 22 21 24 18 26
REMARK H PARENT 10 19 12 21 4 23 21 25 18 27
REMARK Flexibility Score: inf
ROOT
ATOM      1  C   UNL     1      -3.762 -34.154   2.728  1.00  0.00     0.180 A 
ATOM      2  C   UNL     1      -2.493 -33.685   3.111  1.00  0.00     0.208 A 
ATOM      3  C   UNL     1      -2.403 -32.501   3.862  1.00  0.00     0.238 A 
ATOM      4  O   UNL     1      -1.270 -32.115   4.248  1.00  0.00    -0.285 OA
ATOM      5  C   UNL     1      -3.581 -31.794   4.206  1.00  0.00     0.111 A 
ATOM      6  C   UNL     1      -3.605 -30.564   4.929  1.00  0.00     0.134 A 
ATOM      7  C   UNL     1      -4.833 -30.021   5.328  1.00  0.00     0.093 A 
ATOM      8  C   UNL     1      -6.037 -30.628   4.973  1.00  0.00     0.123 A 
ATOM      9  C   UNL     1      -6.027 -31.799   4.215  1.00  0.00     0.094 A 
ATOM     10  C   UNL     1      -4.817 -32.384   3.834  1.00  0.00     0.146 A 
ATOM     11  O   UNL     1      -4.850 -33.505   3.122  1.00  0.00    -0.452 OA
ENDROOT
BRANCH   1  12
ATOM     12  C   UNL     1      -3.934 -35.379   1.914  1.00  0.00     0.025 A 
ATOM     13  C   UNL     1      -4.156 -36.609   2.556  1.00  0.00     0.016 A 
ATOM     14  C   UNL     1      -4.343 -37.773   1.809  1.00  0.00     0.051 A 
ATOM     15  C   UNL     1      -4.326 -37.728   0.411  1.00  0.00     0.157 A 
ATOM     16  C   UNL     1      -3.938 -35.332   0.509  1.00  0.00     0.062 A 
ATOM     17  C   UNL     1      -4.128 -36.500  -0.243  1.00  0.00     0.158 A 
BRANCH  15  18
ATOM     18  O   UNL     1      -4.513 -38.908  -0.309  1.00  0.00    -0.504 OA
ATOM     19  H   UNL     1      -5.091 -38.945  -1.139  1.00  0.00     0.293 HD
ENDBRANCH  15  18
BRANCH  17  20
ATOM     20  O   UNL     1      -4.124 -36.445  -1.636  1.00  0.00    -0.504 OA
ATOM     21  H   UNL     1      -4.790 -35.879  -2.147  1.00  0.00     0.293 HD
ENDBRANCH  17  20
ENDBRANCH   1  12
BRANCH   2  22
ATOM     22  O   UNL     1      -1.345 -34.410   2.779  1.00  0.00    -0.502 OA
ATOM     23  H   UNL     1      -0.451 -33.965   2.612  1.00  0.00     0.293 HD
ENDBRANCH   2  22
BRANCH   6  24
ATOM     24  O   UNL     1      -2.462 -29.828   5.255  1.00  0.00    -0.507 OA
ATOM     25  H   UNL     1      -2.466 -28.869   5.567  1.00  0.00     0.293 HD
ENDBRANCH   6  24
BRANCH   8  26
ATOM     26  O   UNL     1      -7.241 -30.051   5.373  1.00  0.00    -0.508 OA
ATOM     27  H   UNL     1      -8.002 -30.612   5.738  1.00  0.00     0.293 HD
ENDBRANCH   8  26
TORSDOF 6
ENDMDL
MODEL 2
REMARK VINA RESULT:    -5.817      5.182      7.929
REMARK INTER + INTRA:          -7.342
REMARK INTER:                  -7.023
REMARK INTRA:                  -0.318
REMARK UNBOUND:                -0.335
REMARK SMILES O=c1c(O)c(-c2ccc(O)c(O)c2)oc2cc(O)cc(O)c12
REMARK SMILES IDX 5 1 3 2 2 3 1 4 22 5 20 6 19 7 17 8 16 9 15 10 14 11 6 12
REMARK SMILES IDX 7 13 8 14 9 15 13 16 11 17 10 18 12 20 4 22 21 24 18 26
REMARK H PARENT 10 19 12 21 4 23 21 25 18 27
REMARK Flexibility Score: inf
ROOT
ATOM      1  C   UNL     1      -6.566 -28.629   1.102  1.00  0.00     0.180 A 
ATOM      2  C   UNL     1      -5.381 -29.339   0.840  1.00  0.00     0.208 A 
ATOM      3  C   UNL     1      -5.034 -30.417   1.670  1.00  0.00     0.238 A 
ATOM      4  O   UNL     1      -4.002 -31.082   1.399  1.00  0.00    -0.285 OA
ATOM      5  C   UNL     1      -5.868 -30.762   2.761  1.00  0.00     0.111 A 
ATOM      6  C   UNL     1      -5.594 -31.810   3.691  1.00  0.00     0.134 A 
ATOM      7  C   UNL     1      -6.554 -32.148   4.653  1.00  0.00     0.093 A 
ATOM      8  C   UNL     1      -7.747 -31.434   4.762  1.00  0.00     0.123 A 
ATOM      9  C   UNL     1      -8.000 -30.370   3.896  1.00  0.00     0.094 A 
ATOM     10  C   UNL     1      -7.078 -30.032   2.903  1.00  0.00     0.146 A 
ATOM     11  O   UNL     1      -7.360 -29.018   2.092  1.00  0.00    -0.452 OA
ENDROOT
BRANCH   1  12
ATOM     12  C   UNL     1      -6.983 -27.466   0.287  1.00  0.00     0.025 A 
ATOM     13  C   UNL     1      -7.742 -27.675  -0.876  1.00  0.00     0.016 A 
ATOM     14  C   UNL     1      -8.165 -26.592  -1.649  1.00  0.00     0.051 A 
ATOM     15  C   UNL     1      -7.851 -25.284  -1.267  1.00  0.00     0.157 A 
ATOM     16  C   UNL     1      -6.686 -26.150   0.681  1.00  0.00     0.062 A 
ATOM     17  C   UNL     1      -7.112 -25.060  -0.093  1.00  0.00     0.158 A 
BRANCH  15  18
ATOM     18  O   UNL     1      -8.285 -24.222  -2.060  1.00  0.00    -0.504 OA
ATOM     19  H   UNL     1      -8.497 -24.337  -3.043  1.00  0.00     0.293 HD
ENDBRANCH  15  18
BRANCH  17  20
ATOM     20  O   UNL     1      -6.806 -23.759   0.302  1.00  0.00    -0.504 OA
ATOM     21  H   UNL     1      -6.480 -23.550   1.238  1.00  0.00     0.293 HD
ENDBRANCH  17  20
ENDBRANCH   1  12
BRANCH   2  22
ATOM     22  O   UNL     1      -4.583 -28.995  -0.256  1.00  0.00    -0.502 OA
ATOM     23  H   UNL     1      -4.746 -28.161  -0.806  1.00  0.00     0.293 HD
ENDBRANCH   2  22
BRANCH   6  24
ATOM     24  O   UNL     1      -4.395 -32.526   3.728  1.00  0.00    -0.507 OA
ATOM     25  H   UNL     1      -3.479 -32.120   3.607  1.00  0.00     0.293 HD
ENDBRANCH   6  24
BRANCH   8  26
ATOM     26  O   UNL     1      -8.672 -31.788   5.742  1.00  0.00    -0.508 OA
ATOM     27  H   UNL     1      -9.402 -31.149   6.037  1.00  0.00     0.293 HD
ENDBRANCH   8  26
TORSDOF 6
ENDMDL
MODEL 3
REMARK VINA RESULT:    -5.799      2.534      6.419
REMARK INTER + INTRA:          -7.320
REMARK INTER:                  -7.044
REMARK INTRA:                  -0.276
REMARK UNBOUND:                -0.335
REMARK SMILES O=c1c(O)c(-c2ccc(O)c(O)c2)oc2cc(O)cc(O)c12
REMARK SMILES IDX 5 1 3 2 2 3 1 4 22 5 20 6 19 7 17 8 16 9 15 10 14 11 6 12
REMARK SMILES IDX 7 13 8 14 9 15 13 16 11 17 10 18 12 20 4 22 21 24 18 26
REMARK H PARENT 10 19 12 21 4 23 21 25 18 27
REMARK Flexibility Score: inf
ROOT
ATOM      1  C   UNL     1      -4.272 -33.269   1.826  1.00  0.00     0.180 A 
ATOM      2  C   UNL     1      -3.148 -33.378   2.662  1.00  0.00     0.208 A 
ATOM      3  C   UNL     1      -2.551 -34.637   2.841  1.00  0.00     0.238 A 
ATOM      4  O   UNL     1      -1.514 -34.719   3.548  1.00  0.00    -0.285 OA
ATOM      5  C   UNL     1      -3.096 -35.772   2.194  1.00  0.00     0.111 A 
ATOM      6  C   UNL     1      -2.597 -37.102   2.336  1.00  0.00     0.134 A 
ATOM      7  C   UNL     1      -3.132 -38.128   1.546  1.00  0.00     0.093 A 
ATOM      8  C   UNL     1      -4.190 -37.886   0.671  1.00  0.00     0.123 A 
ATOM      9  C   UNL     1      -4.724 -36.601   0.568  1.00  0.00     0.094 A 
ATOM     10  C   UNL     1      -4.188 -35.550   1.316  1.00  0.00     0.146 A 
ATOM     11  O   UNL     1      -4.719 -34.340   1.181  1.00  0.00    -0.452 OA
ENDROOT
BRANCH   1  12
ATOM     12  C   UNL     1      -4.970 -31.981   1.609  1.00  0.00     0.025 A 
ATOM     13  C   UNL     1      -6.154 -31.709   2.315  1.00  0.00     0.016 A 
ATOM     14  C   UNL     1      -6.817 -30.493   2.142  1.00  0.00     0.051 A 
ATOM     15  C   UNL     1      -6.303 -29.523   1.276  1.00  0.00     0.157 A 
ATOM     16  C   UNL     1      -4.443 -30.997   0.755  1.00  0.00     0.062 A 
ATOM     17  C   UNL     1      -5.107 -29.773   0.582  1.00  0.00     0.158 A 
BRANCH  15  18
ATOM     18  O   UNL     1      -6.988 -28.318   1.122  1.00  0.00    -0.504 OA
ATOM     19  H   UNL     1      -7.238 -27.737   1.913  1.00  0.00     0.293 HD
ENDBRANCH  15  18
BRANCH  17  20
ATOM     20  O   UNL     1      -4.580 -28.806  -0.273  1.00  0.00    -0.504 OA
ATOM     21  H   UNL     1      -4.086 -27.996   0.081  1.00  0.00     0.293 HD
ENDBRANCH  17  20
ENDBRANCH   1  12
BRANCH   2  22
ATOM     22  O   UNL     1      -2.613 -32.240   3.274  1.00  0.00    -0.502 OA
ATOM     23  H   UNL     1      -2.348 -32.222   4.251  1.00  0.00     0.293 HD
ENDBRANCH   2  22
BRANCH   6  24
ATOM     24  O   UNL     1      -1.604 -37.470   3.248  1.00  0.00    -0.507 OA
ATOM     25  H   UNL     1      -0.694 -37.822   2.996  1.00  0.00     0.293 HD
ENDBRANCH   6  24
BRANCH   8  26
ATOM     26  O   UNL     1      -4.708 -38.934  -0.087  1.00  0.00    -0.508 OA
ATOM     27  H   UNL     1      -4.107 -39.646  -0.488  1.00  0.00     0.293 HD
ENDBRANCH   8  26
TORSDOF 6
ENDMDL
MODEL 4
REMARK VINA RESULT:    -5.787      1.839      7.087
REMARK INTER + INTRA:          -7.306
REMARK INTER:                  -7.072
REMARK INTRA:                  -0.234
REMARK UNBOUND:                -0.335
REMARK SMILES O=c1c(O)c(-c2ccc(O)c(O)c2)oc2cc(O)cc(O)c12
REMARK SMILES IDX 5 1 3 2 2 3 1 4 22 5 20 6 19 7 17 8 16 9 15 10 14 11 6 12
REMARK SMILES IDX 7 13 8 14 9 15 13 16 11 17 10 18 12 20 4 22 21 24 18 26
REMARK H PARENT 10 19 12 21 4 23 21 25 18 27
REMARK Flexibility Score: inf
ROOT
ATOM      1  C   UNL     1      -3.730 -33.098   1.439  1.00  0.00     0.180 A 
ATOM      2  C   UNL     1      -3.529 -32.581   0.147  1.00  0.00     0.208 A 
ATOM      3  C   UNL     1      -3.538 -33.461  -0.948  1.00  0.00     0.238 A 
ATOM      4  O   UNL     1      -3.411 -32.987  -2.106  1.00  0.00    -0.285 OA
ATOM      5  C   UNL     1      -3.732 -34.847  -0.735  1.00  0.00     0.111 A 
ATOM      6  C   UNL     1      -3.720 -35.834  -1.766  1.00  0.00     0.134 A 
ATOM      7  C   UNL     1      -4.053 -37.159  -1.458  1.00  0.00     0.093 A 
ATOM      8  C   UNL     1      -4.333 -37.545  -0.148  1.00  0.00     0.123 A 
ATOM      9  C   UNL     1      -4.290 -36.600   0.878  1.00  0.00     0.094 A 
ATOM     10  C   UNL     1      -3.996 -35.263   0.596  1.00  0.00     0.146 A 
ATOM     11  O   UNL     1      -3.976 -34.392   1.599  1.00  0.00    -0.452 OA
ENDROOT
BRANCH   1  12
ATOM     12  C   UNL     1      -3.709 -32.237   2.643  1.00  0.00     0.025 A 
ATOM     13  C   UNL     1      -4.888 -32.057   3.385  1.00  0.00     0.016 A 
ATOM     14  C   UNL     1      -4.886 -31.267   4.536  1.00  0.00     0.051 A 
ATOM     15  C   UNL     1      -3.707 -30.655   4.973  1.00  0.00     0.157 A 
ATOM     16  C   UNL     1      -2.520 -31.638   3.095  1.00  0.00     0.062 A 
ATOM     17  C   UNL     1      -2.516 -30.845   4.252  1.00  0.00     0.158 A 
BRANCH  15  18
ATOM     18  O   UNL     1      -3.737 -29.869   6.125  1.00  0.00    -0.504 OA
ATOM     19  H   UNL     1      -3.180 -29.029   6.216  1.00  0.00     0.293 HD
ENDBRANCH  15  18
BRANCH  17  20
ATOM     20  O   UNL     1      -1.333 -30.250   4.689  1.00  0.00    -0.504 OA
ATOM     21  H   UNL     1      -0.547 -30.111   4.067  1.00  0.00     0.293 HD
ENDBRANCH  17  20
ENDBRANCH   1  12
BRANCH   2  22
ATOM     22  O   UNL     1      -3.361 -31.206  -0.042  1.00  0.00    -0.502 OA
ATOM     23  H   UNL     1      -2.514 -30.811  -0.432  1.00  0.00     0.293 HD
ENDBRANCH   2  22
BRANCH   6  24
ATOM     24  O   UNL     1      -3.364 -35.573  -3.092  1.00  0.00    -0.507 OA
ATOM     25  H   UNL     1      -2.492 -35.848  -3.518  1.00  0.00     0.293 HD
ENDBRANCH   6  24
BRANCH   8  26
ATOM     26  O   UNL     1      -4.645 -38.875   0.125  1.00  0.00    -0.508 OA
ATOM     27  H   UNL     1      -4.607 -39.246   1.068  1.00  0.00     0.293 HD
ENDBRANCH   8  26
TORSDOF 6
ENDMDL
MODEL 5
REMARK VINA RESULT:    -5.767      4.051      6.896
REMARK INTER + INTRA:          -7.281
REMARK INTER:                  -6.992
REMARK INTRA:                  -0.290
REMARK UNBOUND:                -0.335
REMARK SMILES O=c1c(O)c(-c2ccc(O)c(O)c2)oc2cc(O)cc(O)c12
REMARK SMILES IDX 5 1 3 2 2 3 1 4 22 5 20 6 19 7 17 8 16 9 15 10 14 11 6 12
REMARK SMILES IDX 7 13 8 14 9 15 13 16 11 17 10 18 12 20 4 22 21 24 18 26
REMARK H PARENT 10 19 12 21 4 23 21 25 18 27
REMARK Flexibility Score: inf
ROOT
ATOM      1  C   UNL     1      -6.510 -30.273   4.319  1.00  0.00     0.180 A 
ATOM      2  C   UNL     1      -7.521 -30.753   5.170  1.00  0.00     0.208 A 
ATOM      3  C   UNL     1      -8.828 -30.262   5.020  1.00  0.00     0.238 A 
ATOM      4  O   UNL     1      -9.739 -30.735   5.747  1.00  0.00    -0.285 OA
ATOM      5  C   UNL     1      -9.104 -29.287   4.032  1.00  0.00     0.111 A 
ATOM      6  C   UNL     1     -10.383 -28.690   3.817  1.00  0.00     0.134 A 
ATOM      7  C   UNL     1     -10.571 -27.833   2.726  1.00  0.00     0.093 A 
ATOM      8  C   UNL     1      -9.513 -27.499   1.882  1.00  0.00     0.123 A 
ATOM      9  C   UNL     1      -8.244 -28.030   2.117  1.00  0.00     0.094 A 
ATOM     10  C   UNL     1      -8.034 -28.917   3.176  1.00  0.00     0.146 A 
ATOM     11  O   UNL     1      -6.813 -29.408   3.360  1.00  0.00    -0.452 OA
ENDROOT
BRANCH   1  12
ATOM     12  C   UNL     1      -5.104 -30.724   4.435  1.00  0.00     0.025 A 
ATOM     13  C   UNL     1      -4.723 -31.949   3.862  1.00  0.00     0.016 A 
ATOM     14  C   UNL     1      -3.398 -32.384   3.940  1.00  0.00     0.051 A 
ATOM     15  C   UNL     1      -2.432 -31.599   4.577  1.00  0.00     0.157 A 
ATOM     16  C   UNL     1      -4.127 -29.927   5.056  1.00  0.00     0.062 A 
ATOM     17  C   UNL     1      -2.796 -30.361   5.134  1.00  0.00     0.158 A 
BRANCH  15  18
ATOM     18  O   UNL     1      -1.117 -32.061   4.641  1.00  0.00    -0.504 OA
ATOM     19  H   UNL     1      -0.472 -31.956   3.868  1.00  0.00     0.293 HD
ENDBRANCH  15  18
BRANCH  17  20
ATOM     20  O   UNL     1      -1.835 -29.567   5.757  1.00  0.00    -0.504 OA
ATOM     21  H   UNL     1      -1.281 -28.897   5.238  1.00  0.00     0.293 HD
ENDBRANCH  17  20
ENDBRANCH   1  12
BRANCH   2  22
ATOM     22  O   UNL     1      -7.230 -31.733   6.125  1.00  0.00    -0.502 OA
ATOM     23  H   UNL     1      -7.721 -32.618   6.162  1.00  0.00     0.293 HD
ENDBRANCH   2  22
BRANCH   6  24
ATOM     24  O   UNL     1     -11.485 -28.884   4.655  1.00  0.00    -0.507 OA
ATOM     25  H   UNL     1     -12.445 -28.907   4.347  1.00  0.00     0.293 HD
ENDBRANCH   6  24
BRANCH   8  26
ATOM     26  O   UNL     1      -9.733 -26.630   0.815  1.00  0.00    -0.508 OA
ATOM     27  H   UNL     1      -9.296 -26.778  -0.087  1.00  0.00     0.293 HD
ENDBRANCH   8  26
TORSDOF 6
ENDMDL
MODEL 6
REMARK VINA RESULT:    -5.752      5.193      8.726
REMARK INTER + INTRA:          -7.264
REMARK INTER:                  -6.931
REMARK INTRA:                  -0.333
REMARK UNBOUND:                -0.335
REMARK SMILES O=c1c(O)c(-c2ccc(O)c(O)c2)oc2cc(O)cc(O)c12
REMARK SMILES IDX 5 1 3 2 2 3 1 4 22 5 20 6 19 7 17 8 16 9 15 10 14 11 6 12
REMARK SMILES IDX 7 13 8 14 9 15 13 16 11 17 10 18 12 20 4 22 21 24 18 26
REMARK H PARENT 10 19 12 21 4 23 21 25 18 27
REMARK Flexibility Score: inf
ROOT
ATOM      1  C   UNL     1      -7.814 -28.181   3.067  1.00  0.00     0.180 A 
ATOM      2  C   UNL     1      -9.083 -28.693   3.390  1.00  0.00     0.208 A 
ATOM      3  C   UNL     1      -9.170 -29.851   4.180  1.00  0.00     0.238 A 
ATOM      4  O   UNL     1     -10.307 -30.273   4.511  1.00  0.00    -0.285 OA
ATOM      5  C   UNL     1      -7.987 -30.490   4.624  1.00  0.00     0.111 A 
ATOM      6  C   UNL     1      -7.956 -31.691   5.395  1.00  0.00     0.134 A 
ATOM      7  C   UNL     1      -6.733 -32.162   5.890  1.00  0.00     0.093 A 
ATOM      8  C   UNL     1      -5.536 -31.515   5.587  1.00  0.00     0.123 A 
ATOM      9  C   UNL     1      -5.549 -30.375   4.783  1.00  0.00     0.094 A 
ATOM     10  C   UNL     1      -6.756 -29.859   4.305  1.00  0.00     0.146 A 
ATOM     11  O   UNL     1      -6.726 -28.765   3.553  1.00  0.00    -0.452 OA
ENDROOT
BRANCH   1  12
ATOM     12  C   UNL     1      -7.643 -26.980   2.217  1.00  0.00     0.025 A 
ATOM     13  C   UNL     1      -7.475 -25.724   2.823  1.00  0.00     0.016 A 
ATOM     14  C   UNL     1      -7.290 -24.582   2.042  1.00  0.00     0.051 A 
ATOM     15  C   UNL     1      -7.256 -24.675   0.647  1.00  0.00     0.157 A 
ATOM     16  C   UNL     1      -7.588 -27.076   0.816  1.00  0.00     0.062 A 
ATOM     17  C   UNL     1      -7.401 -25.929   0.030  1.00  0.00     0.158 A 
BRANCH  15  18
ATOM     18  O   UNL     1      -7.073 -23.516  -0.107  1.00  0.00    -0.504 OA
ATOM     19  H   UNL     1      -6.943 -22.609   0.325  1.00  0.00     0.293 HD
ENDBRANCH  15  18
BRANCH  17  20
ATOM     20  O   UNL     1      -7.354 -26.033  -1.360  1.00  0.00    -0.504 OA
ATOM     21  H   UNL     1      -6.660 -26.602  -1.827  1.00  0.00     0.293 HD
ENDBRANCH  17  20
ENDBRANCH   1  12
BRANCH   2  22
ATOM     22  O   UNL     1     -10.238 -28.033   2.959  1.00  0.00    -0.502 OA
ATOM     23  H   UNL     1     -11.143 -28.187   3.387  1.00  0.00     0.293 HD
ENDBRANCH   2  22
BRANCH   6  24
ATOM     24  O   UNL     1      -9.084 -32.465   5.679  1.00  0.00    -0.507 OA
ATOM     25  H   UNL     1      -9.085 -33.470   5.762  1.00  0.00     0.293 HD
ENDBRANCH   6  24
BRANCH   8  26
ATOM     26  O   UNL     1      -4.337 -32.022   6.082  1.00  0.00    -0.508 OA
ATOM     27  H   UNL     1      -3.444 -31.616   5.826  1.00  0.00     0.293 HD
ENDBRANCH   8  26
TORSDOF 6
ENDMDL
MODEL 7
REMARK VINA RESULT:    -5.709      2.206      6.345
REMARK INTER + INTRA:          -7.211
REMARK INTER:                  -6.934
REMARK INTRA:                  -0.277
REMARK UNBOUND:                -0.335
REMARK SMILES O=c1c(O)c(-c2ccc(O)c(O)c2)oc2cc(O)cc(O)c12
REMARK SMILES IDX 5 1 3 2 2 3 1 4 22 5 20 6 19 7 17 8 16 9 15 10 14 11 6 12
REMARK SMILES IDX 7 13 8 14 9 15 13 16 11 17 10 18 12 20 4 22 21 24 18 26
REMARK H PARENT 10 19 12 21 4 23 21 25 18 27
REMARK Flexibility Score: inf
ROOT
ATOM      1  C   UNL     1      -5.145 -32.064   4.272  1.00  0.00     0.180 A 
ATOM      2  C   UNL     1      -4.088 -31.641   5.096  1.00  0.00     0.208 A 
ATOM      3  C   UNL     1      -2.793 -32.123   4.846  1.00  0.00     0.238 A 
ATOM      4  O   UNL     1      -1.842 -31.700   5.552  1.00  0.00    -0.285 OA
ATOM      5  C   UNL     1      -2.575 -33.035   3.785  1.00  0.00     0.111 A 
ATOM      6  C   UNL     1      -1.312 -33.619   3.465  1.00  0.00     0.134 A 
ATOM      7  C   UNL     1      -1.187 -34.406   2.314  1.00  0.00     0.093 A 
ATOM      8  C   UNL     1      -2.290 -34.684   1.508  1.00  0.00     0.123 A 
ATOM      9  C   UNL     1      -3.542 -34.167   1.844  1.00  0.00     0.094 A 
ATOM     10  C   UNL     1      -3.691 -33.349   2.966  1.00  0.00     0.146 A 
ATOM     11  O   UNL     1      -4.897 -32.867   3.245  1.00  0.00    -0.452 OA
ENDROOT
BRANCH   1  12
ATOM     12  C   UNL     1      -6.540 -31.618   4.491  1.00  0.00     0.025 A 
ATOM     13  C   UNL     1      -6.936 -30.346   4.046  1.00  0.00     0.016 A 
ATOM     14  C   UNL     1      -8.252 -29.913   4.223  1.00  0.00     0.051 A 
ATOM     15  C   UNL     1      -9.196 -30.747   4.831  1.00  0.00     0.157 A 
ATOM     16  C   UNL     1      -7.495 -32.463   5.084  1.00  0.00     0.062 A 
ATOM     17  C   UNL     1      -8.818 -32.031   5.260  1.00  0.00     0.158 A 
BRANCH  15  18
ATOM     18  O   UNL     1     -10.502 -30.287   4.996  1.00  0.00    -0.504 OA
ATOM     19  H   UNL     1     -11.019 -29.856   4.239  1.00  0.00     0.293 HD
ENDBRANCH  15  18
BRANCH  17  20
ATOM     20  O   UNL     1      -9.756 -32.873   5.854  1.00  0.00    -0.504 OA
ATOM     21  H   UNL     1      -9.623 -33.876   5.890  1.00  0.00     0.293 HD
ENDBRANCH  17  20
ENDBRANCH   1  12
BRANCH   2  22
ATOM     22  O   UNL     1      -4.322 -30.722   6.125  1.00  0.00    -0.502 OA
ATOM     23  H   UNL     1      -5.059 -30.030   6.078  1.00  0.00     0.293 HD
ENDBRANCH   2  22
BRANCH   6  24
ATOM     24  O   UNL     1      -0.167 -33.481   4.254  1.00  0.00    -0.507 OA
ATOM     25  H   UNL     1       0.765 -33.737   3.964  1.00  0.00     0.293 HD
ENDBRANCH   6  24
BRANCH   8  26
ATOM     26  O   UNL     1      -2.132 -35.485   0.379  1.00  0.00    -0.508 OA
ATOM     27  H   UNL     1      -1.838 -36.452   0.451  1.00  0.00     0.293 HD
ENDBRANCH   8  26
TORSDOF 6
ENDMDL
MODEL 8
REMARK VINA RESULT:    -5.670      4.695      6.978
REMARK INTER + INTRA:          -7.164
REMARK INTER:                  -6.838
REMARK INTRA:                  -0.326
REMARK UNBOUND:                -0.335
REMARK SMILES O=c1c(O)c(-c2ccc(O)c(O)c2)oc2cc(O)cc(O)c12
REMARK SMILES IDX 5 1 3 2 2 3 1 4 22 5 20 6 19 7 17 8 16 9 15 10 14 11 6 12
REMARK SMILES IDX 7 13 8 14 9 15 13 16 11 17 10 18 12 20 4 22 21 24 18 26
REMARK H PARENT 10 19 12 21 4 23 21 25 18 27
REMARK Flexibility Score: inf
ROOT
ATOM      1  C   UNL     1      -7.152 -29.141   2.107  1.00  0.00     0.180 A 
ATOM      2  C   UNL     1      -8.257 -29.034   2.969  1.00  0.00     0.208 A 
ATOM      3  C   UNL     1      -8.847 -27.775   3.169  1.00  0.00     0.238 A 
ATOM      4  O   UNL     1      -9.868 -27.695   3.900  1.00  0.00    -0.285 OA
ATOM      5  C   UNL     1      -8.314 -26.637   2.517  1.00  0.00     0.111 A 
ATOM      6  C   UNL     1      -8.806 -25.307   2.678  1.00  0.00     0.134 A 
ATOM      7  C   UNL     1      -8.287 -24.278   1.882  1.00  0.00     0.093 A 
ATOM      8  C   UNL     1      -7.250 -24.517   0.981  1.00  0.00     0.123 A 
ATOM      9  C   UNL     1      -6.721 -25.802   0.859  1.00  0.00     0.094 A 
ATOM     10  C   UNL     1      -7.242 -26.857   1.612  1.00  0.00     0.146 A 
ATOM     11  O   UNL     1      -6.718 -28.067   1.459  1.00  0.00    -0.452 OA
ENDROOT
BRANCH   1  12
ATOM     12  C   UNL     1      -6.463 -30.429   1.867  1.00  0.00     0.025 A 
ATOM     13  C   UNL     1      -6.768 -31.172   0.715  1.00  0.00     0.016 A 
ATOM     14  C   UNL     1      -6.116 -32.379   0.457  1.00  0.00     0.051 A 
ATOM     15  C   UNL     1      -5.138 -32.856   1.335  1.00  0.00     0.157 A 
ATOM     16  C   UNL     1      -5.465 -30.900   2.738  1.00  0.00     0.062 A 
ATOM     17  C   UNL     1      -4.806 -32.111   2.480  1.00  0.00     0.158 A 
BRANCH  15  18
ATOM     18  O   UNL     1      -4.504 -34.066   1.053  1.00  0.00    -0.504 OA
ATOM     19  H   UNL     1      -4.863 -34.713   0.362  1.00  0.00     0.293 HD
ENDBRANCH  15  18
BRANCH  17  20
ATOM     20  O   UNL     1      -3.823 -32.574   3.353  1.00  0.00    -0.504 OA
ATOM     21  H   UNL     1      -3.378 -31.961   4.025  1.00  0.00     0.293 HD
ENDBRANCH  17  20
ENDBRANCH   1  12
BRANCH   2  22
ATOM     22  O   UNL     1      -8.780 -30.175   3.586  1.00  0.00    -0.502 OA
ATOM     23  H   UNL     1      -9.506 -30.127   4.291  1.00  0.00     0.293 HD
ENDBRANCH   2  22
BRANCH   6  24
ATOM     24  O   UNL     1      -9.777 -24.943   3.614  1.00  0.00    -0.507 OA
ATOM     25  H   UNL     1      -9.930 -25.409   4.495  1.00  0.00     0.293 HD
ENDBRANCH   6  24
BRANCH   8  26
ATOM     26  O   UNL     1      -6.747 -23.466   0.218  1.00  0.00    -0.508 OA
ATOM     27  H   UNL     1      -6.423 -22.607   0.648  1.00  0.00     0.293 HD
ENDBRANCH   8  26
TORSDOF 6
ENDMDL
MODEL 9
REMARK VINA RESULT:    -5.650      1.561      6.610
REMARK INTER + INTRA:          -7.141
REMARK INTER:                  -6.826
REMARK INTRA:                  -0.315
REMARK UNBOUND:                -0.335
REMARK SMILES O=c1c(O)c(-c2ccc(O)c(O)c2)oc2cc(O)cc(O)c12
REMARK SMILES IDX 5 1 3 2 2 3 1 4 22 5 20 6 19 7 17 8 16 9 15 10 14 11 6 12
REMARK SMILES IDX 7 13 8 14 9 15 13 16 11 17 10 18 12 20 4 22 21 24 18 26
REMARK H PARENT 10 19 12 21 4 23 21 25 18 27
REMARK Flexibility Score: inf
ROOT
ATOM      1  C   UNL     1      -4.026 -33.552   2.689  1.00  0.00     0.180 A 
ATOM      2  C   UNL     1      -2.708 -33.658   3.166  1.00  0.00     0.208 A 
ATOM      3  C   UNL     1      -2.005 -34.858   2.965  1.00  0.00     0.238 A 
ATOM      4  O   UNL     1      -0.808 -34.928   3.346  1.00  0.00    -0.285 OA
ATOM      5  C   UNL     1      -2.634 -35.940   2.303  1.00  0.00     0.111 A 
ATOM      6  C   UNL     1      -2.031 -37.214   2.080  1.00  0.00     0.134 A 
ATOM      7  C   UNL     1      -2.697 -38.167   1.300  1.00  0.00     0.093 A 
ATOM      8  C   UNL     1      -3.971 -37.917   0.790  1.00  0.00     0.123 A 
ATOM      9  C   UNL     1      -4.595 -36.696   1.052  1.00  0.00     0.094 A 
ATOM     10  C   UNL     1      -3.940 -35.712   1.797  1.00  0.00     0.146 A 
ATOM     11  O   UNL     1      -4.564 -34.560   2.014  1.00  0.00    -0.452 OA
ENDROOT
BRANCH   1  12
ATOM     12  C   UNL     1      -4.838 -32.329   2.886  1.00  0.00     0.025 A 
ATOM     13  C   UNL     1      -4.995 -31.426   1.822  1.00  0.00     0.016 A 
ATOM     14  C   UNL     1      -5.774 -30.278   1.979  1.00  0.00     0.051 A 
ATOM     15  C   UNL     1      -6.419 -30.020   3.192  1.00  0.00     0.157 A 
ATOM     16  C   UNL     1      -5.503 -32.079   4.099  1.00  0.00     0.062 A 
ATOM     17  C   UNL     1      -6.287 -30.927   4.257  1.00  0.00     0.158 A 
BRANCH  15  18
ATOM     18  O   UNL     1      -7.188 -28.863   3.320  1.00  0.00    -0.504 OA
ATOM     19  H   UNL     1      -7.183 -28.305   4.165  1.00  0.00     0.293 HD
ENDBRANCH  15  18
BRANCH  17  20
ATOM     20  O   UNL     1      -6.939 -30.684   5.466  1.00  0.00    -0.504 OA
ATOM     21  H   UNL     1      -7.948 -30.637   5.525  1.00  0.00     0.293 HD
ENDBRANCH  17  20
ENDBRANCH   1  12
BRANCH   2  22
ATOM     22  O   UNL     1      -2.098 -32.570   3.797  1.00  0.00    -0.502 OA
ATOM     23  H   UNL     1      -1.278 -32.671   4.383  1.00  0.00     0.293 HD
ENDBRANCH   2  22
BRANCH   6  24
ATOM     24  O   UNL     1      -0.801 -37.600   2.621  1.00  0.00    -0.507 OA
ATOM     25  H   UNL     1      -0.649 -38.437   3.163  1.00  0.00     0.293 HD
ENDBRANCH   6  24
BRANCH   8  26
ATOM     26  O   UNL     1      -4.611 -38.893   0.031  1.00  0.00    -0.508 OA
ATOM     27  H   UNL     1      -5.607 -39.064   0.117  1.00  0.00     0.293 HD
ENDBRANCH   8  26
TORSDOF 6
ENDMDL
