MODEL 1
REMARK VINA RESULT:    -0.666      0.000      0.000
REMARK INTER + INTRA:          -1.291
REMARK INTER:                  -1.212
REMARK INTRA:                  -0.080
REMARK UNBOUND:                -0.080
REMARK SMILES CCCCCCCCCCCCCCCC(=O)[O-]
REMARK SMILES IDX 9 1 10 2 11 3 12 4 13 5 14 6 15 7 16 8 17 9 18 10 8 11 7 12
REMARK SMILES IDX 6 13 5 14 4 15 3 16 2 17 1 18
REMARK H PARENT
REMARK Flexibility Score: inf
ROOT
ATOM      1  C   UNL     1       3.958  43.254  10.697  1.00  0.00     0.000 C 
ENDROOT
BRANCH   1   2
ATOM      2  C   UNL     1       5.124  43.829   9.877  1.00  0.00     0.000 C 
BRANCH   2   3
ATOM      3  C   UNL     1       5.697  45.125  10.477  1.00  0.00     0.000 C 
BRANCH   3   4
ATOM      4  C   UNL     1       7.101  44.992  11.094  1.00  0.00     0.000 C 
BRANCH   4   5
ATOM      5  C   UNL     1       7.882  43.782  10.552  1.00  0.00     0.000 C 
BRANCH   5   6
ATOM      6  C   UNL     1       7.392  42.447  11.148  1.00  0.00     0.006 C 
BRANCH   6   7
ATOM      7  C   UNL     1       7.884  42.195  12.582  1.00  0.00     0.053 C 
BRANCH   7   8
ATOM      8  C   UNL     1       6.800  42.382  13.598  1.00  0.00     0.041 C 
ATOM      9  O   UNL     1       6.826  41.735  14.678  1.00  0.00    -0.550 OA
ATOM     10  O   UNL     1       5.770  43.285  13.360  1.00  0.00    -0.550 OA
ENDBRANCH   7   8
ENDBRANCH   6   7
ENDBRANCH   5   6
ENDBRANCH   4   5
ENDBRANCH   3   4
ENDBRANCH   2   3
ENDBRANCH   1   2
BRANCH   1  11
ATOM     11  C   UNL     1       2.665  44.035  10.432  1.00  0.00     0.000 C 
BRANCH  11  12
ATOM     12  C   UNL     1       1.487  43.084  10.183  1.00  0.00    -0.000 C 
BRANCH  12  13
ATOM     13  C   UNL     1       0.420  43.149  11.291  1.00  0.00    -0.000 C 
BRANCH  13  14
ATOM     14  C   UNL     1       0.807  44.069  12.468  1.00  0.00    -0.000 C 
BRANCH  14  15
ATOM     15  C   UNL     1      -0.085  43.843  13.700  1.00  0.00    -0.000 C 
BRANCH  15  16
ATOM     16  C   UNL     1      -0.799  45.125  14.161  1.00  0.00    -0.000 C 
BRANCH  16  17
ATOM     17  C   UNL     1      -2.214  44.870  14.724  1.00  0.00    -0.003 C 
ATOM     18  C   UNL     1      -2.539  43.379  14.815  1.00  0.00     0.004 C 
ENDBRANCH  16  17
ENDBRANCH  15  16
ENDBRANCH  14  15
ENDBRANCH  13  14
ENDBRANCH  12  13
ENDBRANCH  11  12
ENDBRANCH   1  11
TORSDOF 14
ENDMDL
MODEL 2
REMARK VINA RESULT:    -0.627      2.946      7.333
REMARK INTER + INTRA:          -1.220
REMARK INTER:                  -0.177
REMARK INTRA:                  -1.043
REMARK UNBOUND:                -0.080
REMARK SMILES CCCCCCCCCCCCCCCC(=O)[O-]
REMARK SMILES IDX 9 1 10 2 11 3 12 4 13 5 14 6 15 7 16 8 17 9 18 10 8 11 7 12
REMARK SMILES IDX 6 13 5 14 4 15 3 16 2 17 1 18
REMARK H PARENT
REMARK Flexibility Score: inf
ROOT
ATOM      1  C   UNL     1       4.241  45.123  10.898  1.00  0.00     0.000 C 
ENDROOT
BRANCH   1   2
ATOM      2  C   UNL     1       3.064  44.206  10.532  1.00  0.00     0.000 C 
BRANCH   2   3
ATOM      3  C   UNL     1       2.296  43.697  11.765  1.00  0.00     0.000 C 
BRANCH   3   4
ATOM      4  C   UNL     1       0.979  42.964  11.455  1.00  0.00     0.000 C 
BRANCH   4   5
ATOM      5  C   UNL     1      -0.213  43.505  12.262  1.00  0.00     0.000 C 
BRANCH   5   6
ATOM      6  C   UNL     1       0.229  44.289  13.516  1.00  0.00     0.006 C 
BRANCH   6   7
ATOM      7  C   UNL     1      -0.896  45.121  14.150  1.00  0.00     0.053 C 
BRANCH   7   8
ATOM      8  C   UNL     1      -1.975  44.267  14.741  1.00  0.00     0.041 C 
ATOM      9  O   UNL     1      -2.956  44.799  15.324  1.00  0.00    -0.550 OA
ATOM     10  O   UNL     1      -1.905  42.883  14.632  1.00  0.00    -0.550 OA
ENDBRANCH   7   8
ENDBRANCH   6   7
ENDBRANCH   5   6
ENDBRANCH   4   5
ENDBRANCH   3   4
ENDBRANCH   2   3
ENDBRANCH   1   2
BRANCH   1  11
ATOM     11  C   UNL     1       5.524  44.679  10.184  1.00  0.00     0.000 C 
BRANCH  11  12
ATOM     12  C   UNL     1       5.506  43.170   9.905  1.00  0.00    -0.000 C 
BRANCH  12  13
ATOM     13  C   UNL     1       6.869  42.499  10.150  1.00  0.00    -0.000 C 
BRANCH  13  14
ATOM     14  C   UNL     1       7.965  43.480  10.620  1.00  0.00    -0.000 C 
BRANCH  14  15
ATOM     15  C   UNL     1       8.196  43.407  12.139  1.00  0.00    -0.000 C 
BRANCH  15  16
ATOM     16  C   UNL     1       7.765  42.059  12.742  1.00  0.00    -0.000 C 
BRANCH  16  17
ATOM     17  C   UNL     1       6.747  42.201  13.895  1.00  0.00    -0.003 C 
ATOM     18  C   UNL     1       5.770  43.354  13.662  1.00  0.00     0.004 C 
ENDBRANCH  16  17
ENDBRANCH  15  16
ENDBRANCH  14  15
ENDBRANCH  13  14
ENDBRANCH  12  13
ENDBRANCH  11  12
ENDBRANCH   1  11
TORSDOF 14
ENDMDL
MODEL 3
REMARK VINA RESULT:    -0.583      1.013      1.439
REMARK INTER + INTRA:          -1.139
REMARK INTER:                  -0.248
REMARK INTRA:                  -0.891
REMARK UNBOUND:                -0.080
REMARK SMILES CCCCCCCCCCCCCCCC(=O)[O-]
REMARK SMILES IDX 9 1 10 2 11 3 12 4 13 5 14 6 15 7 16 8 17 9 18 10 8 11 7 12
REMARK SMILES IDX 6 13 5 14 4 15 3 16 2 17 1 18
REMARK H PARENT
REMARK Flexibility Score: inf
ROOT
ATOM      1  C   UNL     1       2.967  43.495  11.125  1.00  0.00     0.000 C 
ENDROOT
BRANCH   1   2
ATOM      2  C   UNL     1       3.843  43.674   9.876  1.00  0.00     0.000 C 
BRANCH   2   3
ATOM      3  C   UNL     1       4.624  45.000   9.876  1.00  0.00     0.000 C 
BRANCH   3   4
ATOM      4  C   UNL     1       6.156  44.854   9.935  1.00  0.00     0.000 C 
BRANCH   4   5
ATOM      5  C   UNL     1       6.608  43.434  10.318  1.00  0.00     0.000 C 
BRANCH   5   6
ATOM      6  C   UNL     1       7.620  43.430  11.482  1.00  0.00     0.006 C 
BRANCH   6   7
ATOM      7  C   UNL     1       7.131  42.663  12.720  1.00  0.00     0.053 C 
BRANCH   7   8
ATOM      8  C   UNL     1       5.949  43.317  13.366  1.00  0.00     0.041 C 
ATOM      9  O   UNL     1       5.208  42.661  14.145  1.00  0.00    -0.550 OA
ATOM     10  O   UNL     1       5.675  44.658  13.121  1.00  0.00    -0.550 OA
ENDBRANCH   7   8
ENDBRANCH   6   7
ENDBRANCH   5   6
ENDBRANCH   4   5
ENDBRANCH   3   4
ENDBRANCH   2   3
ENDBRANCH   1   2
BRANCH   1  11
ATOM     11  C   UNL     1       1.685  42.723  10.789  1.00  0.00     0.000 C 
BRANCH  11  12
ATOM     12  C   UNL     1       0.473  43.323  11.514  1.00  0.00    -0.000 C 
BRANCH  12  13
ATOM     13  C   UNL     1       0.815  43.846  12.921  1.00  0.00    -0.000 C 
BRANCH  13  14
ATOM     14  C   UNL     1      -0.096  45.001  13.388  1.00  0.00    -0.000 C 
BRANCH  14  15
ATOM     15  C   UNL     1      -0.744  44.714  14.754  1.00  0.00    -0.000 C 
BRANCH  15  16
ATOM     16  C   UNL     1      -2.259  44.982  14.761  1.00  0.00    -0.000 C 
BRANCH  16  17
ATOM     17  C   UNL     1      -3.108  43.700  14.899  1.00  0.00    -0.003 C 
ATOM     18  C   UNL     1      -2.278  42.433  14.683  1.00  0.00     0.004 C 
ENDBRANCH  16  17
ENDBRANCH  15  16
ENDBRANCH  14  15
ENDBRANCH  13  14
ENDBRANCH  12  13
ENDBRANCH  11  12
ENDBRANCH   1  11
TORSDOF 14
ENDMDL
MODEL 4
REMARK VINA RESULT:    -0.306      2.998      7.401
REMARK INTER + INTRA:          -0.635
REMARK INTER:                  -0.094
REMARK INTRA:                  -0.542
REMARK UNBOUND:                -0.080
REMARK SMILES CCCCCCCCCCCCCCCC(=O)[O-]
REMARK SMILES IDX 9 1 10 2 11 3 12 4 13 5 14 6 15 7 16 8 17 9 18 10 8 11 7 12
REMARK SMILES IDX 6 13 5 14 4 15 3 16 2 17 1 18
REMARK H PARENT
REMARK Flexibility Score: inf
ROOT
ATOM      1  C   UNL     1       3.114  43.074   9.999  1.00  0.00     0.000 C 
ENDROOT
BRANCH   1   2
ATOM      2  C   UNL     1       1.674  43.597   9.886  1.00  0.00     0.000 C 
BRANCH   2   3
ATOM      3  C   UNL     1       0.630  42.601  10.421  1.00  0.00     0.000 C 
BRANCH   3   4
ATOM      4  C   UNL     1       0.122  42.892  11.845  1.00  0.00     0.000 C 
BRANCH   4   5
ATOM      5  C   UNL     1       0.834  44.087  12.503  1.00  0.00     0.000 C 
BRANCH   5   6
ATOM      6  C   UNL     1       0.337  44.354  13.939  1.00  0.00     0.006 C 
BRANCH   6   7
ATOM      7  C   UNL     1      -0.994  45.120  13.998  1.00  0.00     0.053 C 
BRANCH   7   8
ATOM      8  C   UNL     1      -2.071  44.339  14.686  1.00  0.00     0.041 C 
ATOM      9  O   UNL     1      -1.950  43.095  14.841  1.00  0.00    -0.550 OA
ATOM     10  O   UNL     1      -3.200  44.989  15.171  1.00  0.00    -0.550 OA
ENDBRANCH   7   8
ENDBRANCH   6   7
ENDBRANCH   5   6
ENDBRANCH   4   5
ENDBRANCH   3   4
ENDBRANCH   2   3
ENDBRANCH   1   2
BRANCH   1  11
ATOM     11  C   UNL     1       4.121  44.230   9.973  1.00  0.00     0.000 C 
BRANCH  11  12
ATOM     12  C   UNL     1       4.033  45.068  11.255  1.00  0.00    -0.000 C 
BRANCH  12  13
ATOM     13  C   UNL     1       5.362  45.119  12.030  1.00  0.00    -0.000 C 
BRANCH  13  14
ATOM     14  C   UNL     1       6.609  45.105  11.119  1.00  0.00    -0.000 C 
BRANCH  14  15
ATOM     15  C   UNL     1       6.975  43.683  10.658  1.00  0.00    -0.000 C 
BRANCH  15  16
ATOM     16  C   UNL     1       8.133  43.076  11.466  1.00  0.00    -0.000 C 
BRANCH  16  17
ATOM     17  C   UNL     1       7.695  41.919  12.391  1.00  0.00    -0.003 C 
ATOM     18  C   UNL     1       6.905  42.418  13.602  1.00  0.00     0.004 C 
ENDBRANCH  16  17
ENDBRANCH  15  16
ENDBRANCH  14  15
ENDBRANCH  13  14
ENDBRANCH  12  13
ENDBRANCH  11  12
ENDBRANCH   1  11
TORSDOF 14
ENDMDL
MODEL 5
REMARK VINA RESULT:    -0.032      2.997      7.669
REMARK INTER + INTRA:          -0.137
REMARK INTER:                   1.090
REMARK INTRA:                  -1.228
REMARK UNBOUND:                -0.080
REMARK SMILES CCCCCCCCCCCCCCCC(=O)[O-]
REMARK SMILES IDX 9 1 10 2 11 3 12 4 13 5 14 6 15 7 16 8 17 9 18 10 8 11 7 12
REMARK SMILES IDX 6 13 5 14 4 15 3 16 2 17 1 18
REMARK H PARENT
REMARK Flexibility Score: inf
ROOT
ATOM      1  C   UNL     1       3.527  43.575  10.229  1.00  0.00     0.000 C 
ENDROOT
BRANCH   1   2
ATOM      2  C   UNL     1       2.871  43.447  11.612  1.00  0.00     0.000 C 
BRANCH   2   3
ATOM      3  C   UNL     1       1.439  44.010  11.652  1.00  0.00     0.000 C 
BRANCH   3   4
ATOM      4  C   UNL     1       0.632  43.649  12.912  1.00  0.00     0.000 C 
BRANCH   4   5
ATOM      5  C   UNL     1      -0.172  44.837  13.469  1.00  0.00     0.000 C 
BRANCH   5   6
ATOM      6  C   UNL     1      -0.898  44.493  14.786  1.00  0.00     0.006 C 
BRANCH   6   7
ATOM      7  C   UNL     1      -2.351  44.037  14.587  1.00  0.00     0.053 C 
BRANCH   7   8
ATOM      8  C   UNL     1      -2.519  42.562  14.789  1.00  0.00     0.041 C 
ATOM      9  O   UNL     1      -3.599  41.998  14.472  1.00  0.00    -0.550 OA
ATOM     10  O   UNL     1      -1.475  41.808  15.313  1.00  0.00    -0.550 OA
ENDBRANCH   7   8
ENDBRANCH   6   7
ENDBRANCH   5   6
ENDBRANCH   4   5
ENDBRANCH   3   4
ENDBRANCH   2   3
ENDBRANCH   1   2
BRANCH   1  11
ATOM     11  C   UNL     1       4.396  44.836  10.148  1.00  0.00     0.000 C 
BRANCH  11  12
ATOM     12  C   UNL     1       5.169  45.058  11.455  1.00  0.00    -0.000 C 
BRANCH  12  13
ATOM     13  C   UNL     1       6.692  45.125  11.247  1.00  0.00    -0.000 C 
BRANCH  13  14
ATOM     14  C   UNL     1       7.208  44.167  10.152  1.00  0.00    -0.000 C 
BRANCH  14  15
ATOM     15  C   UNL     1       7.558  42.778  10.712  1.00  0.00    -0.000 C 
BRANCH  15  16
ATOM     16  C   UNL     1       8.093  42.836  12.153  1.00  0.00    -0.000 C 
BRANCH  16  17
ATOM     17  C   UNL     1       7.387  41.850  13.109  1.00  0.00    -0.003 C 
ATOM     18  C   UNL     1       6.367  42.551  14.008  1.00  0.00     0.004 C 
ENDBRANCH  16  17
ENDBRANCH  15  16
ENDBRANCH  14  15
ENDBRANCH  13  14
ENDBRANCH  12  13
ENDBRANCH  11  12
ENDBRANCH   1  11
TORSDOF 14
ENDMDL
MODEL 6
REMARK VINA RESULT:     0.363      1.394      2.280
REMARK INTER + INTRA:           0.580
REMARK INTER:                   1.557
REMARK INTRA:                  -0.977
REMARK UNBOUND:                -0.080
REMARK SMILES CCCCCCCCCCCCCCCC(=O)[O-]
REMARK SMILES IDX 9 1 10 2 11 3 12 4 13 5 14 6 15 7 16 8 17 9 18 10 8 11 7 12
REMARK SMILES IDX 6 13 5 14 4 15 3 16 2 17 1 18
REMARK H PARENT
REMARK Flexibility Score: inf
ROOT
ATOM      1  C   UNL     1       2.461  43.174  11.180  1.00  0.00     0.000 C 
ENDROOT
BRANCH   1   2
ATOM      2  C   UNL     1       3.335  43.234   9.918  1.00  0.00     0.000 C 
BRANCH   2   3
ATOM      3  C   UNL     1       4.532  44.190  10.062  1.00  0.00     0.000 C 
BRANCH   3   4
ATOM      4  C   UNL     1       4.587  44.970  11.388  1.00  0.00     0.000 C 
BRANCH   4   5
ATOM      5  C   UNL     1       6.017  45.123  11.935  1.00  0.00     0.000 C 
BRANCH   5   6
ATOM      6  C   UNL     1       7.091  44.936  10.843  1.00  0.00     0.006 C 
BRANCH   6   7
ATOM      7  C   UNL     1       8.188  43.930  11.224  1.00  0.00     0.053 C 
BRANCH   7   8
ATOM      8  C   UNL     1       7.633  42.582  11.565  1.00  0.00     0.041 C 
ATOM      9  O   UNL     1       7.593  42.198  12.763  1.00  0.00    -0.550 OA
ATOM     10  O   UNL     1       7.144  41.755  10.559  1.00  0.00    -0.550 OA
ENDBRANCH   7   8
ENDBRANCH   6   7
ENDBRANCH   5   6
ENDBRANCH   4   5
ENDBRANCH   3   4
ENDBRANCH   2   3
ENDBRANCH   1   2
BRANCH   1  11
ATOM     11  C   UNL     1       0.987  42.962  10.817  1.00  0.00     0.000 C 
BRANCH  11  12
ATOM     12  C   UNL     1       0.073  43.279  12.008  1.00  0.00    -0.000 C 
BRANCH  12  13
ATOM     13  C   UNL     1       0.771  44.120  13.091  1.00  0.00    -0.000 C 
BRANCH  13  14
ATOM     14  C   UNL     1      -0.200  44.987  13.921  1.00  0.00    -0.000 C 
BRANCH  14  15
ATOM     15  C   UNL     1      -1.601  44.359  14.018  1.00  0.00    -0.000 C 
BRANCH  15  16
ATOM     16  C   UNL     1      -1.646  43.148  14.965  1.00  0.00    -0.000 C 
BRANCH  16  17
ATOM     17  C   UNL     1      -2.282  41.894  14.326  1.00  0.00    -0.003 C 
ATOM     18  C   UNL     1      -3.772  41.775  14.651  1.00  0.00     0.004 C 
ENDBRANCH  16  17
ENDBRANCH  15  16
ENDBRANCH  14  15
ENDBRANCH  13  14
ENDBRANCH  12  13
ENDBRANCH  11  12
ENDBRANCH   1  11
TORSDOF 14
ENDMDL
MODEL 7
REMARK VINA RESULT:     1.617      3.181      6.771
REMARK INTER + INTRA:           2.861
REMARK INTER:                  -0.051
REMARK INTRA:                   2.912
REMARK UNBOUND:                -0.080
REMARK SMILES CCCCCCCCCCCCCCCC(=O)[O-]
REMARK SMILES IDX 9 1 10 2 11 3 12 4 13 5 14 6 15 7 16 8 17 9 18 10 8 11 7 12
REMARK SMILES IDX 6 13 5 14 4 15 3 16 2 17 1 18
REMARK H PARENT
REMARK Flexibility Score: inf
ROOT
ATOM      1  C   UNL     1       5.575  42.234  14.205  1.00  0.00     0.000 C 
ENDROOT
BRANCH   1   2
ATOM      2  C   UNL     1       5.677  43.614  13.535  1.00  0.00     0.000 C 
BRANCH   2   3
ATOM      3  C   UNL     1       4.422  43.978  12.721  1.00  0.00     0.000 C 
BRANCH   3   4
ATOM      4  C   UNL     1       4.612  45.125  11.712  1.00  0.00     0.000 C 
BRANCH   4   5
ATOM      5  C   UNL     1       4.343  44.695  10.259  1.00  0.00     0.000 C 
BRANCH   5   6
ATOM      6  C   UNL     1       2.852  44.402   9.995  1.00  0.00     0.006 C 
BRANCH   6   7
ATOM      7  C   UNL     1       2.458  42.938  10.242  1.00  0.00     0.053 C 
BRANCH   7   8
ATOM      8  C   UNL     1       1.105  42.808  10.869  1.00  0.00     0.041 C 
ATOM      9  O   UNL     1       0.254  42.018  10.382  1.00  0.00    -0.550 OA
ATOM     10  O   UNL     1       0.789  43.548  12.003  1.00  0.00    -0.550 OA
ENDBRANCH   7   8
ENDBRANCH   6   7
ENDBRANCH   5   6
ENDBRANCH   4   5
ENDBRANCH   3   4
ENDBRANCH   2   3
ENDBRANCH   1   2
BRANCH   1  11
ATOM     11  C   UNL     1       6.960  41.589  14.343  1.00  0.00     0.000 C 
BRANCH  11  12
ATOM     12  C   UNL     1       7.824  41.867  13.106  1.00  0.00    -0.000 C 
BRANCH  12  13
ATOM     13  C   UNL     1       7.568  43.256  12.496  1.00  0.00    -0.000 C 
BRANCH  13  14
ATOM     14  C   UNL     1       8.806  43.862  11.799  1.00  0.00    -0.000 C 
BRANCH  14  15
ATOM     15  C   UNL     1       8.513  44.266  10.344  1.00  0.00    -0.000 C 
BRANCH  15  16
ATOM     16  C   UNL     1       7.115  43.830   9.875  1.00  0.00    -0.000 C 
BRANCH  16  17
ATOM     17  C   UNL     1       6.905  42.300   9.912  1.00  0.00    -0.003 C 
ATOM     18  C   UNL     1       5.424  41.921   9.891  1.00  0.00     0.004 C 
ENDBRANCH  16  17
ENDBRANCH  15  16
ENDBRANCH  14  15
ENDBRANCH  13  14
ENDBRANCH  12  13
ENDBRANCH  11  12
ENDBRANCH   1  11
TORSDOF 14
ENDMDL
MODEL 8
REMARK VINA RESULT:     1.874      2.852      7.609
REMARK INTER + INTRA:           3.328
REMARK INTER:                   4.367
REMARK INTRA:                  -1.039
REMARK UNBOUND:                -0.080
REMARK SMILES CCCCCCCCCCCCCCCC(=O)[O-]
REMARK SMILES IDX 9 1 10 2 11 3 12 4 13 5 14 6 15 7 16 8 17 9 18 10 8 11 7 12
REMARK SMILES IDX 6 13 5 14 4 15 3 16 2 17 1 18
REMARK H PARENT
REMARK Flexibility Score: inf
ROOT
ATOM      1  C   UNL     1       2.931  42.931  10.778  1.00  0.00     0.000 C 
ENDROOT
BRANCH   1   2
ATOM      2  C   UNL     1       1.623  42.586  10.050  1.00  0.00     0.000 C 
BRANCH   2   3
ATOM      3  C   UNL     1       0.373  42.848  10.908  1.00  0.00     0.000 C 
BRANCH   3   4
ATOM      4  C   UNL     1      -0.613  41.669  11.001  1.00  0.00     0.000 C 
BRANCH   4   5
ATOM      5  C   UNL     1      -0.980  41.308  12.451  1.00  0.00     0.000 C 
BRANCH   5   6
ATOM      6  C   UNL     1      -2.256  42.028  12.935  1.00  0.00     0.006 C 
BRANCH   6   7
ATOM      7  C   UNL     1      -2.166  42.532  14.383  1.00  0.00     0.053 C 
BRANCH   7   8
ATOM      8  C   UNL     1      -1.763  43.972  14.462  1.00  0.00     0.041 C 
ATOM      9  O   UNL     1      -2.492  44.802  15.066  1.00  0.00    -0.550 OA
ATOM     10  O   UNL     1      -0.571  44.394  13.884  1.00  0.00    -0.550 OA
ENDBRANCH   7   8
ENDBRANCH   6   7
ENDBRANCH   5   6
ENDBRANCH   4   5
ENDBRANCH   3   4
ENDBRANCH   2   3
ENDBRANCH   1   2
BRANCH   1  11
ATOM     11  C   UNL     1       3.301  44.405  10.571  1.00  0.00     0.000 C 
BRANCH  11  12
ATOM     12  C   UNL     1       4.728  44.544  10.025  1.00  0.00    -0.000 C 
BRANCH  12  13
ATOM     13  C   UNL     1       5.711  45.125  11.057  1.00  0.00    -0.000 C 
BRANCH  13  14
ATOM     14  C   UNL     1       5.467  44.619  12.495  1.00  0.00    -0.000 C 
BRANCH  14  15
ATOM     15  C   UNL     1       6.369  43.424  12.851  1.00  0.00    -0.000 C 
BRANCH  15  16
ATOM     16  C   UNL     1       7.482  43.190  11.815  1.00  0.00    -0.000 C 
BRANCH  16  17
ATOM     17  C   UNL     1       7.605  41.716  11.371  1.00  0.00    -0.003 C 
ATOM     18  C   UNL     1       6.832  41.436  10.081  1.00  0.00     0.004 C 
ENDBRANCH  16  17
ENDBRANCH  15  16
ENDBRANCH  14  15
ENDBRANCH  13  14
ENDBRANCH  12  13
ENDBRANCH  11  12
ENDBRANCH   1  11
TORSDOF 14
ENDMDL
