MODEL 1
REMARK VINA RESULT:    -7.341      0.000      0.000
REMARK INTER + INTRA:          -8.268
REMARK INTER:                  -7.985
REMARK INTRA:                  -0.283
REMARK UNBOUND:                -0.283
REMARK SMILES C[C@@H]1[C@H](C)CC[C@]2(C(=O)[O-])CC[C@]3(C)C(=CC[C@@H]4[C@@]5(C)CC[C@H](O)C(C)(C)[C@@H]5CC[C@]43C)[C@H]12
REMARK SMILES IDX 7 1 6 2 11 3 33 4 5 5 12 6 15 7 2 8 3 9 13 10 16 11 1 12
REMARK SMILES IDX 4 13 14 14 31 15 17 16 18 17 30 18 32 19 19 20 29 21 28 22
REMARK SMILES IDX 21 23 20 24 25 25 22 26 23 27 26 28 27 29 8 30 9 31 10 32
REMARK SMILES IDX 24 33
REMARK H PARENT 24 34
REMARK Flexibility Score: inf
ROOT
ATOM      1  C   UNL     1      -4.250  85.936  -7.908  1.00  0.00     0.017 C 
ATOM      2  C   UNL     1      -2.957  86.810  -7.923  1.00  0.00     0.014 C 
ATOM      3  C   UNL     1      -4.550  85.500  -9.362  1.00  0.00     0.014 C 
ATOM      4  C   UNL     1      -5.478  86.739  -7.317  1.00  0.00     0.030 C 
ATOM      5  C   UNL     1      -2.875  87.734  -6.709  1.00  0.00     0.004 C 
ATOM      6  C   UNL     1      -5.773  84.587  -9.444  1.00  0.00     0.013 C 
ATOM      7  C   UNL     1      -6.864  86.231  -7.756  1.00  0.00    -0.063 C 
ATOM      8  C   UNL     1      -5.328  88.296  -7.420  1.00  0.00    -0.003 C 
ATOM      9  C   UNL     1      -4.025  88.774  -6.684  1.00  0.00    -0.011 C 
ATOM     10  C   UNL     1      -7.093  85.250  -8.925  1.00  0.00    -0.006 C 
ATOM     11  C   UNL     1      -7.934  86.619  -7.011  1.00  0.00    -0.027 C 
ATOM     12  C   UNL     1      -5.502  88.844  -8.852  1.00  0.00     0.008 C 
ATOM     13  C   UNL     1      -3.529  90.162  -7.125  1.00  0.00     0.008 C 
ATOM     14  C   UNL     1      -7.637  86.112 -10.116  1.00  0.00     0.017 C 
ATOM     15  C   UNL     1      -8.142  84.138  -8.420  1.00  0.00    -0.020 C 
ATOM     16  C   UNL     1      -9.347  86.094  -7.176  1.00  0.00     0.032 C 
ATOM     17  C   UNL     1      -9.510  84.873  -8.137  1.00  0.00     0.006 C 
ATOM     18  C   UNL     1      -8.360  83.020  -9.492  1.00  0.00     0.008 C 
ATOM     19  C   UNL     1      -7.603  83.451  -7.114  1.00  0.00     0.012 C 
ATOM     20  C   UNL     1     -10.764  83.947  -7.845  1.00  0.00    -0.025 C 
ATOM     21  C   UNL     1      -9.576  82.111  -9.228  1.00  0.00     0.005 C 
ATOM     22  C   UNL     1     -10.879  82.935  -9.051  1.00  0.00     0.003 C 
ATOM     23  C   UNL     1     -12.044  84.843  -7.845  1.00  0.00     0.010 C 
ATOM     24  C   UNL     1     -10.650  83.239  -6.452  1.00  0.00     0.012 C 
ATOM     25  C   UNL     1     -12.224  82.104  -9.132  1.00  0.00    -0.006 C 
ATOM     26  C   UNL     1     -13.358  84.051  -7.870  1.00  0.00     0.033 C 
ATOM     27  C   UNL     1     -13.431  83.095  -9.066  1.00  0.00     0.120 C 
ATOM     28  C   UNL     1     -12.306  81.375 -10.503  1.00  0.00     0.014 C 
ATOM     29  C   UNL     1     -12.338  81.015  -8.034  1.00  0.00     0.014 C 
ENDROOT
BRANCH   1  30
ATOM     30  C   UNL     1      -3.945  84.688  -7.070  1.00  0.00     0.048 C 
ATOM     31  O   UNL     1      -3.096  83.849  -7.479  1.00  0.00    -0.550 OA
ATOM     32  O   UNL     1      -4.541  84.474  -5.831  1.00  0.00    -0.550 OA
ENDBRANCH   1  30
BRANCH  27  33
ATOM     33  O   UNL     1     -14.652  82.395  -9.000  1.00  0.00    -0.393 OA
ATOM     34  H   UNL     1     -14.987  82.288  -9.928  1.00  0.00     0.210 HD
ENDBRANCH  27  33
TORSDOF 2
ENDMDL
MODEL 2
REMARK VINA RESULT:    -6.382      6.514      9.579
REMARK INTER + INTRA:          -7.225
REMARK INTER:                  -6.942
REMARK INTRA:                  -0.283
REMARK UNBOUND:                -0.283
REMARK SMILES C[C@@H]1[C@H](C)CC[C@]2(C(=O)[O-])CC[C@]3(C)C(=CC[C@@H]4[C@@]5(C)CC[C@H](O)C(C)(C)[C@@H]5CC[C@]43C)[C@H]12
REMARK SMILES IDX 7 1 6 2 11 3 33 4 5 5 12 6 15 7 2 8 3 9 13 10 16 11 1 12
REMARK SMILES IDX 4 13 14 14 31 15 17 16 18 17 30 18 32 19 19 20 29 21 28 22
REMARK SMILES IDX 21 23 20 24 25 25 22 26 23 27 26 28 27 29 8 30 9 31 10 32
REMARK SMILES IDX 24 33
REMARK H PARENT 24 34
REMARK Flexibility Score: inf
ROOT
ATOM      1  C   UNL     1      -5.959  93.098 -15.530  1.00  0.00     0.017 C 
ATOM      2  C   UNL     1      -5.657  93.789 -16.897  1.00  0.00     0.014 C 
ATOM      3  C   UNL     1      -4.760  93.358 -14.588  1.00  0.00     0.014 C 
ATOM      4  C   UNL     1      -6.182  91.543 -15.711  1.00  0.00     0.030 C 
ATOM      5  C   UNL     1      -6.447  93.162 -18.044  1.00  0.00     0.004 C 
ATOM      6  C   UNL     1      -4.989  92.766 -13.196  1.00  0.00     0.013 C 
ATOM      7  C   UNL     1      -5.927  90.695 -14.450  1.00  0.00    -0.063 C 
ATOM      8  C   UNL     1      -5.519  90.951 -17.001  1.00  0.00    -0.003 C 
ATOM      9  C   UNL     1      -6.060  91.679 -18.283  1.00  0.00    -0.011 C 
ATOM     10  C   UNL     1      -5.195  91.214 -13.195  1.00  0.00    -0.006 C 
ATOM     11  C   UNL     1      -6.449  89.440 -14.428  1.00  0.00    -0.027 C 
ATOM     12  C   UNL     1      -3.981  90.845 -16.916  1.00  0.00     0.008 C 
ATOM     13  C   UNL     1      -5.152  91.534 -19.517  1.00  0.00     0.008 C 
ATOM     14  C   UNL     1      -3.756  90.592 -13.240  1.00  0.00     0.017 C 
ATOM     15  C   UNL     1      -6.046  90.742 -11.913  1.00  0.00    -0.020 C 
ATOM     16  C   UNL     1      -6.454  88.519 -13.223  1.00  0.00     0.032 C 
ATOM     17  C   UNL     1      -6.005  89.165 -11.874  1.00  0.00     0.006 C 
ATOM     18  C   UNL     1      -5.455  91.316 -10.583  1.00  0.00     0.008 C 
ATOM     19  C   UNL     1      -7.526  91.254 -12.039  1.00  0.00     0.012 C 
ATOM     20  C   UNL     1      -6.585  88.474 -10.568  1.00  0.00    -0.025 C 
ATOM     21  C   UNL     1      -6.004  90.656  -9.304  1.00  0.00     0.005 C 
ATOM     22  C   UNL     1      -5.833  89.114  -9.336  1.00  0.00     0.003 C 
ATOM     23  C   UNL     1      -6.223  86.955 -10.618  1.00  0.00     0.010 C 
ATOM     24  C   UNL     1      -8.143  88.614 -10.483  1.00  0.00     0.012 C 
ATOM     25  C   UNL     1      -6.029  88.379  -7.948  1.00  0.00    -0.006 C 
ATOM     26  C   UNL     1      -6.458  86.217  -9.294  1.00  0.00     0.033 C 
ATOM     27  C   UNL     1      -5.695  86.863  -8.131  1.00  0.00     0.120 C 
ATOM     28  C   UNL     1      -5.020  88.946  -6.910  1.00  0.00     0.014 C 
ATOM     29  C   UNL     1      -7.447  88.568  -7.350  1.00  0.00     0.014 C 
ENDROOT
BRANCH   1  30
ATOM     30  C   UNL     1      -7.204  93.776 -14.945  1.00  0.00     0.048 C 
ATOM     31  O   UNL     1      -7.154  94.987 -14.593  1.00  0.00    -0.550 OA
ATOM     32  O   UNL     1      -8.421  93.109 -14.839  1.00  0.00    -0.550 OA
ENDBRANCH   1  30
BRANCH  27  33
ATOM     33  O   UNL     1      -5.984  86.141  -6.956  1.00  0.00    -0.393 OA
ATOM     34  H   UNL     1      -6.033  86.791  -6.209  1.00  0.00     0.210 HD
ENDBRANCH  27  33
TORSDOF 2
ENDMDL
MODEL 3
REMARK VINA RESULT:    -6.342      1.034      1.118
REMARK INTER + INTRA:          -7.181
REMARK INTER:                  -6.900
REMARK INTRA:                  -0.281
REMARK UNBOUND:                -0.283
REMARK SMILES C[C@@H]1[C@H](C)CC[C@]2(C(=O)[O-])CC[C@]3(C)C(=CC[C@@H]4[C@@]5(C)CC[C@H](O)C(C)(C)[C@@H]5CC[C@]43C)[C@H]12
REMARK SMILES IDX 7 1 6 2 11 3 33 4 5 5 12 6 15 7 2 8 3 9 13 10 16 11 1 12
REMARK SMILES IDX 4 13 14 14 31 15 17 16 18 17 30 18 32 19 19 20 29 21 28 22
REMARK SMILES IDX 21 23 20 24 25 25 22 26 23 27 26 28 27 29 8 30 9 31 10 32
REMARK SMILES IDX 24 33
REMARK H PARENT 24 34
REMARK Flexibility Score: inf
ROOT
ATOM      1  C   UNL     1      -4.548  86.808  -7.567  1.00  0.00     0.017 C 
ATOM      2  C   UNL     1      -3.255  87.678  -7.496  1.00  0.00     0.014 C 
ATOM      3  C   UNL     1      -4.496  85.978  -8.871  1.00  0.00     0.014 C 
ATOM      4  C   UNL     1      -5.847  87.710  -7.547  1.00  0.00     0.030 C 
ATOM      5  C   UNL     1      -3.436  88.904  -6.603  1.00  0.00     0.004 C 
ATOM      6  C   UNL     1      -5.700  85.045  -9.003  1.00  0.00     0.013 C 
ATOM      7  C   UNL     1      -7.103  87.062  -8.162  1.00  0.00    -0.063 C 
ATOM      8  C   UNL     1      -5.608  89.180  -8.032  1.00  0.00    -0.003 C 
ATOM      9  C   UNL     1      -4.509  89.878  -7.154  1.00  0.00    -0.011 C 
ATOM     10  C   UNL     1      -7.077  85.790  -9.035  1.00  0.00    -0.006 C 
ATOM     11  C   UNL     1      -8.305  87.611  -7.846  1.00  0.00    -0.027 C 
ATOM     12  C   UNL     1      -5.396  89.306  -9.555  1.00  0.00     0.008 C 
ATOM     13  C   UNL     1      -3.858  91.103  -7.820  1.00  0.00     0.008 C 
ATOM     14  C   UNL     1      -7.269  86.273 -10.514  1.00  0.00     0.017 C 
ATOM     15  C   UNL     1      -8.267  84.833  -8.523  1.00  0.00    -0.020 C 
ATOM     16  C   UNL     1      -9.655  87.023  -8.208  1.00  0.00     0.032 C 
ATOM     17  C   UNL     1      -9.628  85.581  -8.806  1.00  0.00     0.006 C 
ATOM     18  C   UNL     1      -8.261  83.457  -9.267  1.00  0.00     0.008 C 
ATOM     19  C   UNL     1      -8.099  84.549  -6.987  1.00  0.00     0.012 C 
ATOM     20  C   UNL     1     -10.955  84.737  -8.595  1.00  0.00    -0.025 C 
ATOM     21  C   UNL     1      -9.543  82.623  -9.076  1.00  0.00     0.005 C 
ATOM     22  C   UNL     1     -10.812  83.428  -9.465  1.00  0.00     0.003 C 
ATOM     23  C   UNL     1     -12.153  85.563  -9.163  1.00  0.00     0.010 C 
ATOM     24  C   UNL     1     -11.222  84.446  -7.079  1.00  0.00     0.012 C 
ATOM     25  C   UNL     1     -12.129  82.571  -9.650  1.00  0.00    -0.006 C 
ATOM     26  C   UNL     1     -13.454  84.760  -9.297  1.00  0.00     0.033 C 
ATOM     27  C   UNL     1     -13.270  83.509 -10.164  1.00  0.00     0.120 C 
ATOM     28  C   UNL     1     -11.900  81.489 -10.743  1.00  0.00     0.014 C 
ATOM     29  C   UNL     1     -12.561  81.826  -8.360  1.00  0.00     0.014 C 
ENDROOT
BRANCH   1  30
ATOM     30  C   UNL     1      -4.516  85.849  -6.370  1.00  0.00     0.048 C 
ATOM     31  O   UNL     1      -3.645  84.939  -6.317  1.00  0.00    -0.550 OA
ATOM     32  O   UNL     1      -5.393  85.986  -5.297  1.00  0.00    -0.550 OA
ENDBRANCH   1  30
BRANCH  27  33
ATOM     33  O   UNL     1     -14.499  82.821 -10.216  1.00  0.00    -0.393 OA
ATOM     34  H   UNL     1     -15.162  83.352  -9.703  1.00  0.00     0.210 HD
ENDBRANCH  27  33
TORSDOF 2
ENDMDL
MODEL 4
REMARK VINA RESULT:    -6.236      7.394     10.840
REMARK INTER + INTRA:          -7.066
REMARK INTER:                  -6.793
REMARK INTRA:                  -0.273
REMARK UNBOUND:                -0.283
REMARK SMILES C[C@@H]1[C@H](C)CC[C@]2(C(=O)[O-])CC[C@]3(C)C(=CC[C@@H]4[C@@]5(C)CC[C@H](O)C(C)(C)[C@@H]5CC[C@]43C)[C@H]12
REMARK SMILES IDX 7 1 6 2 11 3 33 4 5 5 12 6 15 7 2 8 3 9 13 10 16 11 1 12
REMARK SMILES IDX 4 13 14 14 31 15 17 16 18 17 30 18 32 19 19 20 29 21 28 22
REMARK SMILES IDX 21 23 20 24 25 25 22 26 23 27 26 28 27 29 8 30 9 31 10 32
REMARK SMILES IDX 24 33
REMARK H PARENT 24 34
REMARK Flexibility Score: inf
ROOT
ATOM      1  C   UNL     1      -6.526  91.062  -9.781  1.00  0.00     0.017 C 
ATOM      2  C   UNL     1      -6.803  90.397  -8.397  1.00  0.00     0.014 C 
ATOM      3  C   UNL     1      -7.867  91.612 -10.324  1.00  0.00     0.014 C 
ATOM      4  C   UNL     1      -5.910  90.026 -10.802  1.00  0.00     0.030 C 
ATOM      5  C   UNL     1      -5.738  89.363  -8.034  1.00  0.00     0.004 C 
ATOM      6  C   UNL     1      -7.688  92.338 -11.657  1.00  0.00     0.013 C 
ATOM      7  C   UNL     1      -6.116  90.370 -12.290  1.00  0.00    -0.063 C 
ATOM      8  C   UNL     1      -6.231  88.530 -10.463  1.00  0.00    -0.003 C 
ATOM      9  C   UNL     1      -5.718  88.169  -9.023  1.00  0.00    -0.011 C 
ATOM     10  C   UNL     1      -7.113  91.433 -12.798  1.00  0.00    -0.006 C 
ATOM     11  C   UNL     1      -5.312  89.747 -13.191  1.00  0.00    -0.027 C 
ATOM     12  C   UNL     1      -7.693  88.128 -10.749  1.00  0.00     0.008 C 
ATOM     13  C   UNL     1      -6.390  86.928  -8.411  1.00  0.00     0.008 C 
ATOM     14  C   UNL     1      -8.337  90.641 -13.375  1.00  0.00     0.017 C 
ATOM     15  C   UNL     1      -6.350  92.314 -13.909  1.00  0.00    -0.020 C 
ATOM     16  C   UNL     1      -5.243  90.074 -14.671  1.00  0.00     0.032 C 
ATOM     17  C   UNL     1      -6.011  91.357 -15.118  1.00  0.00     0.006 C 
ATOM     18  C   UNL     1      -7.235  93.501 -14.413  1.00  0.00     0.008 C 
ATOM     19  C   UNL     1      -5.036  92.920 -13.298  1.00  0.00     0.012 C 
ATOM     20  C   UNL     1      -5.459  92.050 -16.435  1.00  0.00    -0.025 C 
ATOM     21  C   UNL     1      -6.717  94.186 -15.692  1.00  0.00     0.005 C 
ATOM     22  C   UNL     1      -6.502  93.164 -16.840  1.00  0.00     0.003 C 
ATOM     23  C   UNL     1      -5.431  90.980 -17.573  1.00  0.00     0.010 C 
ATOM     24  C   UNL     1      -4.009  92.604 -16.233  1.00  0.00     0.012 C 
ATOM     25  C   UNL     1      -6.320  93.792 -18.282  1.00  0.00    -0.006 C 
ATOM     26  C   UNL     1      -5.201  91.568 -18.973  1.00  0.00     0.033 C 
ATOM     27  C   UNL     1      -6.246  92.632 -19.328  1.00  0.00     0.120 C 
ATOM     28  C   UNL     1      -7.565  94.651 -18.640  1.00  0.00     0.014 C 
ATOM     29  C   UNL     1      -5.083  94.720 -18.394  1.00  0.00     0.014 C 
ENDROOT
BRANCH   1  30
ATOM     30  C   UNL     1      -5.573  92.239  -9.536  1.00  0.00     0.048 C 
ATOM     31  O   UNL     1      -4.392  92.193  -9.975  1.00  0.00    -0.550 OA
ATOM     32  O   UNL     1      -5.989  93.396  -8.884  1.00  0.00    -0.550 OA
ENDBRANCH   1  30
BRANCH  27  33
ATOM     33  O   UNL     1      -5.950  93.132 -20.611  1.00  0.00    -0.393 OA
ATOM     34  H   UNL     1      -6.490  92.618 -21.266  1.00  0.00     0.210 HD
ENDBRANCH  27  33
TORSDOF 2
ENDMDL
MODEL 5
REMARK VINA RESULT:    -5.974      1.926      8.608
REMARK INTER + INTRA:          -6.780
REMARK INTER:                  -6.498
REMARK INTRA:                  -0.282
REMARK UNBOUND:                -0.283
REMARK SMILES C[C@@H]1[C@H](C)CC[C@]2(C(=O)[O-])CC[C@]3(C)C(=CC[C@@H]4[C@@]5(C)CC[C@H](O)C(C)(C)[C@@H]5CC[C@]43C)[C@H]12
REMARK SMILES IDX 7 1 6 2 11 3 33 4 5 5 12 6 15 7 2 8 3 9 13 10 16 11 1 12
REMARK SMILES IDX 4 13 14 14 31 15 17 16 18 17 30 18 32 19 19 20 29 21 28 22
REMARK SMILES IDX 21 23 20 24 25 25 22 26 23 27 26 28 27 29 8 30 9 31 10 32
REMARK SMILES IDX 24 33
REMARK H PARENT 24 34
REMARK Flexibility Score: inf
ROOT
ATOM      1  C   UNL     1     -13.794  82.969  -7.388  1.00  0.00     0.017 C 
ATOM      2  C   UNL     1     -15.209  82.316  -7.295  1.00  0.00     0.014 C 
ATOM      3  C   UNL     1     -13.374  82.990  -8.877  1.00  0.00     0.014 C 
ATOM      4  C   UNL     1     -12.734  82.163  -6.536  1.00  0.00     0.030 C 
ATOM      5  C   UNL     1     -15.483  81.737  -5.908  1.00  0.00     0.004 C 
ATOM      6  C   UNL     1     -12.019  83.667  -9.079  1.00  0.00     0.013 C 
ATOM      7  C   UNL     1     -11.268  82.343  -6.976  1.00  0.00    -0.063 C 
ATOM      8  C   UNL     1     -13.126  80.668  -6.281  1.00  0.00    -0.003 C 
ATOM      9  C   UNL     1     -14.515  80.578  -5.554  1.00  0.00    -0.011 C 
ATOM     10  C   UNL     1     -10.842  82.966  -8.322  1.00  0.00    -0.006 C 
ATOM     11  C   UNL     1     -10.303  81.996  -6.083  1.00  0.00    -0.027 C 
ATOM     12  C   UNL     1     -12.988  79.768  -7.528  1.00  0.00     0.008 C 
ATOM     13  C   UNL     1     -15.209  79.212  -5.693  1.00  0.00     0.008 C 
ATOM     14  C   UNL     1     -10.398  81.770  -9.234  1.00  0.00     0.017 C 
ATOM     15  C   UNL     1      -9.649  84.002  -8.014  1.00  0.00    -0.020 C 
ATOM     16  C   UNL     1      -8.819  82.254  -6.259  1.00  0.00     0.032 C 
ATOM     17  C   UNL     1      -8.428  83.166  -7.465  1.00  0.00     0.006 C 
ATOM     18  C   UNL     1      -9.215  84.781  -9.299  1.00  0.00     0.008 C 
ATOM     19  C   UNL     1     -10.121  85.057  -6.950  1.00  0.00     0.012 C 
ATOM     20  C   UNL     1      -7.054  83.943  -7.305  1.00  0.00    -0.025 C 
ATOM     21  C   UNL     1      -7.881  85.541  -9.165  1.00  0.00     0.005 C 
ATOM     22  C   UNL     1      -6.733  84.604  -8.702  1.00  0.00     0.003 C 
ATOM     23  C   UNL     1      -5.934  82.897  -6.999  1.00  0.00     0.010 C 
ATOM     24  C   UNL     1      -7.106  84.977  -6.129  1.00  0.00     0.012 C 
ATOM     25  C   UNL     1      -5.271  85.185  -8.875  1.00  0.00    -0.006 C 
ATOM     26  C   UNL     1      -4.511  83.459  -7.110  1.00  0.00     0.033 C 
ATOM     27  C   UNL     1      -4.241  84.074  -8.488  1.00  0.00     0.120 C 
ATOM     28  C   UNL     1      -5.022  85.538 -10.368  1.00  0.00     0.014 C 
ATOM     29  C   UNL     1      -5.026  86.479  -8.058  1.00  0.00     0.014 C 
ENDROOT
BRANCH   1  30
ATOM     30  C   UNL     1     -13.928  84.414  -6.892  1.00  0.00     0.048 C 
ATOM     31  O   UNL     1     -14.613  85.244  -7.550  1.00  0.00    -0.550 OA
ATOM     32  O   UNL     1     -13.357  84.833  -5.694  1.00  0.00    -0.550 OA
ENDBRANCH   1  30
BRANCH  27  33
ATOM     33  O   UNL     1      -2.927  84.584  -8.496  1.00  0.00    -0.393 OA
ATOM     34  H   UNL     1      -2.990  85.574  -8.500  1.00  0.00     0.210 HD
ENDBRANCH  27  33
TORSDOF 2
ENDMDL
MODEL 6
REMARK VINA RESULT:    -5.972      3.745      8.730
REMARK INTER + INTRA:          -6.778
REMARK INTER:                  -6.503
REMARK INTRA:                  -0.275
REMARK UNBOUND:                -0.283
REMARK SMILES C[C@@H]1[C@H](C)CC[C@]2(C(=O)[O-])CC[C@]3(C)C(=CC[C@@H]4[C@@]5(C)CC[C@H](O)C(C)(C)[C@@H]5CC[C@]43C)[C@H]12
REMARK SMILES IDX 7 1 6 2 11 3 33 4 5 5 12 6 15 7 2 8 3 9 13 10 16 11 1 12
REMARK SMILES IDX 4 13 14 14 31 15 17 16 18 17 30 18 32 19 19 20 29 21 28 22
REMARK SMILES IDX 21 23 20 24 25 25 22 26 23 27 26 28 27 29 8 30 9 31 10 32
REMARK SMILES IDX 24 33
REMARK H PARENT 24 34
REMARK Flexibility Score: inf
ROOT
ATOM      1  C   UNL     1      -5.890  85.783  -7.600  1.00  0.00     0.017 C 
ATOM      2  C   UNL     1      -6.319  84.324  -7.249  1.00  0.00     0.014 C 
ATOM      3  C   UNL     1      -6.427  86.719  -6.491  1.00  0.00     0.014 C 
ATOM      4  C   UNL     1      -6.459  86.225  -9.007  1.00  0.00     0.030 C 
ATOM      5  C   UNL     1      -6.354  83.424  -8.483  1.00  0.00     0.004 C 
ATOM      6  C   UNL     1      -6.006  88.171  -6.716  1.00  0.00     0.013 C 
ATOM      7  C   UNL     1      -6.597  87.746  -9.209  1.00  0.00    -0.063 C 
ATOM      8  C   UNL     1      -7.726  85.423  -9.461  1.00  0.00    -0.003 C 
ATOM      9  C   UNL     1      -7.414  83.884  -9.516  1.00  0.00    -0.011 C 
ATOM     10  C   UNL     1      -6.524  88.778  -8.064  1.00  0.00    -0.006 C 
ATOM     11  C   UNL     1      -6.715  88.197 -10.486  1.00  0.00    -0.027 C 
ATOM     12  C   UNL     1      -9.009  85.796  -8.688  1.00  0.00     0.008 C 
ATOM     13  C   UNL     1      -8.664  82.988  -9.466  1.00  0.00     0.008 C 
ATOM     14  C   UNL     1      -7.999  89.231  -7.790  1.00  0.00     0.017 C 
ATOM     15  C   UNL     1      -5.576  89.980  -8.562  1.00  0.00    -0.020 C 
ATOM     16  C   UNL     1      -6.691  89.655 -10.902  1.00  0.00     0.032 C 
ATOM     17  C   UNL     1      -6.295  90.672  -9.785  1.00  0.00     0.006 C 
ATOM     18  C   UNL     1      -5.336  91.034  -7.430  1.00  0.00     0.008 C 
ATOM     19  C   UNL     1      -4.176  89.412  -8.992  1.00  0.00     0.012 C 
ATOM     20  C   UNL     1      -5.659  92.030 -10.303  1.00  0.00    -0.025 C 
ATOM     21  C   UNL     1      -4.722  92.361  -7.914  1.00  0.00     0.005 C 
ATOM     22  C   UNL     1      -5.557  92.995  -9.058  1.00  0.00     0.003 C 
ATOM     23  C   UNL     1      -6.648  92.671 -11.329  1.00  0.00     0.010 C 
ATOM     24  C   UNL     1      -4.285  91.792 -11.015  1.00  0.00     0.012 C 
ATOM     25  C   UNL     1      -5.228  94.510  -9.380  1.00  0.00    -0.006 C 
ATOM     26  C   UNL     1      -6.310  94.124 -11.693  1.00  0.00     0.033 C 
ATOM     27  C   UNL     1      -6.239  95.025 -10.455  1.00  0.00     0.120 C 
ATOM     28  C   UNL     1      -5.438  95.373  -8.104  1.00  0.00     0.014 C 
ATOM     29  C   UNL     1      -3.764  94.733  -9.841  1.00  0.00     0.014 C 
ENDROOT
BRANCH   1  30
ATOM     30  C   UNL     1      -4.357  85.822  -7.581  1.00  0.00     0.048 C 
ATOM     31  O   UNL     1      -3.718  85.942  -8.662  1.00  0.00    -0.550 OA
ATOM     32  O   UNL     1      -3.637  85.786  -6.390  1.00  0.00    -0.550 OA
ENDBRANCH   1  30
BRANCH  27  33
ATOM     33  O   UNL     1      -5.904  96.328 -10.874  1.00  0.00    -0.393 OA
ATOM     34  H   UNL     1      -5.369  96.247 -11.707  1.00  0.00     0.210 HD
ENDBRANCH  27  33
TORSDOF 2
ENDMDL
MODEL 7
REMARK VINA RESULT:    -5.960      2.090      8.513
REMARK INTER + INTRA:          -6.765
REMARK INTER:                  -6.512
REMARK INTRA:                  -0.253
REMARK UNBOUND:                -0.283
REMARK SMILES C[C@@H]1[C@H](C)CC[C@]2(C(=O)[O-])CC[C@]3(C)C(=CC[C@@H]4[C@@]5(C)CC[C@H](O)C(C)(C)[C@@H]5CC[C@]43C)[C@H]12
REMARK SMILES IDX 7 1 6 2 11 3 33 4 5 5 12 6 15 7 2 8 3 9 13 10 16 11 1 12
REMARK SMILES IDX 4 13 14 14 31 15 17 16 18 17 30 18 32 19 19 20 29 21 28 22
REMARK SMILES IDX 21 23 20 24 25 25 22 26 23 27 26 28 27 29 8 30 9 31 10 32
REMARK SMILES IDX 24 33
REMARK H PARENT 24 34
REMARK Flexibility Score: inf
ROOT
ATOM      1  C   UNL     1     -13.676  82.532  -8.395  1.00  0.00     0.017 C 
ATOM      2  C   UNL     1     -15.137  82.011  -8.228  1.00  0.00     0.014 C 
ATOM      3  C   UNL     1     -12.826  81.387  -8.995  1.00  0.00     0.014 C 
ATOM      4  C   UNL     1     -13.069  82.991  -7.009  1.00  0.00     0.030 C 
ATOM      5  C   UNL     1     -15.910  82.798  -7.170  1.00  0.00     0.004 C 
ATOM      6  C   UNL     1     -11.382  81.821  -9.251  1.00  0.00     0.013 C 
ATOM      7  C   UNL     1     -11.530  82.981  -6.933  1.00  0.00    -0.063 C 
ATOM      8  C   UNL     1     -13.755  82.332  -5.764  1.00  0.00    -0.003 C 
ATOM      9  C   UNL     1     -15.295  82.641  -5.755  1.00  0.00    -0.011 C 
ATOM     10  C   UNL     1     -10.620  82.278  -7.962  1.00  0.00    -0.006 C 
ATOM     11  C   UNL     1     -10.951  83.702  -5.936  1.00  0.00    -0.027 C 
ATOM     12  C   UNL     1     -13.391  80.844  -5.569  1.00  0.00     0.008 C 
ATOM     13  C   UNL     1     -16.124  81.672  -4.894  1.00  0.00     0.008 C 
ATOM     14  C   UNL     1     -10.118  80.962  -7.272  1.00  0.00     0.017 C 
ATOM     15  C   UNL     1      -9.427  83.296  -8.322  1.00  0.00    -0.020 C 
ATOM     16  C   UNL     1      -9.462  83.955  -5.795  1.00  0.00     0.032 C 
ATOM     17  C   UNL     1      -8.582  83.517  -7.008  1.00  0.00     0.006 C 
ATOM     18  C   UNL     1      -8.503  82.728  -9.450  1.00  0.00     0.008 C 
ATOM     19  C   UNL     1     -10.023  84.657  -8.832  1.00  0.00     0.012 C 
ATOM     20  C   UNL     1      -7.215  84.306  -7.169  1.00  0.00    -0.025 C 
ATOM     21  C   UNL     1      -7.169  83.480  -9.621  1.00  0.00     0.005 C 
ATOM     22  C   UNL     1      -6.383  83.562  -8.286  1.00  0.00     0.003 C 
ATOM     23  C   UNL     1      -6.425  84.195  -5.826  1.00  0.00     0.010 C 
ATOM     24  C   UNL     1      -7.455  85.822  -7.484  1.00  0.00     0.012 C 
ATOM     25  C   UNL     1      -4.864  83.987  -8.417  1.00  0.00    -0.006 C 
ATOM     26  C   UNL     1      -4.964  84.654  -5.924  1.00  0.00     0.033 C 
ATOM     27  C   UNL     1      -4.193  83.893  -7.008  1.00  0.00     0.120 C 
ATOM     28  C   UNL     1      -4.119  82.986  -9.345  1.00  0.00     0.014 C 
ATOM     29  C   UNL     1      -4.674  85.398  -9.030  1.00  0.00     0.014 C 
ENDROOT
BRANCH   1  30
ATOM     30  C   UNL     1     -13.719  83.692  -9.397  1.00  0.00     0.048 C 
ATOM     31  O   UNL     1     -13.613  84.881  -8.987  1.00  0.00    -0.550 OA
ATOM     32  O   UNL     1     -13.819  83.474 -10.768  1.00  0.00    -0.550 OA
ENDBRANCH   1  30
BRANCH  27  33
ATOM     33  O   UNL     1      -2.875  84.389  -7.046  1.00  0.00    -0.393 OA
ATOM     34  H   UNL     1      -2.920  85.370  -6.903  1.00  0.00     0.210 HD
ENDBRANCH  27  33
TORSDOF 2
ENDMDL
MODEL 8
REMARK VINA RESULT:    -5.890      4.325      7.577
REMARK INTER + INTRA:          -6.689
REMARK INTER:                  -6.422
REMARK INTRA:                  -0.267
REMARK UNBOUND:                -0.283
REMARK SMILES C[C@@H]1[C@H](C)CC[C@]2(C(=O)[O-])CC[C@]3(C)C(=CC[C@@H]4[C@@]5(C)CC[C@H](O)C(C)(C)[C@@H]5CC[C@]43C)[C@H]12
REMARK SMILES IDX 7 1 6 2 11 3 33 4 5 5 12 6 15 7 2 8 3 9 13 10 16 11 1 12
REMARK SMILES IDX 4 13 14 14 31 15 17 16 18 17 30 18 32 19 19 20 29 21 28 22
REMARK SMILES IDX 21 23 20 24 25 25 22 26 23 27 26 28 27 29 8 30 9 31 10 32
REMARK SMILES IDX 24 33
REMARK H PARENT 24 34
REMARK Flexibility Score: inf
ROOT
ATOM      1  C   UNL     1      -6.040  94.008  -8.242  1.00  0.00     0.017 C 
ATOM      2  C   UNL     1      -6.152  95.545  -8.484  1.00  0.00     0.014 C 
ATOM      3  C   UNL     1      -4.596  93.573  -8.587  1.00  0.00     0.014 C 
ATOM      4  C   UNL     1      -7.075  93.211  -9.133  1.00  0.00     0.030 C 
ATOM      5  C   UNL     1      -7.595  95.985  -8.726  1.00  0.00     0.004 C 
ATOM      6  C   UNL     1      -4.369  92.084  -8.325  1.00  0.00     0.013 C 
ATOM      7  C   UNL     1      -6.702  91.742  -9.414  1.00  0.00    -0.063 C 
ATOM      8  C   UNL     1      -7.545  93.986 -10.410  1.00  0.00    -0.003 C 
ATOM      9  C   UNL     1      -8.191  95.361 -10.014  1.00  0.00    -0.011 C 
ATOM     10  C   UNL     1      -5.301  91.145  -9.163  1.00  0.00    -0.006 C 
ATOM     11  C   UNL     1      -7.696  90.917  -9.837  1.00  0.00    -0.027 C 
ATOM     12  C   UNL     1      -6.472  94.069 -11.517  1.00  0.00     0.008 C 
ATOM     13  C   UNL     1      -8.234  96.387 -11.160  1.00  0.00     0.008 C 
ATOM     14  C   UNL     1      -4.624  91.016 -10.571  1.00  0.00     0.017 C 
ATOM     15  C   UNL     1      -5.508  89.727  -8.430  1.00  0.00    -0.020 C 
ATOM     16  C   UNL     1      -7.571  89.415 -10.002  1.00  0.00     0.032 C 
ATOM     17  C   UNL     1      -6.259  88.778  -9.443  1.00  0.00     0.006 C 
ATOM     18  C   UNL     1      -4.142  89.083  -8.022  1.00  0.00     0.008 C 
ATOM     19  C   UNL     1      -6.356  89.922  -7.122  1.00  0.00     0.012 C 
ATOM     20  C   UNL     1      -6.374  87.250  -9.028  1.00  0.00    -0.025 C 
ATOM     21  C   UNL     1      -4.232  87.598  -7.618  1.00  0.00     0.005 C 
ATOM     22  C   UNL     1      -4.910  86.745  -8.723  1.00  0.00     0.003 C 
ATOM     23  C   UNL     1      -6.913  86.451 -10.257  1.00  0.00     0.010 C 
ATOM     24  C   UNL     1      -7.360  87.048  -7.829  1.00  0.00     0.012 C 
ATOM     25  C   UNL     1      -4.734  85.179  -8.575  1.00  0.00    -0.006 C 
ATOM     26  C   UNL     1      -6.799  84.928 -10.107  1.00  0.00     0.033 C 
ATOM     27  C   UNL     1      -5.358  84.483  -9.829  1.00  0.00     0.120 C 
ATOM     28  C   UNL     1      -3.221  84.822  -8.561  1.00  0.00     0.014 C 
ATOM     29  C   UNL     1      -5.344  84.616  -7.266  1.00  0.00     0.014 C 
ENDROOT
BRANCH   1  30
ATOM     30  C   UNL     1      -6.286  93.765  -6.748  1.00  0.00     0.048 C 
ATOM     31  O   UNL     1      -5.508  94.270  -5.893  1.00  0.00    -0.550 OA
ATOM     32  O   UNL     1      -7.386  93.043  -6.294  1.00  0.00    -0.550 OA
ENDBRANCH   1  30
BRANCH  27  33
ATOM     33  O   UNL     1      -5.347  83.082  -9.682  1.00  0.00    -0.393 OA
ATOM     34  H   UNL     1      -5.745  82.870  -8.798  1.00  0.00     0.210 HD
ENDBRANCH  27  33
TORSDOF 2
ENDMDL
MODEL 9
REMARK VINA RESULT:    -5.759      2.140      4.221
REMARK INTER + INTRA:          -6.547
REMARK INTER:                  -6.265
REMARK INTRA:                  -0.282
REMARK UNBOUND:                -0.283
REMARK SMILES C[C@@H]1[C@H](C)CC[C@]2(C(=O)[O-])CC[C@]3(C)C(=CC[C@@H]4[C@@]5(C)CC[C@H](O)C(C)(C)[C@@H]5CC[C@]43C)[C@H]12
REMARK SMILES IDX 7 1 6 2 11 3 33 4 5 5 12 6 15 7 2 8 3 9 13 10 16 11 1 12
REMARK SMILES IDX 4 13 14 14 31 15 17 16 18 17 30 18 32 19 19 20 29 21 28 22
REMARK SMILES IDX 21 23 20 24 25 25 22 26 23 27 26 28 27 29 8 30 9 31 10 32
REMARK SMILES IDX 24 33
REMARK H PARENT 24 34
REMARK Flexibility Score: inf
ROOT
ATOM      1  C   UNL     1      -6.192  85.538  -7.737  1.00  0.00     0.017 C 
ATOM      2  C   UNL     1      -4.643  85.729  -7.710  1.00  0.00     0.014 C 
ATOM      3  C   UNL     1      -6.695  85.502  -6.274  1.00  0.00     0.014 C 
ATOM      4  C   UNL     1      -6.592  84.203  -8.482  1.00  0.00     0.030 C 
ATOM      5  C   UNL     1      -3.982  85.230  -8.993  1.00  0.00     0.004 C 
ATOM      6  C   UNL     1      -8.216  85.376  -6.196  1.00  0.00     0.013 C 
ATOM      7  C   UNL     1      -7.968  83.626  -8.098  1.00  0.00    -0.063 C 
ATOM      8  C   UNL     1      -5.455  83.125  -8.511  1.00  0.00    -0.003 C 
ATOM      9  C   UNL     1      -4.165  83.703  -9.193  1.00  0.00    -0.011 C 
ATOM     10  C   UNL     1      -8.778  84.076  -6.864  1.00  0.00    -0.006 C 
ATOM     11  C   UNL     1      -8.524  82.722  -8.947  1.00  0.00    -0.027 C 
ATOM     12  C   UNL     1      -5.216  82.437  -7.150  1.00  0.00     0.008 C 
ATOM     13  C   UNL     1      -2.875  82.939  -8.846  1.00  0.00     0.008 C 
ATOM     14  C   UNL     1      -8.613  82.940  -5.796  1.00  0.00     0.017 C 
ATOM     15  C   UNL     1     -10.303  84.280  -7.339  1.00  0.00    -0.020 C 
ATOM     16  C   UNL     1      -9.933  82.171  -8.836  1.00  0.00     0.032 C 
ATOM     17  C   UNL     1     -10.851  82.868  -7.782  1.00  0.00     0.006 C 
ATOM     18  C   UNL     1     -11.195  84.850  -6.188  1.00  0.00     0.008 C 
ATOM     19  C   UNL     1     -10.357  85.296  -8.536  1.00  0.00     0.012 C 
ATOM     20  C   UNL     1     -12.408  82.774  -8.077  1.00  0.00    -0.025 C 
ATOM     21  C   UNL     1     -12.711  84.766  -6.453  1.00  0.00     0.005 C 
ATOM     22  C   UNL     1     -13.152  83.318  -6.795  1.00  0.00     0.003 C 
ATOM     23  C   UNL     1     -12.782  81.267  -8.247  1.00  0.00     0.010 C 
ATOM     24  C   UNL     1     -12.796  83.537  -9.388  1.00  0.00     0.012 C 
ATOM     25  C   UNL     1     -14.711  83.051  -6.733  1.00  0.00    -0.006 C 
ATOM     26  C   UNL     1     -14.293  80.997  -8.243  1.00  0.00     0.033 C 
ATOM     27  C   UNL     1     -14.969  81.527  -6.973  1.00  0.00     0.120 C 
ATOM     28  C   UNL     1     -15.243  83.385  -5.311  1.00  0.00     0.014 C 
ATOM     29  C   UNL     1     -15.520  83.916  -7.734  1.00  0.00     0.014 C 
ENDROOT
BRANCH   1  30
ATOM     30  C   UNL     1      -6.788  86.767  -8.434  1.00  0.00     0.048 C 
ATOM     31  O   UNL     1      -6.706  87.902  -7.889  1.00  0.00    -0.550 OA
ATOM     32  O   UNL     1      -7.377  86.682  -9.693  1.00  0.00    -0.550 OA
ENDBRANCH   1  30
BRANCH  27  33
ATOM     33  O   UNL     1     -16.349  81.260  -7.062  1.00  0.00    -0.393 OA
ATOM     34  H   UNL     1     -16.511  80.800  -7.926  1.00  0.00     0.210 HD
ENDBRANCH  27  33
TORSDOF 2
ENDMDL
