MODEL 1
REMARK VINA RESULT:    -5.862      0.000      0.000
REMARK INTER + INTRA:          -6.427
REMARK INTER:                  -6.376
REMARK INTRA:                  -0.051
REMARK UNBOUND:                -0.051
REMARK SMILES COc1cc2ccc(=O)oc2cc1O
REMARK SMILES IDX 3 1 13 2 12 3 11 4 5 5 4 6 6 7 7 8 8 9 9 10 10 11 2 12 1 13
REMARK SMILES IDX 14 14
REMARK H PARENT 14 15
REMARK Flexibility Score: inf
ROOT
ATOM      1  C   UNL     1     -38.721  -6.971 -13.863  1.00  0.00     0.161 A 
ATOM      2  C   UNL     1     -38.651  -7.768 -15.017  1.00  0.00     0.161 A 
ATOM      3  C   UNL     1     -37.591  -7.611 -15.921  1.00  0.00     0.098 A 
ATOM      4  C   UNL     1     -36.595  -6.661 -15.682  1.00  0.00     0.142 A 
ATOM      5  C   UNL     1     -36.658  -5.857 -14.525  1.00  0.00     0.022 A 
ATOM      6  C   UNL     1     -37.718  -6.012 -13.620  1.00  0.00     0.062 A 
ATOM      7  C   UNL     1     -35.646  -4.914 -14.314  1.00  0.00     0.019 A 
ATOM      8  C   UNL     1     -34.613  -4.797 -15.243  1.00  0.00     0.094 A 
ATOM      9  C   UNL     1     -34.617  -5.629 -16.368  1.00  0.00     0.336 A 
ATOM     10  O   UNL     1     -33.694  -5.539 -17.218  1.00  0.00    -0.246 OA
ATOM     11  O   UNL     1     -35.592  -6.518 -16.545  1.00  0.00    -0.423 OA
ENDROOT
BRANCH   1  12
ATOM     12  O   UNL     1     -39.800  -7.161 -12.985  1.00  0.00    -0.493 OA
ATOM     13  C   UNL     1     -40.501  -6.110 -12.328  1.00  0.00     0.278 C 
ENDBRANCH   1  12
BRANCH   2  14
ATOM     14  O   UNL     1     -39.643  -8.716 -15.258  1.00  0.00    -0.504 OA
ATOM     15  H   UNL     1     -39.872  -9.429 -14.575  1.00  0.00     0.293 HD
ENDBRANCH   2  14
TORSDOF 2
ENDMDL
MODEL 2
REMARK VINA RESULT:    -5.846      4.444      8.237
REMARK INTER + INTRA:          -6.409
REMARK INTER:                  -6.386
REMARK INTRA:                  -0.024
REMARK UNBOUND:                -0.051
REMARK SMILES COc1cc2ccc(=O)oc2cc1O
REMARK SMILES IDX 3 1 13 2 12 3 11 4 5 5 4 6 6 7 7 8 8 9 9 10 10 11 2 12 1 13
REMARK SMILES IDX 14 14
REMARK H PARENT 14 15
REMARK Flexibility Score: inf
ROOT
ATOM      1  C   UNL     1     -31.360  -2.165 -19.575  1.00  0.00     0.161 A 
ATOM      2  C   UNL     1     -32.638  -2.303 -20.138  1.00  0.00     0.161 A 
ATOM      3  C   UNL     1     -33.622  -3.057 -19.483  1.00  0.00     0.098 A 
ATOM      4  C   UNL     1     -33.339  -3.677 -18.263  1.00  0.00     0.142 A 
ATOM      5  C   UNL     1     -32.056  -3.543 -17.691  1.00  0.00     0.022 A 
ATOM      6  C   UNL     1     -31.071  -2.791 -18.345  1.00  0.00     0.062 A 
ATOM      7  C   UNL     1     -31.803  -4.176 -16.469  1.00  0.00     0.019 A 
ATOM      8  C   UNL     1     -32.815  -4.915 -15.857  1.00  0.00     0.094 A 
ATOM      9  C   UNL     1     -34.062  -5.004 -16.484  1.00  0.00     0.336 A 
ATOM     10  O   UNL     1     -34.989  -5.666 -15.948  1.00  0.00    -0.246 OA
ATOM     11  O   UNL     1     -34.277  -4.392 -17.646  1.00  0.00    -0.423 OA
ENDROOT
BRANCH   1  12
ATOM     12  O   UNL     1     -30.405  -1.402 -20.266  1.00  0.00    -0.493 OA
ATOM     13  C   UNL     1     -29.540  -1.913 -21.275  1.00  0.00     0.278 C 
ENDBRANCH   1  12
BRANCH   2  14
ATOM     14  O   UNL     1     -32.923  -1.685 -21.353  1.00  0.00    -0.504 OA
ATOM     15  H   UNL     1     -33.367  -0.775 -21.395  1.00  0.00     0.293 HD
ENDBRANCH   2  14
TORSDOF 2
ENDMDL
MODEL 3
REMARK VINA RESULT:    -5.815      2.020      5.203
REMARK INTER + INTRA:          -6.376
REMARK INTER:                  -6.311
REMARK INTRA:                  -0.065
REMARK UNBOUND:                -0.051
REMARK SMILES COc1cc2ccc(=O)oc2cc1O
REMARK SMILES IDX 3 1 13 2 12 3 11 4 5 5 4 6 6 7 7 8 8 9 9 10 10 11 2 12 1 13
REMARK SMILES IDX 14 14
REMARK H PARENT 14 15
REMARK Flexibility Score: inf
ROOT
ATOM      1  C   UNL     1     -36.000  -5.027 -14.002  1.00  0.00     0.161 A 
ATOM      2  C   UNL     1     -37.203  -4.306 -13.924  1.00  0.00     0.161 A 
ATOM      3  C   UNL     1     -38.423  -4.980 -13.772  1.00  0.00     0.098 A 
ATOM      4  C   UNL     1     -38.453  -6.375 -13.697  1.00  0.00     0.142 A 
ATOM      5  C   UNL     1     -37.249  -7.106 -13.775  1.00  0.00     0.022 A 
ATOM      6  C   UNL     1     -36.028  -6.433 -13.928  1.00  0.00     0.062 A 
ATOM      7  C   UNL     1     -37.311  -8.501 -13.697  1.00  0.00     0.019 A 
ATOM      8  C   UNL     1     -38.549  -9.125 -13.546  1.00  0.00     0.094 A 
ATOM      9  C   UNL     1     -39.701  -8.335 -13.476  1.00  0.00     0.336 A 
ATOM     10  O   UNL     1     -40.828  -8.878 -13.340  1.00  0.00    -0.246 OA
ATOM     11  O   UNL     1     -39.614  -7.009 -13.553  1.00  0.00    -0.423 OA
ENDROOT
BRANCH   1  12
ATOM     12  O   UNL     1     -34.802  -4.310 -14.155  1.00  0.00    -0.493 OA
ATOM     13  C   UNL     1     -34.035  -4.268 -15.354  1.00  0.00     0.278 C 
ENDBRANCH   1  12
BRANCH   2  14
ATOM     14  O   UNL     1     -37.176  -2.915 -13.998  1.00  0.00    -0.504 OA
ATOM     15  H   UNL     1     -36.430  -2.375 -13.574  1.00  0.00     0.293 HD
ENDBRANCH   2  14
TORSDOF 2
ENDMDL
MODEL 4
REMARK VINA RESULT:    -5.794      3.483      7.485
REMARK INTER + INTRA:          -6.353
REMARK INTER:                  -6.289
REMARK INTRA:                  -0.065
REMARK UNBOUND:                -0.051
REMARK SMILES COc1cc2ccc(=O)oc2cc1O
REMARK SMILES IDX 3 1 13 2 12 3 11 4 5 5 4 6 6 7 7 8 8 9 9 10 10 11 2 12 1 13
REMARK SMILES IDX 14 14
REMARK H PARENT 14 15
REMARK Flexibility Score: inf
ROOT
ATOM      1  C   UNL     1     -32.097  -2.765 -18.651  1.00  0.00     0.161 A 
ATOM      2  C   UNL     1     -31.519  -3.335 -17.506  1.00  0.00     0.161 A 
ATOM      3  C   UNL     1     -32.227  -4.282 -16.753  1.00  0.00     0.098 A 
ATOM      4  C   UNL     1     -33.514  -4.668 -17.136  1.00  0.00     0.142 A 
ATOM      5  C   UNL     1     -34.102  -4.100 -18.286  1.00  0.00     0.022 A 
ATOM      6  C   UNL     1     -33.395  -3.152 -19.039  1.00  0.00     0.062 A 
ATOM      7  C   UNL     1     -35.392  -4.505 -18.644  1.00  0.00     0.019 A 
ATOM      8  C   UNL     1     -36.054  -5.451 -17.862  1.00  0.00     0.094 A 
ATOM      9  C   UNL     1     -35.409  -5.971 -16.736  1.00  0.00     0.336 A 
ATOM     10  O   UNL     1     -35.990  -6.826 -16.017  1.00  0.00    -0.246 OA
ATOM     11  O   UNL     1     -34.181  -5.568 -16.418  1.00  0.00    -0.423 OA
ENDROOT
BRANCH   1  12
ATOM     12  O   UNL     1     -31.352  -1.820 -19.375  1.00  0.00    -0.493 OA
ATOM     13  C   UNL     1     -30.744  -2.067 -20.638  1.00  0.00     0.278 C 
ENDBRANCH   1  12
BRANCH   2  14
ATOM     14  O   UNL     1     -30.236  -2.953 -17.122  1.00  0.00    -0.504 OA
ATOM     15  H   UNL     1     -30.080  -2.176 -16.490  1.00  0.00     0.293 HD
ENDBRANCH   2  14
TORSDOF 2
ENDMDL
MODEL 5
REMARK VINA RESULT:    -5.706      4.982      7.289
REMARK INTER + INTRA:          -6.257
REMARK INTER:                  -6.207
REMARK INTRA:                  -0.050
REMARK UNBOUND:                -0.051
REMARK SMILES COc1cc2ccc(=O)oc2cc1O
REMARK SMILES IDX 3 1 13 2 12 3 11 4 5 5 4 6 6 7 7 8 8 9 9 10 10 11 2 12 1 13
REMARK SMILES IDX 14 14
REMARK H PARENT 14 15
REMARK Flexibility Score: inf
ROOT
ATOM      1  C   UNL     1     -31.095  -5.038 -16.929  1.00  0.00     0.161 A 
ATOM      2  C   UNL     1     -30.884  -3.757 -17.462  1.00  0.00     0.161 A 
ATOM      3  C   UNL     1     -31.959  -3.020 -17.979  1.00  0.00     0.098 A 
ATOM      4  C   UNL     1     -33.250  -3.554 -17.967  1.00  0.00     0.142 A 
ATOM      5  C   UNL     1     -33.470  -4.841 -17.434  1.00  0.00     0.022 A 
ATOM      6  C   UNL     1     -32.396  -5.580 -16.918  1.00  0.00     0.062 A 
ATOM      7  C   UNL     1     -34.773  -5.349 -17.436  1.00  0.00     0.019 A 
ATOM      8  C   UNL     1     -35.809  -4.577 -17.961  1.00  0.00     0.094 A 
ATOM      9  C   UNL     1     -35.515  -3.309 -18.474  1.00  0.00     0.336 A 
ATOM     10  O   UNL     1     -36.436  -2.596 -18.952  1.00  0.00    -0.246 OA
ATOM     11  O   UNL     1     -34.266  -2.849 -18.459  1.00  0.00    -0.423 OA
ENDROOT
BRANCH   1  12
ATOM     12  O   UNL     1     -29.989  -5.741 -16.424  1.00  0.00    -0.493 OA
ATOM     13  C   UNL     1     -29.794  -7.145 -16.560  1.00  0.00     0.278 C 
ENDBRANCH   1  12
BRANCH   2  14
ATOM     14  O   UNL     1     -29.598  -3.221 -17.474  1.00  0.00    -0.504 OA
ATOM     15  H   UNL     1     -29.266  -2.619 -16.729  1.00  0.00     0.293 HD
ENDBRANCH   2  14
TORSDOF 2
ENDMDL
MODEL 6
REMARK VINA RESULT:    -5.652      3.066      5.002
REMARK INTER + INTRA:          -6.199
REMARK INTER:                  -6.143
REMARK INTRA:                  -0.055
REMARK UNBOUND:                -0.051
REMARK SMILES COc1cc2ccc(=O)oc2cc1O
REMARK SMILES IDX 3 1 13 2 12 3 11 4 5 5 4 6 6 7 7 8 8 9 9 10 10 11 2 12 1 13
REMARK SMILES IDX 14 14
REMARK H PARENT 14 15
REMARK Flexibility Score: inf
ROOT
ATOM      1  C   UNL     1     -35.131  -5.572 -16.861  1.00  0.00     0.161 A 
ATOM      2  C   UNL     1     -35.749  -5.016 -17.992  1.00  0.00     0.161 A 
ATOM      3  C   UNL     1     -35.057  -4.101 -18.798  1.00  0.00     0.098 A 
ATOM      4  C   UNL     1     -33.747  -3.734 -18.484  1.00  0.00     0.142 A 
ATOM      5  C   UNL     1     -33.119  -4.288 -17.349  1.00  0.00     0.022 A 
ATOM      6  C   UNL     1     -33.809  -5.203 -16.541  1.00  0.00     0.062 A 
ATOM      7  C   UNL     1     -31.806  -3.901 -17.059  1.00  0.00     0.019 A 
ATOM      8  C   UNL     1     -31.161  -2.988 -17.892  1.00  0.00     0.094 A 
ATOM      9  C   UNL     1     -31.847  -2.480 -19.000  1.00  0.00     0.336 A 
ATOM     10  O   UNL     1     -31.283  -1.655 -19.764  1.00  0.00    -0.246 OA
ATOM     11  O   UNL     1     -33.096  -2.865 -19.253  1.00  0.00    -0.423 OA
ENDROOT
BRANCH   1  12
ATOM     12  O   UNL     1     -35.861  -6.484 -16.082  1.00  0.00    -0.493 OA
ATOM     13  C   UNL     1     -36.017  -6.395 -14.669  1.00  0.00     0.278 C 
ENDBRANCH   1  12
BRANCH   2  14
ATOM     14  O   UNL     1     -37.056  -5.381 -18.309  1.00  0.00    -0.504 OA
ATOM     15  H   UNL     1     -37.824  -5.214 -17.669  1.00  0.00     0.293 HD
ENDBRANCH   2  14
TORSDOF 2
ENDMDL
MODEL 7
REMARK VINA RESULT:    -5.603      2.421      5.262
REMARK INTER + INTRA:          -6.145
REMARK INTER:                  -6.094
REMARK INTRA:                  -0.051
REMARK UNBOUND:                -0.051
REMARK SMILES COc1cc2ccc(=O)oc2cc1O
REMARK SMILES IDX 3 1 13 2 12 3 11 4 5 5 4 6 6 7 7 8 8 9 9 10 10 11 2 12 1 13
REMARK SMILES IDX 14 14
REMARK H PARENT 14 15
REMARK Flexibility Score: inf
ROOT
ATOM      1  C   UNL     1     -38.579  -6.933 -14.485  1.00  0.00     0.161 A 
ATOM      2  C   UNL     1     -39.710  -7.623 -14.023  1.00  0.00     0.161 A 
ATOM      3  C   UNL     1     -40.469  -7.106 -12.963  1.00  0.00     0.098 A 
ATOM      4  C   UNL     1     -40.107  -5.900 -12.358  1.00  0.00     0.142 A 
ATOM      5  C   UNL     1     -38.971  -5.201 -12.817  1.00  0.00     0.022 A 
ATOM      6  C   UNL     1     -38.210  -5.717 -13.876  1.00  0.00     0.062 A 
ATOM      7  C   UNL     1     -38.633  -3.997 -12.191  1.00  0.00     0.019 A 
ATOM      8  C   UNL     1     -39.420  -3.525 -11.142  1.00  0.00     0.094 A 
ATOM      9  C   UNL     1     -40.533  -4.273 -10.740  1.00  0.00     0.336 A 
ATOM     10  O   UNL     1     -41.256  -3.864  -9.795  1.00  0.00    -0.246 OA
ATOM     11  O   UNL     1     -40.832  -5.416 -11.353  1.00  0.00    -0.423 OA
ENDROOT
BRANCH   1  12
ATOM     12  O   UNL     1     -37.847  -7.487 -15.548  1.00  0.00    -0.493 OA
ATOM     13  C   UNL     1     -36.717  -8.338 -15.392  1.00  0.00     0.278 C 
ENDBRANCH   1  12
BRANCH   2  14
ATOM     14  O   UNL     1     -40.075  -8.825 -14.624  1.00  0.00    -0.504 OA
ATOM     15  H   UNL     1     -41.018  -9.191 -14.552  1.00  0.00     0.293 HD
ENDBRANCH   2  14
TORSDOF 2
ENDMDL
MODEL 8
REMARK VINA RESULT:    -5.577      1.770      5.104
REMARK INTER + INTRA:          -6.117
REMARK INTER:                  -6.070
REMARK INTRA:                  -0.047
REMARK UNBOUND:                -0.051
REMARK SMILES COc1cc2ccc(=O)oc2cc1O
REMARK SMILES IDX 3 1 13 2 12 3 11 4 5 5 4 6 6 7 7 8 8 9 9 10 10 11 2 12 1 13
REMARK SMILES IDX 14 14
REMARK H PARENT 14 15
REMARK Flexibility Score: inf
ROOT
ATOM      1  C   UNL     1     -35.928  -5.744 -16.908  1.00  0.00     0.161 A 
ATOM      2  C   UNL     1     -37.205  -5.195 -17.104  1.00  0.00     0.161 A 
ATOM      3  C   UNL     1     -38.303  -5.682 -16.382  1.00  0.00     0.098 A 
ATOM      4  C   UNL     1     -38.137  -6.719 -15.460  1.00  0.00     0.142 A 
ATOM      5  C   UNL     1     -36.858  -7.276 -15.257  1.00  0.00     0.022 A 
ATOM      6  C   UNL     1     -35.758  -6.790 -15.979  1.00  0.00     0.062 A 
ATOM      7  C   UNL     1     -36.723  -8.313 -14.328  1.00  0.00     0.019 A 
ATOM      8  C   UNL     1     -37.846  -8.762 -13.634  1.00  0.00     0.094 A 
ATOM      9  C   UNL     1     -39.084  -8.162 -13.888  1.00  0.00     0.336 A 
ATOM     10  O   UNL     1     -40.110  -8.553 -13.273  1.00  0.00    -0.246 OA
ATOM     11  O   UNL     1     -39.184  -7.177 -14.778  1.00  0.00    -0.423 OA
ENDROOT
BRANCH   1  12
ATOM     12  O   UNL     1     -34.857  -5.226 -17.653  1.00  0.00    -0.493 OA
ATOM     13  C   UNL     1     -33.495  -5.255 -17.236  1.00  0.00     0.278 C 
ENDBRANCH   1  12
BRANCH   2  14
ATOM     14  O   UNL     1     -37.373  -4.161 -18.022  1.00  0.00    -0.504 OA
ATOM     15  H   UNL     1     -37.674  -4.339 -18.974  1.00  0.00     0.293 HD
ENDBRANCH   2  14
TORSDOF 2
ENDMDL
MODEL 9
REMARK VINA RESULT:    -5.461      2.269      3.746
REMARK INTER + INTRA:          -5.990
REMARK INTER:                  -5.926
REMARK INTRA:                  -0.064
REMARK UNBOUND:                -0.051
REMARK SMILES COc1cc2ccc(=O)oc2cc1O
REMARK SMILES IDX 3 1 13 2 12 3 11 4 5 5 4 6 6 7 7 8 8 9 9 10 10 11 2 12 1 13
REMARK SMILES IDX 14 14
REMARK H PARENT 14 15
REMARK Flexibility Score: inf
ROOT
ATOM      1  C   UNL     1     -36.341  -6.161 -14.808  1.00  0.00     0.161 A 
ATOM      2  C   UNL     1     -35.399  -5.313 -14.203  1.00  0.00     0.161 A 
ATOM      3  C   UNL     1     -34.596  -4.474 -14.989  1.00  0.00     0.098 A 
ATOM      4  C   UNL     1     -34.726  -4.474 -16.380  1.00  0.00     0.142 A 
ATOM      5  C   UNL     1     -35.669  -5.324 -16.995  1.00  0.00     0.022 A 
ATOM      6  C   UNL     1     -36.473  -6.164 -16.211  1.00  0.00     0.062 A 
ATOM      7  C   UNL     1     -35.776  -5.302 -18.389  1.00  0.00     0.019 A 
ATOM      8  C   UNL     1     -34.954  -4.449 -19.126  1.00  0.00     0.094 A 
ATOM      9  C   UNL     1     -34.041  -3.635 -18.448  1.00  0.00     0.336 A 
ATOM     10  O   UNL     1     -33.291  -2.858 -19.094  1.00  0.00    -0.246 OA
ATOM     11  O   UNL     1     -33.961  -3.675 -17.120  1.00  0.00    -0.423 OA
ENDROOT
BRANCH   1  12
ATOM     12  O   UNL     1     -37.123  -6.985 -13.983  1.00  0.00    -0.493 OA
ATOM     13  C   UNL     1     -36.863  -8.364 -13.740  1.00  0.00     0.278 C 
ENDBRANCH   1  12
BRANCH   2  14
ATOM     14  O   UNL     1     -35.268  -5.310 -12.817  1.00  0.00    -0.504 OA
ATOM     15  H   UNL     1     -36.074  -5.228 -12.207  1.00  0.00     0.293 HD
ENDBRANCH   2  14
TORSDOF 2
ENDMDL
