MODEL 1
REMARK VINA RESULT:    -4.550      0.000      0.000
REMARK INTER + INTRA:         -13.230
REMARK INTER:                  -9.871
REMARK INTRA:                  -3.359
REMARK UNBOUND:                -3.359
REMARK SMILES CCCCCCCCCCCCCCCCCCCCCC(=O)[O-]
REMARK SMILES IDX 12 1 11 2 10 3 9 4 8 5 7 6 6 7 5 8 4 9 3 10 2 11 1 12 13 13
REMARK SMILES IDX 14 14 15 15 16 16 17 17 18 18 19 19 20 20 21 21 22 22 23 23
REMARK SMILES IDX 24 24
REMARK H PARENT
REMARK Flexibility Score: inf
ROOT
ATOM      1  C   UNL     1      24.823   8.778  10.046  1.00  0.00     0.000 C 
ENDROOT
BRANCH   1   2
ATOM      2  C   UNL     1      23.476   9.515   9.891  1.00  0.00     0.000 C 
BRANCH   2   3
ATOM      3  C   UNL     1      22.298   8.539   9.723  1.00  0.00     0.000 C 
BRANCH   3   4
ATOM      4  C   UNL     1      21.162   8.804  10.725  1.00  0.00    -0.000 C 
BRANCH   4   5
ATOM      5  C   UNL     1      20.657   7.515  11.397  1.00  0.00    -0.000 C 
BRANCH   5   6
ATOM      6  C   UNL     1      19.122   7.412  11.400  1.00  0.00    -0.000 C 
BRANCH   6   7
ATOM      7  C   UNL     1      18.620   5.994  11.091  1.00  0.00    -0.000 C 
BRANCH   7   8
ATOM      8  C   UNL     1      19.325   5.419   9.852  1.00  0.00    -0.000 C 
BRANCH   8   9
ATOM      9  C   UNL     1      18.784   6.005   8.537  1.00  0.00    -0.000 C 
BRANCH   9  10
ATOM     10  C   UNL     1      19.832   6.855   7.797  1.00  0.00    -0.000 C 
BRANCH  10  11
ATOM     11  C   UNL     1      19.314   8.258   7.446  1.00  0.00    -0.003 C 
ATOM     12  C   UNL     1      20.262   9.029   6.526  1.00  0.00     0.004 C 
ENDBRANCH  10  11
ENDBRANCH   9  10
ENDBRANCH   8   9
ENDBRANCH   7   8
ENDBRANCH   6   7
ENDBRANCH   5   6
ENDBRANCH   4   5
ENDBRANCH   3   4
ENDBRANCH   2   3
ENDBRANCH   1   2
BRANCH   1  13
ATOM     13  C   UNL     1      24.717   7.255   9.868  1.00  0.00     0.000 C 
BRANCH  13  14
ATOM     14  C   UNL     1      25.736   6.480  10.721  1.00  0.00     0.000 C 
BRANCH  14  15
ATOM     15  C   UNL     1      25.449   6.589  12.227  1.00  0.00     0.000 C 
BRANCH  15  16
ATOM     16  C   UNL     1      23.944   6.601  12.542  1.00  0.00     0.000 C 
BRANCH  16  17
ATOM     17  C   UNL     1      23.602   7.413  13.805  1.00  0.00     0.000 C 
BRANCH  17  18
ATOM     18  C   UNL     1      23.471   8.932  13.587  1.00  0.00     0.000 C 
BRANCH  18  19
ATOM     19  C   UNL     1      24.393   9.798  14.465  1.00  0.00     0.000 C 
BRANCH  19  20
ATOM     20  C   UNL     1      25.633  10.343  13.720  1.00  0.00     0.006 C 
BRANCH  20  21
ATOM     21  C   UNL     1      25.295  11.341  12.602  1.00  0.00     0.053 C 
BRANCH  21  22
ATOM     22  C   UNL     1      25.623  12.750  12.988  1.00  0.00     0.041 C 
ATOM     23  O   UNL     1      26.081  13.552  12.131  1.00  0.00    -0.550 OA
ATOM     24  O   UNL     1      25.410  13.184  14.290  1.00  0.00    -0.550 OA
ENDBRANCH  21  22
ENDBRANCH  20  21
ENDBRANCH  19  20
ENDBRANCH  18  19
ENDBRANCH  17  18
ENDBRANCH  16  17
ENDBRANCH  15  16
ENDBRANCH  14  15
ENDBRANCH  13  14
ENDBRANCH   1  13
TORSDOF 20
ENDMDL
MODEL 2
REMARK VINA RESULT:    -4.387      1.478      2.325
REMARK INTER + INTRA:         -12.876
REMARK INTER:                  -9.629
REMARK INTRA:                  -3.246
REMARK UNBOUND:                -3.359
REMARK SMILES CCCCCCCCCCCCCCCCCCCCCC(=O)[O-]
REMARK SMILES IDX 12 1 11 2 10 3 9 4 8 5 7 6 6 7 5 8 4 9 3 10 2 11 1 12 13 13
REMARK SMILES IDX 14 14 15 15 16 16 17 17 18 18 19 19 20 20 21 21 22 22 23 23
REMARK SMILES IDX 24 24
REMARK H PARENT
REMARK Flexibility Score: inf
ROOT
ATOM      1  C   UNL     1      24.029   9.748  10.443  1.00  0.00     0.000 C 
ENDROOT
BRANCH   1   2
ATOM      2  C   UNL     1      23.311   8.904   9.369  1.00  0.00     0.000 C 
BRANCH   2   3
ATOM      3  C   UNL     1      22.206   8.018   9.972  1.00  0.00     0.000 C 
BRANCH   3   4
ATOM      4  C   UNL     1      21.056   8.839  10.579  1.00  0.00    -0.000 C 
BRANCH   4   5
ATOM      5  C   UNL     1      20.304   8.073  11.681  1.00  0.00    -0.000 C 
BRANCH   5   6
ATOM      6  C   UNL     1      18.952   7.519  11.199  1.00  0.00    -0.000 C 
BRANCH   6   7
ATOM      7  C   UNL     1      18.926   5.984  11.137  1.00  0.00    -0.000 C 
BRANCH   7   8
ATOM      8  C   UNL     1      19.394   5.483   9.762  1.00  0.00    -0.000 C 
BRANCH   8   9
ATOM      9  C   UNL     1      18.742   6.248   8.598  1.00  0.00    -0.000 C 
BRANCH   9  10
ATOM     10  C   UNL     1      19.777   6.786   7.594  1.00  0.00    -0.000 C 
BRANCH  10  11
ATOM     11  C   UNL     1      19.313   8.075   6.899  1.00  0.00    -0.003 C 
ATOM     12  C   UNL     1      20.430   9.110   6.758  1.00  0.00     0.004 C 
ENDBRANCH  10  11
ENDBRANCH   9  10
ENDBRANCH   8   9
ENDBRANCH   7   8
ENDBRANCH   6   7
ENDBRANCH   5   6
ENDBRANCH   4   5
ENDBRANCH   3   4
ENDBRANCH   2   3
ENDBRANCH   1   2
BRANCH   1  13
ATOM     13  C   UNL     1      25.543   9.495  10.517  1.00  0.00     0.000 C 
BRANCH  13  14
ATOM     14  C   UNL     1      25.892   8.131  11.138  1.00  0.00     0.000 C 
BRANCH  14  15
ATOM     15  C   UNL     1      25.799   6.980  10.124  1.00  0.00     0.000 C 
BRANCH  15  16
ATOM     16  C   UNL     1      25.857   5.597  10.795  1.00  0.00     0.000 C 
BRANCH  16  17
ATOM     17  C   UNL     1      25.903   5.677  12.333  1.00  0.00     0.000 C 
BRANCH  17  18
ATOM     18  C   UNL     1      24.579   5.339  13.042  1.00  0.00     0.000 C 
BRANCH  18  19
ATOM     19  C   UNL     1      23.539   6.475  13.054  1.00  0.00     0.000 C 
BRANCH  19  20
ATOM     20  C   UNL     1      23.791   7.541  14.146  1.00  0.00     0.006 C 
BRANCH  20  21
ATOM     21  C   UNL     1      23.300   8.945  13.765  1.00  0.00     0.053 C 
BRANCH  21  22
ATOM     22  C   UNL     1      24.170  10.020  14.342  1.00  0.00     0.041 C 
ATOM     23  O   UNL     1      23.681  10.879  15.124  1.00  0.00    -0.550 OA
ATOM     24  O   UNL     1      25.522  10.065  14.029  1.00  0.00    -0.550 OA
ENDBRANCH  21  22
ENDBRANCH  20  21
ENDBRANCH  19  20
ENDBRANCH  18  19
ENDBRANCH  17  18
ENDBRANCH  16  17
ENDBRANCH  15  16
ENDBRANCH  14  15
ENDBRANCH  13  14
ENDBRANCH   1  13
TORSDOF 20
ENDMDL
MODEL 3
REMARK VINA RESULT:    -4.312      1.194      4.313
REMARK INTER + INTRA:         -12.712
REMARK INTER:                  -9.668
REMARK INTRA:                  -3.044
REMARK UNBOUND:                -3.359
REMARK SMILES CCCCCCCCCCCCCCCCCCCCCC(=O)[O-]
REMARK SMILES IDX 12 1 11 2 10 3 9 4 8 5 7 6 6 7 5 8 4 9 3 10 2 11 1 12 13 13
REMARK SMILES IDX 14 14 15 15 16 16 17 17 18 18 19 19 20 20 21 21 22 22 23 23
REMARK SMILES IDX 24 24
REMARK H PARENT
REMARK Flexibility Score: inf
ROOT
ATOM      1  C   UNL     1      20.158   8.406   7.554  1.00  0.00     0.000 C 
ENDROOT
BRANCH   1   2
ATOM      2  C   UNL     1      19.237   7.181   7.739  1.00  0.00     0.000 C 
BRANCH   2   3
ATOM      3  C   UNL     1      19.841   6.143   8.702  1.00  0.00     0.000 C 
BRANCH   3   4
ATOM      4  C   UNL     1      18.840   5.676   9.772  1.00  0.00    -0.000 C 
BRANCH   4   5
ATOM      5  C   UNL     1      19.206   6.181  11.180  1.00  0.00    -0.000 C 
BRANCH   5   6
ATOM      6  C   UNL     1      19.179   7.715  11.282  1.00  0.00    -0.000 C 
BRANCH   6   7
ATOM      7  C   UNL     1      20.508   8.302  11.783  1.00  0.00    -0.000 C 
BRANCH   7   8
ATOM      8  C   UNL     1      21.608   7.229  11.802  1.00  0.00    -0.000 C 
BRANCH   8   9
ATOM      9  C   UNL     1      22.686   7.504  12.865  1.00  0.00    -0.000 C 
BRANCH   9  10
ATOM     10  C   UNL     1      23.540   6.261  13.170  1.00  0.00    -0.000 C 
BRANCH  10  11
ATOM     11  C   UNL     1      25.040   6.501  12.936  1.00  0.00    -0.003 C 
ATOM     12  C   UNL     1      25.632   5.576  11.872  1.00  0.00     0.004 C 
ENDBRANCH  10  11
ENDBRANCH   9  10
ENDBRANCH   8   9
ENDBRANCH   7   8
ENDBRANCH   6   7
ENDBRANCH   5   6
ENDBRANCH   4   5
ENDBRANCH   3   4
ENDBRANCH   2   3
ENDBRANCH   1   2
BRANCH   1  13
ATOM     13  C   UNL     1      21.445   8.342   8.392  1.00  0.00     0.000 C 
BRANCH  13  14
ATOM     14  C   UNL     1      22.161   9.700   8.494  1.00  0.00     0.000 C 
BRANCH  14  15
ATOM     15  C   UNL     1      23.085   9.790   9.718  1.00  0.00     0.000 C 
BRANCH  15  16
ATOM     16  C   UNL     1      24.192   8.723   9.702  1.00  0.00     0.000 C 
BRANCH  16  17
ATOM     17  C   UNL     1      25.390   9.086  10.600  1.00  0.00     0.000 C 
BRANCH  17  18
ATOM     18  C   UNL     1      25.243  10.408  11.376  1.00  0.00     0.000 C 
BRANCH  18  19
ATOM     19  C   UNL     1      25.207  10.262  12.909  1.00  0.00     0.000 C 
BRANCH  19  20
ATOM     20  C   UNL     1      24.979  11.596  13.658  1.00  0.00     0.006 C 
BRANCH  20  21
ATOM     21  C   UNL     1      25.648  12.805  12.987  1.00  0.00     0.053 C 
BRANCH  21  22
ATOM     22  C   UNL     1      25.073  14.102  13.465  1.00  0.00     0.041 C 
ATOM     23  O   UNL     1      25.730  15.170  13.343  1.00  0.00    -0.550 OA
ATOM     24  O   UNL     1      23.805  14.136  14.031  1.00  0.00    -0.550 OA
ENDBRANCH  21  22
ENDBRANCH  20  21
ENDBRANCH  19  20
ENDBRANCH  18  19
ENDBRANCH  17  18
ENDBRANCH  16  17
ENDBRANCH  15  16
ENDBRANCH  14  15
ENDBRANCH  13  14
ENDBRANCH   1  13
TORSDOF 20
ENDMDL
MODEL 4
REMARK VINA RESULT:    -4.263      2.786      3.818
REMARK INTER + INTRA:         -12.607
REMARK INTER:                  -9.600
REMARK INTRA:                  -3.007
REMARK UNBOUND:                -3.359
REMARK SMILES CCCCCCCCCCCCCCCCCCCCCC(=O)[O-]
REMARK SMILES IDX 12 1 11 2 10 3 9 4 8 5 7 6 6 7 5 8 4 9 3 10 2 11 1 12 13 13
REMARK SMILES IDX 14 14 15 15 16 16 17 17 18 18 19 19 20 20 21 21 22 22 23 23
REMARK SMILES IDX 24 24
REMARK H PARENT
REMARK Flexibility Score: inf
ROOT
ATOM      1  C   UNL     1      24.169   8.081  10.168  1.00  0.00     0.000 C 
ENDROOT
BRANCH   1   2
ATOM      2  C   UNL     1      23.395   9.030   9.229  1.00  0.00     0.000 C 
BRANCH   2   3
ATOM      3  C   UNL     1      22.201   9.698   9.936  1.00  0.00     0.000 C 
BRANCH   3   4
ATOM      4  C   UNL     1      21.916   9.089  11.318  1.00  0.00    -0.000 C 
BRANCH   4   5
ATOM      5  C   UNL     1      20.559   8.363  11.373  1.00  0.00    -0.000 C 
BRANCH   5   6
ATOM      6  C   UNL     1      20.705   6.834  11.306  1.00  0.00    -0.000 C 
BRANCH   6   7
ATOM      7  C   UNL     1      19.358   6.115  11.128  1.00  0.00    -0.000 C 
BRANCH   7   8
ATOM      8  C   UNL     1      19.121   5.752   9.654  1.00  0.00    -0.000 C 
BRANCH   8   9
ATOM      9  C   UNL     1      19.905   6.656   8.687  1.00  0.00    -0.000 C 
BRANCH   9  10
ATOM     10  C   UNL     1      19.111   6.976   7.408  1.00  0.00    -0.000 C 
BRANCH  10  11
ATOM     11  C   UNL     1      19.137   8.471   7.055  1.00  0.00    -0.003 C 
ATOM     12  C   UNL     1      20.551   9.001   6.812  1.00  0.00     0.004 C 
ENDBRANCH  10  11
ENDBRANCH   9  10
ENDBRANCH   8   9
ENDBRANCH   7   8
ENDBRANCH   6   7
ENDBRANCH   5   6
ENDBRANCH   4   5
ENDBRANCH   3   4
ENDBRANCH   2   3
ENDBRANCH   1   2
BRANCH   1  13
ATOM     13  C   UNL     1      25.672   8.389  10.254  1.00  0.00     0.000 C 
BRANCH  13  14
ATOM     14  C   UNL     1      26.082   9.001  11.605  1.00  0.00     0.000 C 
BRANCH  14  15
ATOM     15  C   UNL     1      25.592  10.448  11.771  1.00  0.00     0.000 C 
BRANCH  15  16
ATOM     16  C   UNL     1      25.057  10.732  13.184  1.00  0.00     0.000 C 
BRANCH  16  17
ATOM     17  C   UNL     1      24.134   9.619  13.712  1.00  0.00     0.000 C 
BRANCH  17  18
ATOM     18  C   UNL     1      24.692   8.821  14.906  1.00  0.00     0.000 C 
BRANCH  18  19
ATOM     19  C   UNL     1      24.721   7.294  14.711  1.00  0.00     0.000 C 
BRANCH  19  20
ATOM     20  C   UNL     1      23.837   6.796  13.544  1.00  0.00     0.006 C 
BRANCH  20  21
ATOM     21  C   UNL     1      23.810   5.268  13.395  1.00  0.00     0.053 C 
BRANCH  21  22
ATOM     22  C   UNL     1      25.117   4.728  12.902  1.00  0.00     0.041 C 
ATOM     23  O   UNL     1      25.649   5.207  11.865  1.00  0.00    -0.550 OA
ATOM     24  O   UNL     1      25.756   3.708  13.595  1.00  0.00    -0.550 OA
ENDBRANCH  21  22
ENDBRANCH  20  21
ENDBRANCH  19  20
ENDBRANCH  18  19
ENDBRANCH  17  18
ENDBRANCH  16  17
ENDBRANCH  15  16
ENDBRANCH  14  15
ENDBRANCH  13  14
ENDBRANCH   1  13
TORSDOF 20
ENDMDL
MODEL 5
REMARK VINA RESULT:    -4.154      3.320      6.941
REMARK INTER + INTRA:         -12.369
REMARK INTER:                  -9.728
REMARK INTRA:                  -2.642
REMARK UNBOUND:                -3.359
REMARK SMILES CCCCCCCCCCCCCCCCCCCCCC(=O)[O-]
REMARK SMILES IDX 12 1 11 2 10 3 9 4 8 5 7 6 6 7 5 8 4 9 3 10 2 11 1 12 13 13
REMARK SMILES IDX 14 14 15 15 16 16 17 17 18 18 19 19 20 20 21 21 22 22 23 23
REMARK SMILES IDX 24 24
REMARK H PARENT
REMARK Flexibility Score: inf
ROOT
ATOM      1  C   UNL     1      24.412   9.859  10.895  1.00  0.00     0.000 C 
ENDROOT
BRANCH   1   2
ATOM      2  C   UNL     1      25.621  10.100  11.824  1.00  0.00     0.000 C 
BRANCH   2   3
ATOM      3  C   UNL     1      25.212  10.141  13.308  1.00  0.00     0.000 C 
BRANCH   3   4
ATOM      4  C   UNL     1      23.761   9.687  13.535  1.00  0.00    -0.000 C 
BRANCH   4   5
ATOM      5  C   UNL     1      23.652   8.568  14.586  1.00  0.00    -0.000 C 
BRANCH   5   6
ATOM      6  C   UNL     1      25.018   7.957  14.942  1.00  0.00    -0.000 C 
BRANCH   6   7
ATOM      7  C   UNL     1      25.058   6.434  14.745  1.00  0.00    -0.000 C 
BRANCH   7   8
ATOM      8  C   UNL     1      24.366   6.032  13.434  1.00  0.00    -0.000 C 
BRANCH   8   9
ATOM      9  C   UNL     1      23.599   4.704  13.552  1.00  0.00    -0.000 C 
BRANCH   9  10
ATOM     10  C   UNL     1      24.503   3.541  13.997  1.00  0.00    -0.000 C 
BRANCH  10  11
ATOM     11  C   UNL     1      25.378   3.001  12.855  1.00  0.00    -0.003 C 
ATOM     12  C   UNL     1      25.602   1.491  12.939  1.00  0.00     0.004 C 
ENDBRANCH  10  11
ENDBRANCH   9  10
ENDBRANCH   8   9
ENDBRANCH   7   8
ENDBRANCH   6   7
ENDBRANCH   5   6
ENDBRANCH   4   5
ENDBRANCH   3   4
ENDBRANCH   2   3
ENDBRANCH   1   2
BRANCH   1  13
ATOM     13  C   UNL     1      24.507   8.555  10.086  1.00  0.00     0.000 C 
BRANCH  13  14
ATOM     14  C   UNL     1      23.172   7.794  10.018  1.00  0.00     0.000 C 
BRANCH  14  15
ATOM     15  C   UNL     1      22.026   8.548  10.712  1.00  0.00     0.000 C 
BRANCH  15  16
ATOM     16  C   UNL     1      21.189   7.638  11.626  1.00  0.00     0.000 C 
BRANCH  16  17
ATOM     17  C   UNL     1      19.673   7.799  11.407  1.00  0.00     0.000 C 
BRANCH  17  18
ATOM     18  C   UNL     1      18.907   6.485  11.164  1.00  0.00     0.000 C 
BRANCH  18  19
ATOM     19  C   UNL     1      19.389   5.666   9.952  1.00  0.00     0.000 C 
BRANCH  19  20
ATOM     20  C   UNL     1      19.040   6.305   8.588  1.00  0.00     0.006 C 
BRANCH  20  21
ATOM     21  C   UNL     1      20.217   7.039   7.928  1.00  0.00     0.053 C 
BRANCH  21  22
ATOM     22  C   UNL     1      19.767   8.234   7.146  1.00  0.00     0.041 C 
ATOM     23  O   UNL     1      18.544   8.529   7.088  1.00  0.00    -0.550 OA
ATOM     24  O   UNL     1      20.698   9.032   6.494  1.00  0.00    -0.550 OA
ENDBRANCH  21  22
ENDBRANCH  20  21
ENDBRANCH  19  20
ENDBRANCH  18  19
ENDBRANCH  17  18
ENDBRANCH  16  17
ENDBRANCH  15  16
ENDBRANCH  14  15
ENDBRANCH  13  14
ENDBRANCH   1  13
TORSDOF 20
ENDMDL
MODEL 6
REMARK VINA RESULT:    -4.076      1.554      5.164
REMARK INTER + INTRA:         -12.201
REMARK INTER:                  -9.555
REMARK INTRA:                  -2.646
REMARK UNBOUND:                -3.359
REMARK SMILES CCCCCCCCCCCCCCCCCCCCCC(=O)[O-]
REMARK SMILES IDX 12 1 11 2 10 3 9 4 8 5 7 6 6 7 5 8 4 9 3 10 2 11 1 12 13 13
REMARK SMILES IDX 14 14 15 15 16 16 17 17 18 18 19 19 20 20 21 21 22 22 23 23
REMARK SMILES IDX 24 24
REMARK H PARENT
REMARK Flexibility Score: inf
ROOT
ATOM      1  C   UNL     1      19.276   7.010   7.810  1.00  0.00     0.000 C 
ENDROOT
BRANCH   1   2
ATOM      2  C   UNL     1      19.875   6.150   8.944  1.00  0.00     0.000 C 
BRANCH   2   3
ATOM      3  C   UNL     1      18.915   6.020  10.141  1.00  0.00     0.000 C 
BRANCH   3   4
ATOM      4  C   UNL     1      19.300   6.939  11.311  1.00  0.00    -0.000 C 
BRANCH   4   5
ATOM      5  C   UNL     1      20.816   6.947  11.578  1.00  0.00    -0.000 C 
BRANCH   5   6
ATOM      6  C   UNL     1      21.302   8.273  12.187  1.00  0.00    -0.000 C 
BRANCH   6   7
ATOM      7  C   UNL     1      22.482   8.089  13.152  1.00  0.00    -0.000 C 
BRANCH   7   8
ATOM      8  C   UNL     1      23.343   6.884  12.743  1.00  0.00    -0.000 C 
BRANCH   8   9
ATOM      9  C   UNL     1      24.442   6.564  13.770  1.00  0.00    -0.000 C 
BRANCH   9  10
ATOM     10  C   UNL     1      25.043   5.162  13.569  1.00  0.00    -0.000 C 
BRANCH  10  11
ATOM     11  C   UNL     1      24.100   4.042  14.036  1.00  0.00    -0.003 C 
ATOM     12  C   UNL     1      24.626   2.644  13.704  1.00  0.00     0.004 C 
ENDBRANCH  10  11
ENDBRANCH   9  10
ENDBRANCH   8   9
ENDBRANCH   7   8
ENDBRANCH   6   7
ENDBRANCH   5   6
ENDBRANCH   4   5
ENDBRANCH   3   4
ENDBRANCH   2   3
ENDBRANCH   1   2
BRANCH   1  13
ATOM     13  C   UNL     1      20.124   8.242   7.458  1.00  0.00     0.000 C 
BRANCH  13  14
ATOM     14  C   UNL     1      20.860   8.831   8.674  1.00  0.00     0.000 C 
BRANCH  14  15
ATOM     15  C   UNL     1      22.282   9.303   8.332  1.00  0.00     0.000 C 
BRANCH  15  16
ATOM     16  C   UNL     1      23.154   9.503   9.583  1.00  0.00     0.000 C 
BRANCH  16  17
ATOM     17  C   UNL     1      24.300   8.479   9.686  1.00  0.00     0.000 C 
BRANCH  17  18
ATOM     18  C   UNL     1      25.422   8.855  10.671  1.00  0.00     0.000 C 
BRANCH  18  19
ATOM     19  C   UNL     1      25.300  10.260  11.291  1.00  0.00     0.000 C 
BRANCH  19  20
ATOM     20  C   UNL     1      26.032  10.410  12.645  1.00  0.00     0.006 C 
BRANCH  20  21
ATOM     21  C   UNL     1      25.088  10.561  13.846  1.00  0.00     0.053 C 
BRANCH  21  22
ATOM     22  C   UNL     1      24.783  11.996  14.145  1.00  0.00     0.041 C 
ATOM     23  O   UNL     1      24.051  12.298  15.125  1.00  0.00    -0.550 OA
ATOM     24  O   UNL     1      25.319  13.002  13.352  1.00  0.00    -0.550 OA
ENDBRANCH  21  22
ENDBRANCH  20  21
ENDBRANCH  19  20
ENDBRANCH  18  19
ENDBRANCH  17  18
ENDBRANCH  16  17
ENDBRANCH  15  16
ENDBRANCH  14  15
ENDBRANCH  13  14
ENDBRANCH   1  13
TORSDOF 20
ENDMDL
MODEL 7
REMARK VINA RESULT:    -3.975      2.536      7.006
REMARK INTER + INTRA:         -11.982
REMARK INTER:                  -8.881
REMARK INTRA:                  -3.102
REMARK UNBOUND:                -3.359
REMARK SMILES CCCCCCCCCCCCCCCCCCCCCC(=O)[O-]
REMARK SMILES IDX 12 1 11 2 10 3 9 4 8 5 7 6 6 7 5 8 4 9 3 10 2 11 1 12 13 13
REMARK SMILES IDX 14 14 15 15 16 16 17 17 18 18 19 19 20 20 21 21 22 22 23 23
REMARK SMILES IDX 24 24
REMARK H PARENT
REMARK Flexibility Score: inf
ROOT
ATOM      1  C   UNL     1      23.492   6.249  13.120  1.00  0.00     0.000 C 
ENDROOT
BRANCH   1   2
ATOM      2  C   UNL     1      24.829   6.453  13.865  1.00  0.00     0.000 C 
BRANCH   2   3
ATOM      3  C   UNL     1      26.044   6.181  12.959  1.00  0.00     0.000 C 
BRANCH   3   4
ATOM      4  C   UNL     1      25.748   5.135  11.871  1.00  0.00    -0.000 C 
BRANCH   4   5
ATOM      5  C   UNL     1      26.057   5.655  10.456  1.00  0.00    -0.000 C 
BRANCH   5   6
ATOM      6  C   UNL     1      24.945   6.565   9.906  1.00  0.00    -0.000 C 
BRANCH   6   7
ATOM      7  C   UNL     1      25.472   7.928   9.431  1.00  0.00    -0.000 C 
BRANCH   7   8
ATOM      8  C   UNL     1      25.767   8.848  10.626  1.00  0.00    -0.000 C 
BRANCH   8   9
ATOM      9  C   UNL     1      24.621   9.832  10.914  1.00  0.00    -0.000 C 
BRANCH   9  10
ATOM     10  C   UNL     1      24.962  10.816  12.048  1.00  0.00    -0.000 C 
BRANCH  10  11
ATOM     11  C   UNL     1      25.414  10.104  13.332  1.00  0.00    -0.003 C 
ATOM     12  C   UNL     1      24.441  10.300  14.496  1.00  0.00     0.004 C 
ENDBRANCH  10  11
ENDBRANCH   9  10
ENDBRANCH   8   9
ENDBRANCH   7   8
ENDBRANCH   6   7
ENDBRANCH   5   6
ENDBRANCH   4   5
ENDBRANCH   3   4
ENDBRANCH   2   3
ENDBRANCH   1   2
BRANCH   1  13
ATOM     13  C   UNL     1      22.727   7.555  12.856  1.00  0.00     0.000 C 
BRANCH  13  14
ATOM     14  C   UNL     1      21.780   7.460  11.648  1.00  0.00     0.000 C 
BRANCH  14  15
ATOM     15  C   UNL     1      20.556   8.380  11.783  1.00  0.00     0.000 C 
BRANCH  15  16
ATOM     16  C   UNL     1      19.308   7.808  11.090  1.00  0.00     0.000 C 
BRANCH  16  17
ATOM     17  C   UNL     1      19.295   6.269  11.052  1.00  0.00     0.000 C 
BRANCH  17  18
ATOM     18  C   UNL     1      19.600   5.650   9.675  1.00  0.00     0.000 C 
BRANCH  18  19
ATOM     19  C   UNL     1      18.592   6.001   8.565  1.00  0.00     0.000 C 
BRANCH  19  20
ATOM     20  C   UNL     1      19.217   6.764   7.374  1.00  0.00     0.006 C 
BRANCH  20  21
ATOM     21  C   UNL     1      19.233   8.289   7.555  1.00  0.00     0.053 C 
BRANCH  21  22
ATOM     22  C   UNL     1      20.608   8.859   7.391  1.00  0.00     0.041 C 
ATOM     23  O   UNL     1      20.979   9.310   6.275  1.00  0.00    -0.550 OA
ATOM     24  O   UNL     1      21.477   8.908   8.474  1.00  0.00    -0.550 OA
ENDBRANCH  21  22
ENDBRANCH  20  21
ENDBRANCH  19  20
ENDBRANCH  18  19
ENDBRANCH  17  18
ENDBRANCH  16  17
ENDBRANCH  15  16
ENDBRANCH  14  15
ENDBRANCH  13  14
ENDBRANCH   1  13
TORSDOF 20
ENDMDL
MODEL 8
REMARK VINA RESULT:    -3.960      2.869      6.970
REMARK INTER + INTRA:         -11.950
REMARK INTER:                  -9.015
REMARK INTRA:                  -2.935
REMARK UNBOUND:                -3.359
REMARK SMILES CCCCCCCCCCCCCCCCCCCCCC(=O)[O-]
REMARK SMILES IDX 12 1 11 2 10 3 9 4 8 5 7 6 6 7 5 8 4 9 3 10 2 11 1 12 13 13
REMARK SMILES IDX 14 14 15 15 16 16 17 17 18 18 19 19 20 20 21 21 22 22 23 23
REMARK SMILES IDX 24 24
REMARK H PARENT
REMARK Flexibility Score: inf
ROOT
ATOM      1  C   UNL     1      24.262   8.585   9.186  1.00  0.00     0.000 C 
ENDROOT
BRANCH   1   2
ATOM      2  C   UNL     1      24.620   7.298   9.960  1.00  0.00     0.000 C 
BRANCH   2   3
ATOM      3  C   UNL     1      25.989   7.403  10.656  1.00  0.00     0.000 C 
BRANCH   3   4
ATOM      4  C   UNL     1      25.936   6.976  12.132  1.00  0.00    -0.000 C 
BRANCH   4   5
ATOM      5  C   UNL     1      24.737   6.061  12.437  1.00  0.00    -0.000 C 
BRANCH   5   6
ATOM      6  C   UNL     1      23.829   6.627  13.542  1.00  0.00    -0.000 C 
BRANCH   6   7
ATOM      7  C   UNL     1      24.571   7.574  14.497  1.00  0.00    -0.000 C 
BRANCH   7   8
ATOM      8  C   UNL     1      23.926   8.969  14.498  1.00  0.00    -0.000 C 
BRANCH   8   9
ATOM      9  C   UNL     1      24.938  10.091  14.785  1.00  0.00    -0.000 C 
BRANCH   9  10
ATOM     10  C   UNL     1      25.932  10.296  13.627  1.00  0.00    -0.000 C 
BRANCH  10  11
ATOM     11  C   UNL     1      25.382  11.223  12.533  1.00  0.00    -0.003 C 
ATOM     12  C   UNL     1      25.426  12.701  12.927  1.00  0.00     0.004 C 
ENDBRANCH  10  11
ENDBRANCH   9  10
ENDBRANCH   8   9
ENDBRANCH   7   8
ENDBRANCH   6   7
ENDBRANCH   5   6
ENDBRANCH   4   5
ENDBRANCH   3   4
ENDBRANCH   2   3
ENDBRANCH   1   2
BRANCH   1  13
ATOM     13  C   UNL     1      23.464   9.602  10.016  1.00  0.00     0.000 C 
BRANCH  13  14
ATOM     14  C   UNL     1      21.998   9.184  10.225  1.00  0.00     0.000 C 
BRANCH  14  15
ATOM     15  C   UNL     1      21.700   8.786  11.679  1.00  0.00     0.000 C 
BRANCH  15  16
ATOM     16  C   UNL     1      20.928   7.460  11.782  1.00  0.00     0.000 C 
BRANCH  16  17
ATOM     17  C   UNL     1      19.454   7.589  11.354  1.00  0.00     0.000 C 
BRANCH  17  18
ATOM     18  C   UNL     1      18.746   6.255  11.049  1.00  0.00     0.000 C 
BRANCH  18  19
ATOM     19  C   UNL     1      19.288   5.496   9.825  1.00  0.00     0.000 C 
BRANCH  19  20
ATOM     20  C   UNL     1      19.024   6.211   8.479  1.00  0.00     0.006 C 
BRANCH  20  21
ATOM     21  C   UNL     1      20.252   6.940   7.914  1.00  0.00     0.053 C 
BRANCH  21  22
ATOM     22  C   UNL     1      19.870   8.148   7.115  1.00  0.00     0.041 C 
ATOM     23  O   UNL     1      18.657   8.403   6.893  1.00  0.00    -0.550 OA
ATOM     24  O   UNL     1      20.852   9.000   6.626  1.00  0.00    -0.550 OA
ENDBRANCH  21  22
ENDBRANCH  20  21
ENDBRANCH  19  20
ENDBRANCH  18  19
ENDBRANCH  17  18
ENDBRANCH  16  17
ENDBRANCH  15  16
ENDBRANCH  14  15
ENDBRANCH  13  14
ENDBRANCH   1  13
TORSDOF 20
ENDMDL
MODEL 9
REMARK VINA RESULT:    -3.896      1.064      4.561
REMARK INTER + INTRA:         -11.810
REMARK INTER:                  -8.539
REMARK INTRA:                  -3.271
REMARK UNBOUND:                -3.359
REMARK SMILES CCCCCCCCCCCCCCCCCCCCCC(=O)[O-]
REMARK SMILES IDX 12 1 11 2 10 3 9 4 8 5 7 6 6 7 5 8 4 9 3 10 2 11 1 12 13 13
REMARK SMILES IDX 14 14 15 15 16 16 17 17 18 18 19 19 20 20 21 21 22 22 23 23
REMARK SMILES IDX 24 24
REMARK H PARENT
REMARK Flexibility Score: inf
ROOT
ATOM      1  C   UNL     1      19.294   5.940  10.871  1.00  0.00     0.000 C 
ENDROOT
BRANCH   1   2
ATOM      2  C   UNL     1      19.016   5.769   9.362  1.00  0.00     0.000 C 
BRANCH   2   3
ATOM      3  C   UNL     1      20.103   6.429   8.495  1.00  0.00     0.000 C 
BRANCH   3   4
ATOM      4  C   UNL     1      19.577   7.638   7.704  1.00  0.00    -0.000 C 
BRANCH   4   5
ATOM      5  C   UNL     1      20.152   8.971   8.215  1.00  0.00    -0.000 C 
BRANCH   5   6
ATOM      6  C   UNL     1      21.672   9.078   8.004  1.00  0.00    -0.000 C 
BRANCH   6   7
ATOM      7  C   UNL     1      22.410   9.605   9.244  1.00  0.00    -0.000 C 
BRANCH   7   8
ATOM      8  C   UNL     1      23.686   8.792   9.510  1.00  0.00    -0.000 C 
BRANCH   8   9
ATOM      9  C   UNL     1      24.634   9.485  10.503  1.00  0.00    -0.000 C 
BRANCH   9  10
ATOM     10  C   UNL     1      25.879   8.636  10.817  1.00  0.00    -0.000 C 
BRANCH  10  11
ATOM     11  C   UNL     1      25.834   7.252  10.150  1.00  0.00    -0.003 C 
ATOM     12  C   UNL     1      25.776   6.106  11.161  1.00  0.00     0.004 C 
ENDBRANCH  10  11
ENDBRANCH   9  10
ENDBRANCH   8   9
ENDBRANCH   7   8
ENDBRANCH   6   7
ENDBRANCH   5   6
ENDBRANCH   4   5
ENDBRANCH   3   4
ENDBRANCH   2   3
ENDBRANCH   1   2
BRANCH   1  13
ATOM     13  C   UNL     1      19.199   7.396  11.354  1.00  0.00     0.000 C 
BRANCH  13  14
ATOM     14  C   UNL     1      20.564   7.987  11.747  1.00  0.00     0.000 C 
BRANCH  14  15
ATOM     15  C   UNL     1      21.680   6.930  11.771  1.00  0.00     0.000 C 
BRANCH  15  16
ATOM     16  C   UNL     1      22.749   7.226  12.836  1.00  0.00     0.000 C 
BRANCH  16  17
ATOM     17  C   UNL     1      22.775   8.704  13.267  1.00  0.00     0.000 C 
BRANCH  17  18
ATOM     18  C   UNL     1      23.607   9.000  14.529  1.00  0.00     0.000 C 
BRANCH  18  19
ATOM     19  C   UNL     1      25.116   9.187  14.283  1.00  0.00     0.000 C 
BRANCH  19  20
ATOM     20  C   UNL     1      25.637  10.597  14.647  1.00  0.00     0.006 C 
BRANCH  20  21
ATOM     21  C   UNL     1      24.648  11.726  14.323  1.00  0.00     0.053 C 
BRANCH  21  22
ATOM     22  C   UNL     1      25.204  12.689  13.320  1.00  0.00     0.041 C 
ATOM     23  O   UNL     1      25.078  13.931  13.496  1.00  0.00    -0.550 OA
ATOM     24  O   UNL     1      25.875  12.219  12.198  1.00  0.00    -0.550 OA
ENDBRANCH  21  22
ENDBRANCH  20  21
ENDBRANCH  19  20
ENDBRANCH  18  19
ENDBRANCH  17  18
ENDBRANCH  16  17
ENDBRANCH  15  16
ENDBRANCH  14  15
ENDBRANCH  13  14
ENDBRANCH   1  13
TORSDOF 20
ENDMDL
