MODEL 1
REMARK VINA RESULT:    -3.004      0.000      0.000
REMARK INTER + INTRA:          -7.632
REMARK INTER:                  -5.462
REMARK INTRA:                  -2.169
REMARK UNBOUND:                -2.169
REMARK SMILES CCCCCCCCCCCCCCCC(=O)[O-]
REMARK SMILES IDX 9 1 10 2 11 3 12 4 13 5 14 6 15 7 16 8 17 9 18 10 8 11 7 12
REMARK SMILES IDX 6 13 5 14 4 15 3 16 2 17 1 18
REMARK H PARENT
REMARK Flexibility Score: inf
ROOT
ATOM      1  C   UNL     1     167.743 170.318 154.080  1.00  0.00     0.000 C 
ENDROOT
BRANCH   1   2
ATOM      2  C   UNL     1     168.079 170.368 152.582  1.00  0.00     0.000 C 
BRANCH   2   3
ATOM      3  C   UNL     1     168.334 168.976 151.975  1.00  0.00     0.000 C 
BRANCH   3   4
ATOM      4  C   UNL     1     169.460 168.920 150.926  1.00  0.00     0.000 C 
BRANCH   4   5
ATOM      5  C   UNL     1     169.433 170.050 149.880  1.00  0.00     0.000 C 
BRANCH   5   6
ATOM      6  C   UNL     1     169.890 169.607 148.471  1.00  0.00     0.006 C 
BRANCH   6   7
ATOM      7  C   UNL     1     168.892 168.678 147.762  1.00  0.00     0.053 C 
BRANCH   7   8
ATOM      8  C   UNL     1     169.580 167.727 146.829  1.00  0.00     0.041 C 
ATOM      9  O   UNL     1     170.500 168.134 146.073  1.00  0.00    -0.550 OA
ATOM     10  O   UNL     1     169.188 166.394 146.780  1.00  0.00    -0.550 OA
ENDBRANCH   7   8
ENDBRANCH   6   7
ENDBRANCH   5   6
ENDBRANCH   4   5
ENDBRANCH   3   4
ENDBRANCH   2   3
ENDBRANCH   1   2
BRANCH   1  11
ATOM     11  C   UNL     1     166.429 171.052 154.373  1.00  0.00     0.000 C 
BRANCH  11  12
ATOM     12  C   UNL     1     165.301 170.545 153.465  1.00  0.00    -0.000 C 
BRANCH  12  13
ATOM     13  C   UNL     1     164.895 169.115 153.839  1.00  0.00    -0.000 C 
BRANCH  13  14
ATOM     14  C   UNL     1     164.317 168.373 152.627  1.00  0.00    -0.000 C 
BRANCH  14  15
ATOM     15  C   UNL     1     164.331 169.262 151.378  1.00  0.00    -0.000 C 
BRANCH  15  16
ATOM     16  C   UNL     1     165.157 168.618 150.255  1.00  0.00    -0.000 C 
BRANCH  16  17
ATOM     17  C   UNL     1     165.578 169.630 149.178  1.00  0.00    -0.003 C 
ATOM     18  C   UNL     1     165.775 171.040 149.736  1.00  0.00     0.004 C 
ENDBRANCH  16  17
ENDBRANCH  15  16
ENDBRANCH  14  15
ENDBRANCH  13  14
ENDBRANCH  12  13
ENDBRANCH  11  12
ENDBRANCH   1  11
TORSDOF 14
ENDMDL
MODEL 2
REMARK VINA RESULT:    -2.975      2.185      3.797
REMARK INTER + INTRA:          -7.579
REMARK INTER:                  -5.568
REMARK INTRA:                  -2.011
REMARK UNBOUND:                -2.169
REMARK SMILES CCCCCCCCCCCCCCCC(=O)[O-]
REMARK SMILES IDX 9 1 10 2 11 3 12 4 13 5 14 6 15 7 16 8 17 9 18 10 8 11 7 12
REMARK SMILES IDX 6 13 5 14 4 15 3 16 2 17 1 18
REMARK H PARENT
REMARK Flexibility Score: inf
ROOT
ATOM      1  C   UNL     1     164.240 169.981 153.552  1.00  0.00     0.000 C 
ENDROOT
BRANCH   1   2
ATOM      2  C   UNL     1     165.032 169.141 154.564  1.00  0.00     0.000 C 
BRANCH   2   3
ATOM      3  C   UNL     1     166.483 168.873 154.119  1.00  0.00     0.000 C 
BRANCH   3   4
ATOM      4  C   UNL     1     167.488 169.983 154.479  1.00  0.00     0.000 C 
BRANCH   4   5
ATOM      5  C   UNL     1     168.236 170.598 153.281  1.00  0.00     0.000 C 
BRANCH   5   6
ATOM      6  C   UNL     1     168.289 169.678 152.040  1.00  0.00     0.006 C 
BRANCH   6   7
ATOM      7  C   UNL     1     168.802 170.378 150.772  1.00  0.00     0.053 C 
BRANCH   7   8
ATOM      8  C   UNL     1     170.162 169.889 150.374  1.00  0.00     0.041 C 
ATOM      9  O   UNL     1     170.978 170.669 149.816  1.00  0.00    -0.550 OA
ATOM     10  O   UNL     1     170.520 168.565 150.601  1.00  0.00    -0.550 OA
ENDBRANCH   7   8
ENDBRANCH   6   7
ENDBRANCH   5   6
ENDBRANCH   4   5
ENDBRANCH   3   4
ENDBRANCH   2   3
ENDBRANCH   1   2
BRANCH   1  11
ATOM     11  C   UNL     1     164.522 169.522 152.116  1.00  0.00     0.000 C 
BRANCH  11  12
ATOM     12  C   UNL     1     164.616 170.721 151.164  1.00  0.00    -0.000 C 
BRANCH  12  13
ATOM     13  C   UNL     1     165.076 170.280 149.769  1.00  0.00    -0.000 C 
BRANCH  13  14
ATOM     14  C   UNL     1     165.492 168.803 149.769  1.00  0.00    -0.000 C 
BRANCH  14  15
ATOM     15  C   UNL     1     165.231 168.158 148.404  1.00  0.00    -0.000 C 
BRANCH  15  16
ATOM     16  C   UNL     1     164.187 167.036 148.517  1.00  0.00    -0.000 C 
BRANCH  16  17
ATOM     17  C   UNL     1     163.918 166.625 149.972  1.00  0.00    -0.003 C 
ATOM     18  C   UNL     1     162.427 166.477 150.279  1.00  0.00     0.004 C 
ENDBRANCH  16  17
ENDBRANCH  15  16
ENDBRANCH  14  15
ENDBRANCH  13  14
ENDBRANCH  12  13
ENDBRANCH  11  12
ENDBRANCH   1  11
TORSDOF 14
ENDMDL
MODEL 3
REMARK VINA RESULT:    -2.928     15.182     16.684
REMARK INTER + INTRA:          -7.495
REMARK INTER:                  -5.074
REMARK INTRA:                  -2.420
REMARK UNBOUND:                -2.169
REMARK SMILES CCCCCCCCCCCCCCCC(=O)[O-]
REMARK SMILES IDX 9 1 10 2 11 3 12 4 13 5 14 6 15 7 16 8 17 9 18 10 8 11 7 12
REMARK SMILES IDX 6 13 5 14 4 15 3 16 2 17 1 18
REMARK H PARENT
REMARK Flexibility Score: inf
ROOT
ATOM      1  C   UNL     1     170.625 152.195 154.526  1.00  0.00     0.000 C 
ENDROOT
BRANCH   1   2
ATOM      2  C   UNL     1     171.168 151.397 155.721  1.00  0.00     0.000 C 
BRANCH   2   3
ATOM      3  C   UNL     1     172.065 152.238 156.648  1.00  0.00     0.000 C 
BRANCH   3   4
ATOM      4  C   UNL     1     171.898 153.762 156.509  1.00  0.00     0.000 C 
BRANCH   4   5
ATOM      5  C   UNL     1     173.125 154.504 155.946  1.00  0.00     0.000 C 
BRANCH   5   6
ATOM      6  C   UNL     1     172.778 155.548 154.860  1.00  0.00     0.006 C 
BRANCH   6   7
ATOM      7  C   UNL     1     171.287 155.920 154.813  1.00  0.00     0.053 C 
BRANCH   7   8
ATOM      8  C   UNL     1     171.054 157.347 155.209  1.00  0.00     0.041 C 
ATOM      9  O   UNL     1     170.171 158.029 154.626  1.00  0.00    -0.550 OA
ATOM     10  O   UNL     1     171.826 157.928 156.207  1.00  0.00    -0.550 OA
ENDBRANCH   7   8
ENDBRANCH   6   7
ENDBRANCH   5   6
ENDBRANCH   4   5
ENDBRANCH   3   4
ENDBRANCH   2   3
ENDBRANCH   1   2
BRANCH   1  11
ATOM     11  C   UNL     1     171.239 151.700 153.211  1.00  0.00     0.000 C 
BRANCH  11  12
ATOM     12  C   UNL     1     172.561 152.421 152.915  1.00  0.00    -0.000 C 
BRANCH  12  13
ATOM     13  C   UNL     1     172.607 152.908 151.462  1.00  0.00    -0.000 C 
BRANCH  13  14
ATOM     14  C   UNL     1     172.288 154.406 151.374  1.00  0.00    -0.000 C 
BRANCH  14  15
ATOM     15  C   UNL     1     170.973 154.647 150.624  1.00  0.00    -0.000 C 
BRANCH  15  16
ATOM     16  C   UNL     1     169.826 154.937 151.604  1.00  0.00    -0.000 C 
BRANCH  16  17
ATOM     17  C   UNL     1     168.534 154.192 151.236  1.00  0.00    -0.003 C 
ATOM     18  C   UNL     1     168.797 152.805 150.649  1.00  0.00     0.004 C 
ENDBRANCH  16  17
ENDBRANCH  15  16
ENDBRANCH  14  15
ENDBRANCH  13  14
ENDBRANCH  12  13
ENDBRANCH  11  12
ENDBRANCH   1  11
TORSDOF 14
ENDMDL
MODEL 4
REMARK VINA RESULT:    -2.925      1.964      4.651
REMARK INTER + INTRA:          -7.489
REMARK INTER:                  -5.680
REMARK INTRA:                  -1.809
REMARK UNBOUND:                -2.169
REMARK SMILES CCCCCCCCCCCCCCCC(=O)[O-]
REMARK SMILES IDX 9 1 10 2 11 3 12 4 13 5 14 6 15 7 16 8 17 9 18 10 8 11 7 12
REMARK SMILES IDX 6 13 5 14 4 15 3 16 2 17 1 18
REMARK H PARENT
REMARK Flexibility Score: inf
ROOT
ATOM      1  C   UNL     1     166.290 169.930 151.580  1.00  0.00     0.000 C 
ENDROOT
BRANCH   1   2
ATOM      2  C   UNL     1     165.877 170.788 150.375  1.00  0.00     0.000 C 
BRANCH   2   3
ATOM      3  C   UNL     1     165.261 169.962 149.231  1.00  0.00     0.000 C 
BRANCH   3   4
ATOM      4  C   UNL     1     166.200 168.913 148.607  1.00  0.00     0.000 C 
BRANCH   4   5
ATOM      5  C   UNL     1     167.563 169.456 148.138  1.00  0.00     0.000 C 
BRANCH   5   6
ATOM      6  C   UNL     1     168.419 168.417 147.377  1.00  0.00     0.006 C 
BRANCH   6   7
ATOM      7  C   UNL     1     168.426 168.617 145.853  1.00  0.00     0.053 C 
BRANCH   7   8
ATOM      8  C   UNL     1     167.698 167.516 145.142  1.00  0.00     0.041 C 
ATOM      9  O   UNL     1     166.576 167.126 145.558  1.00  0.00    -0.550 OA
ATOM     10  O   UNL     1     168.270 166.908 144.031  1.00  0.00    -0.550 OA
ENDBRANCH   7   8
ENDBRANCH   6   7
ENDBRANCH   5   6
ENDBRANCH   4   5
ENDBRANCH   3   4
ENDBRANCH   2   3
ENDBRANCH   1   2
BRANCH   1  11
ATOM     11  C   UNL     1     167.330 170.657 152.441  1.00  0.00     0.000 C 
BRANCH  11  12
ATOM     12  C   UNL     1     168.745 170.451 151.885  1.00  0.00    -0.000 C 
BRANCH  12  13
ATOM     13  C   UNL     1     168.989 168.978 151.537  1.00  0.00    -0.000 C 
BRANCH  13  14
ATOM     14  C   UNL     1     170.171 168.830 150.570  1.00  0.00    -0.000 C 
BRANCH  14  15
ATOM     15  C   UNL     1     170.645 170.198 150.066  1.00  0.00    -0.000 C 
BRANCH  15  16
ATOM     16  C   UNL     1     171.879 170.053 149.163  1.00  0.00    -0.000 C 
BRANCH  16  17
ATOM     17  C   UNL     1     172.873 169.004 149.685  1.00  0.00    -0.003 C 
ATOM     18  C   UNL     1     173.125 167.877 148.683  1.00  0.00     0.004 C 
ENDBRANCH  16  17
ENDBRANCH  15  16
ENDBRANCH  14  15
ENDBRANCH  13  14
ENDBRANCH  12  13
ENDBRANCH  11  12
ENDBRANCH   1  11
TORSDOF 14
ENDMDL
MODEL 5
REMARK VINA RESULT:    -2.922     14.694     15.829
REMARK INTER + INTRA:          -7.482
REMARK INTER:                  -5.277
REMARK INTRA:                  -2.205
REMARK UNBOUND:                -2.169
REMARK SMILES CCCCCCCCCCCCCCCC(=O)[O-]
REMARK SMILES IDX 9 1 10 2 11 3 12 4 13 5 14 6 15 7 16 8 17 9 18 10 8 11 7 12
REMARK SMILES IDX 6 13 5 14 4 15 3 16 2 17 1 18
REMARK H PARENT
REMARK Flexibility Score: inf
ROOT
ATOM      1  C   UNL     1     171.743 155.108 155.501  1.00  0.00     0.000 C 
ENDROOT
BRANCH   1   2
ATOM      2  C   UNL     1     172.635 155.838 154.486  1.00  0.00     0.000 C 
BRANCH   2   3
ATOM      3  C   UNL     1     172.734 155.103 153.136  1.00  0.00     0.000 C 
BRANCH   3   4
ATOM      4  C   UNL     1     172.077 155.833 151.949  1.00  0.00     0.000 C 
BRANCH   4   5
ATOM      5  C   UNL     1     171.600 157.267 152.248  1.00  0.00     0.000 C 
BRANCH   5   6
ATOM      6  C   UNL     1     170.070 157.451 152.132  1.00  0.00     0.006 C 
BRANCH   6   7
ATOM      7  C   UNL     1     169.315 157.207 153.449  1.00  0.00     0.053 C 
BRANCH   7   8
ATOM      8  C   UNL     1     169.386 158.393 154.363  1.00  0.00     0.041 C 
ATOM      9  O   UNL     1     168.702 159.421 154.121  1.00  0.00    -0.550 OA
ATOM     10  O   UNL     1     170.225 158.369 155.471  1.00  0.00    -0.550 OA
ENDBRANCH   7   8
ENDBRANCH   6   7
ENDBRANCH   5   6
ENDBRANCH   4   5
ENDBRANCH   3   4
ENDBRANCH   2   3
ENDBRANCH   1   2
BRANCH   1  11
ATOM     11  C   UNL     1     172.560 154.118 156.339  1.00  0.00     0.000 C 
BRANCH  11  12
ATOM     12  C   UNL     1     171.676 152.979 156.863  1.00  0.00    -0.000 C 
BRANCH  12  13
ATOM     13  C   UNL     1     172.136 151.626 156.308  1.00  0.00    -0.000 C 
BRANCH  13  14
ATOM     14  C   UNL     1     170.983 150.899 155.604  1.00  0.00    -0.000 C 
BRANCH  14  15
ATOM     15  C   UNL     1     170.752 151.464 154.198  1.00  0.00    -0.000 C 
BRANCH  15  16
ATOM     16  C   UNL     1     169.293 151.910 154.019  1.00  0.00    -0.000 C 
BRANCH  16  17
ATOM     17  C   UNL     1     169.170 153.399 153.661  1.00  0.00    -0.003 C 
ATOM     18  C   UNL     1     169.231 153.652 152.154  1.00  0.00     0.004 C 
ENDBRANCH  16  17
ENDBRANCH  15  16
ENDBRANCH  14  15
ENDBRANCH  13  14
ENDBRANCH  12  13
ENDBRANCH  11  12
ENDBRANCH   1  11
TORSDOF 14
ENDMDL
MODEL 6
REMARK VINA RESULT:    -2.920      1.882      2.299
REMARK INTER + INTRA:          -7.480
REMARK INTER:                  -5.623
REMARK INTRA:                  -1.857
REMARK UNBOUND:                -2.169
REMARK SMILES CCCCCCCCCCCCCCCC(=O)[O-]
REMARK SMILES IDX 9 1 10 2 11 3 12 4 13 5 14 6 15 7 16 8 17 9 18 10 8 11 7 12
REMARK SMILES IDX 6 13 5 14 4 15 3 16 2 17 1 18
REMARK H PARENT
REMARK Flexibility Score: inf
ROOT
ATOM      1  C   UNL     1     166.991 169.097 153.777  1.00  0.00     0.000 C 
ENDROOT
BRANCH   1   2
ATOM      2  C   UNL     1     167.931 169.230 152.570  1.00  0.00     0.000 C 
BRANCH   2   3
ATOM      3  C   UNL     1     168.397 170.678 152.327  1.00  0.00     0.000 C 
BRANCH   3   4
ATOM      4  C   UNL     1     169.374 170.858 151.150  1.00  0.00     0.000 C 
BRANCH   4   5
ATOM      5  C   UNL     1     168.886 170.288 149.805  1.00  0.00     0.000 C 
BRANCH   5   6
ATOM      6  C   UNL     1     169.728 169.099 149.289  1.00  0.00     0.006 C 
BRANCH   6   7
ATOM      7  C   UNL     1     171.019 168.862 150.090  1.00  0.00     0.053 C 
BRANCH   7   8
ATOM      8  C   UNL     1     172.236 168.905 149.216  1.00  0.00     0.041 C 
ATOM      9  O   UNL     1     173.125 168.022 149.324  1.00  0.00    -0.550 OA
ATOM     10  O   UNL     1     172.396 169.935 148.296  1.00  0.00    -0.550 OA
ENDBRANCH   7   8
ENDBRANCH   6   7
ENDBRANCH   5   6
ENDBRANCH   4   5
ENDBRANCH   3   4
ENDBRANCH   2   3
ENDBRANCH   1   2
BRANCH   1  11
ATOM     11  C   UNL     1     166.287 170.426 154.074  1.00  0.00     0.000 C 
BRANCH  11  12
ATOM     12  C   UNL     1     164.868 170.190 154.608  1.00  0.00    -0.000 C 
BRANCH  12  13
ATOM     13  C   UNL     1     164.202 169.007 153.895  1.00  0.00    -0.000 C 
BRANCH  13  14
ATOM     14  C   UNL     1     163.470 169.469 152.629  1.00  0.00    -0.000 C 
BRANCH  14  15
ATOM     15  C   UNL     1     164.136 168.903 151.370  1.00  0.00    -0.000 C 
BRANCH  15  16
ATOM     16  C   UNL     1     164.925 169.993 150.628  1.00  0.00    -0.000 C 
BRANCH  16  17
ATOM     17  C   UNL     1     165.327 169.567 149.208  1.00  0.00    -0.003 C 
ATOM     18  C   UNL     1     164.896 168.139 148.873  1.00  0.00     0.004 C 
ENDBRANCH  16  17
ENDBRANCH  15  16
ENDBRANCH  14  15
ENDBRANCH  13  14
ENDBRANCH  12  13
ENDBRANCH  11  12
ENDBRANCH   1  11
TORSDOF 14
ENDMDL
MODEL 7
REMARK VINA RESULT:    -2.916      5.092      9.122
REMARK INTER + INTRA:          -7.472
REMARK INTER:                  -4.747
REMARK INTRA:                  -2.725
REMARK UNBOUND:                -2.169
REMARK SMILES CCCCCCCCCCCCCCCC(=O)[O-]
REMARK SMILES IDX 9 1 10 2 11 3 12 4 13 5 14 6 15 7 16 8 17 9 18 10 8 11 7 12
REMARK SMILES IDX 6 13 5 14 4 15 3 16 2 17 1 18
REMARK H PARENT
REMARK Flexibility Score: inf
ROOT
ATOM      1  C   UNL     1     172.277 167.547 142.772  1.00  0.00     0.000 C 
ENDROOT
BRANCH   1   2
ATOM      2  C   UNL     1     171.033 167.451 141.877  1.00  0.00     0.000 C 
BRANCH   2   3
ATOM      3  C   UNL     1     169.714 167.549 142.666  1.00  0.00     0.000 C 
BRANCH   3   4
ATOM      4  C   UNL     1     169.366 166.307 143.509  1.00  0.00     0.000 C 
BRANCH   4   5
ATOM      5  C   UNL     1     169.124 166.582 145.005  1.00  0.00     0.000 C 
BRANCH   5   6
ATOM      6  C   UNL     1     169.040 168.085 145.357  1.00  0.00     0.006 C 
BRANCH   6   7
ATOM      7  C   UNL     1     168.602 168.358 146.805  1.00  0.00     0.053 C 
BRANCH   7   8
ATOM      8  C   UNL     1     169.273 169.572 147.373  1.00  0.00     0.041 C 
ATOM      9  O   UNL     1     170.527 169.670 147.354  1.00  0.00    -0.550 OA
ATOM     10  O   UNL     1     168.511 170.586 147.942  1.00  0.00    -0.550 OA
ENDBRANCH   7   8
ENDBRANCH   6   7
ENDBRANCH   5   6
ENDBRANCH   4   5
ENDBRANCH   3   4
ENDBRANCH   2   3
ENDBRANCH   1   2
BRANCH   1  11
ATOM     11  C   UNL     1     172.385 168.935 143.414  1.00  0.00     0.000 C 
BRANCH  11  12
ATOM     12  C   UNL     1     172.705 168.825 144.911  1.00  0.00    -0.000 C 
BRANCH  12  13
ATOM     13  C   UNL     1     173.124 167.398 145.280  1.00  0.00    -0.000 C 
BRANCH  13  14
ATOM     14  C   UNL     1     172.411 166.927 146.554  1.00  0.00    -0.000 C 
BRANCH  14  15
ATOM     15  C   UNL     1     172.274 165.400 146.576  1.00  0.00    -0.000 C 
BRANCH  15  16
ATOM     16  C   UNL     1     173.035 164.763 145.403  1.00  0.00    -0.000 C 
BRANCH  16  17
ATOM     17  C   UNL     1     172.118 163.945 144.480  1.00  0.00    -0.003 C 
ATOM     18  C   UNL     1     172.608 163.919 143.032  1.00  0.00     0.004 C 
ENDBRANCH  16  17
ENDBRANCH  15  16
ENDBRANCH  14  15
ENDBRANCH  13  14
ENDBRANCH  12  13
ENDBRANCH  11  12
ENDBRANCH   1  11
TORSDOF 14
ENDMDL
MODEL 8
REMARK VINA RESULT:    -2.873      1.618      3.937
REMARK INTER + INTRA:          -7.395
REMARK INTER:                  -5.422
REMARK INTRA:                  -1.972
REMARK UNBOUND:                -2.169
REMARK SMILES CCCCCCCCCCCCCCCC(=O)[O-]
REMARK SMILES IDX 9 1 10 2 11 3 12 4 13 5 14 6 15 7 16 8 17 9 18 10 8 11 7 12
REMARK SMILES IDX 6 13 5 14 4 15 3 16 2 17 1 18
REMARK H PARENT
REMARK Flexibility Score: inf
ROOT
ATOM      1  C   UNL     1     164.747 170.207 153.426  1.00  0.00     0.000 C 
ENDROOT
BRANCH   1   2
ATOM      2  C   UNL     1     164.379 169.741 152.010  1.00  0.00     0.000 C 
BRANCH   2   3
ATOM      3  C   UNL     1     164.627 170.819 150.938  1.00  0.00     0.000 C 
BRANCH   3   4
ATOM      4  C   UNL     1     165.128 170.286 149.583  1.00  0.00     0.000 C 
BRANCH   4   5
ATOM      5  C   UNL     1     165.437 168.777 149.550  1.00  0.00     0.000 C 
BRANCH   5   6
ATOM      6  C   UNL     1     165.341 168.152 148.139  1.00  0.00     0.006 C 
BRANCH   6   7
ATOM      7  C   UNL     1     166.707 167.871 147.494  1.00  0.00     0.053 C 
BRANCH   7   8
ATOM      8  C   UNL     1     166.618 166.816 146.432  1.00  0.00     0.041 C 
ATOM      9  O   UNL     1     165.920 167.011 145.403  1.00  0.00    -0.550 OA
ATOM     10  O   UNL     1     167.290 165.610 146.590  1.00  0.00    -0.550 OA
ENDBRANCH   7   8
ENDBRANCH   6   7
ENDBRANCH   5   6
ENDBRANCH   4   5
ENDBRANCH   3   4
ENDBRANCH   2   3
ENDBRANCH   1   2
BRANCH   1  11
ATOM     11  C   UNL     1     166.112 170.903 153.438  1.00  0.00     0.000 C 
BRANCH  11  12
ATOM     12  C   UNL     1     167.253 169.879 153.379  1.00  0.00    -0.000 C 
BRANCH  12  13
ATOM     13  C   UNL     1     168.309 170.292 152.346  1.00  0.00    -0.000 C 
BRANCH  13  14
ATOM     14  C   UNL     1     168.602 169.144 151.371  1.00  0.00    -0.000 C 
BRANCH  14  15
ATOM     15  C   UNL     1     169.526 169.607 150.238  1.00  0.00    -0.000 C 
BRANCH  15  16
ATOM     16  C   UNL     1     168.772 170.507 149.247  1.00  0.00    -0.000 C 
BRANCH  16  17
ATOM     17  C   UNL     1     169.397 170.493 147.844  1.00  0.00    -0.003 C 
ATOM     18  C   UNL     1     170.181 169.212 147.558  1.00  0.00     0.004 C 
ENDBRANCH  16  17
ENDBRANCH  15  16
ENDBRANCH  14  15
ENDBRANCH  13  14
ENDBRANCH  12  13
ENDBRANCH  11  12
ENDBRANCH   1  11
TORSDOF 14
ENDMDL
MODEL 9
REMARK VINA RESULT:    -2.840      1.873      2.951
REMARK INTER + INTRA:          -7.333
REMARK INTER:                  -5.599
REMARK INTRA:                  -1.734
REMARK UNBOUND:                -2.169
REMARK SMILES CCCCCCCCCCCCCCCC(=O)[O-]
REMARK SMILES IDX 9 1 10 2 11 3 12 4 13 5 14 6 15 7 16 8 17 9 18 10 8 11 7 12
REMARK SMILES IDX 6 13 5 14 4 15 3 16 2 17 1 18
REMARK H PARENT
REMARK Flexibility Score: inf
ROOT
ATOM      1  C   UNL     1     168.102 169.465 152.267  1.00  0.00     0.000 C 
ENDROOT
BRANCH   1   2
ATOM      2  C   UNL     1     169.130 169.242 151.147  1.00  0.00     0.000 C 
BRANCH   2   3
ATOM      3  C   UNL     1     169.300 170.470 150.233  1.00  0.00     0.000 C 
BRANCH   3   4
ATOM      4  C   UNL     1     170.691 170.613 149.588  1.00  0.00     0.000 C 
BRANCH   4   5
ATOM      5  C   UNL     1     171.641 169.423 149.818  1.00  0.00     0.000 C 
BRANCH   5   6
ATOM      6  C   UNL     1     172.964 169.519 149.024  1.00  0.00     0.006 C 
BRANCH   6   7
ATOM      7  C   UNL     1     173.036 168.563 147.823  1.00  0.00     0.053 C 
BRANCH   7   8
ATOM      8  C   UNL     1     172.429 169.164 146.591  1.00  0.00     0.041 C 
ATOM      9  O   UNL     1     171.557 168.531 145.941  1.00  0.00    -0.550 OA
ATOM     10  O   UNL     1     172.842 170.416 146.151  1.00  0.00    -0.550 OA
ENDBRANCH   7   8
ENDBRANCH   6   7
ENDBRANCH   5   6
ENDBRANCH   4   5
ENDBRANCH   3   4
ENDBRANCH   2   3
ENDBRANCH   1   2
BRANCH   1  11
ATOM     11  C   UNL     1     167.328 170.770 152.049  1.00  0.00     0.000 C 
BRANCH  11  12
ATOM     12  C   UNL     1     165.885 170.645 152.556  1.00  0.00    -0.000 C 
BRANCH  12  13
ATOM     13  C   UNL     1     164.887 171.114 151.491  1.00  0.00    -0.000 C 
BRANCH  13  14
ATOM     14  C   UNL     1     165.532 171.125 150.099  1.00  0.00    -0.000 C 
BRANCH  14  15
ATOM     15  C   UNL     1     164.994 169.979 149.233  1.00  0.00    -0.000 C 
BRANCH  15  16
ATOM     16  C   UNL     1     165.871 168.727 149.372  1.00  0.00    -0.000 C 
BRANCH  16  17
ATOM     17  C   UNL     1     165.269 167.687 150.329  1.00  0.00    -0.003 C 
ATOM     18  C   UNL     1     163.828 167.319 149.973  1.00  0.00     0.004 C 
ENDBRANCH  16  17
ENDBRANCH  15  16
ENDBRANCH  14  15
ENDBRANCH  13  14
ENDBRANCH  12  13
ENDBRANCH  11  12
ENDBRANCH   1  11
TORSDOF 14
ENDMDL
