MODEL 1
REMARK VINA RESULT:    -4.653      0.000      0.000
REMARK INTER + INTRA:          -8.403
REMARK INTER:                  -7.374
REMARK INTRA:                  -1.029
REMARK UNBOUND:                -1.029
REMARK SMILES CCCCCCCCCCCC(=O)[O-]
REMARK SMILES IDX 7 1 8 2 9 3 10 4 11 5 12 6 13 7 14 8 6 9 5 10 4 11 3 12 2 13
REMARK SMILES IDX 1 14
REMARK H PARENT
REMARK Flexibility Score: inf
ROOT
ATOM      1  C   UNL     1       7.730   3.905  18.019  1.00  0.00     0.000 C 
ENDROOT
BRANCH   1   2
ATOM      2  C   UNL     1       8.228   2.924  19.096  1.00  0.00     0.000 C 
BRANCH   2   3
ATOM      3  C   UNL     1       7.492   3.003  20.447  1.00  0.00     0.000 C 
BRANCH   3   4
ATOM      4  C   UNL     1       8.365   3.579  21.574  1.00  0.00     0.006 C 
BRANCH   4   5
ATOM      5  C   UNL     1       8.411   5.113  21.546  1.00  0.00     0.053 C 
BRANCH   5   6
ATOM      6  C   UNL     1       7.136   5.718  22.050  1.00  0.00     0.041 C 
ATOM      7  O   UNL     1       6.599   6.672  21.426  1.00  0.00    -0.550 OA
ATOM      8  O   UNL     1       6.557   5.250  23.221  1.00  0.00    -0.550 OA
ENDBRANCH   5   6
ENDBRANCH   4   5
ENDBRANCH   3   4
ENDBRANCH   2   3
ENDBRANCH   1   2
BRANCH   1   9
ATOM      9  C   UNL     1       6.332   4.470  18.323  1.00  0.00     0.000 C 
BRANCH   9  10
ATOM     10  C   UNL     1       6.220   5.972  18.012  1.00  0.00    -0.000 C 
BRANCH  10  11
ATOM     11  C   UNL     1       7.582   6.689  18.033  1.00  0.00    -0.000 C 
BRANCH  11  12
ATOM     12  C   UNL     1       7.942   7.293  16.659  1.00  0.00    -0.000 C 
BRANCH  12  13
ATOM     13  C   UNL     1       8.379   6.245  15.621  1.00  0.00    -0.003 C 
ATOM     14  C   UNL     1       9.534   6.719  14.742  1.00  0.00     0.004 C 
ENDBRANCH  12  13
ENDBRANCH  11  12
ENDBRANCH  10  11
ENDBRANCH   9  10
ENDBRANCH   1   9
TORSDOF 10
ENDMDL
MODEL 2
REMARK VINA RESULT:    -4.418      1.247      2.609
REMARK INTER + INTRA:          -8.031
REMARK INTER:                  -7.506
REMARK INTRA:                  -0.525
REMARK UNBOUND:                -1.029
REMARK SMILES CCCCCCCCCCCC(=O)[O-]
REMARK SMILES IDX 7 1 8 2 9 3 10 4 11 5 12 6 13 7 14 8 6 9 5 10 4 11 3 12 2 13
REMARK SMILES IDX 1 14
REMARK H PARENT
REMARK Flexibility Score: inf
ROOT
ATOM      1  C   UNL     1       6.979   6.281  17.550  1.00  0.00     0.000 C 
ENDROOT
BRANCH   1   2
ATOM      2  C   UNL     1       7.546   5.842  18.912  1.00  0.00     0.000 C 
BRANCH   2   3
ATOM      3  C   UNL     1       7.202   4.401  19.333  1.00  0.00     0.000 C 
BRANCH   3   4
ATOM      4  C   UNL     1       8.158   3.843  20.400  1.00  0.00     0.006 C 
BRANCH   4   5
ATOM      5  C   UNL     1       8.554   4.904  21.436  1.00  0.00     0.053 C 
BRANCH   5   6
ATOM      6  C   UNL     1       7.494   5.089  22.478  1.00  0.00     0.041 C 
ATOM      7  O   UNL     1       7.445   4.319  23.474  1.00  0.00    -0.550 OA
ATOM      8  O   UNL     1       6.544   6.092  22.338  1.00  0.00    -0.550 OA
ENDBRANCH   5   6
ENDBRANCH   4   5
ENDBRANCH   3   4
ENDBRANCH   2   3
ENDBRANCH   1   2
BRANCH   1   9
ATOM      9  C   UNL     1       7.722   7.488  16.951  1.00  0.00     0.000 C 
BRANCH   9  10
ATOM     10  C   UNL     1       8.839   7.072  15.979  1.00  0.00    -0.000 C 
BRANCH  10  11
ATOM     11  C   UNL     1       8.445   5.877  15.093  1.00  0.00    -0.000 C 
BRANCH  11  12
ATOM     12  C   UNL     1       8.955   6.034  13.645  1.00  0.00    -0.000 C 
BRANCH  12  13
ATOM     13  C   UNL     1      10.435   6.440  13.554  1.00  0.00    -0.003 C 
ATOM     14  C   UNL     1      10.695   7.524  12.510  1.00  0.00     0.004 C 
ENDBRANCH  12  13
ENDBRANCH  11  12
ENDBRANCH  10  11
ENDBRANCH   9  10
ENDBRANCH   1   9
TORSDOF 10
ENDMDL
MODEL 3
REMARK VINA RESULT:    -4.385      2.320      4.213
REMARK INTER + INTRA:          -7.977
REMARK INTER:                  -6.949
REMARK INTRA:                  -1.028
REMARK UNBOUND:                -1.029
REMARK SMILES CCCCCCCCCCCC(=O)[O-]
REMARK SMILES IDX 7 1 8 2 9 3 10 4 11 5 12 6 13 7 14 8 6 9 5 10 4 11 3 12 2 13
REMARK SMILES IDX 1 14
REMARK H PARENT
REMARK Flexibility Score: inf
ROOT
ATOM      1  C   UNL     1       6.759   3.164  17.070  1.00  0.00     0.000 C 
ENDROOT
BRANCH   1   2
ATOM      2  C   UNL     1       6.817   4.101  18.290  1.00  0.00     0.000 C 
BRANCH   2   3
ATOM      3  C   UNL     1       7.162   3.417  19.626  1.00  0.00     0.000 C 
BRANCH   3   4
ATOM      4  C   UNL     1       8.467   3.941  20.249  1.00  0.00     0.006 C 
BRANCH   4   5
ATOM      5  C   UNL     1       8.318   4.231  21.749  1.00  0.00     0.053 C 
BRANCH   5   6
ATOM      6  C   UNL     1       7.351   5.345  22.009  1.00  0.00     0.041 C 
ATOM      7  O   UNL     1       7.327   6.351  21.252  1.00  0.00    -0.550 OA
ATOM      8  O   UNL     1       6.495   5.285  23.102  1.00  0.00    -0.550 OA
ENDBRANCH   5   6
ENDBRANCH   4   5
ENDBRANCH   3   4
ENDBRANCH   2   3
ENDBRANCH   1   2
BRANCH   1   9
ATOM      9  C   UNL     1       5.404   2.448  16.926  1.00  0.00     0.000 C 
BRANCH   9  10
ATOM     10  C   UNL     1       5.433   1.012  17.473  1.00  0.00    -0.000 C 
BRANCH  10  11
ATOM     11  C   UNL     1       6.721   0.257  17.102  1.00  0.00    -0.000 C 
BRANCH  11  12
ATOM     12  C   UNL     1       7.330  -0.484  18.312  1.00  0.00    -0.000 C 
BRANCH  12  13
ATOM     13  C   UNL     1       8.865  -0.556  18.281  1.00  0.00    -0.003 C 
ATOM     14  C   UNL     1       9.513   0.708  17.720  1.00  0.00     0.004 C 
ENDBRANCH  12  13
ENDBRANCH  11  12
ENDBRANCH  10  11
ENDBRANCH   9  10
ENDBRANCH   1   9
TORSDOF 10
ENDMDL
MODEL 4
REMARK VINA RESULT:    -4.307     12.558     14.152
REMARK INTER + INTRA:          -7.855
REMARK INTER:                  -6.483
REMARK INTRA:                  -1.371
REMARK UNBOUND:                -1.029
REMARK SMILES CCCCCCCCCCCC(=O)[O-]
REMARK SMILES IDX 7 1 8 2 9 3 10 4 11 5 12 6 13 7 14 8 6 9 5 10 4 11 3 12 2 13
REMARK SMILES IDX 1 14
REMARK H PARENT
REMARK Flexibility Score: inf
ROOT
ATOM      1  C   UNL     1      21.013   4.135  23.642  1.00  0.00     0.000 C 
ENDROOT
BRANCH   1   2
ATOM      2  C   UNL     1      21.323   5.382  22.795  1.00  0.00     0.000 C 
BRANCH   2   3
ATOM      3  C   UNL     1      21.621   6.663  23.598  1.00  0.00     0.000 C 
BRANCH   3   4
ATOM      4  C   UNL     1      22.075   7.835  22.711  1.00  0.00     0.006 C 
BRANCH   4   5
ATOM      5  C   UNL     1      22.001   7.493  21.216  1.00  0.00     0.053 C 
BRANCH   5   6
ATOM      6  C   UNL     1      20.939   8.282  20.515  1.00  0.00     0.041 C 
ATOM      7  O   UNL     1      21.155   8.755  19.368  1.00  0.00    -0.550 OA
ATOM      8  O   UNL     1      19.720   8.520  21.137  1.00  0.00    -0.550 OA
ENDBRANCH   5   6
ENDBRANCH   4   5
ENDBRANCH   3   4
ENDBRANCH   2   3
ENDBRANCH   1   2
BRANCH   1   9
ATOM      9  C   UNL     1      21.084   4.404  25.156  1.00  0.00     0.000 C 
BRANCH   9  10
ATOM     10  C   UNL     1      19.715   4.281  25.844  1.00  0.00    -0.000 C 
BRANCH  10  11
ATOM     11  C   UNL     1      19.052   5.645  26.105  1.00  0.00    -0.000 C 
BRANCH  11  12
ATOM     12  C   UNL     1      17.764   5.833  25.276  1.00  0.00    -0.000 C 
BRANCH  12  13
ATOM     13  C   UNL     1      17.937   6.779  24.077  1.00  0.00    -0.003 C 
ATOM     14  C   UNL     1      17.711   6.089  22.733  1.00  0.00     0.004 C 
ENDBRANCH  12  13
ENDBRANCH  11  12
ENDBRANCH  10  11
ENDBRANCH   9  10
ENDBRANCH   1   9
TORSDOF 10
ENDMDL
MODEL 5
REMARK VINA RESULT:    -4.283      4.241      6.603
REMARK INTER + INTRA:          -7.817
REMARK INTER:                  -7.290
REMARK INTRA:                  -0.526
REMARK UNBOUND:                -1.029
REMARK SMILES CCCCCCCCCCCC(=O)[O-]
REMARK SMILES IDX 7 1 8 2 9 3 10 4 11 5 12 6 13 7 14 8 6 9 5 10 4 11 3 12 2 13
REMARK SMILES IDX 1 14
REMARK H PARENT
REMARK Flexibility Score: inf
ROOT
ATOM      1  C   UNL     1       6.299   0.390  17.518  1.00  0.00     0.000 C 
ENDROOT
BRANCH   1   2
ATOM      2  C   UNL     1       6.084   1.850  17.080  1.00  0.00     0.000 C 
BRANCH   2   3
ATOM      3  C   UNL     1       7.163   2.843  17.555  1.00  0.00     0.000 C 
BRANCH   3   4
ATOM      4  C   UNL     1       6.580   4.037  18.330  1.00  0.00     0.006 C 
BRANCH   4   5
ATOM      5  C   UNL     1       7.555   5.220  18.391  1.00  0.00     0.053 C 
BRANCH   5   6
ATOM      6  C   UNL     1       6.919   6.492  17.919  1.00  0.00     0.041 C 
ATOM      7  O   UNL     1       5.722   6.748  18.215  1.00  0.00    -0.550 OA
ATOM      8  O   UNL     1       7.637   7.380  17.129  1.00  0.00    -0.550 OA
ENDBRANCH   5   6
ENDBRANCH   4   5
ENDBRANCH   3   4
ENDBRANCH   2   3
ENDBRANCH   1   2
BRANCH   1   9
ATOM      9  C   UNL     1       7.372   0.243  18.611  1.00  0.00     0.000 C 
BRANCH   9  10
ATOM     10  C   UNL     1       8.476  -0.756  18.227  1.00  0.00    -0.000 C 
BRANCH  10  11
ATOM     11  C   UNL     1       8.095  -1.631  17.019  1.00  0.00    -0.000 C 
BRANCH  11  12
ATOM     12  C   UNL     1       9.279  -2.491  16.529  1.00  0.00    -0.000 C 
BRANCH  12  13
ATOM     13  C   UNL     1       9.020  -4.004  16.616  1.00  0.00    -0.003 C 
ATOM     14  C   UNL     1       8.846  -4.499  18.050  1.00  0.00     0.004 C 
ENDBRANCH  12  13
ENDBRANCH  11  12
ENDBRANCH  10  11
ENDBRANCH   9  10
ENDBRANCH   1   9
TORSDOF 10
ENDMDL
MODEL 6
REMARK VINA RESULT:    -4.283     11.886     14.200
REMARK INTER + INTRA:          -7.817
REMARK INTER:                  -7.154
REMARK INTRA:                  -0.663
REMARK UNBOUND:                -1.029
REMARK SMILES CCCCCCCCCCCC(=O)[O-]
REMARK SMILES IDX 7 1 8 2 9 3 10 4 11 5 12 6 13 7 14 8 6 9 5 10 4 11 3 12 2 13
REMARK SMILES IDX 1 14
REMARK H PARENT
REMARK Flexibility Score: inf
ROOT
ATOM      1  C   UNL     1      14.689  -1.903   8.781  1.00  0.00     0.000 C 
ENDROOT
BRANCH   1   2
ATOM      2  C   UNL     1      14.688  -3.097   7.809  1.00  0.00     0.000 C 
BRANCH   2   3
ATOM      3  C   UNL     1      13.495  -3.149   6.836  1.00  0.00     0.000 C 
BRANCH   3   4
ATOM      4  C   UNL     1      12.245  -2.437   7.380  1.00  0.00     0.006 C 
BRANCH   4   5
ATOM      5  C   UNL     1      11.043  -3.384   7.498  1.00  0.00     0.053 C 
BRANCH   5   6
ATOM      6  C   UNL     1      10.038  -2.888   8.493  1.00  0.00     0.041 C 
ATOM      7  O   UNL     1       9.740  -1.665   8.535  1.00  0.00    -0.550 OA
ATOM      8  O   UNL     1       9.452  -3.770   9.392  1.00  0.00    -0.550 OA
ENDBRANCH   5   6
ENDBRANCH   4   5
ENDBRANCH   3   4
ENDBRANCH   2   3
ENDBRANCH   1   2
BRANCH   1   9
ATOM      9  C   UNL     1      15.438  -0.679   8.227  1.00  0.00     0.000 C 
BRANCH   9  10
ATOM     10  C   UNL     1      14.506   0.513   7.957  1.00  0.00    -0.000 C 
BRANCH  10  11
ATOM     11  C   UNL     1      14.891   1.767   8.761  1.00  0.00    -0.000 C 
BRANCH  11  12
ATOM     12  C   UNL     1      16.065   1.501   9.727  1.00  0.00    -0.000 C 
BRANCH  12  13
ATOM     13  C   UNL     1      15.865   2.113  11.123  1.00  0.00    -0.003 C 
ATOM     14  C   UNL     1      14.922   3.315  11.121  1.00  0.00     0.004 C 
ENDBRANCH  12  13
ENDBRANCH  11  12
ENDBRANCH  10  11
ENDBRANCH   9  10
ENDBRANCH   1   9
TORSDOF 10
ENDMDL
MODEL 7
REMARK VINA RESULT:    -4.277      3.244      5.137
REMARK INTER + INTRA:          -7.806
REMARK INTER:                  -6.923
REMARK INTRA:                  -0.884
REMARK UNBOUND:                -1.029
REMARK SMILES CCCCCCCCCCCC(=O)[O-]
REMARK SMILES IDX 7 1 8 2 9 3 10 4 11 5 12 6 13 7 14 8 6 9 5 10 4 11 3 12 2 13
REMARK SMILES IDX 1 14
REMARK H PARENT
REMARK Flexibility Score: inf
ROOT
ATOM      1  C   UNL     1       8.467   1.793  17.909  1.00  0.00     0.000 C 
ENDROOT
BRANCH   1   2
ATOM      2  C   UNL     1       7.381   1.691  18.995  1.00  0.00     0.000 C 
BRANCH   2   3
ATOM      3  C   UNL     1       7.267   2.913  19.926  1.00  0.00     0.000 C 
BRANCH   3   4
ATOM      4  C   UNL     1       8.505   3.824  19.875  1.00  0.00     0.006 C 
BRANCH   4   5
ATOM      5  C   UNL     1       8.794   4.486  21.229  1.00  0.00     0.053 C 
BRANCH   5   6
ATOM      6  C   UNL     1       7.659   5.354  21.680  1.00  0.00     0.041 C 
ATOM      7  O   UNL     1       7.092   5.131  22.782  1.00  0.00    -0.550 OA
ATOM      8  O   UNL     1       7.208   6.389  20.872  1.00  0.00    -0.550 OA
ENDBRANCH   5   6
ENDBRANCH   4   5
ENDBRANCH   3   4
ENDBRANCH   2   3
ENDBRANCH   1   2
BRANCH   1   9
ATOM      9  C   UNL     1       9.307   0.511  17.777  1.00  0.00     0.000 C 
BRANCH   9  10
ATOM     10  C   UNL     1       8.599  -0.723  18.361  1.00  0.00    -0.000 C 
BRANCH  10  11
ATOM     11  C   UNL     1       8.361  -1.826  17.315  1.00  0.00    -0.000 C 
BRANCH  11  12
ATOM     12  C   UNL     1       8.146  -1.249  15.899  1.00  0.00    -0.000 C 
BRANCH  12  13
ATOM     13  C   UNL     1       6.717  -1.442  15.366  1.00  0.00    -0.003 C 
ATOM     14  C   UNL     1       5.872  -0.173  15.446  1.00  0.00     0.004 C 
ENDBRANCH  12  13
ENDBRANCH  11  12
ENDBRANCH  10  11
ENDBRANCH   9  10
ENDBRANCH   1   9
TORSDOF 10
ENDMDL
MODEL 8
REMARK VINA RESULT:    -4.261      3.804      5.763
REMARK INTER + INTRA:          -7.781
REMARK INTER:                  -7.325
REMARK INTRA:                  -0.456
REMARK UNBOUND:                -1.029
REMARK SMILES CCCCCCCCCCCC(=O)[O-]
REMARK SMILES IDX 7 1 8 2 9 3 10 4 11 5 12 6 13 7 14 8 6 9 5 10 4 11 3 12 2 13
REMARK SMILES IDX 1 14
REMARK H PARENT
REMARK Flexibility Score: inf
ROOT
ATOM      1  C   UNL     1       7.068   1.615  17.954  1.00  0.00     0.000 C 
ENDROOT
BRANCH   1   2
ATOM      2  C   UNL     1       6.671   2.615  19.055  1.00  0.00     0.000 C 
BRANCH   2   3
ATOM      3  C   UNL     1       7.723   2.826  20.160  1.00  0.00     0.000 C 
BRANCH   3   4
ATOM      4  C   UNL     1       8.565   4.097  19.953  1.00  0.00     0.006 C 
BRANCH   4   5
ATOM      5  C   UNL     1       8.798   4.858  21.265  1.00  0.00     0.053 C 
BRANCH   5   6
ATOM      6  C   UNL     1       7.549   5.530  21.750  1.00  0.00     0.041 C 
ATOM      7  O   UNL     1       7.060   6.496  21.105  1.00  0.00    -0.550 OA
ATOM      8  O   UNL     1       6.942   5.110  22.926  1.00  0.00    -0.550 OA
ENDBRANCH   5   6
ENDBRANCH   4   5
ENDBRANCH   3   4
ENDBRANCH   2   3
ENDBRANCH   1   2
BRANCH   1   9
ATOM      9  C   UNL     1       7.143   0.164  18.460  1.00  0.00     0.000 C 
BRANCH   9  10
ATOM     10  C   UNL     1       8.418  -0.559  17.996  1.00  0.00    -0.000 C 
BRANCH  10  11
ATOM     11  C   UNL     1       8.129  -1.712  17.019  1.00  0.00    -0.000 C 
BRANCH  11  12
ATOM     12  C   UNL     1       9.334  -2.014  16.103  1.00  0.00    -0.000 C 
BRANCH  12  13
ATOM     13  C   UNL     1       9.852  -3.457  16.221  1.00  0.00    -0.003 C 
ATOM     14  C   UNL     1       8.945  -4.351  17.065  1.00  0.00     0.004 C 
ENDBRANCH  12  13
ENDBRANCH  11  12
ENDBRANCH  10  11
ENDBRANCH   9  10
ENDBRANCH   1   9
TORSDOF 10
ENDMDL
MODEL 9
REMARK VINA RESULT:    -4.244     12.934     14.856
REMARK INTER + INTRA:          -7.754
REMARK INTER:                  -7.210
REMARK INTRA:                  -0.544
REMARK UNBOUND:                -1.029
REMARK SMILES CCCCCCCCCCCC(=O)[O-]
REMARK SMILES IDX 7 1 8 2 9 3 10 4 11 5 12 6 13 7 14 8 6 9 5 10 4 11 3 12 2 13
REMARK SMILES IDX 1 14
REMARK H PARENT
REMARK Flexibility Score: inf
ROOT
ATOM      1  C   UNL     1      12.701  -2.269   7.735  1.00  0.00     0.000 C 
ENDROOT
BRANCH   1   2
ATOM      2  C   UNL     1      11.499  -3.055   7.182  1.00  0.00     0.000 C 
BRANCH   2   3
ATOM      3  C   UNL     1      10.324  -3.234   8.162  1.00  0.00     0.000 C 
BRANCH   3   4
ATOM      4  C   UNL     1       9.932  -1.928   8.874  1.00  0.00     0.006 C 
BRANCH   4   5
ATOM      5  C   UNL     1       8.448  -1.903   9.265  1.00  0.00     0.053 C 
BRANCH   5   6
ATOM      6  C   UNL     1       8.149  -2.859  10.379  1.00  0.00     0.041 C 
ATOM      7  O   UNL     1       7.076  -3.519  10.375  1.00  0.00    -0.550 OA
ATOM      8  O   UNL     1       9.038  -2.999  11.436  1.00  0.00    -0.550 OA
ENDBRANCH   5   6
ENDBRANCH   4   5
ENDBRANCH   3   4
ENDBRANCH   2   3
ENDBRANCH   1   2
BRANCH   1   9
ATOM      9  C   UNL     1      14.000  -2.527   6.951  1.00  0.00     0.000 C 
BRANCH   9  10
ATOM     10  C   UNL     1      15.147  -1.602   7.387  1.00  0.00    -0.000 C 
BRANCH  10  11
ATOM     11  C   UNL     1      15.999  -2.199   8.521  1.00  0.00    -0.000 C 
BRANCH  11  12
ATOM     12  C   UNL     1      16.156  -3.728   8.387  1.00  0.00    -0.000 C 
BRANCH  12  13
ATOM     13  C   UNL     1      17.505  -4.158   7.787  1.00  0.00    -0.003 C 
ATOM     14  C   UNL     1      17.518  -4.125   6.260  1.00  0.00     0.004 C 
ENDBRANCH  12  13
ENDBRANCH  11  12
ENDBRANCH  10  11
ENDBRANCH   9  10
ENDBRANCH   1   9
TORSDOF 10
ENDMDL
