MODEL 1
REMARK VINA RESULT:    -7.907      0.000      0.000
REMARK INTER + INTRA:         -16.091
REMARK INTER:                 -12.992
REMARK INTRA:                  -3.098
REMARK UNBOUND:                -3.098
REMARK SMILES C[C@H]1O[C@H](OC[C@@H]2O[C@H](Oc3c(-c4ccc(O)c(O)c4)oc4cc(O)cc(O)c4c3=O)[C@H](O)[C@H](O)[C@H]2O)[C@@H](O)[C@H](O)[C@@H]1O
REMARK SMILES IDX 7 1 36 2 34 3 32 4 9 5 8 6 6 7 5 8 4 9 1 10 2 11 42 12 3 13
REMARK SMILES IDX 40 14 38 15 43 16 41 18 39 20 37 22 35 24 10 26 11 27 12 28
REMARK SMILES IDX 30 29 21 30 29 31 31 32 22 33 27 34 23 35 26 36 24 37 13 38
REMARK SMILES IDX 20 39 14 40 18 41 15 42 16 43 19 44 17 46 28 48 25 50 33 52
REMARK H PARENT 43 17 41 19 39 21 37 23 35 25 19 45 17 47 28 49 25 51 33 53
REMARK Flexibility Score: inf
ROOT
ATOM      1  C   UNL     1      19.461  34.178  35.603  1.00  0.00     0.180 C 
ATOM      2  C   UNL     1      20.697  35.088  35.294  1.00  0.00     0.177 C 
ATOM      3  C   UNL     1      21.489  34.651  34.061  1.00  0.00     0.180 C 
ATOM      4  C   UNL     1      21.671  33.123  33.942  1.00  0.00     0.214 C 
ATOM      5  C   UNL     1      20.816  32.323  34.926  1.00  0.00     0.339 C 
ATOM      6  O   UNL     1      19.501  32.826  35.084  1.00  0.00    -0.332 OA
ENDROOT
BRANCH   1   7
ATOM      7  C   UNL     1      19.163  34.146  37.137  1.00  0.00     0.198 C 
BRANCH   7   8
ATOM      8  O   UNL     1      19.579  35.365  37.759  1.00  0.00    -0.347 OA
BRANCH   8   9
ATOM      9  C   UNL     1      20.534  35.186  38.805  1.00  0.00     0.281 C 
ATOM     10  C   UNL     1      23.277  32.973  39.399  1.00  0.00     0.041 C 
ATOM     11  C   UNL     1      22.758  34.404  39.294  1.00  0.00     0.150 C 
ATOM     12  C   UNL     1      22.456  34.938  40.719  1.00  0.00     0.174 C 
ATOM     13  O   UNL     1      21.647  34.382  38.398  1.00  0.00    -0.344 OA
ATOM     14  C   UNL     1      21.929  36.385  40.612  1.00  0.00     0.179 C 
ATOM     15  C   UNL     1      20.976  36.564  39.400  1.00  0.00     0.202 C 
BRANCH  12  16
ATOM     16  O   UNL     1      23.622  34.991  41.494  1.00  0.00    -0.388 OA
ATOM     17  H   UNL     1      24.376  35.113  40.873  1.00  0.00     0.211 HD
ENDBRANCH  12  16
BRANCH  14  18
ATOM     18  O   UNL     1      23.016  37.285  40.498  1.00  0.00    -0.387 OA
ATOM     19  H   UNL     1      22.652  38.162  40.226  1.00  0.00     0.211 HD
ENDBRANCH  14  18
BRANCH  15  20
ATOM     20  O   UNL     1      19.837  37.301  39.784  1.00  0.00    -0.385 OA
ATOM     21  H   UNL     1      19.089  36.660  39.883  1.00  0.00     0.211 HD
ENDBRANCH  15  20
ENDBRANCH   8   9
ENDBRANCH   7   8
ENDBRANCH   1   7
BRANCH   2  22
ATOM     22  O   UNL     1      20.238  36.427  35.111  1.00  0.00    -0.387 OA
ATOM     23  H   UNL     1      19.483  36.370  34.490  1.00  0.00     0.211 HD
ENDBRANCH   2  22
BRANCH   3  24
ATOM     24  O   UNL     1      22.766  35.253  34.097  1.00  0.00    -0.387 OA
ATOM     25  H   UNL     1      22.659  36.224  34.305  1.00  0.00     0.211 HD
ENDBRANCH   3  24
BRANCH   5  26
ATOM     26  O   UNL     1      21.504  32.107  36.194  1.00  0.00    -0.454 OA
BRANCH  26  27
ATOM     27  C   UNL     1      21.768  30.826  36.753  1.00  0.00     0.214 A 
ATOM     28  C   UNL     1      20.795  30.064  37.433  1.00  0.00     0.180 A 
ATOM     29  C   UNL     1      23.062  30.277  36.705  1.00  0.00     0.239 A 
ATOM     30  O   UNL     1      21.178  29.323  38.476  1.00  0.00    -0.452 OA
ATOM     31  C   UNL     1      23.466  29.474  37.805  1.00  0.00     0.111 A 
ATOM     32  O   UNL     1      23.879  30.530  35.753  1.00  0.00    -0.285 OA
ATOM     33  C   UNL     1      22.462  29.116  38.754  1.00  0.00     0.146 A 
ATOM     34  C   UNL     1      24.804  29.065  38.043  1.00  0.00     0.134 A 
ATOM     35  C   UNL     1      22.823  28.485  39.949  1.00  0.00     0.094 A 
ATOM     36  C   UNL     1      25.147  28.567  39.317  1.00  0.00     0.093 A 
ATOM     37  C   UNL     1      24.193  28.290  40.268  1.00  0.00     0.123 A 
BRANCH  28  38
ATOM     38  C   UNL     1      19.371  29.963  37.001  1.00  0.00     0.025 A 
ATOM     39  C   UNL     1      19.016  29.234  35.855  1.00  0.00     0.062 A 
ATOM     40  C   UNL     1      18.389  30.652  37.726  1.00  0.00     0.016 A 
ATOM     41  C   UNL     1      17.683  29.223  35.419  1.00  0.00     0.158 A 
ATOM     42  C   UNL     1      17.054  30.591  37.323  1.00  0.00     0.051 A 
ATOM     43  C   UNL     1      16.688  29.875  36.172  1.00  0.00     0.157 A 
BRANCH  41  44
ATOM     44  O   UNL     1      17.326  28.555  34.259  1.00  0.00    -0.504 OA
ATOM     45  H   UNL     1      17.223  29.038  33.366  1.00  0.00     0.293 HD
ENDBRANCH  41  44
BRANCH  43  46
ATOM     46  O   UNL     1      15.338  29.825  35.792  1.00  0.00    -0.504 OA
ATOM     47  H   UNL     1      15.057  30.061  34.847  1.00  0.00     0.293 HD
ENDBRANCH  43  46
ENDBRANCH  28  38
BRANCH  34  48
ATOM     48  O   UNL     1      25.781  29.165  37.026  1.00  0.00    -0.507 OA
ATOM     49  H   UNL     1      26.313  28.344  36.781  1.00  0.00     0.293 HD
ENDBRANCH  34  48
BRANCH  37  50
ATOM     50  O   UNL     1      24.597  27.888  41.545  1.00  0.00    -0.508 OA
ATOM     51  H   UNL     1      23.928  27.868  42.305  1.00  0.00     0.293 HD
ENDBRANCH  37  50
ENDBRANCH  26  27
ENDBRANCH   5  26
BRANCH   4  52
ATOM     52  O   UNL     1      23.013  32.746  34.128  1.00  0.00    -0.384 OA
ATOM     53  H   UNL     1      23.430  32.603  33.236  1.00  0.00     0.211 HD
ENDBRANCH   4  52
TORSDOF 16
ENDMDL
MODEL 2
REMARK VINA RESULT:    -7.762      1.147      1.998
REMARK INTER + INTRA:         -15.852
REMARK INTER:                 -13.246
REMARK INTRA:                  -2.606
REMARK UNBOUND:                -3.098
REMARK SMILES C[C@H]1O[C@H](OC[C@@H]2O[C@H](Oc3c(-c4ccc(O)c(O)c4)oc4cc(O)cc(O)c4c3=O)[C@H](O)[C@H](O)[C@H]2O)[C@@H](O)[C@H](O)[C@@H]1O
REMARK SMILES IDX 7 1 36 2 34 3 32 4 9 5 8 6 6 7 5 8 4 9 1 10 2 11 42 12 3 13
REMARK SMILES IDX 40 14 38 15 43 16 41 18 39 20 37 22 35 24 10 26 11 27 12 28
REMARK SMILES IDX 30 29 21 30 29 31 31 32 22 33 27 34 23 35 26 36 24 37 13 38
REMARK SMILES IDX 20 39 14 40 18 41 15 42 16 43 19 44 17 46 28 48 25 50 33 52
REMARK H PARENT 43 17 41 19 39 21 37 23 35 25 19 45 17 47 28 49 25 51 33 53
REMARK Flexibility Score: inf
ROOT
ATOM      1  C   UNL     1      20.106  34.102  35.751  1.00  0.00     0.180 C 
ATOM      2  C   UNL     1      21.433  34.865  35.424  1.00  0.00     0.177 C 
ATOM      3  C   UNL     1      22.192  34.293  34.227  1.00  0.00     0.180 C 
ATOM      4  C   UNL     1      22.220  32.751  34.181  1.00  0.00     0.214 C 
ATOM      5  C   UNL     1      21.274  32.088  35.184  1.00  0.00     0.339 C 
ATOM      6  O   UNL     1      20.014  32.730  35.295  1.00  0.00    -0.332 OA
ENDROOT
BRANCH   1   7
ATOM      7  C   UNL     1      19.785  34.172  37.279  1.00  0.00     0.198 C 
BRANCH   7   8
ATOM      8  O   UNL     1      20.923  34.631  38.015  1.00  0.00    -0.347 OA
BRANCH   8   9
ATOM      9  C   UNL     1      20.625  35.656  38.963  1.00  0.00     0.281 C 
ATOM     10  C   UNL     1      18.011  38.056  39.384  1.00  0.00     0.041 C 
ATOM     11  C   UNL     1      18.836  36.914  39.969  1.00  0.00     0.150 C 
ATOM     12  C   UNL     1      19.968  37.507  40.849  1.00  0.00     0.174 C 
ATOM     13  O   UNL     1      19.269  36.106  38.875  1.00  0.00    -0.344 OA
ATOM     14  C   UNL     1      20.804  36.351  41.439  1.00  0.00     0.179 C 
ATOM     15  C   UNL     1      21.016  35.209  40.411  1.00  0.00     0.202 C 
BRANCH  12  16
ATOM     16  O   UNL     1      19.440  38.217  41.935  1.00  0.00    -0.388 OA
ATOM     17  H   UNL     1      19.255  37.562  42.646  1.00  0.00     0.211 HD
ENDBRANCH  12  16
BRANCH  14  18
ATOM     18  O   UNL     1      20.166  35.838  42.594  1.00  0.00    -0.387 OA
ATOM     19  H   UNL     1      20.388  36.433  43.350  1.00  0.00     0.211 HD
ENDBRANCH  14  18
BRANCH  15  20
ATOM     20  O   UNL     1      22.360  34.783  40.428  1.00  0.00    -0.385 OA
ATOM     21  H   UNL     1      22.466  34.170  41.199  1.00  0.00     0.211 HD
ENDBRANCH  15  20
ENDBRANCH   8   9
ENDBRANCH   7   8
ENDBRANCH   1   7
BRANCH   2  22
ATOM     22  O   UNL     1      21.115  36.235  35.172  1.00  0.00    -0.387 OA
ATOM     23  H   UNL     1      21.655  36.497  34.399  1.00  0.00     0.211 HD
ENDBRANCH   2  22
BRANCH   3  24
ATOM     24  O   UNL     1      23.524  34.763  34.259  1.00  0.00    -0.387 OA
ATOM     25  H   UNL     1      23.516  35.741  34.463  1.00  0.00     0.211 HD
ENDBRANCH   3  24
BRANCH   5  26
ATOM     26  O   UNL     1      21.918  31.863  36.473  1.00  0.00    -0.454 OA
BRANCH  26  27
ATOM     27  C   UNL     1      22.093  30.584  37.067  1.00  0.00     0.214 A 
ATOM     28  C   UNL     1      21.054  29.880  37.712  1.00  0.00     0.180 A 
ATOM     29  C   UNL     1      23.361  29.974  37.093  1.00  0.00     0.239 A 
ATOM     30  O   UNL     1      21.350  29.144  38.786  1.00  0.00    -0.452 OA
ATOM     31  C   UNL     1      23.673  29.176  38.226  1.00  0.00     0.111 A 
ATOM     32  O   UNL     1      24.235  30.170  36.179  1.00  0.00    -0.285 OA
ATOM     33  C   UNL     1      22.607  28.883  39.131  1.00  0.00     0.146 A 
ATOM     34  C   UNL     1      24.977  28.711  38.538  1.00  0.00     0.134 A 
ATOM     35  C   UNL     1      22.879  28.260  40.353  1.00  0.00     0.094 A 
ATOM     36  C   UNL     1      25.233  28.223  39.836  1.00  0.00     0.093 A 
ATOM     37  C   UNL     1      24.221  28.009  40.743  1.00  0.00     0.123 A 
BRANCH  28  38
ATOM     38  C   UNL     1      19.650  29.837  37.211  1.00  0.00     0.025 A 
ATOM     39  C   UNL     1      19.305  29.049  36.101  1.00  0.00     0.062 A 
ATOM     40  C   UNL     1      18.680  30.637  37.832  1.00  0.00     0.016 A 
ATOM     41  C   UNL     1      17.997  29.089  35.596  1.00  0.00     0.158 A 
ATOM     42  C   UNL     1      17.366  30.629  37.361  1.00  0.00     0.051 A 
ATOM     43  C   UNL     1      17.011  29.855  36.246  1.00  0.00     0.157 A 
BRANCH  41  44
ATOM     44  O   UNL     1      17.655  28.361  34.467  1.00  0.00    -0.504 OA
ATOM     45  H   UNL     1      16.811  27.789  34.427  1.00  0.00     0.293 HD
ENDBRANCH  41  44
BRANCH  43  46
ATOM     46  O   UNL     1      15.682  29.861  35.797  1.00  0.00    -0.504 OA
ATOM     47  H   UNL     1      15.093  30.676  35.929  1.00  0.00     0.293 HD
ENDBRANCH  43  46
ENDBRANCH  28  38
BRANCH  34  48
ATOM     48  O   UNL     1      26.005  28.744  37.569  1.00  0.00    -0.507 OA
ATOM     49  H   UNL     1      26.127  27.949  36.961  1.00  0.00     0.293 HD
ENDBRANCH  34  48
BRANCH  37  50
ATOM     50  O   UNL     1      24.543  27.614  42.046  1.00  0.00    -0.508 OA
ATOM     51  H   UNL     1      24.435  26.647  42.323  1.00  0.00     0.293 HD
ENDBRANCH  37  50
ENDBRANCH  26  27
ENDBRANCH   5  26
BRANCH   4  52
ATOM     52  O   UNL     1      23.513  32.248  34.409  1.00  0.00    -0.384 OA
ATOM     53  H   UNL     1      24.164  32.802  33.899  1.00  0.00     0.211 HD
ENDBRANCH   4  52
TORSDOF 16
ENDMDL
MODEL 3
REMARK VINA RESULT:    -7.661      2.314      3.967
REMARK INTER + INTRA:         -15.685
REMARK INTER:                 -12.844
REMARK INTRA:                  -2.841
REMARK UNBOUND:                -3.098
REMARK SMILES C[C@H]1O[C@H](OC[C@@H]2O[C@H](Oc3c(-c4ccc(O)c(O)c4)oc4cc(O)cc(O)c4c3=O)[C@H](O)[C@H](O)[C@H]2O)[C@@H](O)[C@H](O)[C@@H]1O
REMARK SMILES IDX 7 1 36 2 34 3 32 4 9 5 8 6 6 7 5 8 4 9 1 10 2 11 42 12 3 13
REMARK SMILES IDX 40 14 38 15 43 16 41 18 39 20 37 22 35 24 10 26 11 27 12 28
REMARK SMILES IDX 30 29 21 30 29 31 31 32 22 33 27 34 23 35 26 36 24 37 13 38
REMARK SMILES IDX 20 39 14 40 18 41 15 42 16 43 19 44 17 46 28 48 25 50 33 52
REMARK H PARENT 43 17 41 19 39 21 37 23 35 25 19 45 17 47 28 49 25 51 33 53
REMARK Flexibility Score: inf
ROOT
ATOM      1  C   UNL     1      19.095  34.060  35.386  1.00  0.00     0.180 C 
ATOM      2  C   UNL     1      20.193  35.164  35.546  1.00  0.00     0.177 C 
ATOM      3  C   UNL     1      21.352  35.025  34.559  1.00  0.00     0.180 C 
ATOM      4  C   UNL     1      21.820  33.571  34.342  1.00  0.00     0.214 C 
ATOM      5  C   UNL     1      20.881  32.525  34.947  1.00  0.00     0.339 C 
ATOM      6  O   UNL     1      19.505  32.817  34.766  1.00  0.00    -0.332 OA
ENDROOT
BRANCH   1   7
ATOM      7  C   UNL     1      18.401  33.763  36.755  1.00  0.00     0.198 C 
BRANCH   7   8
ATOM      8  O   UNL     1      17.765  34.938  37.266  1.00  0.00    -0.347 OA
BRANCH   8   9
ATOM      9  C   UNL     1      16.343  34.838  37.348  1.00  0.00     0.281 C 
ATOM     10  C   UNL     1      13.807  33.055  35.570  1.00  0.00     0.041 C 
ATOM     11  C   UNL     1      14.466  33.398  36.903  1.00  0.00     0.150 C 
ATOM     12  C   UNL     1      13.650  34.521  37.596  1.00  0.00     0.174 C 
ATOM     13  O   UNL     1      15.831  33.712  36.627  1.00  0.00    -0.344 OA
ATOM     14  C   UNL     1      14.318  34.869  38.943  1.00  0.00     0.179 C 
ATOM     15  C   UNL     1      15.867  34.863  38.838  1.00  0.00     0.202 C 
BRANCH  12  16
ATOM     16  O   UNL     1      12.351  34.088  37.892  1.00  0.00    -0.388 OA
ATOM     17  H   UNL     1      12.331  33.869  38.851  1.00  0.00     0.211 HD
ENDBRANCH  12  16
BRANCH  14  18
ATOM     18  O   UNL     1      13.907  33.947  39.936  1.00  0.00    -0.387 OA
ATOM     19  H   UNL     1      14.214  33.050  39.659  1.00  0.00     0.211 HD
ENDBRANCH  14  18
BRANCH  15  20
ATOM     20  O   UNL     1      16.401  35.995  39.487  1.00  0.00    -0.385 OA
ATOM     21  H   UNL     1      16.333  36.757  38.858  1.00  0.00     0.211 HD
ENDBRANCH  15  20
ENDBRANCH   8   9
ENDBRANCH   7   8
ENDBRANCH   1   7
BRANCH   2  22
ATOM     22  O   UNL     1      19.577  36.442  35.375  1.00  0.00    -0.387 OA
ATOM     23  H   UNL     1      19.041  36.591  36.180  1.00  0.00     0.211 HD
ENDBRANCH   2  22
BRANCH   3  24
ATOM     24  O   UNL     1      22.449  35.783  35.027  1.00  0.00    -0.387 OA
ATOM     25  H   UNL     1      22.434  36.678  34.584  1.00  0.00     0.211 HD
ENDBRANCH   3  24
BRANCH   5  26
ATOM     26  O   UNL     1      21.224  32.220  36.331  1.00  0.00    -0.454 OA
BRANCH  26  27
ATOM     27  C   UNL     1      21.503  30.914  36.817  1.00  0.00     0.214 A 
ATOM     28  C   UNL     1      20.534  30.096  37.437  1.00  0.00     0.180 A 
ATOM     29  C   UNL     1      22.807  30.390  36.756  1.00  0.00     0.239 A 
ATOM     30  O   UNL     1      20.916  29.300  38.439  1.00  0.00    -0.452 OA
ATOM     31  C   UNL     1      23.210  29.530  37.812  1.00  0.00     0.111 A 
ATOM     32  O   UNL     1      23.632  30.713  35.833  1.00  0.00    -0.285 OA
ATOM     33  C   UNL     1      22.199  29.099  38.723  1.00  0.00     0.146 A 
ATOM     34  C   UNL     1      24.551  29.130  38.046  1.00  0.00     0.134 A 
ATOM     35  C   UNL     1      22.554  28.403  39.884  1.00  0.00     0.094 A 
ATOM     36  C   UNL     1      24.885  28.562  39.293  1.00  0.00     0.093 A 
ATOM     37  C   UNL     1      23.923  28.212  40.211  1.00  0.00     0.123 A 
BRANCH  28  38
ATOM     38  C   UNL     1      19.118  29.998  36.978  1.00  0.00     0.025 A 
ATOM     39  C   UNL     1      18.807  29.489  35.706  1.00  0.00     0.062 A 
ATOM     40  C   UNL     1      18.097  30.469  37.815  1.00  0.00     0.016 A 
ATOM     41  C   UNL     1      17.476  29.485  35.263  1.00  0.00     0.158 A 
ATOM     42  C   UNL     1      16.768  30.409  37.393  1.00  0.00     0.051 A 
ATOM     43  C   UNL     1      16.444  29.914  36.120  1.00  0.00     0.157 A 
BRANCH  41  44
ATOM     44  O   UNL     1      17.159  29.040  33.990  1.00  0.00    -0.504 OA
ATOM     45  H   UNL     1      17.356  28.086  33.685  1.00  0.00     0.293 HD
ENDBRANCH  41  44
BRANCH  43  46
ATOM     46  O   UNL     1      15.100  29.860  35.722  1.00  0.00    -0.504 OA
ATOM     47  H   UNL     1      14.355  30.020  36.390  1.00  0.00     0.293 HD
ENDBRANCH  43  46
ENDBRANCH  28  38
BRANCH  34  48
ATOM     48  O   UNL     1      25.540  29.306  37.050  1.00  0.00    -0.507 OA
ATOM     49  H   UNL     1      25.734  28.545  36.418  1.00  0.00     0.293 HD
ENDBRANCH  34  48
BRANCH  37  50
ATOM     50  O   UNL     1      24.316  27.742  41.468  1.00  0.00    -0.508 OA
ATOM     51  H   UNL     1      25.240  27.349  41.595  1.00  0.00     0.293 HD
ENDBRANCH  37  50
ENDBRANCH  26  27
ENDBRANCH   5  26
BRANCH   4  52
ATOM     52  O   UNL     1      23.105  33.355  34.872  1.00  0.00    -0.384 OA
ATOM     53  H   UNL     1      23.617  34.207  34.820  1.00  0.00     0.211 HD
ENDBRANCH   4  52
TORSDOF 16
ENDMDL
MODEL 4
REMARK VINA RESULT:    -7.615      2.162      5.880
REMARK INTER + INTRA:         -15.610
REMARK INTER:                 -12.006
REMARK INTRA:                  -3.604
REMARK UNBOUND:                -3.098
REMARK SMILES C[C@H]1O[C@H](OC[C@@H]2O[C@H](Oc3c(-c4ccc(O)c(O)c4)oc4cc(O)cc(O)c4c3=O)[C@H](O)[C@H](O)[C@H]2O)[C@@H](O)[C@H](O)[C@@H]1O
REMARK SMILES IDX 7 1 36 2 34 3 32 4 9 5 8 6 6 7 5 8 4 9 1 10 2 11 42 12 3 13
REMARK SMILES IDX 40 14 38 15 43 16 41 18 39 20 37 22 35 24 10 26 11 27 12 28
REMARK SMILES IDX 30 29 21 30 29 31 31 32 22 33 27 34 23 35 26 36 24 37 13 38
REMARK SMILES IDX 20 39 14 40 18 41 15 42 16 43 19 44 17 46 28 48 25 50 33 52
REMARK H PARENT 43 17 41 19 39 21 37 23 35 25 19 45 17 47 28 49 25 51 33 53
REMARK Flexibility Score: inf
ROOT
ATOM      1  C   UNL     1      18.699  31.025  37.696  1.00  0.00     0.180 C 
ATOM      2  C   UNL     1      18.296  30.194  36.432  1.00  0.00     0.177 C 
ATOM      3  C   UNL     1      18.836  28.764  36.441  1.00  0.00     0.180 C 
ATOM      4  C   UNL     1      20.287  28.643  36.949  1.00  0.00     0.214 C 
ATOM      5  C   UNL     1      20.824  29.925  37.588  1.00  0.00     0.339 C 
ATOM      6  O   UNL     1      19.883  30.593  38.411  1.00  0.00    -0.332 OA
ENDROOT
BRANCH   1   7
ATOM      7  C   UNL     1      18.816  32.544  37.349  1.00  0.00     0.198 C 
BRANCH   7   8
ATOM      8  O   UNL     1      18.537  32.771  35.965  1.00  0.00    -0.347 OA
BRANCH   8   9
ATOM      9  C   UNL     1      19.503  33.590  35.305  1.00  0.00     0.281 C 
ATOM     10  C   UNL     1      22.370  33.000  33.254  1.00  0.00     0.041 C 
ATOM     11  C   UNL     1      21.020  33.687  33.438  1.00  0.00     0.150 C 
ATOM     12  C   UNL     1      21.255  35.144  33.916  1.00  0.00     0.174 C 
ATOM     13  O   UNL     1      20.249  32.869  34.319  1.00  0.00    -0.344 OA
ATOM     14  C   UNL     1      19.889  35.838  34.104  1.00  0.00     0.179 C 
ATOM     15  C   UNL     1      18.837  34.882  34.727  1.00  0.00     0.202 C 
BRANCH  12  16
ATOM     16  O   UNL     1      21.952  35.883  32.951  1.00  0.00    -0.388 OA
ATOM     17  H   UNL     1      21.669  35.547  32.070  1.00  0.00     0.211 HD
ENDBRANCH  12  16
BRANCH  14  18
ATOM     18  O   UNL     1      19.417  36.315  32.857  1.00  0.00    -0.387 OA
ATOM     19  H   UNL     1      18.928  37.157  33.023  1.00  0.00     0.211 HD
ENDBRANCH  14  18
BRANCH  15  20
ATOM     20  O   UNL     1      18.123  35.544  35.747  1.00  0.00    -0.385 OA
ATOM     21  H   UNL     1      18.782  36.042  36.294  1.00  0.00     0.211 HD
ENDBRANCH  15  20
ENDBRANCH   8   9
ENDBRANCH   7   8
ENDBRANCH   1   7
BRANCH   2  22
ATOM     22  O   UNL     1      16.871  30.162  36.348  1.00  0.00    -0.387 OA
ATOM     23  H   UNL     1      16.621  29.216  36.386  1.00  0.00     0.211 HD
ENDBRANCH   2  22
BRANCH   3  24
ATOM     24  O   UNL     1      18.776  28.241  35.130  1.00  0.00    -0.387 OA
ATOM     25  H   UNL     1      19.272  28.853  34.515  1.00  0.00     0.211 HD
ENDBRANCH   3  24
BRANCH   5  26
ATOM     26  O   UNL     1      21.451  30.802  36.605  1.00  0.00    -0.454 OA
BRANCH  26  27
ATOM     27  C   UNL     1      22.779  31.297  36.706  1.00  0.00     0.214 A 
ATOM     28  C   UNL     1      23.084  32.657  36.925  1.00  0.00     0.180 A 
ATOM     29  C   UNL     1      23.879  30.438  36.525  1.00  0.00     0.239 A 
ATOM     30  O   UNL     1      24.165  33.173  36.336  1.00  0.00    -0.452 OA
ATOM     31  C   UNL     1      25.037  30.989  35.914  1.00  0.00     0.111 A 
ATOM     32  O   UNL     1      23.837  29.197  36.831  1.00  0.00    -0.285 OA
ATOM     33  C   UNL     1      25.069  32.405  35.734  1.00  0.00     0.146 A 
ATOM     34  C   UNL     1      26.122  30.217  35.424  1.00  0.00     0.134 A 
ATOM     35  C   UNL     1      26.090  32.992  34.980  1.00  0.00     0.094 A 
ATOM     36  C   UNL     1      27.048  30.822  34.548  1.00  0.00     0.093 A 
ATOM     37  C   UNL     1      27.039  32.177  34.308  1.00  0.00     0.123 A 
BRANCH  28  38
ATOM     38  C   UNL     1      22.317  33.538  37.853  1.00  0.00     0.025 A 
ATOM     39  C   UNL     1      21.854  34.796  37.435  1.00  0.00     0.062 A 
ATOM     40  C   UNL     1      22.105  33.115  39.173  1.00  0.00     0.016 A 
ATOM     41  C   UNL     1      21.209  35.642  38.350  1.00  0.00     0.158 A 
ATOM     42  C   UNL     1      21.411  33.936  40.064  1.00  0.00     0.051 A 
ATOM     43  C   UNL     1      20.954  35.201  39.662  1.00  0.00     0.157 A 
BRANCH  41  44
ATOM     44  O   UNL     1      20.798  36.909  37.968  1.00  0.00    -0.504 OA
ATOM     45  H   UNL     1      21.257  37.753  38.309  1.00  0.00     0.293 HD
ENDBRANCH  41  44
BRANCH  43  46
ATOM     46  O   UNL     1      20.254  36.004  40.575  1.00  0.00    -0.504 OA
ATOM     47  H   UNL     1      20.549  36.066  41.543  1.00  0.00     0.293 HD
ENDBRANCH  43  46
ENDBRANCH  28  38
BRANCH  34  48
ATOM     48  O   UNL     1      26.269  28.861  35.796  1.00  0.00    -0.507 OA
ATOM     49  H   UNL     1      25.513  28.406  36.284  1.00  0.00     0.293 HD
ENDBRANCH  34  48
BRANCH  37  50
ATOM     50  O   UNL     1      27.919  32.708  33.359  1.00  0.00    -0.508 OA
ATOM     51  H   UNL     1      27.635  32.777  32.390  1.00  0.00     0.293 HD
ENDBRANCH  37  50
ENDBRANCH  26  27
ENDBRANCH   5  26
BRANCH   4  52
ATOM     52  O   UNL     1      21.169  28.272  35.918  1.00  0.00    -0.384 OA
ATOM     53  H   UNL     1      20.684  28.327  35.050  1.00  0.00     0.211 HD
ENDBRANCH   4  52
TORSDOF 16
ENDMDL
MODEL 5
REMARK VINA RESULT:    -7.409      1.308      1.713
REMARK INTER + INTRA:         -15.272
REMARK INTER:                 -12.500
REMARK INTRA:                  -2.772
REMARK UNBOUND:                -3.098
REMARK SMILES C[C@H]1O[C@H](OC[C@@H]2O[C@H](Oc3c(-c4ccc(O)c(O)c4)oc4cc(O)cc(O)c4c3=O)[C@H](O)[C@H](O)[C@H]2O)[C@@H](O)[C@H](O)[C@@H]1O
REMARK SMILES IDX 7 1 36 2 34 3 32 4 9 5 8 6 6 7 5 8 4 9 1 10 2 11 42 12 3 13
REMARK SMILES IDX 40 14 38 15 43 16 41 18 39 20 37 22 35 24 10 26 11 27 12 28
REMARK SMILES IDX 30 29 21 30 29 31 31 32 22 33 27 34 23 35 26 36 24 37 13 38
REMARK SMILES IDX 20 39 14 40 18 41 15 42 16 43 19 44 17 46 28 48 25 50 33 52
REMARK H PARENT 43 17 41 19 39 21 37 23 35 25 19 45 17 47 28 49 25 51 33 53
REMARK Flexibility Score: inf
ROOT
ATOM      1  C   UNL     1      21.000  33.568  35.208  1.00  0.00     0.180 C 
ATOM      2  C   UNL     1      22.314  34.417  35.239  1.00  0.00     0.177 C 
ATOM      3  C   UNL     1      23.423  33.864  34.344  1.00  0.00     0.180 C 
ATOM      4  C   UNL     1      23.558  32.328  34.387  1.00  0.00     0.214 C 
ATOM      5  C   UNL     1      22.403  31.629  35.107  1.00  0.00     0.339 C 
ATOM      6  O   UNL     1      21.129  32.179  34.816  1.00  0.00    -0.332 OA
ENDROOT
BRANCH   1   7
ATOM      7  C   UNL     1      20.243  33.663  36.572  1.00  0.00     0.198 C 
BRANCH   7   8
ATOM      8  O   UNL     1      20.390  34.966  37.143  1.00  0.00    -0.347 OA
BRANCH   8   9
ATOM      9  C   UNL     1      20.818  34.958  38.505  1.00  0.00     0.281 C 
ATOM     10  C   UNL     1      23.881  34.262  40.211  1.00  0.00     0.041 C 
ATOM     11  C   UNL     1      22.729  35.226  39.945  1.00  0.00     0.150 C 
ATOM     12  C   UNL     1      21.684  35.092  41.084  1.00  0.00     0.174 C 
ATOM     13  O   UNL     1      22.244  34.950  38.631  1.00  0.00    -0.344 OA
ATOM     14  C   UNL     1      20.518  36.067  40.814  1.00  0.00     0.179 C 
ATOM     15  C   UNL     1      20.153  36.126  39.307  1.00  0.00     0.202 C 
BRANCH  12  16
ATOM     16  O   UNL     1      22.236  35.458  42.318  1.00  0.00    -0.388 OA
ATOM     17  H   UNL     1      21.928  34.798  42.980  1.00  0.00     0.211 HD
ENDBRANCH  12  16
BRANCH  14  18
ATOM     18  O   UNL     1      20.859  37.363  41.270  1.00  0.00    -0.387 OA
ATOM     19  H   UNL     1      21.720  37.295  41.750  1.00  0.00     0.211 HD
ENDBRANCH  14  18
BRANCH  15  20
ATOM     20  O   UNL     1      18.753  36.075  39.144  1.00  0.00    -0.385 OA
ATOM     21  H   UNL     1      18.526  36.630  38.356  1.00  0.00     0.211 HD
ENDBRANCH  15  20
ENDBRANCH   8   9
ENDBRANCH   7   8
ENDBRANCH   1   7
BRANCH   2  22
ATOM     22  O   UNL     1      22.001  35.750  34.835  1.00  0.00    -0.387 OA
ATOM     23  H   UNL     1      21.647  35.679  33.925  1.00  0.00     0.211 HD
ENDBRANCH   2  22
BRANCH   3  24
ATOM     24  O   UNL     1      24.656  34.432  34.734  1.00  0.00    -0.387 OA
ATOM     25  H   UNL     1      25.350  34.193  34.057  1.00  0.00     0.211 HD
ENDBRANCH   3  24
BRANCH   5  26
ATOM     26  O   UNL     1      22.656  31.493  36.537  1.00  0.00    -0.454 OA
BRANCH  26  27
ATOM     27  C   UNL     1      22.712  30.250  37.225  1.00  0.00     0.214 A 
ATOM     28  C   UNL     1      21.589  29.650  37.831  1.00  0.00     0.180 A 
ATOM     29  C   UNL     1      23.937  29.578  37.389  1.00  0.00     0.239 A 
ATOM     30  O   UNL     1      21.762  28.974  38.971  1.00  0.00    -0.452 OA
ATOM     31  C   UNL     1      24.118  28.844  38.592  1.00  0.00     0.111 A 
ATOM     32  O   UNL     1      24.885  29.663  36.534  1.00  0.00    -0.285 OA
ATOM     33  C   UNL     1      22.973  28.672  39.428  1.00  0.00     0.146 A 
ATOM     34  C   UNL     1      25.366  28.333  39.033  1.00  0.00     0.134 A 
ATOM     35  C   UNL     1      23.118  28.121  40.706  1.00  0.00     0.094 A 
ATOM     36  C   UNL     1      25.497  27.923  40.376  1.00  0.00     0.093 A 
ATOM     37  C   UNL     1      24.410  27.827  41.214  1.00  0.00     0.123 A 
BRANCH  28  38
ATOM     38  C   UNL     1      20.225  29.647  37.227  1.00  0.00     0.025 A 
ATOM     39  C   UNL     1      19.217  30.492  37.720  1.00  0.00     0.062 A 
ATOM     40  C   UNL     1      19.943  28.749  36.188  1.00  0.00     0.016 A 
ATOM     41  C   UNL     1      17.920  30.412  37.192  1.00  0.00     0.158 A 
ATOM     42  C   UNL     1      18.665  28.714  35.627  1.00  0.00     0.051 A 
ATOM     43  C   UNL     1      17.645  29.544  36.118  1.00  0.00     0.157 A 
BRANCH  41  44
ATOM     44  O   UNL     1      16.901  31.198  37.706  1.00  0.00    -0.504 OA
ATOM     45  H   UNL     1      16.141  31.549  37.123  1.00  0.00     0.293 HD
ENDBRANCH  41  44
BRANCH  43  46
ATOM     46  O   UNL     1      16.372  29.493  35.532  1.00  0.00    -0.504 OA
ATOM     47  H   UNL     1      16.044  30.245  34.937  1.00  0.00     0.293 HD
ENDBRANCH  43  46
ENDBRANCH  28  38
BRANCH  34  48
ATOM     48  O   UNL     1      26.463  28.245  38.146  1.00  0.00    -0.507 OA
ATOM     49  H   UNL     1      26.823  27.334  37.907  1.00  0.00     0.293 HD
ENDBRANCH  34  48
BRANCH  37  50
ATOM     50  O   UNL     1      24.612  27.507  42.561  1.00  0.00    -0.508 OA
ATOM     51  H   UNL     1      24.839  26.557  42.827  1.00  0.00     0.293 HD
ENDBRANCH  37  50
ENDBRANCH  26  27
ENDBRANCH   5  26
BRANCH   4  52
ATOM     52  O   UNL     1      24.756  31.929  35.004  1.00  0.00    -0.384 OA
ATOM     53  H   UNL     1      24.653  30.993  35.325  1.00  0.00     0.211 HD
ENDBRANCH   4  52
TORSDOF 16
ENDMDL
MODEL 6
REMARK VINA RESULT:    -7.336      1.887      6.746
REMARK INTER + INTRA:         -15.152
REMARK INTER:                 -12.243
REMARK INTRA:                  -2.910
REMARK UNBOUND:                -3.098
REMARK SMILES C[C@H]1O[C@H](OC[C@@H]2O[C@H](Oc3c(-c4ccc(O)c(O)c4)oc4cc(O)cc(O)c4c3=O)[C@H](O)[C@H](O)[C@H]2O)[C@@H](O)[C@H](O)[C@@H]1O
REMARK SMILES IDX 7 1 36 2 34 3 32 4 9 5 8 6 6 7 5 8 4 9 1 10 2 11 42 12 3 13
REMARK SMILES IDX 40 14 38 15 43 16 41 18 39 20 37 22 35 24 10 26 11 27 12 28
REMARK SMILES IDX 30 29 21 30 29 31 31 32 22 33 27 34 23 35 26 36 24 37 13 38
REMARK SMILES IDX 20 39 14 40 18 41 15 42 16 43 19 44 17 46 28 48 25 50 33 52
REMARK H PARENT 43 17 41 19 39 21 37 23 35 25 19 45 17 47 28 49 25 51 33 53
REMARK Flexibility Score: inf
ROOT
ATOM      1  C   UNL     1      25.102  33.567  37.961  1.00  0.00     0.180 C 
ATOM      2  C   UNL     1      24.350  34.930  38.123  1.00  0.00     0.177 C 
ATOM      3  C   UNL     1      23.712  35.119  39.500  1.00  0.00     0.180 C 
ATOM      4  C   UNL     1      23.033  33.851  40.057  1.00  0.00     0.214 C 
ATOM      5  C   UNL     1      23.343  32.585  39.255  1.00  0.00     0.339 C 
ATOM      6  O   UNL     1      24.693  32.488  38.836  1.00  0.00    -0.332 OA
ENDROOT
BRANCH   1   7
ATOM      7  C   UNL     1      25.065  33.085  36.475  1.00  0.00     0.198 C 
BRANCH   7   8
ATOM      8  O   UNL     1      24.720  34.163  35.600  1.00  0.00    -0.347 OA
BRANCH   8   9
ATOM      9  C   UNL     1      23.666  33.857  34.688  1.00  0.00     0.281 C 
ATOM     10  C   UNL     1      20.201  33.030  34.985  1.00  0.00     0.041 C 
ATOM     11  C   UNL     1      21.279  33.927  34.382  1.00  0.00     0.150 C 
ATOM     12  C   UNL     1      21.612  33.425  32.952  1.00  0.00     0.174 C 
ATOM     13  O   UNL     1      22.373  33.941  35.299  1.00  0.00    -0.344 OA
ATOM     14  C   UNL     1      22.704  34.331  32.344  1.00  0.00     0.179 C 
ATOM     15  C   UNL     1      23.776  34.728  33.394  1.00  0.00     0.202 C 
BRANCH  12  16
ATOM     16  O   UNL     1      20.495  33.522  32.112  1.00  0.00    -0.388 OA
ATOM     17  H   UNL     1      20.691  34.225  31.451  1.00  0.00     0.211 HD
ENDBRANCH  12  16
BRANCH  14  18
ATOM     18  O   UNL     1      22.113  35.499  31.804  1.00  0.00    -0.387 OA
ATOM     19  H   UNL     1      21.907  35.320  30.855  1.00  0.00     0.211 HD
ENDBRANCH  14  18
BRANCH  15  20
ATOM     20  O   UNL     1      25.067  34.597  32.843  1.00  0.00    -0.385 OA
ATOM     21  H   UNL     1      25.705  34.994  33.488  1.00  0.00     0.211 HD
ENDBRANCH  15  20
ENDBRANCH   8   9
ENDBRANCH   7   8
ENDBRANCH   1   7
BRANCH   2  22
ATOM     22  O   UNL     1      25.276  35.989  37.882  1.00  0.00    -0.387 OA
ATOM     23  H   UNL     1      25.054  36.344  36.997  1.00  0.00     0.211 HD
ENDBRANCH   2  22
BRANCH   3  24
ATOM     24  O   UNL     1      22.747  36.147  39.423  1.00  0.00    -0.387 OA
ATOM     25  H   UNL     1      21.985  35.920  40.028  1.00  0.00     0.211 HD
ENDBRANCH   3  24
BRANCH   5  26
ATOM     26  O   UNL     1      22.390  32.380  38.171  1.00  0.00    -0.454 OA
BRANCH  26  27
ATOM     27  C   UNL     1      21.515  31.263  38.074  1.00  0.00     0.214 A 
ATOM     28  C   UNL     1      21.964  29.947  37.836  1.00  0.00     0.180 A 
ATOM     29  C   UNL     1      20.121  31.437  38.151  1.00  0.00     0.239 A 
ATOM     30  O   UNL     1      21.211  29.140  37.085  1.00  0.00    -0.452 OA
ATOM     31  C   UNL     1      19.316  30.568  37.366  1.00  0.00     0.111 A 
ATOM     32  O   UNL     1      19.584  32.371  38.840  1.00  0.00    -0.285 OA
ATOM     33  C   UNL     1      19.968  29.463  36.740  1.00  0.00     0.146 A 
ATOM     34  C   UNL     1      17.932  30.769  37.123  1.00  0.00     0.134 A 
ATOM     35  C   UNL     1      19.277  28.678  35.811  1.00  0.00     0.094 A 
ATOM     36  C   UNL     1      17.315  30.053  36.076  1.00  0.00     0.093 A 
ATOM     37  C   UNL     1      17.961  29.035  35.413  1.00  0.00     0.123 A 
BRANCH  28  38
ATOM     38  C   UNL     1      23.194  29.369  38.451  1.00  0.00     0.025 A 
ATOM     39  C   UNL     1      24.418  29.379  37.761  1.00  0.00     0.062 A 
ATOM     40  C   UNL     1      23.105  28.765  39.713  1.00  0.00     0.016 A 
ATOM     41  C   UNL     1      25.541  28.755  38.323  1.00  0.00     0.158 A 
ATOM     42  C   UNL     1      24.240  28.196  40.294  1.00  0.00     0.051 A 
ATOM     43  C   UNL     1      25.466  28.189  39.610  1.00  0.00     0.157 A 
BRANCH  41  44
ATOM     44  O   UNL     1      26.740  28.707  37.630  1.00  0.00    -0.504 OA
ATOM     45  H   UNL     1      27.040  29.463  37.014  1.00  0.00     0.293 HD
ENDBRANCH  41  44
BRANCH  43  46
ATOM     46  O   UNL     1      26.592  27.615  40.219  1.00  0.00    -0.504 OA
ATOM     47  H   UNL     1      27.128  26.897  39.746  1.00  0.00     0.293 HD
ENDBRANCH  43  46
ENDBRANCH  28  38
BRANCH  34  48
ATOM     48  O   UNL     1      17.186  31.677  37.907  1.00  0.00    -0.507 OA
ATOM     49  H   UNL     1      17.484  31.860  38.854  1.00  0.00     0.293 HD
ENDBRANCH  34  48
BRANCH  37  50
ATOM     50  O   UNL     1      17.335  28.425  34.322  1.00  0.00    -0.508 OA
ATOM     51  H   UNL     1      17.108  27.439  34.356  1.00  0.00     0.293 HD
ENDBRANCH  37  50
ENDBRANCH  26  27
ENDBRANCH   5  26
BRANCH   4  52
ATOM     52  O   UNL     1      21.635  33.995  40.114  1.00  0.00    -0.384 OA
ATOM     53  H   UNL     1      21.271  33.315  40.743  1.00  0.00     0.211 HD
ENDBRANCH   4  52
TORSDOF 16
ENDMDL
MODEL 7
REMARK VINA RESULT:    -7.325      1.790      6.589
REMARK INTER + INTRA:         -15.134
REMARK INTER:                 -12.901
REMARK INTRA:                  -2.233
REMARK UNBOUND:                -3.098
REMARK SMILES C[C@H]1O[C@H](OC[C@@H]2O[C@H](Oc3c(-c4ccc(O)c(O)c4)oc4cc(O)cc(O)c4c3=O)[C@H](O)[C@H](O)[C@H]2O)[C@@H](O)[C@H](O)[C@@H]1O
REMARK SMILES IDX 7 1 36 2 34 3 32 4 9 5 8 6 6 7 5 8 4 9 1 10 2 11 42 12 3 13
REMARK SMILES IDX 40 14 38 15 43 16 41 18 39 20 37 22 35 24 10 26 11 27 12 28
REMARK SMILES IDX 30 29 21 30 29 31 31 32 22 33 27 34 23 35 26 36 24 37 13 38
REMARK SMILES IDX 20 39 14 40 18 41 15 42 16 43 19 44 17 46 28 48 25 50 33 52
REMARK H PARENT 43 17 41 19 39 21 37 23 35 25 19 45 17 47 28 49 25 51 33 53
REMARK Flexibility Score: inf
ROOT
ATOM      1  C   UNL     1      19.156  30.937  37.612  1.00  0.00     0.180 C 
ATOM      2  C   UNL     1      18.851  30.090  36.332  1.00  0.00     0.177 C 
ATOM      3  C   UNL     1      19.222  28.614  36.469  1.00  0.00     0.180 C 
ATOM      4  C   UNL     1      20.563  28.368  37.193  1.00  0.00     0.214 C 
ATOM      5  C   UNL     1      21.140  29.618  37.860  1.00  0.00     0.339 C 
ATOM      6  O   UNL     1      20.169  30.421  38.509  1.00  0.00    -0.332 OA
ENDROOT
BRANCH   1   7
ATOM      7  C   UNL     1      19.489  32.417  37.234  1.00  0.00     0.198 C 
BRANCH   7   8
ATOM      8  O   UNL     1      18.563  32.913  36.263  1.00  0.00    -0.347 OA
BRANCH   8   9
ATOM      9  C   UNL     1      19.082  33.968  35.453  1.00  0.00     0.281 C 
ATOM     10  C   UNL     1      20.971  34.163  32.425  1.00  0.00     0.041 C 
ATOM     11  C   UNL     1      19.724  34.561  33.210  1.00  0.00     0.150 C 
ATOM     12  C   UNL     1      19.939  35.971  33.820  1.00  0.00     0.174 C 
ATOM     13  O   UNL     1      19.470  33.517  34.151  1.00  0.00    -0.344 OA
ATOM     14  C   UNL     1      18.678  36.372  34.615  1.00  0.00     0.179 C 
ATOM     15  C   UNL     1      18.084  35.172  35.399  1.00  0.00     0.202 C 
BRANCH  12  16
ATOM     16  O   UNL     1      20.103  36.933  32.815  1.00  0.00    -0.388 OA
ATOM     17  H   UNL     1      19.376  36.800  32.165  1.00  0.00     0.211 HD
ENDBRANCH  12  16
BRANCH  14  18
ATOM     18  O   UNL     1      17.700  36.894  33.734  1.00  0.00    -0.387 OA
ATOM     19  H   UNL     1      17.441  36.173  33.111  1.00  0.00     0.211 HD
ENDBRANCH  14  18
BRANCH  15  20
ATOM     20  O   UNL     1      17.747  35.567  36.709  1.00  0.00    -0.385 OA
ATOM     21  H   UNL     1      18.388  35.130  37.324  1.00  0.00     0.211 HD
ENDBRANCH  15  20
ENDBRANCH   8   9
ENDBRANCH   7   8
ENDBRANCH   1   7
BRANCH   2  22
ATOM     22  O   UNL     1      17.459  30.203  36.036  1.00  0.00    -0.387 OA
ATOM     23  H   UNL     1      17.402  30.678  35.182  1.00  0.00     0.211 HD
ENDBRANCH   2  22
BRANCH   3  24
ATOM     24  O   UNL     1      19.295  28.035  35.183  1.00  0.00    -0.387 OA
ATOM     25  H   UNL     1      19.778  27.163  35.248  1.00  0.00     0.211 HD
ENDBRANCH   3  24
BRANCH   5  26
ATOM     26  O   UNL     1      21.995  30.374  36.952  1.00  0.00    -0.454 OA
BRANCH  26  27
ATOM     27  C   UNL     1      22.809  31.471  37.347  1.00  0.00     0.214 A 
ATOM     28  C   UNL     1      23.636  31.448  38.489  1.00  0.00     0.180 A 
ATOM     29  C   UNL     1      22.778  32.681  36.629  1.00  0.00     0.239 A 
ATOM     30  O   UNL     1      23.786  32.574  39.193  1.00  0.00    -0.452 OA
ATOM     31  C   UNL     1      22.953  33.879  37.372  1.00  0.00     0.111 A 
ATOM     32  O   UNL     1      22.537  32.727  35.374  1.00  0.00    -0.285 OA
ATOM     33  C   UNL     1      23.360  33.747  38.734  1.00  0.00     0.146 A 
ATOM     34  C   UNL     1      22.693  35.177  36.862  1.00  0.00     0.134 A 
ATOM     35  C   UNL     1      23.376  34.868  39.571  1.00  0.00     0.094 A 
ATOM     36  C   UNL     1      22.576  36.253  37.767  1.00  0.00     0.093 A 
ATOM     37  C   UNL     1      22.893  36.118  39.099  1.00  0.00     0.123 A 
BRANCH  28  38
ATOM     38  C   UNL     1      24.431  30.259  38.912  1.00  0.00     0.025 A 
ATOM     39  C   UNL     1      25.712  30.024  38.386  1.00  0.00     0.062 A 
ATOM     40  C   UNL     1      23.862  29.344  39.809  1.00  0.00     0.016 A 
ATOM     41  C   UNL     1      26.406  28.856  38.734  1.00  0.00     0.158 A 
ATOM     42  C   UNL     1      24.581  28.212  40.197  1.00  0.00     0.051 A 
ATOM     43  C   UNL     1      25.857  27.959  39.669  1.00  0.00     0.157 A 
BRANCH  41  44
ATOM     44  O   UNL     1      27.646  28.582  38.179  1.00  0.00    -0.504 OA
ATOM     45  H   UNL     1      27.970  29.038  37.325  1.00  0.00     0.293 HD
ENDBRANCH  41  44
BRANCH  43  46
ATOM     46  O   UNL     1      26.560  26.817  40.080  1.00  0.00    -0.504 OA
ATOM     47  H   UNL     1      27.456  26.899  40.546  1.00  0.00     0.293 HD
ENDBRANCH  43  46
ENDBRANCH  28  38
BRANCH  34  48
ATOM     48  O   UNL     1      22.541  35.389  35.473  1.00  0.00    -0.507 OA
ATOM     49  H   UNL     1      23.096  36.104  35.027  1.00  0.00     0.293 HD
ENDBRANCH  34  48
BRANCH  37  50
ATOM     50  O   UNL     1      22.667  37.191  39.967  1.00  0.00    -0.508 OA
ATOM     51  H   UNL     1      22.975  38.121  39.713  1.00  0.00     0.293 HD
ENDBRANCH  37  50
ENDBRANCH  26  27
ENDBRANCH   5  26
BRANCH   4  52
ATOM     52  O   UNL     1      21.537  27.856  36.318  1.00  0.00    -0.384 OA
ATOM     53  H   UNL     1      21.823  26.962  36.648  1.00  0.00     0.211 HD
ENDBRANCH   4  52
TORSDOF 16
ENDMDL
MODEL 8
REMARK VINA RESULT:    -7.313      2.402      6.810
REMARK INTER + INTRA:         -15.114
REMARK INTER:                 -13.052
REMARK INTRA:                  -2.062
REMARK UNBOUND:                -3.098
REMARK SMILES C[C@H]1O[C@H](OC[C@@H]2O[C@H](Oc3c(-c4ccc(O)c(O)c4)oc4cc(O)cc(O)c4c3=O)[C@H](O)[C@H](O)[C@H]2O)[C@@H](O)[C@H](O)[C@@H]1O
REMARK SMILES IDX 7 1 36 2 34 3 32 4 9 5 8 6 6 7 5 8 4 9 1 10 2 11 42 12 3 13
REMARK SMILES IDX 40 14 38 15 43 16 41 18 39 20 37 22 35 24 10 26 11 27 12 28
REMARK SMILES IDX 30 29 21 30 29 31 31 32 22 33 27 34 23 35 26 36 24 37 13 38
REMARK SMILES IDX 20 39 14 40 18 41 15 42 16 43 19 44 17 46 28 48 25 50 33 52
REMARK H PARENT 43 17 41 19 39 21 37 23 35 25 19 45 17 47 28 49 25 51 33 53
REMARK Flexibility Score: inf
ROOT
ATOM      1  C   UNL     1      18.787  30.873  37.600  1.00  0.00     0.180 C 
ATOM      2  C   UNL     1      18.571  30.053  36.285  1.00  0.00     0.177 C 
ATOM      3  C   UNL     1      19.041  28.602  36.381  1.00  0.00     0.180 C 
ATOM      4  C   UNL     1      20.379  28.424  37.128  1.00  0.00     0.214 C 
ATOM      5  C   UNL     1      20.852  29.686  37.851  1.00  0.00     0.339 C 
ATOM      6  O   UNL     1      19.814  30.397  38.504  1.00  0.00    -0.332 OA
ENDROOT
BRANCH   1   7
ATOM      7  C   UNL     1      19.024  32.384  37.280  1.00  0.00     0.198 C 
BRANCH   7   8
ATOM      8  O   UNL     1      17.879  32.953  36.639  1.00  0.00    -0.347 OA
BRANCH   8   9
ATOM      9  C   UNL     1      16.949  33.555  37.540  1.00  0.00     0.281 C 
ATOM     10  C   UNL     1      16.882  36.528  39.523  1.00  0.00     0.041 C 
ATOM     11  C   UNL     1      16.217  35.654  38.463  1.00  0.00     0.150 C 
ATOM     12  C   UNL     1      15.120  34.789  39.136  1.00  0.00     0.174 C 
ATOM     13  O   UNL     1      17.256  34.928  37.806  1.00  0.00    -0.344 OA
ATOM     14  C   UNL     1      14.449  33.904  38.063  1.00  0.00     0.179 C 
ATOM     15  C   UNL     1      15.480  33.355  37.042  1.00  0.00     0.202 C 
BRANCH  12  16
ATOM     16  O   UNL     1      14.111  35.592  39.683  1.00  0.00    -0.388 OA
ATOM     17  H   UNL     1      14.189  35.527  40.662  1.00  0.00     0.211 HD
ENDBRANCH  12  16
BRANCH  14  18
ATOM     18  O   UNL     1      13.455  34.647  37.382  1.00  0.00    -0.387 OA
ATOM     19  H   UNL     1      13.758  35.586  37.338  1.00  0.00     0.211 HD
ENDBRANCH  14  18
BRANCH  15  20
ATOM     20  O   UNL     1      15.243  31.985  36.803  1.00  0.00    -0.385 OA
ATOM     21  H   UNL     1      14.649  31.921  36.013  1.00  0.00     0.211 HD
ENDBRANCH  15  20
ENDBRANCH   8   9
ENDBRANCH   7   8
ENDBRANCH   1   7
BRANCH   2  22
ATOM     22  O   UNL     1      17.180  30.079  35.959  1.00  0.00    -0.387 OA
ATOM     23  H   UNL     1      17.099  30.657  35.173  1.00  0.00     0.211 HD
ENDBRANCH   2  22
BRANCH   3  24
ATOM     24  O   UNL     1      19.182  28.075  35.078  1.00  0.00    -0.387 OA
ATOM     25  H   UNL     1      18.394  28.353  34.531  1.00  0.00     0.211 HD
ENDBRANCH   3  24
BRANCH   5  26
ATOM     26  O   UNL     1      21.672  30.531  36.991  1.00  0.00    -0.454 OA
BRANCH  26  27
ATOM     27  C   UNL     1      22.411  31.658  37.445  1.00  0.00     0.214 A 
ATOM     28  C   UNL     1      23.265  31.623  38.567  1.00  0.00     0.180 A 
ATOM     29  C   UNL     1      22.270  32.908  36.813  1.00  0.00     0.239 A 
ATOM     30  O   UNL     1      23.345  32.707  39.344  1.00  0.00    -0.452 OA
ATOM     31  C   UNL     1      22.373  34.063  37.634  1.00  0.00     0.111 A 
ATOM     32  O   UNL     1      21.997  33.020  35.569  1.00  0.00    -0.285 OA
ATOM     33  C   UNL     1      22.821  33.872  38.976  1.00  0.00     0.146 A 
ATOM     34  C   UNL     1      22.002  35.369  37.220  1.00  0.00     0.134 A 
ATOM     35  C   UNL     1      22.772  34.932  39.887  1.00  0.00     0.094 A 
ATOM     36  C   UNL     1      21.826  36.369  38.199  1.00  0.00     0.093 A 
ATOM     37  C   UNL     1      22.184  36.169  39.511  1.00  0.00     0.123 A 
BRANCH  28  38
ATOM     38  C   UNL     1      24.157  30.473  38.892  1.00  0.00     0.025 A 
ATOM     39  C   UNL     1      25.507  30.477  38.505  1.00  0.00     0.062 A 
ATOM     40  C   UNL     1      23.619  29.357  39.547  1.00  0.00     0.016 A 
ATOM     41  C   UNL     1      26.306  29.350  38.747  1.00  0.00     0.158 A 
ATOM     42  C   UNL     1      24.432  28.260  39.838  1.00  0.00     0.051 A 
ATOM     43  C   UNL     1      25.780  28.247  39.446  1.00  0.00     0.157 A 
BRANCH  41  44
ATOM     44  O   UNL     1      27.624  29.316  38.320  1.00  0.00    -0.504 OA
ATOM     45  H   UNL     1      28.365  29.819  38.810  1.00  0.00     0.293 HD
ENDBRANCH  41  44
BRANCH  43  46
ATOM     46  O   UNL     1      26.577  27.135  39.755  1.00  0.00    -0.504 OA
ATOM     47  H   UNL     1      27.551  27.250  40.009  1.00  0.00     0.293 HD
ENDBRANCH  43  46
ENDBRANCH  28  38
BRANCH  34  48
ATOM     48  O   UNL     1      21.802  35.662  35.852  1.00  0.00    -0.507 OA
ATOM     49  H   UNL     1      20.871  35.882  35.533  1.00  0.00     0.293 HD
ENDBRANCH  34  48
BRANCH  37  50
ATOM     50  O   UNL     1      21.899  37.161  40.456  1.00  0.00    -0.508 OA
ATOM     51  H   UNL     1      20.951  37.496  40.567  1.00  0.00     0.293 HD
ENDBRANCH  37  50
ENDBRANCH  26  27
ENDBRANCH   5  26
BRANCH   4  52
ATOM     52  O   UNL     1      21.406  28.012  36.261  1.00  0.00    -0.384 OA
ATOM     53  H   UNL     1      22.261  28.422  36.562  1.00  0.00     0.211 HD
ENDBRANCH   4  52
TORSDOF 16
ENDMDL
MODEL 9
REMARK VINA RESULT:    -7.161      2.091      3.289
REMARK INTER + INTRA:         -14.865
REMARK INTER:                 -12.208
REMARK INTRA:                  -2.657
REMARK UNBOUND:                -3.098
REMARK SMILES C[C@H]1O[C@H](OC[C@@H]2O[C@H](Oc3c(-c4ccc(O)c(O)c4)oc4cc(O)cc(O)c4c3=O)[C@H](O)[C@H](O)[C@H]2O)[C@@H](O)[C@H](O)[C@@H]1O
REMARK SMILES IDX 7 1 36 2 34 3 32 4 9 5 8 6 6 7 5 8 4 9 1 10 2 11 42 12 3 13
REMARK SMILES IDX 40 14 38 15 43 16 41 18 39 20 37 22 35 24 10 26 11 27 12 28
REMARK SMILES IDX 30 29 21 30 29 31 31 32 22 33 27 34 23 35 26 36 24 37 13 38
REMARK SMILES IDX 20 39 14 40 18 41 15 42 16 43 19 44 17 46 28 48 25 50 33 52
REMARK H PARENT 43 17 41 19 39 21 37 23 35 25 19 45 17 47 28 49 25 51 33 53
REMARK Flexibility Score: inf
ROOT
ATOM      1  C   UNL     1      20.770  33.729  35.484  1.00  0.00     0.180 C 
ATOM      2  C   UNL     1      22.099  34.554  35.433  1.00  0.00     0.177 C 
ATOM      3  C   UNL     1      23.121  34.010  34.434  1.00  0.00     0.180 C 
ATOM      4  C   UNL     1      23.228  32.471  34.420  1.00  0.00     0.214 C 
ATOM      5  C   UNL     1      22.122  31.770  35.212  1.00  0.00     0.339 C 
ATOM      6  O   UNL     1      20.840  32.351  35.042  1.00  0.00    -0.332 OA
ENDROOT
BRANCH   1   7
ATOM      7  C   UNL     1      20.129  33.795  36.908  1.00  0.00     0.198 C 
BRANCH   7   8
ATOM      8  O   UNL     1      18.713  33.607  36.836  1.00  0.00    -0.347 OA
BRANCH   8   9
ATOM      9  C   UNL     1      17.970  34.445  37.721  1.00  0.00     0.281 C 
ATOM     10  C   UNL     1      18.776  37.005  40.081  1.00  0.00     0.041 C 
ATOM     11  C   UNL     1      17.982  36.569  38.854  1.00  0.00     0.150 C 
ATOM     12  C   UNL     1      16.554  36.156  39.297  1.00  0.00     0.174 C 
ATOM     13  O   UNL     1      18.742  35.552  38.202  1.00  0.00    -0.344 OA
ATOM     14  C   UNL     1      15.751  35.713  38.054  1.00  0.00     0.179 C 
ATOM     15  C   UNL     1      16.622  34.893  37.066  1.00  0.00     0.202 C 
BRANCH  12  16
ATOM     16  O   UNL     1      15.866  37.241  39.854  1.00  0.00    -0.388 OA
ATOM     17  H   UNL     1      15.313  36.888  40.587  1.00  0.00     0.211 HD
ENDBRANCH  12  16
BRANCH  14  18
ATOM     18  O   UNL     1      15.224  36.849  37.393  1.00  0.00    -0.387 OA
ATOM     19  H   UNL     1      14.726  37.381  38.060  1.00  0.00     0.211 HD
ENDBRANCH  14  18
BRANCH  15  20
ATOM     20  O   UNL     1      15.913  33.760  36.619  1.00  0.00    -0.385 OA
ATOM     21  H   UNL     1      14.966  34.029  36.504  1.00  0.00     0.211 HD
ENDBRANCH  15  20
ENDBRANCH   8   9
ENDBRANCH   7   8
ENDBRANCH   1   7
BRANCH   2  22
ATOM     22  O   UNL     1      21.780  35.904  35.095  1.00  0.00    -0.387 OA
ATOM     23  H   UNL     1      21.723  36.387  35.945  1.00  0.00     0.211 HD
ENDBRANCH   2  22
BRANCH   3  24
ATOM     24  O   UNL     1      24.392  34.545  34.739  1.00  0.00    -0.387 OA
ATOM     25  H   UNL     1      24.293  35.518  34.941  1.00  0.00     0.211 HD
ENDBRANCH   3  24
BRANCH   5  26
ATOM     26  O   UNL     1      22.487  31.586  36.611  1.00  0.00    -0.454 OA
BRANCH  26  27
ATOM     27  C   UNL     1      22.570  30.322  37.257  1.00  0.00     0.214 A 
ATOM     28  C   UNL     1      21.461  29.679  37.844  1.00  0.00     0.180 A 
ATOM     29  C   UNL     1      23.809  29.669  37.396  1.00  0.00     0.239 A 
ATOM     30  O   UNL     1      21.649  28.969  38.960  1.00  0.00    -0.452 OA
ATOM     31  C   UNL     1      24.006  28.899  38.573  1.00  0.00     0.111 A 
ATOM     32  O   UNL     1      24.753  29.802  36.544  1.00  0.00    -0.285 OA
ATOM     33  C   UNL     1      22.867  28.676  39.405  1.00  0.00     0.146 A 
ATOM     34  C   UNL     1      25.265  28.398  38.995  1.00  0.00     0.134 A 
ATOM     35  C   UNL     1      23.026  28.085  40.663  1.00  0.00     0.094 A 
ATOM     36  C   UNL     1      25.408  27.946  40.324  1.00  0.00     0.093 A 
ATOM     37  C   UNL     1      24.325  27.799  41.159  1.00  0.00     0.123 A 
BRANCH  28  38
ATOM     38  C   UNL     1      20.096  29.668  37.242  1.00  0.00     0.025 A 
ATOM     39  C   UNL     1      19.081  30.501  37.743  1.00  0.00     0.062 A 
ATOM     40  C   UNL     1      19.819  28.776  36.197  1.00  0.00     0.016 A 
ATOM     41  C   UNL     1      17.784  30.414  37.217  1.00  0.00     0.158 A 
ATOM     42  C   UNL     1      18.541  28.734  35.637  1.00  0.00     0.051 A 
ATOM     43  C   UNL     1      17.515  29.552  36.136  1.00  0.00     0.157 A 
BRANCH  41  44
ATOM     44  O   UNL     1      16.760  31.188  37.738  1.00  0.00    -0.504 OA
ATOM     45  H   UNL     1      15.786  30.884  37.715  1.00  0.00     0.293 HD
ENDBRANCH  41  44
BRANCH  43  46
ATOM     46  O   UNL     1      16.241  29.495  35.552  1.00  0.00    -0.504 OA
ATOM     47  H   UNL     1      15.810  28.604  35.335  1.00  0.00     0.293 HD
ENDBRANCH  43  46
ENDBRANCH  28  38
BRANCH  34  48
ATOM     48  O   UNL     1      26.362  28.362  38.104  1.00  0.00    -0.507 OA
ATOM     49  H   UNL     1      27.278  28.606  38.450  1.00  0.00     0.293 HD
ENDBRANCH  34  48
BRANCH  37  50
ATOM     50  O   UNL     1      24.536  27.438  42.494  1.00  0.00    -0.508 OA
ATOM     51  H   UNL     1      23.778  27.504  43.162  1.00  0.00     0.293 HD
ENDBRANCH  37  50
ENDBRANCH  26  27
ENDBRANCH   5  26
BRANCH   4  52
ATOM     52  O   UNL     1      24.465  32.033  34.925  1.00  0.00    -0.384 OA
ATOM     53  H   UNL     1      24.332  31.714  35.859  1.00  0.00     0.211 HD
ENDBRANCH   4  52
TORSDOF 16
ENDMDL
