MODEL 1
REMARK VINA RESULT:    -4.337      0.000      0.000
REMARK INTER + INTRA:          -9.651
REMARK INTER:                  -7.887
REMARK INTRA:                  -1.764
REMARK UNBOUND:                -1.764
REMARK SMILES CCCCCCCCCCCCCCCC(=O)[O-]
REMARK SMILES IDX 9 1 10 2 11 3 12 4 13 5 14 6 15 7 16 8 17 9 18 10 8 11 7 12
REMARK SMILES IDX 6 13 5 14 4 15 3 16 2 17 1 18
REMARK H PARENT
REMARK Flexibility Score: inf
ROOT
ATOM      1  C   UNL     1      11.483  16.309  24.712  1.00  0.00     0.000 C 
ENDROOT
BRANCH   1   2
ATOM      2  C   UNL     1      11.504  14.819  24.343  1.00  0.00     0.000 C 
BRANCH   2   3
ATOM      3  C   UNL     1      11.371  14.629  22.824  1.00  0.00     0.000 C 
BRANCH   3   4
ATOM      4  C   UNL     1      10.053  15.210  22.281  1.00  0.00     0.000 C 
BRANCH   4   5
ATOM      5  C   UNL     1       8.875  14.215  22.372  1.00  0.00     0.000 C 
BRANCH   5   6
ATOM      6  C   UNL     1       9.033  12.979  21.465  1.00  0.00     0.006 C 
BRANCH   6   7
ATOM      7  C   UNL     1       7.731  12.181  21.267  1.00  0.00     0.053 C 
BRANCH   7   8
ATOM      8  C   UNL     1       7.225  11.564  22.536  1.00  0.00     0.041 C 
ATOM      9  O   UNL     1       7.888  10.662  23.113  1.00  0.00    -0.550 OA
ATOM     10  O   UNL     1       6.049  12.025  23.115  1.00  0.00    -0.550 OA
ENDBRANCH   7   8
ENDBRANCH   6   7
ENDBRANCH   5   6
ENDBRANCH   4   5
ENDBRANCH   3   4
ENDBRANCH   2   3
ENDBRANCH   1   2
BRANCH   1  11
ATOM     11  C   UNL     1      12.633  16.706  25.652  1.00  0.00     0.000 C 
BRANCH  11  12
ATOM     12  C   UNL     1      12.618  18.203  26.004  1.00  0.00    -0.000 C 
BRANCH  12  13
ATOM     13  C   UNL     1      13.162  19.091  24.869  1.00  0.00    -0.000 C 
BRANCH  13  14
ATOM     14  C   UNL     1      14.424  18.558  24.167  1.00  0.00    -0.000 C 
BRANCH  14  15
ATOM     15  C   UNL     1      14.360  18.685  22.635  1.00  0.00    -0.000 C 
BRANCH  15  16
ATOM     16  C   UNL     1      13.873  17.385  21.959  1.00  0.00    -0.000 C 
BRANCH  16  17
ATOM     17  C   UNL     1      12.680  17.590  21.009  1.00  0.00    -0.003 C 
ATOM     18  C   UNL     1      11.650  18.582  21.547  1.00  0.00     0.004 C 
ENDBRANCH  16  17
ENDBRANCH  15  16
ENDBRANCH  14  15
ENDBRANCH  13  14
ENDBRANCH  12  13
ENDBRANCH  11  12
ENDBRANCH   1  11
TORSDOF 14
ENDMDL
MODEL 2
REMARK VINA RESULT:    -4.307      3.175      7.187
REMARK INTER + INTRA:          -9.595
REMARK INTER:                  -8.393
REMARK INTRA:                  -1.203
REMARK UNBOUND:                -1.764
REMARK SMILES CCCCCCCCCCCCCCCC(=O)[O-]
REMARK SMILES IDX 9 1 10 2 11 3 12 4 13 5 14 6 15 7 16 8 17 9 18 10 8 11 7 12
REMARK SMILES IDX 6 13 5 14 4 15 3 16 2 17 1 18
REMARK H PARENT
REMARK Flexibility Score: inf
ROOT
ATOM      1  C   UNL     1      12.666  14.431  24.182  1.00  0.00     0.000 C 
ENDROOT
BRANCH   1   2
ATOM      2  C   UNL     1      11.440  15.148  24.765  1.00  0.00     0.000 C 
BRANCH   2   3
ATOM      3  C   UNL     1      11.593  16.673  24.653  1.00  0.00     0.000 C 
BRANCH   3   4
ATOM      4  C   UNL     1      12.873  17.179  25.340  1.00  0.00     0.000 C 
BRANCH   4   5
ATOM      5  C   UNL     1      13.673  18.171  24.467  1.00  0.00     0.000 C 
BRANCH   5   6
ATOM      6  C   UNL     1      14.028  17.625  23.071  1.00  0.00     0.006 C 
BRANCH   6   7
ATOM      7  C   UNL     1      13.780  18.627  21.928  1.00  0.00     0.053 C 
BRANCH   7   8
ATOM      8  C   UNL     1      12.696  18.186  20.990  1.00  0.00     0.041 C 
ATOM      9  O   UNL     1      11.521  18.017  21.411  1.00  0.00    -0.550 OA
ATOM     10  O   UNL     1      12.969  18.018  19.638  1.00  0.00    -0.550 OA
ENDBRANCH   7   8
ENDBRANCH   6   7
ENDBRANCH   5   6
ENDBRANCH   4   5
ENDBRANCH   3   4
ENDBRANCH   2   3
ENDBRANCH   1   2
BRANCH   1  11
ATOM     11  C   UNL     1      12.396  13.824  22.795  1.00  0.00     0.000 C 
BRANCH  11  12
ATOM     12  C   UNL     1      11.168  12.898  22.785  1.00  0.00    -0.000 C 
BRANCH  12  13
ATOM     13  C   UNL     1      10.081  13.352  21.793  1.00  0.00    -0.000 C 
BRANCH  13  14
ATOM     14  C   UNL     1       8.931  14.169  22.410  1.00  0.00    -0.000 C 
BRANCH  14  15
ATOM     15  C   UNL     1       7.540  13.661  21.993  1.00  0.00    -0.000 C 
BRANCH  15  16
ATOM     16  C   UNL     1       6.837  12.881  23.126  1.00  0.00    -0.000 C 
BRANCH  16  17
ATOM     17  C   UNL     1       6.738  11.368  22.867  1.00  0.00    -0.003 C 
ATOM     18  C   UNL     1       5.312  10.901  22.579  1.00  0.00     0.004 C 
ENDBRANCH  16  17
ENDBRANCH  15  16
ENDBRANCH  14  15
ENDBRANCH  13  14
ENDBRANCH  12  13
ENDBRANCH  11  12
ENDBRANCH   1  11
TORSDOF 14
ENDMDL
MODEL 3
REMARK VINA RESULT:    -4.307      1.360      2.032
REMARK INTER + INTRA:          -9.595
REMARK INTER:                  -7.795
REMARK INTRA:                  -1.801
REMARK UNBOUND:                -1.764
REMARK SMILES CCCCCCCCCCCCCCCC(=O)[O-]
REMARK SMILES IDX 9 1 10 2 11 3 12 4 13 5 14 6 15 7 16 8 17 9 18 10 8 11 7 12
REMARK SMILES IDX 6 13 5 14 4 15 3 16 2 17 1 18
REMARK H PARENT
REMARK Flexibility Score: inf
ROOT
ATOM      1  C   UNL     1      13.475  17.172  24.773  1.00  0.00     0.000 C 
ENDROOT
BRANCH   1   2
ATOM      2  C   UNL     1      13.065  15.773  24.291  1.00  0.00     0.000 C 
BRANCH   2   3
ATOM      3  C   UNL     1      11.556  15.551  24.476  1.00  0.00     0.000 C 
BRANCH   3   4
ATOM      4  C   UNL     1      10.790  15.640  23.145  1.00  0.00     0.000 C 
BRANCH   4   5
ATOM      5  C   UNL     1      10.932  14.366  22.283  1.00  0.00     0.000 C 
BRANCH   5   6
ATOM      6  C   UNL     1       9.774  13.365  22.454  1.00  0.00     0.006 C 
BRANCH   6   7
ATOM      7  C   UNL     1       8.378  13.990  22.275  1.00  0.00     0.053 C 
BRANCH   7   8
ATOM      8  C   UNL     1       7.272  12.982  22.366  1.00  0.00     0.041 C 
ATOM      9  O   UNL     1       6.483  12.990  23.348  1.00  0.00    -0.550 OA
ATOM     10  O   UNL     1       7.074  12.070  21.337  1.00  0.00    -0.550 OA
ENDBRANCH   7   8
ENDBRANCH   6   7
ENDBRANCH   5   6
ENDBRANCH   4   5
ENDBRANCH   3   4
ENDBRANCH   2   3
ENDBRANCH   1   2
BRANCH   1  11
ATOM     11  C   UNL     1      12.615  17.673  25.945  1.00  0.00     0.000 C 
BRANCH  11  12
ATOM     12  C   UNL     1      12.165  19.133  25.764  1.00  0.00    -0.000 C 
BRANCH  12  13
ATOM     13  C   UNL     1      11.344  19.354  24.480  1.00  0.00    -0.000 C 
BRANCH  13  14
ATOM     14  C   UNL     1      11.847  20.489  23.569  1.00  0.00    -0.000 C 
BRANCH  14  15
ATOM     15  C   UNL     1      12.392  19.984  22.222  1.00  0.00    -0.000 C 
BRANCH  15  16
ATOM     16  C   UNL     1      13.932  19.871  22.218  1.00  0.00    -0.000 C 
BRANCH  16  17
ATOM     17  C   UNL     1      14.459  18.631  21.476  1.00  0.00    -0.003 C 
ATOM     18  C   UNL     1      13.351  17.664  21.062  1.00  0.00     0.004 C 
ENDBRANCH  16  17
ENDBRANCH  15  16
ENDBRANCH  14  15
ENDBRANCH  13  14
ENDBRANCH  12  13
ENDBRANCH  11  12
ENDBRANCH   1  11
TORSDOF 14
ENDMDL
MODEL 4
REMARK VINA RESULT:    -4.261      3.721      7.870
REMARK INTER + INTRA:          -9.513
REMARK INTER:                  -8.044
REMARK INTRA:                  -1.469
REMARK UNBOUND:                -1.764
REMARK SMILES CCCCCCCCCCCCCCCC(=O)[O-]
REMARK SMILES IDX 9 1 10 2 11 3 12 4 13 5 14 6 15 7 16 8 17 9 18 10 8 11 7 12
REMARK SMILES IDX 6 13 5 14 4 15 3 16 2 17 1 18
REMARK H PARENT
REMARK Flexibility Score: inf
ROOT
ATOM      1  C   UNL     1       8.960  14.402  22.270  1.00  0.00     0.000 C 
ENDROOT
BRANCH   1   2
ATOM      2  C   UNL     1      10.075  13.393  22.582  1.00  0.00     0.000 C 
BRANCH   2   3
ATOM      3  C   UNL     1      11.411  14.112  22.821  1.00  0.00     0.000 C 
BRANCH   3   4
ATOM      4  C   UNL     1      11.511  14.692  24.242  1.00  0.00     0.000 C 
BRANCH   4   5
ATOM      5  C   UNL     1      12.853  15.411  24.505  1.00  0.00     0.000 C 
BRANCH   5   6
ATOM      6  C   UNL     1      12.730  16.643  25.421  1.00  0.00     0.006 C 
BRANCH   6   7
ATOM      7  C   UNL     1      12.378  17.944  24.674  1.00  0.00     0.053 C 
BRANCH   7   8
ATOM      8  C   UNL     1      13.534  18.505  23.902  1.00  0.00     0.041 C 
ATOM      9  O   UNL     1      14.716  18.278  24.273  1.00  0.00    -0.550 OA
ATOM     10  O   UNL     1      13.308  19.230  22.739  1.00  0.00    -0.550 OA
ENDBRANCH   7   8
ENDBRANCH   6   7
ENDBRANCH   5   6
ENDBRANCH   4   5
ENDBRANCH   3   4
ENDBRANCH   2   3
ENDBRANCH   1   2
BRANCH   1  11
ATOM     11  C   UNL     1       7.620  13.723  21.937  1.00  0.00     0.000 C 
BRANCH  11  12
ATOM     12  C   UNL     1       6.890  13.212  23.191  1.00  0.00    -0.000 C 
BRANCH  12  13
ATOM     13  C   UNL     1       6.127  11.897  22.947  1.00  0.00    -0.000 C 
BRANCH  13  14
ATOM     14  C   UNL     1       6.645  11.047  21.771  1.00  0.00    -0.000 C 
BRANCH  14  15
ATOM     15  C   UNL     1       7.830  10.145  22.157  1.00  0.00    -0.000 C 
BRANCH  15  16
ATOM     16  C   UNL     1       8.954  10.169  21.098  1.00  0.00    -0.000 C 
BRANCH  16  17
ATOM     17  C   UNL     1       8.539  10.822  19.769  1.00  0.00    -0.003 C 
ATOM     18  C   UNL     1       9.573  11.814  19.240  1.00  0.00     0.004 C 
ENDBRANCH  16  17
ENDBRANCH  15  16
ENDBRANCH  14  15
ENDBRANCH  13  14
ENDBRANCH  12  13
ENDBRANCH  11  12
ENDBRANCH   1  11
TORSDOF 14
ENDMDL
MODEL 5
REMARK VINA RESULT:    -4.253      3.808      7.716
REMARK INTER + INTRA:          -9.498
REMARK INTER:                  -7.773
REMARK INTRA:                  -1.725
REMARK UNBOUND:                -1.764
REMARK SMILES CCCCCCCCCCCCCCCC(=O)[O-]
REMARK SMILES IDX 9 1 10 2 11 3 12 4 13 5 14 6 15 7 16 8 17 9 18 10 8 11 7 12
REMARK SMILES IDX 6 13 5 14 4 15 3 16 2 17 1 18
REMARK H PARENT
REMARK Flexibility Score: inf
ROOT
ATOM      1  C   UNL     1      11.979  13.191  21.871  1.00  0.00     0.000 C 
ENDROOT
BRANCH   1   2
ATOM      2  C   UNL     1      10.837  13.602  22.812  1.00  0.00     0.000 C 
BRANCH   2   3
ATOM      3  C   UNL     1      10.325  15.009  22.468  1.00  0.00     0.000 C 
BRANCH   3   4
ATOM      4  C   UNL     1      11.002  16.097  23.319  1.00  0.00     0.000 C 
BRANCH   4   5
ATOM      5  C   UNL     1      11.381  15.605  24.734  1.00  0.00     0.000 C 
BRANCH   5   6
ATOM      6  C   UNL     1      12.772  16.071  25.203  1.00  0.00     0.006 C 
BRANCH   6   7
ATOM      7  C   UNL     1      13.582  16.808  24.120  1.00  0.00     0.053 C 
BRANCH   7   8
ATOM      8  C   UNL     1      13.895  18.227  24.489  1.00  0.00     0.041 C 
ATOM      9  O   UNL     1      13.101  18.886  25.211  1.00  0.00    -0.550 OA
ATOM     10  O   UNL     1      15.091  18.804  24.083  1.00  0.00    -0.550 OA
ENDBRANCH   7   8
ENDBRANCH   6   7
ENDBRANCH   5   6
ENDBRANCH   4   5
ENDBRANCH   3   4
ENDBRANCH   2   3
ENDBRANCH   1   2
BRANCH   1  11
ATOM     11  C   UNL     1      11.687  11.882  21.119  1.00  0.00     0.000 C 
BRANCH  11  12
ATOM     12  C   UNL     1      10.723  10.962  21.888  1.00  0.00    -0.000 C 
BRANCH  12  13
ATOM     13  C   UNL     1       9.499  10.542  21.052  1.00  0.00    -0.000 C 
BRANCH  13  14
ATOM     14  C   UNL     1       8.930  11.635  20.129  1.00  0.00    -0.000 C 
BRANCH  14  15
ATOM     15  C   UNL     1       7.785  12.433  20.777  1.00  0.00    -0.000 C 
BRANCH  15  16
ATOM     16  C   UNL     1       6.787  11.524  21.527  1.00  0.00    -0.000 C 
BRANCH  16  17
ATOM     17  C   UNL     1       6.515  11.965  22.975  1.00  0.00    -0.003 C 
ATOM     18  C   UNL     1       6.868  13.429  23.231  1.00  0.00     0.004 C 
ENDBRANCH  16  17
ENDBRANCH  15  16
ENDBRANCH  14  15
ENDBRANCH  13  14
ENDBRANCH  12  13
ENDBRANCH  11  12
ENDBRANCH   1  11
TORSDOF 14
ENDMDL
MODEL 6
REMARK VINA RESULT:    -4.218      5.055      7.728
REMARK INTER + INTRA:          -9.434
REMARK INTER:                  -7.373
REMARK INTRA:                  -2.060
REMARK UNBOUND:                -1.764
REMARK SMILES CCCCCCCCCCCCCCCC(=O)[O-]
REMARK SMILES IDX 9 1 10 2 11 3 12 4 13 5 14 6 15 7 16 8 17 9 18 10 8 11 7 12
REMARK SMILES IDX 6 13 5 14 4 15 3 16 2 17 1 18
REMARK H PARENT
REMARK Flexibility Score: inf
ROOT
ATOM      1  C   UNL     1      12.467  18.313  20.687  1.00  0.00     0.000 C 
ENDROOT
BRANCH   1   2
ATOM      2  C   UNL     1      13.950  18.321  21.085  1.00  0.00     0.000 C 
BRANCH   2   3
ATOM      3  C   UNL     1      14.210  19.337  22.208  1.00  0.00     0.000 C 
BRANCH   3   4
ATOM      4  C   UNL     1      13.855  20.773  21.784  1.00  0.00     0.000 C 
BRANCH   4   5
ATOM      5  C   UNL     1      12.820  21.437  22.719  1.00  0.00     0.000 C 
BRANCH   5   6
ATOM      6  C   UNL     1      11.680  22.157  21.973  1.00  0.00     0.006 C 
BRANCH   6   7
ATOM      7  C   UNL     1      10.567  22.686  22.896  1.00  0.00     0.053 C 
BRANCH   7   8
ATOM      8  C   UNL     1      10.074  24.045  22.498  1.00  0.00     0.041 C 
ATOM      9  O   UNL     1      10.829  24.837  21.873  1.00  0.00    -0.550 OA
ATOM     10  O   UNL     1       8.763  24.417  22.766  1.00  0.00    -0.550 OA
ENDBRANCH   7   8
ENDBRANCH   6   7
ENDBRANCH   5   6
ENDBRANCH   4   5
ENDBRANCH   3   4
ENDBRANCH   2   3
ENDBRANCH   1   2
BRANCH   1  11
ATOM     11  C   UNL     1      11.547  17.854  21.830  1.00  0.00     0.000 C 
BRANCH  11  12
ATOM     12  C   UNL     1      11.849  16.417  22.288  1.00  0.00    -0.000 C 
BRANCH  12  13
ATOM     13  C   UNL     1      11.025  15.994  23.519  1.00  0.00    -0.000 C 
BRANCH  13  14
ATOM     14  C   UNL     1      11.845  15.714  24.792  1.00  0.00    -0.000 C 
BRANCH  14  15
ATOM     15  C   UNL     1      12.943  16.762  25.043  1.00  0.00    -0.000 C 
BRANCH  15  16
ATOM     16  C   UNL     1      12.502  17.840  26.058  1.00  0.00    -0.000 C 
BRANCH  16  17
ATOM     17  C   UNL     1      12.272  19.225  25.429  1.00  0.00    -0.003 C 
ATOM     18  C   UNL     1      10.813  19.476  25.050  1.00  0.00     0.004 C 
ENDBRANCH  16  17
ENDBRANCH  15  16
ENDBRANCH  14  15
ENDBRANCH  13  14
ENDBRANCH  12  13
ENDBRANCH  11  12
ENDBRANCH   1  11
TORSDOF 14
ENDMDL
MODEL 7
REMARK VINA RESULT:    -4.210      4.935      7.417
REMARK INTER + INTRA:          -9.419
REMARK INTER:                  -7.093
REMARK INTRA:                  -2.326
REMARK UNBOUND:                -1.764
REMARK SMILES CCCCCCCCCCCCCCCC(=O)[O-]
REMARK SMILES IDX 9 1 10 2 11 3 12 4 13 5 14 6 15 7 16 8 17 9 18 10 8 11 7 12
REMARK SMILES IDX 6 13 5 14 4 15 3 16 2 17 1 18
REMARK H PARENT
REMARK Flexibility Score: inf
ROOT
ATOM      1  C   UNL     1      14.516  19.717  23.003  1.00  0.00     0.000 C 
ENDROOT
BRANCH   1   2
ATOM      2  C   UNL     1      14.764  19.250  21.561  1.00  0.00     0.000 C 
BRANCH   2   3
ATOM      3  C   UNL     1      13.567  19.592  20.661  1.00  0.00     0.000 C 
BRANCH   3   4
ATOM      4  C   UNL     1      13.703  20.985  20.021  1.00  0.00     0.000 C 
BRANCH   4   5
ATOM      5  C   UNL     1      12.457  21.872  20.242  1.00  0.00     0.000 C 
BRANCH   5   6
ATOM      6  C   UNL     1      11.559  21.405  21.403  1.00  0.00     0.006 C 
BRANCH   6   7
ATOM      7  C   UNL     1      11.560  22.356  22.614  1.00  0.00     0.053 C 
BRANCH   7   8
ATOM      8  C   UNL     1      10.503  23.416  22.526  1.00  0.00     0.041 C 
ATOM      9  O   UNL     1      10.560  24.434  23.266  1.00  0.00    -0.550 OA
ATOM     10  O   UNL     1       9.486  23.310  21.586  1.00  0.00    -0.550 OA
ENDBRANCH   7   8
ENDBRANCH   6   7
ENDBRANCH   5   6
ENDBRANCH   4   5
ENDBRANCH   3   4
ENDBRANCH   2   3
ENDBRANCH   1   2
BRANCH   1  11
ATOM     11  C   UNL     1      14.427  18.550  23.999  1.00  0.00     0.000 C 
BRANCH  11  12
ATOM     12  C   UNL     1      13.332  18.761  25.059  1.00  0.00    -0.000 C 
BRANCH  12  13
ATOM     13  C   UNL     1      12.001  19.250  24.459  1.00  0.00    -0.000 C 
BRANCH  13  14
ATOM     14  C   UNL     1      10.986  18.141  24.126  1.00  0.00    -0.000 C 
BRANCH  14  15
ATOM     15  C   UNL     1      11.117  17.619  22.685  1.00  0.00    -0.000 C 
BRANCH  15  16
ATOM     16  C   UNL     1      11.780  16.225  22.624  1.00  0.00    -0.000 C 
BRANCH  16  17
ATOM     17  C   UNL     1      11.762  15.472  23.965  1.00  0.00    -0.003 C 
ATOM     18  C   UNL     1      13.150  15.028  24.422  1.00  0.00     0.004 C 
ENDBRANCH  16  17
ENDBRANCH  15  16
ENDBRANCH  14  15
ENDBRANCH  13  14
ENDBRANCH  12  13
ENDBRANCH  11  12
ENDBRANCH   1  11
TORSDOF 14
ENDMDL
MODEL 8
REMARK VINA RESULT:    -4.206      3.478      7.671
REMARK INTER + INTRA:          -9.412
REMARK INTER:                  -7.958
REMARK INTRA:                  -1.454
REMARK UNBOUND:                -1.764
REMARK SMILES CCCCCCCCCCCCCCCC(=O)[O-]
REMARK SMILES IDX 9 1 10 2 11 3 12 4 13 5 14 6 15 7 16 8 17 9 18 10 8 11 7 12
REMARK SMILES IDX 6 13 5 14 4 15 3 16 2 17 1 18
REMARK H PARENT
REMARK Flexibility Score: inf
ROOT
ATOM      1  C   UNL     1      10.367  14.942  22.249  1.00  0.00     0.000 C 
ENDROOT
BRANCH   1   2
ATOM      2  C   UNL     1      11.011  15.918  23.246  1.00  0.00     0.000 C 
BRANCH   2   3
ATOM      3  C   UNL     1      11.700  15.156  24.389  1.00  0.00     0.000 C 
BRANCH   3   4
ATOM      4  C   UNL     1      12.515  16.091  25.299  1.00  0.00     0.000 C 
BRANCH   4   5
ATOM      5  C   UNL     1      12.078  17.568  25.190  1.00  0.00     0.000 C 
BRANCH   5   6
ATOM      6  C   UNL     1      13.247  18.551  24.991  1.00  0.00     0.006 C 
BRANCH   6   7
ATOM      7  C   UNL     1      14.344  18.031  24.042  1.00  0.00     0.053 C 
BRANCH   7   8
ATOM      8  C   UNL     1      13.970  18.153  22.595  1.00  0.00     0.041 C 
ATOM      9  O   UNL     1      13.919  17.129  21.864  1.00  0.00    -0.550 OA
ATOM     10  O   UNL     1      13.622  19.390  22.067  1.00  0.00    -0.550 OA
ENDBRANCH   7   8
ENDBRANCH   6   7
ENDBRANCH   5   6
ENDBRANCH   4   5
ENDBRANCH   3   4
ENDBRANCH   2   3
ENDBRANCH   1   2
BRANCH   1  11
ATOM     11  C   UNL     1       9.345  14.004  22.912  1.00  0.00     0.000 C 
BRANCH  11  12
ATOM     12  C   UNL     1       7.929  14.171  22.334  1.00  0.00    -0.000 C 
BRANCH  12  13
ATOM     13  C   UNL     1       6.874  13.331  23.077  1.00  0.00    -0.000 C 
BRANCH  13  14
ATOM     14  C   UNL     1       6.992  11.808  22.880  1.00  0.00    -0.000 C 
BRANCH  14  15
ATOM     15  C   UNL     1       7.004  11.392  21.399  1.00  0.00    -0.000 C 
BRANCH  15  16
ATOM     16  C   UNL     1       8.320  10.690  20.998  1.00  0.00    -0.000 C 
BRANCH  16  17
ATOM     17  C   UNL     1       9.206  10.306  22.195  1.00  0.00    -0.003 C 
ATOM     18  C   UNL     1      10.668  10.710  22.012  1.00  0.00     0.004 C 
ENDBRANCH  16  17
ENDBRANCH  15  16
ENDBRANCH  14  15
ENDBRANCH  13  14
ENDBRANCH  12  13
ENDBRANCH  11  12
ENDBRANCH   1  11
TORSDOF 14
ENDMDL
MODEL 9
REMARK VINA RESULT:    -4.182      3.068      4.959
REMARK INTER + INTRA:          -9.369
REMARK INTER:                  -7.518
REMARK INTRA:                  -1.851
REMARK UNBOUND:                -1.764
REMARK SMILES CCCCCCCCCCCCCCCC(=O)[O-]
REMARK SMILES IDX 9 1 10 2 11 3 12 4 13 5 14 6 15 7 16 8 17 9 18 10 8 11 7 12
REMARK SMILES IDX 6 13 5 14 4 15 3 16 2 17 1 18
REMARK H PARENT
REMARK Flexibility Score: inf
ROOT
ATOM      1  C   UNL     1      11.779  20.446  23.726  1.00  0.00     0.000 C 
ENDROOT
BRANCH   1   2
ATOM      2  C   UNL     1      11.279  19.200  24.472  1.00  0.00     0.000 C 
BRANCH   2   3
ATOM      3  C   UNL     1      11.953  19.079  25.848  1.00  0.00     0.000 C 
BRANCH   3   4
ATOM      4  C   UNL     1      12.667  17.729  26.026  1.00  0.00     0.000 C 
BRANCH   4   5
ATOM      5  C   UNL     1      13.328  17.221  24.726  1.00  0.00     0.000 C 
BRANCH   5   6
ATOM      6  C   UNL     1      12.943  15.776  24.354  1.00  0.00     0.006 C 
BRANCH   6   7
ATOM      7  C   UNL     1      11.425  15.546  24.236  1.00  0.00     0.053 C 
BRANCH   7   8
ATOM      8  C   UNL     1      10.922  15.676  22.830  1.00  0.00     0.041 C 
ATOM      9  O   UNL     1       9.997  14.930  22.414  1.00  0.00    -0.550 OA
ATOM     10  O   UNL     1      11.434  16.661  21.995  1.00  0.00    -0.550 OA
ENDBRANCH   7   8
ENDBRANCH   6   7
ENDBRANCH   5   6
ENDBRANCH   4   5
ENDBRANCH   3   4
ENDBRANCH   2   3
ENDBRANCH   1   2
BRANCH   1  11
ATOM     11  C   UNL     1      12.559  20.099  22.447  1.00  0.00     0.000 C 
BRANCH  11  12
ATOM     12  C   UNL     1      14.071  20.336  22.595  1.00  0.00    -0.000 C 
BRANCH  12  13
ATOM     13  C   UNL     1      14.919  19.323  21.803  1.00  0.00    -0.000 C 
BRANCH  13  14
ATOM     14  C   UNL     1      14.165  18.560  20.698  1.00  0.00    -0.000 C 
BRANCH  14  15
ATOM     15  C   UNL     1      14.375  19.165  19.299  1.00  0.00    -0.000 C 
BRANCH  15  16
ATOM     16  C   UNL     1      15.653  20.030  19.220  1.00  0.00    -0.000 C 
BRANCH  16  17
ATOM     17  C   UNL     1      15.380  21.508  18.894  1.00  0.00    -0.003 C 
ATOM     18  C   UNL     1      13.896  21.867  18.934  1.00  0.00     0.004 C 
ENDBRANCH  16  17
ENDBRANCH  15  16
ENDBRANCH  14  15
ENDBRANCH  13  14
ENDBRANCH  12  13
ENDBRANCH  11  12
ENDBRANCH   1  11
TORSDOF 14
ENDMDL
