MODEL 1
REMARK VINA RESULT:    -5.995      0.000      0.000
REMARK INTER + INTRA:          -7.227
REMARK INTER:                  -7.047
REMARK INTRA:                  -0.180
REMARK UNBOUND:                -0.180
REMARK SMILES O=c1c(O)c(-c2ccc(O)cc2)oc2cc(O)cc(O)c12
REMARK SMILES IDX 5 1 3 2 2 3 1 4 21 5 19 6 18 7 16 8 15 9 14 10 13 11 6 12
REMARK SMILES IDX 7 13 8 14 9 15 12 16 11 17 10 18 4 20 20 22 17 24
REMARK H PARENT 10 19 4 21 20 23 17 25
REMARK Flexibility Score: inf
ROOT
ATOM      1  C   UNL     1      76.257  62.364  54.123  1.00  0.00     0.180 A 
ATOM      2  C   UNL     1      75.369  62.470  53.041  1.00  0.00     0.208 A 
ATOM      3  C   UNL     1      74.029  62.809  53.290  1.00  0.00     0.238 A 
ATOM      4  O   UNL     1      73.225  62.849  52.322  1.00  0.00    -0.285 OA
ATOM      5  C   UNL     1      73.600  63.055  54.617  1.00  0.00     0.111 A 
ATOM      6  C   UNL     1      72.276  63.444  54.981  1.00  0.00     0.134 A 
ATOM      7  C   UNL     1      71.930  63.533  56.335  1.00  0.00     0.093 A 
ATOM      8  C   UNL     1      72.878  63.310  57.337  1.00  0.00     0.123 A 
ATOM      9  C   UNL     1      74.188  62.987  56.990  1.00  0.00     0.094 A 
ATOM     10  C   UNL     1      74.554  62.856  55.649  1.00  0.00     0.146 A 
ATOM     11  O   UNL     1      75.810  62.536  55.362  1.00  0.00    -0.452 OA
ENDROOT
BRANCH   1  12
ATOM     12  C   UNL     1      77.690  62.035  53.938  1.00  0.00     0.021 A 
ATOM     13  C   UNL     1      78.567  62.922  53.287  1.00  0.00     0.016 A 
ATOM     14  C   UNL     1      79.921  62.600  53.145  1.00  0.00     0.047 A 
ATOM     15  C   UNL     1      80.417  61.399  53.661  1.00  0.00     0.115 A 
ATOM     16  C   UNL     1      78.200  60.840  54.472  1.00  0.00     0.016 A 
ATOM     17  C   UNL     1      79.554  60.521  54.329  1.00  0.00     0.047 A 
BRANCH  15  18
ATOM     18  O   UNL     1      81.767  61.092  53.511  1.00  0.00    -0.508 OA
ATOM     19  H   UNL     1      82.478  61.531  54.084  1.00  0.00     0.293 HD
ENDBRANCH  15  18
ENDBRANCH   1  12
BRANCH   2  20
ATOM     20  O   UNL     1      75.807  62.201  51.741  1.00  0.00    -0.502 OA
ATOM     21  H   UNL     1      75.991  62.933  51.066  1.00  0.00     0.293 HD
ENDBRANCH   2  20
BRANCH   6  22
ATOM     22  O   UNL     1      71.280  63.780  54.059  1.00  0.00    -0.507 OA
ATOM     23  H   UNL     1      70.764  63.115  53.503  1.00  0.00     0.293 HD
ENDBRANCH   6  22
BRANCH   8  24
ATOM     24  O   UNL     1      72.530  63.415  58.681  1.00  0.00    -0.508 OA
ATOM     25  H   UNL     1      72.253  64.300  59.090  1.00  0.00     0.293 HD
ENDBRANCH   8  24
TORSDOF 5
ENDMDL
MODEL 2
REMARK VINA RESULT:    -5.688      2.712      7.881
REMARK INTER + INTRA:          -6.866
REMARK INTER:                  -6.575
REMARK INTRA:                  -0.290
REMARK UNBOUND:                -0.180
REMARK SMILES O=c1c(O)c(-c2ccc(O)cc2)oc2cc(O)cc(O)c12
REMARK SMILES IDX 5 1 3 2 2 3 1 4 21 5 19 6 18 7 16 8 15 9 14 10 13 11 6 12
REMARK SMILES IDX 7 13 8 14 9 15 12 16 11 17 10 18 4 20 20 22 17 24
REMARK H PARENT 10 19 4 21 20 23 17 25
REMARK Flexibility Score: inf
ROOT
ATOM      1  C   UNL     1      71.693  63.845  54.703  1.00  0.00     0.180 A 
ATOM      2  C   UNL     1      72.417  63.796  55.905  1.00  0.00     0.208 A 
ATOM      3  C   UNL     1      73.820  63.822  55.856  1.00  0.00     0.238 A 
ATOM      4  O   UNL     1      74.465  63.723  56.933  1.00  0.00    -0.285 OA
ATOM      5  C   UNL     1      74.480  63.916  54.607  1.00  0.00     0.111 A 
ATOM      6  C   UNL     1      75.896  63.991  54.442  1.00  0.00     0.134 A 
ATOM      7  C   UNL     1      76.443  63.948  53.154  1.00  0.00     0.093 A 
ATOM      8  C   UNL     1      75.624  63.899  52.023  1.00  0.00     0.123 A 
ATOM      9  C   UNL     1      74.240  63.885  52.173  1.00  0.00     0.094 A 
ATOM     10  C   UNL     1      73.664  63.890  53.446  1.00  0.00     0.146 A 
ATOM     11  O   UNL     1      72.341  63.865  53.544  1.00  0.00    -0.452 OA
ENDROOT
BRANCH   1  12
ATOM     12  C   UNL     1      70.212  63.846  54.675  1.00  0.00     0.021 A 
ATOM     13  C   UNL     1      69.476  65.032  54.848  1.00  0.00     0.016 A 
ATOM     14  C   UNL     1      68.078  65.012  54.793  1.00  0.00     0.047 A 
ATOM     15  C   UNL     1      67.400  63.813  54.553  1.00  0.00     0.115 A 
ATOM     16  C   UNL     1      69.524  62.649  54.413  1.00  0.00     0.016 A 
ATOM     17  C   UNL     1      68.126  62.632  54.360  1.00  0.00     0.047 A 
BRANCH  15  18
ATOM     18  O   UNL     1      66.009  63.809  54.503  1.00  0.00    -0.508 OA
ATOM     19  H   UNL     1      65.448  63.786  55.347  1.00  0.00     0.293 HD
ENDBRANCH  15  18
ENDBRANCH   1  12
BRANCH   2  20
ATOM     20  O   UNL     1      71.748  63.681  57.127  1.00  0.00    -0.502 OA
ATOM     21  H   UNL     1      70.739  63.659  57.195  1.00  0.00     0.293 HD
ENDBRANCH   2  20
BRANCH   6  22
ATOM     22  O   UNL     1      76.798  64.136  55.499  1.00  0.00    -0.507 OA
ATOM     23  H   UNL     1      76.557  64.061  56.475  1.00  0.00     0.293 HD
ENDBRANCH   6  22
BRANCH   8  24
ATOM     24  O   UNL     1      76.177  63.872  50.745  1.00  0.00    -0.508 OA
ATOM     25  H   UNL     1      75.595  63.858  49.915  1.00  0.00     0.293 HD
ENDBRANCH   8  24
TORSDOF 5
ENDMDL
MODEL 3
REMARK VINA RESULT:    -5.650      1.439      1.751
REMARK INTER + INTRA:          -6.821
REMARK INTER:                  -6.530
REMARK INTRA:                  -0.291
REMARK UNBOUND:                -0.180
REMARK SMILES O=c1c(O)c(-c2ccc(O)cc2)oc2cc(O)cc(O)c12
REMARK SMILES IDX 5 1 3 2 2 3 1 4 21 5 19 6 18 7 16 8 15 9 14 10 13 11 6 12
REMARK SMILES IDX 7 13 8 14 9 15 12 16 11 17 10 18 4 20 20 22 17 24
REMARK H PARENT 10 19 4 21 20 23 17 25
REMARK Flexibility Score: inf
ROOT
ATOM      1  C   UNL     1      75.858  61.263  54.166  1.00  0.00     0.180 A 
ATOM      2  C   UNL     1      75.256  61.909  53.074  1.00  0.00     0.208 A 
ATOM      3  C   UNL     1      74.195  62.797  53.310  1.00  0.00     0.238 A 
ATOM      4  O   UNL     1      73.623  63.332  52.324  1.00  0.00    -0.285 OA
ATOM      5  C   UNL     1      73.762  63.042  54.636  1.00  0.00     0.111 A 
ATOM      6  C   UNL     1      72.723  63.953  54.994  1.00  0.00     0.134 A 
ATOM      7  C   UNL     1      72.289  64.018  56.324  1.00  0.00     0.093 A 
ATOM      8  C   UNL     1      72.902  63.252  57.319  1.00  0.00     0.123 A 
ATOM      9  C   UNL     1      73.955  62.403  56.989  1.00  0.00     0.094 A 
ATOM     10  C   UNL     1      74.387  62.290  55.665  1.00  0.00     0.146 A 
ATOM     11  O   UNL     1      75.387  61.462  55.392  1.00  0.00    -0.452 OA
ENDROOT
BRANCH   1  12
ATOM     12  C   UNL     1      76.998  60.331  54.000  1.00  0.00     0.021 A 
ATOM     13  C   UNL     1      78.329  60.774  54.105  1.00  0.00     0.016 A 
ATOM     14  C   UNL     1      79.388  59.872  53.969  1.00  0.00     0.047 A 
ATOM     15  C   UNL     1      79.133  58.516  53.739  1.00  0.00     0.115 A 
ATOM     16  C   UNL     1      76.749  58.964  53.790  1.00  0.00     0.016 A 
ATOM     17  C   UNL     1      77.811  58.064  53.654  1.00  0.00     0.047 A 
BRANCH  15  18
ATOM     18  O   UNL     1      80.198  57.630  53.604  1.00  0.00    -0.508 OA
ATOM     19  H   UNL     1      81.082  57.920  53.202  1.00  0.00     0.293 HD
ENDBRANCH  15  18
ENDBRANCH   1  12
BRANCH   2  20
ATOM     20  O   UNL     1      75.683  61.636  51.772  1.00  0.00    -0.502 OA
ATOM     21  H   UNL     1      75.136  61.883  50.957  1.00  0.00     0.293 HD
ENDBRANCH   2  20
BRANCH   6  22
ATOM     22  O   UNL     1      72.109  64.830  54.094  1.00  0.00    -0.507 OA
ATOM     23  H   UNL     1      71.137  64.795  53.831  1.00  0.00     0.293 HD
ENDBRANCH   6  22
BRANCH   8  24
ATOM     24  O   UNL     1      72.474  63.333  58.642  1.00  0.00    -0.508 OA
ATOM     25  H   UNL     1      71.689  62.789  58.980  1.00  0.00     0.293 HD
ENDBRANCH   8  24
TORSDOF 5
ENDMDL
MODEL 4
REMARK VINA RESULT:    -5.339      3.974      5.855
REMARK INTER + INTRA:          -6.455
REMARK INTER:                  -6.166
REMARK INTRA:                  -0.289
REMARK UNBOUND:                -0.180
REMARK SMILES O=c1c(O)c(-c2ccc(O)cc2)oc2cc(O)cc(O)c12
REMARK SMILES IDX 5 1 3 2 2 3 1 4 21 5 19 6 18 7 16 8 15 9 14 10 13 11 6 12
REMARK SMILES IDX 7 13 8 14 9 15 12 16 11 17 10 18 4 20 20 22 17 24
REMARK H PARENT 10 19 4 21 20 23 17 25
REMARK Flexibility Score: inf
ROOT
ATOM      1  C   UNL     1      72.249  61.433  54.173  1.00  0.00     0.180 A 
ATOM      2  C   UNL     1      72.352  60.051  54.403  1.00  0.00     0.208 A 
ATOM      3  C   UNL     1      71.300  59.213  54.000  1.00  0.00     0.238 A 
ATOM      4  O   UNL     1      71.373  57.983  54.257  1.00  0.00    -0.285 OA
ATOM      5  C   UNL     1      70.166  59.766  53.356  1.00  0.00     0.111 A 
ATOM      6  C   UNL     1      69.060  59.006  52.869  1.00  0.00     0.134 A 
ATOM      7  C   UNL     1      67.934  59.671  52.367  1.00  0.00     0.093 A 
ATOM      8  C   UNL     1      67.902  61.064  52.273  1.00  0.00     0.123 A 
ATOM      9  C   UNL     1      69.000  61.811  52.692  1.00  0.00     0.094 A 
ATOM     10  C   UNL     1      70.124  61.179  53.231  1.00  0.00     0.146 A 
ATOM     11  O   UNL     1      71.144  61.929  53.627  1.00  0.00    -0.452 OA
ENDROOT
BRANCH   1  12
ATOM     12  C   UNL     1      73.327  62.377  54.548  1.00  0.00     0.021 A 
ATOM     13  C   UNL     1      73.372  62.970  55.823  1.00  0.00     0.016 A 
ATOM     14  C   UNL     1      74.413  63.838  56.163  1.00  0.00     0.047 A 
ATOM     15  C   UNL     1      75.427  64.117  55.241  1.00  0.00     0.115 A 
ATOM     16  C   UNL     1      74.361  62.645  53.634  1.00  0.00     0.016 A 
ATOM     17  C   UNL     1      75.401  63.515  53.977  1.00  0.00     0.047 A 
BRANCH  15  18
ATOM     18  O   UNL     1      76.456  64.986  55.593  1.00  0.00    -0.508 OA
ATOM     19  H   UNL     1      76.333  65.691  56.311  1.00  0.00     0.293 HD
ENDBRANCH  15  18
ENDBRANCH   1  12
BRANCH   2  20
ATOM     20  O   UNL     1      73.469  59.528  55.060  1.00  0.00    -0.502 OA
ATOM     21  H   UNL     1      74.278  59.176  54.563  1.00  0.00     0.293 HD
ENDBRANCH   2  20
BRANCH   6  22
ATOM     22  O   UNL     1      69.030  57.609  52.831  1.00  0.00    -0.507 OA
ATOM     23  H   UNL     1      69.228  57.008  53.615  1.00  0.00     0.293 HD
ENDBRANCH   6  22
BRANCH   8  24
ATOM     24  O   UNL     1      66.784  61.716  51.759  1.00  0.00    -0.508 OA
ATOM     25  H   UNL     1      66.726  61.978  50.781  1.00  0.00     0.293 HD
ENDBRANCH   8  24
TORSDOF 5
ENDMDL
MODEL 5
REMARK VINA RESULT:    -5.290      1.397      3.194
REMARK INTER + INTRA:          -6.398
REMARK INTER:                  -6.221
REMARK INTRA:                  -0.177
REMARK UNBOUND:                -0.180
REMARK SMILES O=c1c(O)c(-c2ccc(O)cc2)oc2cc(O)cc(O)c12
REMARK SMILES IDX 5 1 3 2 2 3 1 4 21 5 19 6 18 7 16 8 15 9 14 10 13 11 6 12
REMARK SMILES IDX 7 13 8 14 9 15 12 16 11 17 10 18 4 20 20 22 17 24
REMARK H PARENT 10 19 4 21 20 23 17 25
REMARK Flexibility Score: inf
ROOT
ATOM      1  C   UNL     1      75.939  62.808  54.726  1.00  0.00     0.180 A 
ATOM      2  C   UNL     1      75.540  63.399  55.936  1.00  0.00     0.208 A 
ATOM      3  C   UNL     1      74.201  63.789  56.094  1.00  0.00     0.238 A 
ATOM      4  O   UNL     1      73.861  64.367  57.160  1.00  0.00    -0.285 OA
ATOM      5  C   UNL     1      73.274  63.568  55.047  1.00  0.00     0.111 A 
ATOM      6  C   UNL     1      71.884  63.886  55.114  1.00  0.00     0.134 A 
ATOM      7  C   UNL     1      71.088  63.745  53.971  1.00  0.00     0.093 A 
ATOM      8  C   UNL     1      71.617  63.234  52.783  1.00  0.00     0.123 A 
ATOM      9  C   UNL     1      72.958  62.866  52.726  1.00  0.00     0.094 A 
ATOM     10  C   UNL     1      73.787  63.028  53.838  1.00  0.00     0.146 A 
ATOM     11  O   UNL     1      75.062  62.674  53.737  1.00  0.00    -0.452 OA
ENDROOT
BRANCH   1  12
ATOM     12  C   UNL     1      77.328  62.348  54.493  1.00  0.00     0.021 A 
ATOM     13  C   UNL     1      77.878  61.278  55.223  1.00  0.00     0.016 A 
ATOM     14  C   UNL     1      79.183  60.845  54.968  1.00  0.00     0.047 A 
ATOM     15  C   UNL     1      79.950  61.465  53.977  1.00  0.00     0.115 A 
ATOM     16  C   UNL     1      78.097  62.952  53.484  1.00  0.00     0.016 A 
ATOM     17  C   UNL     1      79.403  62.517  53.233  1.00  0.00     0.047 A 
BRANCH  15  18
ATOM     18  O   UNL     1      81.249  61.025  53.737  1.00  0.00    -0.508 OA
ATOM     19  H   UNL     1      82.002  61.217  54.387  1.00  0.00     0.293 HD
ENDBRANCH  15  18
ENDBRANCH   1  12
BRANCH   2  20
ATOM     20  O   UNL     1      76.475  63.629  56.949  1.00  0.00    -0.502 OA
ATOM     21  H   UNL     1      77.251  63.004  57.126  1.00  0.00     0.293 HD
ENDBRANCH   2  20
BRANCH   6  22
ATOM     22  O   UNL     1      71.237  64.315  56.277  1.00  0.00    -0.507 OA
ATOM     23  H   UNL     1      71.615  64.234  57.208  1.00  0.00     0.293 HD
ENDBRANCH   6  22
BRANCH   8  24
ATOM     24  O   UNL     1      70.814  63.083  51.655  1.00  0.00    -0.508 OA
ATOM     25  H   UNL     1      70.400  62.189  51.415  1.00  0.00     0.293 HD
ENDBRANCH   8  24
TORSDOF 5
ENDMDL
MODEL 6
REMARK VINA RESULT:    -5.258      3.519      5.398
REMARK INTER + INTRA:          -6.361
REMARK INTER:                  -6.073
REMARK INTRA:                  -0.288
REMARK UNBOUND:                -0.180
REMARK SMILES O=c1c(O)c(-c2ccc(O)cc2)oc2cc(O)cc(O)c12
REMARK SMILES IDX 5 1 3 2 2 3 1 4 21 5 19 6 18 7 16 8 15 9 14 10 13 11 6 12
REMARK SMILES IDX 7 13 8 14 9 15 12 16 11 17 10 18 4 20 20 22 17 24
REMARK H PARENT 10 19 4 21 20 23 17 25
REMARK Flexibility Score: inf
ROOT
ATOM      1  C   UNL     1      72.122  62.912  53.478  1.00  0.00     0.180 A 
ATOM      2  C   UNL     1      71.144  63.747  52.911  1.00  0.00     0.208 A 
ATOM      3  C   UNL     1      69.907  63.194  52.543  1.00  0.00     0.238 A 
ATOM      4  O   UNL     1      69.055  63.934  51.986  1.00  0.00    -0.285 OA
ATOM      5  C   UNL     1      69.657  61.818  52.763  1.00  0.00     0.111 A 
ATOM      6  C   UNL     1      68.426  61.160  52.466  1.00  0.00     0.134 A 
ATOM      7  C   UNL     1      68.335  59.769  52.602  1.00  0.00     0.093 A 
ATOM      8  C   UNL     1      69.411  59.021  53.087  1.00  0.00     0.123 A 
ATOM      9  C   UNL     1      70.597  59.662  53.435  1.00  0.00     0.094 A 
ATOM     10  C   UNL     1      70.731  61.043  53.276  1.00  0.00     0.146 A 
ATOM     11  O   UNL     1      71.882  61.612  53.610  1.00  0.00    -0.452 OA
ENDROOT
BRANCH   1  12
ATOM     12  C   UNL     1      73.441  63.427  53.913  1.00  0.00     0.021 A 
ATOM     13  C   UNL     1      73.611  64.040  55.168  1.00  0.00     0.016 A 
ATOM     14  C   UNL     1      74.871  64.496  55.568  1.00  0.00     0.047 A 
ATOM     15  C   UNL     1      75.977  64.334  54.728  1.00  0.00     0.115 A 
ATOM     16  C   UNL     1      74.561  63.249  53.084  1.00  0.00     0.016 A 
ATOM     17  C   UNL     1      75.820  63.706  53.486  1.00  0.00     0.047 A 
BRANCH  15  18
ATOM     18  O   UNL     1      77.225  64.795  55.138  1.00  0.00    -0.508 OA
ATOM     19  H   UNL     1      77.968  64.156  55.396  1.00  0.00     0.293 HD
ENDBRANCH  15  18
ENDBRANCH   1  12
BRANCH   2  20
ATOM     20  O   UNL     1      71.418  65.098  52.682  1.00  0.00    -0.502 OA
ATOM     21  H   UNL     1      72.167  65.406  52.076  1.00  0.00     0.293 HD
ENDBRANCH   2  20
BRANCH   6  22
ATOM     22  O   UNL     1      67.263  61.825  52.065  1.00  0.00    -0.507 OA
ATOM     23  H   UNL     1      66.508  61.401  51.548  1.00  0.00     0.293 HD
ENDBRANCH   6  22
BRANCH   8  24
ATOM     24  O   UNL     1      69.307  57.640  53.234  1.00  0.00    -0.508 OA
ATOM     25  H   UNL     1      69.272  57.023  52.431  1.00  0.00     0.293 HD
ENDBRANCH   8  24
TORSDOF 5
ENDMDL
MODEL 7
REMARK VINA RESULT:    -5.250      2.286      6.854
REMARK INTER + INTRA:          -6.350
REMARK INTER:                  -6.053
REMARK INTRA:                  -0.297
REMARK UNBOUND:                -0.180
REMARK SMILES O=c1c(O)c(-c2ccc(O)cc2)oc2cc(O)cc(O)c12
REMARK SMILES IDX 5 1 3 2 2 3 1 4 21 5 19 6 18 7 16 8 15 9 14 10 13 11 6 12
REMARK SMILES IDX 7 13 8 14 9 15 12 16 11 17 10 18 4 20 20 22 17 24
REMARK H PARENT 10 19 4 21 20 23 17 25
REMARK Flexibility Score: inf
ROOT
ATOM      1  C   UNL     1      73.941  62.748  53.698  1.00  0.00     0.180 A 
ATOM      2  C   UNL     1      74.538  63.856  54.322  1.00  0.00     0.208 A 
ATOM      3  C   UNL     1      75.918  63.830  54.580  1.00  0.00     0.238 A 
ATOM      4  O   UNL     1      76.437  64.803  55.188  1.00  0.00    -0.285 OA
ATOM      5  C   UNL     1      76.686  62.705  54.195  1.00  0.00     0.111 A 
ATOM      6  C   UNL     1      78.098  62.589  54.370  1.00  0.00     0.134 A 
ATOM      7  C   UNL     1      78.734  61.378  54.072  1.00  0.00     0.093 A 
ATOM      8  C   UNL     1      78.019  60.300  53.542  1.00  0.00     0.123 A 
ATOM      9  C   UNL     1      76.651  60.424  53.313  1.00  0.00     0.094 A 
ATOM     10  C   UNL     1      75.982  61.608  53.634  1.00  0.00     0.146 A 
ATOM     11  O   UNL     1      74.676  61.680  53.409  1.00  0.00    -0.452 OA
ENDROOT
BRANCH   1  12
ATOM     12  C   UNL     1      72.497  62.710  53.371  1.00  0.00     0.021 A 
ATOM     13  C   UNL     1      72.003  63.245  52.167  1.00  0.00     0.016 A 
ATOM     14  C   UNL     1      70.639  63.176  51.869  1.00  0.00     0.047 A 
ATOM     15  C   UNL     1      69.754  62.563  52.761  1.00  0.00     0.115 A 
ATOM     16  C   UNL     1      71.604  62.076  54.252  1.00  0.00     0.016 A 
ATOM     17  C   UNL     1      70.240  62.010  53.952  1.00  0.00     0.047 A 
BRANCH  15  18
ATOM     18  O   UNL     1      68.397  62.504  52.451  1.00  0.00    -0.508 OA
ATOM     19  H   UNL     1      67.727  62.086  53.086  1.00  0.00     0.293 HD
ENDBRANCH  15  18
ENDBRANCH   1  12
BRANCH   2  20
ATOM     20  O   UNL     1      73.758  64.947  54.714  1.00  0.00    -0.502 OA
ATOM     21  H   UNL     1      74.156  65.777  55.135  1.00  0.00     0.293 HD
ENDBRANCH   2  20
BRANCH   6  22
ATOM     22  O   UNL     1      78.918  63.635  54.804  1.00  0.00    -0.507 OA
ATOM     23  H   UNL     1      78.589  64.545  55.085  1.00  0.00     0.293 HD
ENDBRANCH   6  22
BRANCH   8  24
ATOM     24  O   UNL     1      78.662  59.104  53.234  1.00  0.00    -0.508 OA
ATOM     25  H   UNL     1      79.422  58.749  53.802  1.00  0.00     0.293 HD
ENDBRANCH   8  24
TORSDOF 5
ENDMDL
MODEL 8
REMARK VINA RESULT:    -5.226      2.771      7.264
REMARK INTER + INTRA:          -6.323
REMARK INTER:                  -6.024
REMARK INTRA:                  -0.300
REMARK UNBOUND:                -0.180
REMARK SMILES O=c1c(O)c(-c2ccc(O)cc2)oc2cc(O)cc(O)c12
REMARK SMILES IDX 5 1 3 2 2 3 1 4 21 5 19 6 18 7 16 8 15 9 14 10 13 11 6 12
REMARK SMILES IDX 7 13 8 14 9 15 12 16 11 17 10 18 4 20 20 22 17 24
REMARK H PARENT 10 19 4 21 20 23 17 25
REMARK Flexibility Score: inf
ROOT
ATOM      1  C   UNL     1      72.002  62.830  54.180  1.00  0.00     0.180 A 
ATOM      2  C   UNL     1      72.122  63.493  55.412  1.00  0.00     0.208 A 
ATOM      3  C   UNL     1      73.381  63.976  55.805  1.00  0.00     0.238 A 
ATOM      4  O   UNL     1      73.494  64.521  56.935  1.00  0.00    -0.285 OA
ATOM      5  C   UNL     1      74.499  63.805  54.954  1.00  0.00     0.111 A 
ATOM      6  C   UNL     1      75.812  64.290  55.233  1.00  0.00     0.134 A 
ATOM      7  C   UNL     1      76.869  63.949  54.380  1.00  0.00     0.093 A 
ATOM      8  C   UNL     1      76.649  63.196  53.223  1.00  0.00     0.123 A 
ATOM      9  C   UNL     1      75.360  62.769  52.912  1.00  0.00     0.094 A 
ATOM     10  C   UNL     1      74.291  63.063  53.762  1.00  0.00     0.146 A 
ATOM     11  O   UNL     1      73.081  62.627  53.433  1.00  0.00    -0.452 OA
ENDROOT
BRANCH   1  12
ATOM     12  C   UNL     1      70.704  62.315  53.686  1.00  0.00     0.021 A 
ATOM     13  C   UNL     1      69.829  63.126  52.939  1.00  0.00     0.016 A 
ATOM     14  C   UNL     1      68.621  62.610  52.462  1.00  0.00     0.047 A 
ATOM     15  C   UNL     1      68.275  61.279  52.713  1.00  0.00     0.115 A 
ATOM     16  C   UNL     1      70.360  60.972  53.915  1.00  0.00     0.016 A 
ATOM     17  C   UNL     1      69.150  60.459  53.437  1.00  0.00     0.047 A 
BRANCH  15  18
ATOM     18  O   UNL     1      67.067  60.780  52.233  1.00  0.00    -0.508 OA
ATOM     19  H   UNL     1      66.655  61.125  51.374  1.00  0.00     0.293 HD
ENDBRANCH  15  18
ENDBRANCH   1  12
BRANCH   2  20
ATOM     20  O   UNL     1      71.011  63.632  56.249  1.00  0.00    -0.502 OA
ATOM     21  H   UNL     1      70.587  62.847  56.725  1.00  0.00     0.293 HD
ENDBRANCH   2  20
BRANCH   6  22
ATOM     22  O   UNL     1      76.123  65.125  56.309  1.00  0.00    -0.507 OA
ATOM     23  H   UNL     1      75.793  64.994  57.253  1.00  0.00     0.293 HD
ENDBRANCH   6  22
BRANCH   8  24
ATOM     24  O   UNL     1      77.703  62.875  52.373  1.00  0.00    -0.508 OA
ATOM     25  H   UNL     1      77.775  61.962  51.938  1.00  0.00     0.293 HD
ENDBRANCH   8  24
TORSDOF 5
ENDMDL
