MODEL 1
REMARK VINA RESULT:    -3.809      0.000      0.000
REMARK INTER + INTRA:          -5.157
REMARK INTER:                  -4.922
REMARK INTRA:                  -0.235
REMARK UNBOUND:                -0.235
REMARK SMILES CCOC(=O)C=Cc1ccc(O)c(O)c1
REMARK SMILES IDX 6 1 7 2 4 3 5 4 3 5 2 6 1 7 8 8 15 9 9 10 13 11 10 12 11 13
REMARK SMILES IDX 14 14 12 16
REMARK H PARENT 14 15 12 17
REMARK Flexibility Score: inf
ROOT
ATOM      1  C   UNL     1      -2.558  20.653  16.466  1.00  0.00     0.094 C 
ATOM      2  C   UNL     1      -3.613  19.915  16.840  1.00  0.00     0.016 C 
ENDROOT
BRANCH   1   3
ATOM      3  C   UNL     1      -1.196  20.359  16.938  1.00  0.00     0.330 C 
ATOM      4  O   UNL     1      -1.039  19.875  18.091  1.00  0.00    -0.247 OA
BRANCH   3   5
ATOM      5  O   UNL     1      -0.090  20.609  16.115  1.00  0.00    -0.463 OA
BRANCH   5   6
ATOM      6  C   UNL     1       1.149  19.912  16.232  1.00  0.00     0.230 C 
ATOM      7  C   UNL     1       2.269  20.867  16.627  1.00  0.00     0.049 C 
ENDBRANCH   5   6
ENDBRANCH   3   5
ENDBRANCH   1   3
BRANCH   2   8
ATOM      8  C   UNL     1      -5.004  20.182  16.398  1.00  0.00    -0.021 A 
ATOM      9  C   UNL     1      -6.123  19.920  17.214  1.00  0.00     0.058 A 
ATOM     10  C   UNL     1      -5.207  20.751  15.130  1.00  0.00     0.012 A 
ATOM     11  C   UNL     1      -7.418  20.200  16.755  1.00  0.00     0.157 A 
ATOM     12  C   UNL     1      -6.498  21.028  14.673  1.00  0.00     0.051 A 
ATOM     13  C   UNL     1      -7.607  20.750  15.481  1.00  0.00     0.157 A 
BRANCH  11  14
ATOM     14  O   UNL     1      -8.525  19.938  17.562  1.00  0.00    -0.504 OA
ATOM     15  H   UNL     1      -8.829  18.990  17.753  1.00  0.00     0.293 HD
ENDBRANCH  11  14
BRANCH  13  16
ATOM     16  O   UNL     1      -8.896  21.024  15.029  1.00  0.00    -0.504 OA
ATOM     17  H   UNL     1      -9.424  20.348  14.491  1.00  0.00     0.293 HD
ENDBRANCH  13  16
ENDBRANCH   2   8
TORSDOF 6
ENDMDL
MODEL 2
REMARK VINA RESULT:    -3.369      4.062      7.010
REMARK INTER + INTRA:          -4.588
REMARK INTER:                  -4.377
REMARK INTRA:                  -0.211
REMARK UNBOUND:                -0.235
REMARK SMILES CCOC(=O)C=Cc1ccc(O)c(O)c1
REMARK SMILES IDX 6 1 7 2 4 3 5 4 3 5 2 6 1 7 8 8 15 9 9 10 13 11 10 12 11 13
REMARK SMILES IDX 14 14 12 16
REMARK H PARENT 14 15 12 17
REMARK Flexibility Score: inf
ROOT
ATOM      1  C   UNL     1      -7.858  21.752  20.087  1.00  0.00     0.094 C 
ATOM      2  C   UNL     1      -7.885  20.738  19.211  1.00  0.00     0.016 C 
ENDROOT
BRANCH   1   3
ATOM      3  C   UNL     1      -8.502  21.658  21.406  1.00  0.00     0.330 C 
ATOM      4  O   UNL     1      -9.005  20.560  21.765  1.00  0.00    -0.247 OA
BRANCH   3   5
ATOM      5  O   UNL     1      -8.552  22.773  22.253  1.00  0.00    -0.463 OA
BRANCH   5   6
ATOM      6  C   UNL     1      -8.010  22.782  23.573  1.00  0.00     0.230 C 
ATOM      7  C   UNL     1      -9.123  22.853  24.612  1.00  0.00     0.049 C 
ENDBRANCH   5   6
ENDBRANCH   3   5
ENDBRANCH   1   3
BRANCH   2   8
ATOM      8  C   UNL     1      -7.259  20.793  17.867  1.00  0.00    -0.021 A 
ATOM      9  C   UNL     1      -5.964  20.298  17.612  1.00  0.00     0.058 A 
ATOM     10  C   UNL     1      -8.003  21.327  16.802  1.00  0.00     0.012 A 
ATOM     11  C   UNL     1      -5.420  20.363  16.321  1.00  0.00     0.157 A 
ATOM     12  C   UNL     1      -7.459  21.393  15.516  1.00  0.00     0.051 A 
ATOM     13  C   UNL     1      -6.165  20.915  15.273  1.00  0.00     0.157 A 
BRANCH  11  14
ATOM     14  O   UNL     1      -4.137  19.876  16.071  1.00  0.00    -0.504 OA
ATOM     15  H   UNL     1      -3.497  20.360  15.452  1.00  0.00     0.293 HD
ENDBRANCH  11  14
BRANCH  13  16
ATOM     16  O   UNL     1      -5.619  20.979  13.992  1.00  0.00    -0.504 OA
ATOM     17  H   UNL     1      -4.830  21.579  13.782  1.00  0.00     0.293 HD
ENDBRANCH  13  16
ENDBRANCH   2   8
TORSDOF 6
ENDMDL
MODEL 3
REMARK VINA RESULT:    -3.336      4.608      6.790
REMARK INTER + INTRA:          -4.546
REMARK INTER:                  -4.298
REMARK INTRA:                  -0.248
REMARK UNBOUND:                -0.235
REMARK SMILES CCOC(=O)C=Cc1ccc(O)c(O)c1
REMARK SMILES IDX 6 1 7 2 4 3 5 4 3 5 2 6 1 7 8 8 15 9 9 10 13 11 10 12 11 13
REMARK SMILES IDX 14 14 12 16
REMARK H PARENT 14 15 12 17
REMARK Flexibility Score: inf
ROOT
ATOM      1  C   UNL     1      -6.154  20.705  18.772  1.00  0.00     0.094 C 
ATOM      2  C   UNL     1      -7.330  20.597  19.406  1.00  0.00     0.016 C 
ENDROOT
BRANCH   1   3
ATOM      3  C   UNL     1      -5.948  20.164  17.419  1.00  0.00     0.330 C 
ATOM      4  O   UNL     1      -4.779  19.875  17.047  1.00  0.00    -0.247 OA
BRANCH   3   5
ATOM      5  O   UNL     1      -7.036  19.969  16.558  1.00  0.00    -0.463 OA
BRANCH   5   6
ATOM      6  C   UNL     1      -7.483  20.949  15.623  1.00  0.00     0.230 C 
ATOM      7  C   UNL     1      -6.583  20.970  14.393  1.00  0.00     0.049 C 
ENDBRANCH   5   6
ENDBRANCH   3   5
ENDBRANCH   1   3
BRANCH   2   8
ATOM      8  C   UNL     1      -7.580  21.117  20.773  1.00  0.00    -0.021 A 
ATOM      9  C   UNL     1      -7.364  20.343  21.931  1.00  0.00     0.058 A 
ATOM     10  C   UNL     1      -8.014  22.445  20.916  1.00  0.00     0.012 A 
ATOM     11  C   UNL     1      -7.603  20.884  23.203  1.00  0.00     0.157 A 
ATOM     12  C   UNL     1      -8.255  22.982  22.184  1.00  0.00     0.051 A 
ATOM     13  C   UNL     1      -8.054  22.203  23.330  1.00  0.00     0.157 A 
BRANCH  11  14
ATOM     14  O   UNL     1      -7.392  20.115  24.347  1.00  0.00    -0.504 OA
ATOM     15  H   UNL     1      -6.553  19.559  24.465  1.00  0.00     0.293 HD
ENDBRANCH  11  14
BRANCH  13  16
ATOM     16  O   UNL     1      -8.293  22.735  24.596  1.00  0.00    -0.504 OA
ATOM     17  H   UNL     1      -7.875  22.334  25.427  1.00  0.00     0.293 HD
ENDBRANCH  13  16
ENDBRANCH   2   8
TORSDOF 6
ENDMDL
MODEL 4
REMARK VINA RESULT:    -3.064      8.214     11.347
REMARK INTER + INTRA:          -4.195
REMARK INTER:                  -3.871
REMARK INTRA:                  -0.325
REMARK UNBOUND:                -0.235
REMARK SMILES CCOC(=O)C=Cc1ccc(O)c(O)c1
REMARK SMILES IDX 6 1 7 2 4 3 5 4 3 5 2 6 1 7 8 8 15 9 9 10 13 11 10 12 11 13
REMARK SMILES IDX 14 14 12 16
REMARK H PARENT 14 15 12 17
REMARK Flexibility Score: inf
ROOT
ATOM      1  C   UNL     1       8.541  21.136  14.604  1.00  0.00     0.094 C 
ATOM      2  C   UNL     1       7.973  20.952  15.804  1.00  0.00     0.016 C 
ENDROOT
BRANCH   1   3
ATOM      3  C   UNL     1      10.001  21.198  14.435  1.00  0.00     0.330 C 
ATOM      4  O   UNL     1      10.493  21.029  13.287  1.00  0.00    -0.247 OA
BRANCH   3   5
ATOM      5  O   UNL     1      10.833  21.447  15.535  1.00  0.00    -0.463 OA
BRANCH   5   6
ATOM      6  C   UNL     1      11.080  22.752  16.054  1.00  0.00     0.230 C 
ATOM      7  C   UNL     1      10.463  22.907  17.438  1.00  0.00     0.049 C 
ENDBRANCH   5   6
ENDBRANCH   3   5
ENDBRANCH   1   3
BRANCH   2   8
ATOM      8  C   UNL     1       6.507  20.893  16.022  1.00  0.00    -0.021 A 
ATOM      9  C   UNL     1       5.838  21.753  16.916  1.00  0.00     0.058 A 
ATOM     10  C   UNL     1       5.755  19.968  15.280  1.00  0.00     0.012 A 
ATOM     11  C   UNL     1       4.447  21.667  17.079  1.00  0.00     0.157 A 
ATOM     12  C   UNL     1       4.370  19.882  15.444  1.00  0.00     0.051 A 
ATOM     13  C   UNL     1       3.713  20.728  16.346  1.00  0.00     0.157 A 
BRANCH  11  14
ATOM     14  O   UNL     1       3.787  22.517  17.966  1.00  0.00    -0.504 OA
ATOM     15  H   UNL     1       4.223  23.363  18.314  1.00  0.00     0.293 HD
ENDBRANCH  11  14
BRANCH  13  16
ATOM     16  O   UNL     1       2.332  20.645  16.514  1.00  0.00    -0.504 OA
ATOM     17  H   UNL     1       1.869  21.059  17.313  1.00  0.00     0.293 HD
ENDBRANCH  13  16
ENDBRANCH   2   8
TORSDOF 6
ENDMDL
MODEL 5
REMARK VINA RESULT:    -2.849      5.827     12.085
REMARK INTER + INTRA:          -3.916
REMARK INTER:                  -3.695
REMARK INTRA:                  -0.222
REMARK UNBOUND:                -0.235
REMARK SMILES CCOC(=O)C=Cc1ccc(O)c(O)c1
REMARK SMILES IDX 6 1 7 2 4 3 5 4 3 5 2 6 1 7 8 8 15 9 9 10 13 11 10 12 11 13
REMARK SMILES IDX 14 14 12 16
REMARK H PARENT 14 15 12 17
REMARK Flexibility Score: inf
ROOT
ATOM      1  C   UNL     1       4.415  20.374  15.688  1.00  0.00     0.094 C 
ATOM      2  C   UNL     1       5.618  20.915  15.928  1.00  0.00     0.016 C 
ENDROOT
BRANCH   1   3
ATOM      3  C   UNL     1       3.258  20.632  16.559  1.00  0.00     0.330 C 
ATOM      4  O   UNL     1       3.374  21.459  17.503  1.00  0.00    -0.247 OA
BRANCH   3   5
ATOM      5  O   UNL     1       2.042  19.972  16.338  1.00  0.00    -0.463 OA
BRANCH   5   6
ATOM      6  C   UNL     1       0.803  20.652  16.143  1.00  0.00     0.230 C 
ATOM      7  C   UNL     1      -0.325  19.937  16.877  1.00  0.00     0.049 C 
ENDBRANCH   5   6
ENDBRANCH   3   5
ENDBRANCH   1   3
BRANCH   2   8
ATOM      8  C   UNL     1       6.813  20.674  15.084  1.00  0.00    -0.021 A 
ATOM      9  C   UNL     1       8.124  20.937  15.531  1.00  0.00     0.058 A 
ATOM     10  C   UNL     1       6.631  20.128  13.803  1.00  0.00     0.012 A 
ATOM     11  C   UNL     1       9.224  20.681  14.699  1.00  0.00     0.157 A 
ATOM     12  C   UNL     1       7.727  19.875  12.974  1.00  0.00     0.051 A 
ATOM     13  C   UNL     1       9.026  20.154  13.418  1.00  0.00     0.157 A 
BRANCH  11  14
ATOM     14  O   UNL     1      10.520  20.945  15.142  1.00  0.00    -0.504 OA
ATOM     15  H   UNL     1      11.181  20.199  15.324  1.00  0.00     0.293 HD
ENDBRANCH  11  14
BRANCH  13  16
ATOM     16  O   UNL     1      10.122  19.904  12.594  1.00  0.00    -0.504 OA
ATOM     17  H   UNL     1      10.941  19.415  12.935  1.00  0.00     0.293 HD
ENDBRANCH  13  16
ENDBRANCH   2   8
TORSDOF 6
ENDMDL
MODEL 6
REMARK VINA RESULT:    -2.778      9.121     12.362
REMARK INTER + INTRA:          -3.825
REMARK INTER:                  -3.584
REMARK INTRA:                  -0.241
REMARK UNBOUND:                -0.235
REMARK SMILES CCOC(=O)C=Cc1ccc(O)c(O)c1
REMARK SMILES IDX 6 1 7 2 4 3 5 4 3 5 2 6 1 7 8 8 15 9 9 10 13 11 10 12 11 13
REMARK SMILES IDX 14 14 12 16
REMARK H PARENT 14 15 12 17
REMARK Flexibility Score: inf
ROOT
ATOM      1  C   UNL     1       9.061  21.709  13.385  1.00  0.00     0.094 C 
ATOM      2  C   UNL     1       8.627  20.707  14.162  1.00  0.00     0.016 C 
ENDROOT
BRANCH   1   3
ATOM      3  C   UNL     1      10.410  21.708  12.796  1.00  0.00     0.330 C 
ATOM      4  O   UNL     1      10.933  20.611  12.466  1.00  0.00    -0.247 OA
BRANCH   3   5
ATOM      5  O   UNL     1      11.100  22.912  12.602  1.00  0.00    -0.463 OA
BRANCH   5   6
ATOM      6  C   UNL     1      11.048  23.661  11.389  1.00  0.00     0.230 C 
ATOM      7  C   UNL     1      10.555  25.079  11.652  1.00  0.00     0.049 C 
ENDBRANCH   5   6
ENDBRANCH   3   5
ENDBRANCH   1   3
BRANCH   2   8
ATOM      8  C   UNL     1       7.280  20.672  14.784  1.00  0.00    -0.021 A 
ATOM      9  C   UNL     1       6.970  21.380  15.962  1.00  0.00     0.058 A 
ATOM     10  C   UNL     1       6.268  19.931  14.151  1.00  0.00     0.012 A 
ATOM     11  C   UNL     1       5.678  21.324  16.506  1.00  0.00     0.157 A 
ATOM     12  C   UNL     1       4.982  19.875  14.695  1.00  0.00     0.051 A 
ATOM     13  C   UNL     1       4.684  20.567  15.875  1.00  0.00     0.157 A 
BRANCH  11  14
ATOM     14  O   UNL     1       5.374  22.023  17.675  1.00  0.00    -0.504 OA
ATOM     15  H   UNL     1       4.990  22.960  17.647  1.00  0.00     0.293 HD
ENDBRANCH  11  14
BRANCH  13  16
ATOM     16  O   UNL     1       3.403  20.513  16.421  1.00  0.00    -0.504 OA
ATOM     17  H   UNL     1       3.097  21.176  17.122  1.00  0.00     0.293 HD
ENDBRANCH  13  16
ENDBRANCH   2   8
TORSDOF 6
ENDMDL
MODEL 7
REMARK VINA RESULT:    -2.541      7.201     13.009
REMARK INTER + INTRA:          -3.519
REMARK INTER:                  -3.333
REMARK INTRA:                  -0.186
REMARK UNBOUND:                -0.235
REMARK SMILES CCOC(=O)C=Cc1ccc(O)c(O)c1
REMARK SMILES IDX 6 1 7 2 4 3 5 4 3 5 2 6 1 7 8 8 15 9 9 10 13 11 10 12 11 13
REMARK SMILES IDX 14 14 12 16
REMARK H PARENT 14 15 12 17
REMARK Flexibility Score: inf
ROOT
ATOM      1  C   UNL     1       5.881  20.838  14.989  1.00  0.00     0.094 C 
ATOM      2  C   UNL     1       7.193  20.588  15.109  1.00  0.00     0.016 C 
ENDROOT
BRANCH   1   3
ATOM      3  C   UNL     1       4.995  20.927  16.160  1.00  0.00     0.330 C 
ATOM      4  O   UNL     1       5.335  21.655  17.131  1.00  0.00    -0.247 OA
BRANCH   3   5
ATOM      5  O   UNL     1       3.788  20.216  16.193  1.00  0.00    -0.463 OA
BRANCH   5   6
ATOM      6  C   UNL     1       2.564  20.769  16.671  1.00  0.00     0.230 C 
ATOM      7  C   UNL     1       1.387  19.875  16.297  1.00  0.00     0.049 C 
ENDBRANCH   5   6
ENDBRANCH   3   5
ENDBRANCH   1   3
BRANCH   2   8
ATOM      8  C   UNL     1       8.120  20.479  13.957  1.00  0.00    -0.021 A 
ATOM      9  C   UNL     1       7.667  20.351  12.628  1.00  0.00     0.058 A 
ATOM     10  C   UNL     1       9.502  20.543  14.199  1.00  0.00     0.012 A 
ATOM     11  C   UNL     1       8.584  20.263  11.570  1.00  0.00     0.157 A 
ATOM     12  C   UNL     1      10.414  20.454  13.144  1.00  0.00     0.051 A 
ATOM     13  C   UNL     1       9.959  20.310  11.828  1.00  0.00     0.157 A 
BRANCH  11  14
ATOM     14  O   UNL     1       8.134  20.133  10.256  1.00  0.00    -0.504 OA
ATOM     15  H   UNL     1       7.801  19.247   9.895  1.00  0.00     0.293 HD
ENDBRANCH  11  14
BRANCH  13  16
ATOM     16  O   UNL     1      10.865  20.219  10.773  1.00  0.00    -0.504 OA
ATOM     17  H   UNL     1      10.591  20.425   9.820  1.00  0.00     0.293 HD
ENDBRANCH  13  16
ENDBRANCH   2   8
TORSDOF 6
ENDMDL
