MODEL 1
REMARK VINA RESULT:    -7.122      0.000      0.000
REMARK INTER + INTRA:         -14.712
REMARK INTER:                 -13.783
REMARK INTRA:                  -0.929
REMARK UNBOUND:                -0.929
REMARK SMILES CCCCCCCCCCCCCCCCCC(=O)[O-]
REMARK SMILES IDX 10 1 11 2 12 3 13 4 14 5 15 6 16 7 17 8 18 9 19 10 20 11
REMARK SMILES IDX 9 12 8 13 7 14 6 15 5 16 4 17 3 18 2 19 1 20
REMARK H PARENT
REMARK Flexibility Score: inf
ROOT
ATOM      1  C   UNL     1     -23.027 -23.068  32.109  1.00  0.00     0.000 C 
ENDROOT
BRANCH   1   2
ATOM      2  C   UNL     1     -22.330 -21.966  31.296  1.00  0.00     0.000 C 
BRANCH   2   3
ATOM      3  C   UNL     1     -21.156 -21.313  32.051  1.00  0.00     0.000 C 
BRANCH   3   4
ATOM      4  C   UNL     1     -20.792 -19.893  31.583  1.00  0.00     0.000 C 
BRANCH   4   5
ATOM      5  C   UNL     1     -21.672 -19.399  30.425  1.00  0.00     0.000 C 
BRANCH   5   6
ATOM      6  C   UNL     1     -20.849 -19.243  29.136  1.00  0.00     0.000 C 
BRANCH   6   7
ATOM      7  C   UNL     1     -19.458 -18.643  29.392  1.00  0.00     0.006 C 
BRANCH   7   8
ATOM      8  C   UNL     1     -19.448 -17.111  29.309  1.00  0.00     0.053 C 
BRANCH   8   9
ATOM      9  C   UNL     1     -18.783 -16.528  30.515  1.00  0.00     0.041 C 
ATOM     10  O   UNL     1     -18.968 -17.039  31.651  1.00  0.00    -0.550 OA
ATOM     11  O   UNL     1     -17.921 -15.447  30.379  1.00  0.00    -0.550 OA
ENDBRANCH   8   9
ENDBRANCH   7   8
ENDBRANCH   6   7
ENDBRANCH   5   6
ENDBRANCH   4   5
ENDBRANCH   3   4
ENDBRANCH   2   3
ENDBRANCH   1   2
BRANCH   1  12
ATOM     12  C   UNL     1     -23.133 -24.365  31.293  1.00  0.00     0.000 C 
BRANCH  12  13
ATOM     13  C   UNL     1     -22.736 -24.176  29.820  1.00  0.00    -0.000 C 
BRANCH  13  14
ATOM     14  C   UNL     1     -23.444 -25.174  28.887  1.00  0.00    -0.000 C 
BRANCH  14  15
ATOM     15  C   UNL     1     -24.290 -26.209  29.652  1.00  0.00    -0.000 C 
BRANCH  15  16
ATOM     16  C   UNL     1     -25.644 -26.556  29.001  1.00  0.00    -0.000 C 
BRANCH  16  17
ATOM     17  C   UNL     1     -25.707 -27.936  28.312  1.00  0.00    -0.000 C 
BRANCH  17  18
ATOM     18  C   UNL     1     -26.973 -28.183  27.472  1.00  0.00    -0.000 C 
BRANCH  18  19
ATOM     19  C   UNL     1     -26.658 -28.568  26.020  1.00  0.00    -0.003 C 
ATOM     20  C   UNL     1     -27.936 -28.704  25.198  1.00  0.00     0.004 C 
ENDBRANCH  18  19
ENDBRANCH  17  18
ENDBRANCH  16  17
ENDBRANCH  15  16
ENDBRANCH  14  15
ENDBRANCH  13  14
ENDBRANCH  12  13
ENDBRANCH   1  12
TORSDOF 16
ENDMDL
MODEL 2
REMARK VINA RESULT:    -7.090      1.552      2.355
REMARK INTER + INTRA:         -14.652
REMARK INTER:                 -13.607
REMARK INTRA:                  -1.045
REMARK UNBOUND:                -0.929
REMARK SMILES CCCCCCCCCCCCCCCCCC(=O)[O-]
REMARK SMILES IDX 10 1 11 2 12 3 13 4 14 5 15 6 16 7 17 8 18 9 19 10 20 11
REMARK SMILES IDX 9 12 8 13 7 14 6 15 5 16 4 17 3 18 2 19 1 20
REMARK H PARENT
REMARK Flexibility Score: inf
ROOT
ATOM      1  C   UNL     1     -22.159 -21.840  28.477  1.00  0.00     0.000 C 
ENDROOT
BRANCH   1   2
ATOM      2  C   UNL     1     -22.042 -20.555  29.311  1.00  0.00     0.000 C 
BRANCH   2   3
ATOM      3  C   UNL     1     -22.162 -20.809  30.826  1.00  0.00     0.000 C 
BRANCH   3   4
ATOM      4  C   UNL     1     -20.940 -20.378  31.656  1.00  0.00     0.000 C 
BRANCH   4   5
ATOM      5  C   UNL     1     -20.712 -18.859  31.643  1.00  0.00     0.000 C 
BRANCH   5   6
ATOM      6  C   UNL     1     -19.249 -18.524  31.315  1.00  0.00     0.000 C 
BRANCH   6   7
ATOM      7  C   UNL     1     -18.978 -18.481  29.803  1.00  0.00     0.006 C 
BRANCH   7   8
ATOM      8  C   UNL     1     -19.468 -17.181  29.150  1.00  0.00     0.053 C 
BRANCH   8   9
ATOM      9  C   UNL     1     -18.313 -16.278  28.855  1.00  0.00     0.041 C 
ATOM     10  O   UNL     1     -17.826 -16.230  27.695  1.00  0.00    -0.550 OA
ATOM     11  O   UNL     1     -17.801 -15.455  29.850  1.00  0.00    -0.550 OA
ENDBRANCH   8   9
ENDBRANCH   7   8
ENDBRANCH   6   7
ENDBRANCH   5   6
ENDBRANCH   4   5
ENDBRANCH   3   4
ENDBRANCH   2   3
ENDBRANCH   1   2
BRANCH   1  12
ATOM     12  C   UNL     1     -21.820 -23.075  29.324  1.00  0.00     0.000 C 
BRANCH  12  13
ATOM     13  C   UNL     1     -22.925 -24.144  29.286  1.00  0.00    -0.000 C 
BRANCH  13  14
ATOM     14  C   UNL     1     -23.170 -24.786  30.662  1.00  0.00    -0.000 C 
BRANCH  14  15
ATOM     15  C   UNL     1     -24.573 -25.408  30.790  1.00  0.00    -0.000 C 
BRANCH  15  16
ATOM     16  C   UNL     1     -25.249 -25.779  29.454  1.00  0.00    -0.000 C 
BRANCH  16  17
ATOM     17  C   UNL     1     -24.881 -27.169  28.896  1.00  0.00    -0.000 C 
BRANCH  17  18
ATOM     18  C   UNL     1     -25.987 -27.850  28.069  1.00  0.00    -0.000 C 
BRANCH  18  19
ATOM     19  C   UNL     1     -26.924 -28.713  28.925  1.00  0.00    -0.003 C 
ATOM     20  C   UNL     1     -26.398 -28.849  30.350  1.00  0.00     0.004 C 
ENDBRANCH  18  19
ENDBRANCH  17  18
ENDBRANCH  16  17
ENDBRANCH  15  16
ENDBRANCH  14  15
ENDBRANCH  13  14
ENDBRANCH  12  13
ENDBRANCH   1  12
TORSDOF 16
ENDMDL
MODEL 3
REMARK VINA RESULT:    -7.056      4.818     10.719
REMARK INTER + INTRA:         -14.584
REMARK INTER:                 -13.940
REMARK INTRA:                  -0.645
REMARK UNBOUND:                -0.929
REMARK SMILES CCCCCCCCCCCCCCCCCC(=O)[O-]
REMARK SMILES IDX 10 1 11 2 12 3 13 4 14 5 15 6 16 7 17 8 18 9 19 10 20 11
REMARK SMILES IDX 9 12 8 13 7 14 6 15 5 16 4 17 3 18 2 19 1 20
REMARK H PARENT
REMARK Flexibility Score: inf
ROOT
ATOM      1  C   UNL     1     -21.225 -20.048  31.442  1.00  0.00     0.000 C 
ENDROOT
BRANCH   1   2
ATOM      2  C   UNL     1     -21.214 -21.480  31.997  1.00  0.00     0.000 C 
BRANCH   2   3
ATOM      3  C   UNL     1     -22.420 -22.316  31.531  1.00  0.00     0.000 C 
BRANCH   3   4
ATOM      4  C   UNL     1     -22.089 -23.428  30.520  1.00  0.00     0.000 C 
BRANCH   4   5
ATOM      5  C   UNL     1     -23.107 -24.578  30.540  1.00  0.00     0.000 C 
BRANCH   5   6
ATOM      6  C   UNL     1     -23.314 -25.155  29.131  1.00  0.00     0.000 C 
BRANCH   6   7
ATOM      7  C   UNL     1     -23.979 -26.540  29.151  1.00  0.00     0.006 C 
BRANCH   7   8
ATOM      8  C   UNL     1     -25.512 -26.460  29.160  1.00  0.00     0.053 C 
BRANCH   8   9
ATOM      9  C   UNL     1     -26.105 -27.831  29.247  1.00  0.00     0.041 C 
ATOM     10  O   UNL     1     -26.297 -28.369  30.370  1.00  0.00    -0.550 OA
ATOM     11  O   UNL     1     -26.487 -28.498  28.091  1.00  0.00    -0.550 OA
ENDBRANCH   8   9
ENDBRANCH   7   8
ENDBRANCH   6   7
ENDBRANCH   5   6
ENDBRANCH   4   5
ENDBRANCH   3   4
ENDBRANCH   2   3
ENDBRANCH   1   2
BRANCH   1  12
ATOM     12  C   UNL     1     -21.898 -20.001  30.062  1.00  0.00     0.000 C 
BRANCH  12  13
ATOM     13  C   UNL     1     -20.997 -19.380  28.981  1.00  0.00    -0.000 C 
BRANCH  13  14
ATOM     14  C   UNL     1     -20.580 -17.938  29.320  1.00  0.00    -0.000 C 
BRANCH  14  15
ATOM     15  C   UNL     1     -19.052 -17.751  29.353  1.00  0.00    -0.000 C 
BRANCH  15  16
ATOM     16  C   UNL     1     -18.575 -16.338  29.746  1.00  0.00    -0.000 C 
BRANCH  16  17
ATOM     17  C   UNL     1     -17.740 -15.605  28.676  1.00  0.00    -0.000 C 
BRANCH  17  18
ATOM     18  C   UNL     1     -17.710 -16.289  27.297  1.00  0.00    -0.000 C 
BRANCH  18  19
ATOM     19  C   UNL     1     -17.755 -15.287  26.134  1.00  0.00    -0.003 C 
ATOM     20  C   UNL     1     -16.472 -15.342  25.311  1.00  0.00     0.004 C 
ENDBRANCH  18  19
ENDBRANCH  17  18
ENDBRANCH  16  17
ENDBRANCH  15  16
ENDBRANCH  14  15
ENDBRANCH  13  14
ENDBRANCH  12  13
ENDBRANCH   1  12
TORSDOF 16
ENDMDL
MODEL 4
REMARK VINA RESULT:    -7.036      1.053      1.502
REMARK INTER + INTRA:         -14.547
REMARK INTER:                 -13.800
REMARK INTRA:                  -0.747
REMARK UNBOUND:                -0.929
REMARK SMILES CCCCCCCCCCCCCCCCCC(=O)[O-]
REMARK SMILES IDX 10 1 11 2 12 3 13 4 14 5 15 6 16 7 17 8 18 9 19 10 20 11
REMARK SMILES IDX 9 12 8 13 7 14 6 15 5 16 4 17 3 18 2 19 1 20
REMARK H PARENT
REMARK Flexibility Score: inf
ROOT
ATOM      1  C   UNL     1     -23.124 -22.885  31.898  1.00  0.00     0.000 C 
ENDROOT
BRANCH   1   2
ATOM      2  C   UNL     1     -21.997 -21.853  31.742  1.00  0.00     0.000 C 
BRANCH   2   3
ATOM      3  C   UNL     1     -22.068 -21.080  30.411  1.00  0.00     0.000 C 
BRANCH   3   4
ATOM      4  C   UNL     1     -21.621 -19.610  30.489  1.00  0.00     0.000 C 
BRANCH   4   5
ATOM      5  C   UNL     1     -20.476 -19.383  31.487  1.00  0.00     0.000 C 
BRANCH   5   6
ATOM      6  C   UNL     1     -19.647 -18.147  31.103  1.00  0.00     0.000 C 
BRANCH   6   7
ATOM      7  C   UNL     1     -19.030 -18.263  29.701  1.00  0.00     0.006 C 
BRANCH   7   8
ATOM      8  C   UNL     1     -19.404 -17.086  28.790  1.00  0.00     0.053 C 
BRANCH   8   9
ATOM      9  C   UNL     1     -18.231 -16.177  28.605  1.00  0.00     0.041 C 
ATOM     10  O   UNL     1     -17.738 -16.002  27.458  1.00  0.00    -0.550 OA
ATOM     11  O   UNL     1     -17.706 -15.487  29.690  1.00  0.00    -0.550 OA
ENDBRANCH   8   9
ENDBRANCH   7   8
ENDBRANCH   6   7
ENDBRANCH   5   6
ENDBRANCH   4   5
ENDBRANCH   3   4
ENDBRANCH   2   3
ENDBRANCH   1   2
BRANCH   1  12
ATOM     12  C   UNL     1     -22.702 -24.247  31.326  1.00  0.00     0.000 C 
BRANCH  12  13
ATOM     13  C   UNL     1     -23.846 -24.965  30.591  1.00  0.00    -0.000 C 
BRANCH  13  14
ATOM     14  C   UNL     1     -23.503 -25.267  29.123  1.00  0.00    -0.000 C 
BRANCH  14  15
ATOM     15  C   UNL     1     -24.131 -26.581  28.621  1.00  0.00    -0.000 C 
BRANCH  15  16
ATOM     16  C   UNL     1     -25.541 -26.884  29.169  1.00  0.00    -0.000 C 
BRANCH  16  17
ATOM     17  C   UNL     1     -26.154 -28.220  28.702  1.00  0.00    -0.000 C 
BRANCH  17  18
ATOM     18  C   UNL     1     -27.178 -28.099  27.559  1.00  0.00    -0.000 C 
BRANCH  18  19
ATOM     19  C   UNL     1     -26.632 -28.601  26.215  1.00  0.00    -0.003 C 
ATOM     20  C   UNL     1     -27.748 -28.730  25.183  1.00  0.00     0.004 C 
ENDBRANCH  18  19
ENDBRANCH  17  18
ENDBRANCH  16  17
ENDBRANCH  15  16
ENDBRANCH  14  15
ENDBRANCH  13  14
ENDBRANCH  12  13
ENDBRANCH   1  12
TORSDOF 16
ENDMDL
MODEL 5
REMARK VINA RESULT:    -7.030      4.882     10.773
REMARK INTER + INTRA:         -14.534
REMARK INTER:                 -13.611
REMARK INTRA:                  -0.923
REMARK UNBOUND:                -0.929
REMARK SMILES CCCCCCCCCCCCCCCCCC(=O)[O-]
REMARK SMILES IDX 10 1 11 2 12 3 13 4 14 5 15 6 16 7 17 8 18 9 19 10 20 11
REMARK SMILES IDX 9 12 8 13 7 14 6 15 5 16 4 17 3 18 2 19 1 20
REMARK H PARENT
REMARK Flexibility Score: inf
ROOT
ATOM      1  C   UNL     1     -21.995 -20.747  29.050  1.00  0.00     0.000 C 
ENDROOT
BRANCH   1   2
ATOM      2  C   UNL     1     -22.140 -21.171  30.520  1.00  0.00     0.000 C 
BRANCH   2   3
ATOM      3  C   UNL     1     -22.246 -22.697  30.698  1.00  0.00     0.000 C 
BRANCH   3   4
ATOM      4  C   UNL     1     -22.015 -23.519  29.417  1.00  0.00     0.000 C 
BRANCH   4   5
ATOM      5  C   UNL     1     -23.081 -24.603  29.200  1.00  0.00     0.000 C 
BRANCH   5   6
ATOM      6  C   UNL     1     -23.740 -25.002  30.531  1.00  0.00     0.000 C 
BRANCH   6   7
ATOM      7  C   UNL     1     -24.987 -25.878  30.333  1.00  0.00     0.006 C 
BRANCH   7   8
ATOM      8  C   UNL     1     -24.922 -26.720  29.052  1.00  0.00     0.053 C 
BRANCH   8   9
ATOM      9  C   UNL     1     -26.008 -27.748  29.048  1.00  0.00     0.041 C 
ATOM     10  O   UNL     1     -26.571 -28.073  27.970  1.00  0.00    -0.550 OA
ATOM     11  O   UNL     1     -26.369 -28.382  30.230  1.00  0.00    -0.550 OA
ENDBRANCH   8   9
ENDBRANCH   7   8
ENDBRANCH   6   7
ENDBRANCH   5   6
ENDBRANCH   4   5
ENDBRANCH   3   4
ENDBRANCH   2   3
ENDBRANCH   1   2
BRANCH   1  12
ATOM     12  C   UNL     1     -21.345 -19.360  28.943  1.00  0.00     0.000 C 
BRANCH  12  13
ATOM     13  C   UNL     1     -20.865 -18.820  30.300  1.00  0.00    -0.000 C 
BRANCH  13  14
ATOM     14  C   UNL     1     -19.338 -18.644  30.356  1.00  0.00    -0.000 C 
BRANCH  14  15
ATOM     15  C   UNL     1     -18.912 -17.349  31.073  1.00  0.00    -0.000 C 
BRANCH  15  16
ATOM     16  C   UNL     1     -18.542 -16.176  30.142  1.00  0.00    -0.000 C 
BRANCH  16  17
ATOM     17  C   UNL     1     -18.318 -16.556  28.664  1.00  0.00    -0.000 C 
BRANCH  17  18
ATOM     18  C   UNL     1     -17.621 -15.478  27.816  1.00  0.00    -0.000 C 
BRANCH  18  19
ATOM     19  C   UNL     1     -17.778 -15.712  26.307  1.00  0.00    -0.003 C 
ATOM     20  C   UNL     1     -16.609 -15.110  25.533  1.00  0.00     0.004 C 
ENDBRANCH  18  19
ENDBRANCH  17  18
ENDBRANCH  16  17
ENDBRANCH  15  16
ENDBRANCH  14  15
ENDBRANCH  13  14
ENDBRANCH  12  13
ENDBRANCH   1  12
TORSDOF 16
ENDMDL
MODEL 6
REMARK VINA RESULT:    -6.938      4.943     10.474
REMARK INTER + INTRA:         -14.356
REMARK INTER:                 -13.180
REMARK INTRA:                  -1.177
REMARK UNBOUND:                -0.929
REMARK SMILES CCCCCCCCCCCCCCCCCC(=O)[O-]
REMARK SMILES IDX 10 1 11 2 12 3 13 4 14 5 15 6 16 7 17 8 18 9 19 10 20 11
REMARK SMILES IDX 9 12 8 13 7 14 6 15 5 16 4 17 3 18 2 19 1 20
REMARK H PARENT
REMARK Flexibility Score: inf
ROOT
ATOM      1  C   UNL     1     -22.353 -21.783  28.443  1.00  0.00     0.000 C 
ENDROOT
BRANCH   1   2
ATOM      2  C   UNL     1     -21.784 -23.026  29.145  1.00  0.00     0.000 C 
BRANCH   2   3
ATOM      3  C   UNL     1     -22.878 -23.995  29.631  1.00  0.00     0.000 C 
BRANCH   3   4
ATOM      4  C   UNL     1     -22.923 -24.214  31.154  1.00  0.00     0.000 C 
BRANCH   4   5
ATOM      5  C   UNL     1     -23.768 -25.430  31.560  1.00  0.00     0.000 C 
BRANCH   5   6
ATOM      6  C   UNL     1     -24.004 -26.362  30.361  1.00  0.00     0.000 C 
BRANCH   6   7
ATOM      7  C   UNL     1     -25.459 -26.849  30.268  1.00  0.00     0.006 C 
BRANCH   7   8
ATOM      8  C   UNL     1     -26.036 -26.723  28.852  1.00  0.00     0.053 C 
BRANCH   8   9
ATOM      9  C   UNL     1     -26.457 -28.064  28.340  1.00  0.00     0.041 C 
ATOM     10  O   UNL     1     -26.358 -28.335  27.114  1.00  0.00    -0.550 OA
ATOM     11  O   UNL     1     -26.919 -29.032  29.223  1.00  0.00    -0.550 OA
ENDBRANCH   8   9
ENDBRANCH   7   8
ENDBRANCH   6   7
ENDBRANCH   5   6
ENDBRANCH   4   5
ENDBRANCH   3   4
ENDBRANCH   2   3
ENDBRANCH   1   2
BRANCH   1  12
ATOM     12  C   UNL     1     -21.730 -20.500  29.014  1.00  0.00     0.000 C 
BRANCH  12  13
ATOM     13  C   UNL     1     -22.059 -20.289  30.501  1.00  0.00    -0.000 C 
BRANCH  13  14
ATOM     14  C   UNL     1     -20.797 -20.137  31.367  1.00  0.00    -0.000 C 
BRANCH  14  15
ATOM     15  C   UNL     1     -20.541 -18.682  31.800  1.00  0.00    -0.000 C 
BRANCH  15  16
ATOM     16  C   UNL     1     -19.242 -18.056  31.255  1.00  0.00    -0.000 C 
BRANCH  16  17
ATOM     17  C   UNL     1     -18.991 -18.270  29.748  1.00  0.00    -0.000 C 
BRANCH  17  18
ATOM     18  C   UNL     1     -19.351 -17.070  28.853  1.00  0.00    -0.000 C 
BRANCH  18  19
ATOM     19  C   UNL     1     -18.119 -16.413  28.214  1.00  0.00    -0.003 C 
ATOM     20  C   UNL     1     -17.583 -15.284  29.089  1.00  0.00     0.004 C 
ENDBRANCH  18  19
ENDBRANCH  17  18
ENDBRANCH  16  17
ENDBRANCH  15  16
ENDBRANCH  14  15
ENDBRANCH  13  14
ENDBRANCH  12  13
ENDBRANCH   1  12
TORSDOF 16
ENDMDL
MODEL 7
REMARK VINA RESULT:    -6.937      2.810      4.125
REMARK INTER + INTRA:         -14.355
REMARK INTER:                 -13.253
REMARK INTRA:                  -1.101
REMARK UNBOUND:                -0.929
REMARK SMILES CCCCCCCCCCCCCCCCCC(=O)[O-]
REMARK SMILES IDX 10 1 11 2 12 3 13 4 14 5 15 6 16 7 17 8 18 9 19 10 20 11
REMARK SMILES IDX 9 12 8 13 7 14 6 15 5 16 4 17 3 18 2 19 1 20
REMARK H PARENT
REMARK Flexibility Score: inf
ROOT
ATOM      1  C   UNL     1     -21.644 -19.910  31.162  1.00  0.00     0.000 C 
ENDROOT
BRANCH   1   2
ATOM      2  C   UNL     1     -21.747 -19.877  29.630  1.00  0.00     0.000 C 
BRANCH   2   3
ATOM      3  C   UNL     1     -20.868 -18.786  28.991  1.00  0.00     0.000 C 
BRANCH   3   4
ATOM      4  C   UNL     1     -20.503 -17.617  29.923  1.00  0.00     0.000 C 
BRANCH   4   5
ATOM      5  C   UNL     1     -18.987 -17.440  30.096  1.00  0.00     0.000 C 
BRANCH   5   6
ATOM      6  C   UNL     1     -18.274 -17.433  28.734  1.00  0.00     0.000 C 
BRANCH   6   7
ATOM      7  C   UNL     1     -18.613 -16.189  27.897  1.00  0.00     0.006 C 
BRANCH   7   8
ATOM      8  C   UNL     1     -17.363 -15.477  27.363  1.00  0.00     0.053 C 
BRANCH   8   9
ATOM      9  C   UNL     1     -17.376 -15.452  25.867  1.00  0.00     0.041 C 
ATOM     10  O   UNL     1     -18.449 -15.228  25.246  1.00  0.00    -0.550 OA
ATOM     11  O   UNL     1     -16.196 -15.633  25.158  1.00  0.00    -0.550 OA
ENDBRANCH   8   9
ENDBRANCH   7   8
ENDBRANCH   6   7
ENDBRANCH   5   6
ENDBRANCH   4   5
ENDBRANCH   3   4
ENDBRANCH   2   3
ENDBRANCH   1   2
BRANCH   1  12
ATOM     12  C   UNL     1     -21.419 -21.344  31.665  1.00  0.00     0.000 C 
BRANCH  12  13
ATOM     13  C   UNL     1     -22.690 -22.205  31.598  1.00  0.00    -0.000 C 
BRANCH  13  14
ATOM     14  C   UNL     1     -22.432 -23.588  30.975  1.00  0.00    -0.000 C 
BRANCH  14  15
ATOM     15  C   UNL     1     -22.087 -23.513  29.476  1.00  0.00    -0.000 C 
BRANCH  15  16
ATOM     16  C   UNL     1     -22.871 -24.488  28.574  1.00  0.00    -0.000 C 
BRANCH  16  17
ATOM     17  C   UNL     1     -23.455 -25.721  29.292  1.00  0.00    -0.000 C 
BRANCH  17  18
ATOM     18  C   UNL     1     -24.992 -25.765  29.358  1.00  0.00    -0.000 C 
BRANCH  18  19
ATOM     19  C   UNL     1     -25.516 -26.799  30.365  1.00  0.00    -0.003 C 
ATOM     20  C   UNL     1     -25.110 -26.433  31.789  1.00  0.00     0.004 C 
ENDBRANCH  18  19
ENDBRANCH  17  18
ENDBRANCH  16  17
ENDBRANCH  15  16
ENDBRANCH  14  15
ENDBRANCH  13  14
ENDBRANCH  12  13
ENDBRANCH   1  12
TORSDOF 16
ENDMDL
MODEL 8
REMARK VINA RESULT:    -6.812      1.172      1.909
REMARK INTER + INTRA:         -14.112
REMARK INTER:                 -13.108
REMARK INTRA:                  -1.004
REMARK UNBOUND:                -0.929
REMARK SMILES CCCCCCCCCCCCCCCCCC(=O)[O-]
REMARK SMILES IDX 10 1 11 2 12 3 13 4 14 5 15 6 16 7 17 8 18 9 19 10 20 11
REMARK SMILES IDX 9 12 8 13 7 14 6 15 5 16 4 17 3 18 2 19 1 20
REMARK H PARENT
REMARK Flexibility Score: inf
ROOT
ATOM      1  C   UNL     1     -22.832 -24.456  30.576  1.00  0.00     0.000 C 
ENDROOT
BRANCH   1   2
ATOM      2  C   UNL     1     -21.922 -23.218  30.597  1.00  0.00     0.000 C 
BRANCH   2   3
ATOM      3  C   UNL     1     -22.200 -22.248  29.433  1.00  0.00     0.000 C 
BRANCH   3   4
ATOM      4  C   UNL     1     -22.286 -20.763  29.831  1.00  0.00     0.000 C 
BRANCH   4   5
ATOM      5  C   UNL     1     -21.564 -20.454  31.151  1.00  0.00     0.000 C 
BRANCH   5   6
ATOM      6  C   UNL     1     -20.992 -19.028  31.145  1.00  0.00     0.000 C 
BRANCH   6   7
ATOM      7  C   UNL     1     -20.732 -18.502  29.724  1.00  0.00     0.006 C 
BRANCH   7   8
ATOM      8  C   UNL     1     -19.237 -18.403  29.394  1.00  0.00     0.053 C 
BRANCH   8   9
ATOM      9  C   UNL     1     -18.790 -16.975  29.422  1.00  0.00     0.041 C 
ATOM     10  O   UNL     1     -18.558 -16.362  28.347  1.00  0.00    -0.550 OA
ATOM     11  O   UNL     1     -18.672 -16.307  30.634  1.00  0.00    -0.550 OA
ENDBRANCH   8   9
ENDBRANCH   7   8
ENDBRANCH   6   7
ENDBRANCH   5   6
ENDBRANCH   4   5
ENDBRANCH   3   4
ENDBRANCH   2   3
ENDBRANCH   1   2
BRANCH   1  12
ATOM     12  C   UNL     1     -23.087 -24.924  29.135  1.00  0.00     0.000 C 
BRANCH  12  13
ATOM     13  C   UNL     1     -23.721 -26.322  29.067  1.00  0.00    -0.000 C 
BRANCH  13  14
ATOM     14  C   UNL     1     -24.433 -26.710  30.375  1.00  0.00    -0.000 C 
BRANCH  14  15
ATOM     15  C   UNL     1     -25.924 -27.039  30.168  1.00  0.00    -0.000 C 
BRANCH  15  16
ATOM     16  C   UNL     1     -26.229 -28.514  29.839  1.00  0.00    -0.000 C 
BRANCH  16  17
ATOM     17  C   UNL     1     -26.986 -28.749  28.516  1.00  0.00    -0.000 C 
BRANCH  17  18
ATOM     18  C   UNL     1     -26.459 -27.942  27.315  1.00  0.00    -0.000 C 
BRANCH  18  19
ATOM     19  C   UNL     1     -26.469 -28.745  26.007  1.00  0.00    -0.003 C 
ATOM     20  C   UNL     1     -27.861 -28.762  25.384  1.00  0.00     0.004 C 
ENDBRANCH  18  19
ENDBRANCH  17  18
ENDBRANCH  16  17
ENDBRANCH  15  16
ENDBRANCH  14  15
ENDBRANCH  13  14
ENDBRANCH  12  13
ENDBRANCH   1  12
TORSDOF 16
ENDMDL
MODEL 9
REMARK VINA RESULT:    -6.769      5.025     10.928
REMARK INTER + INTRA:         -14.029
REMARK INTER:                 -13.370
REMARK INTRA:                  -0.659
REMARK UNBOUND:                -0.929
REMARK SMILES CCCCCCCCCCCCCCCCCC(=O)[O-]
REMARK SMILES IDX 10 1 11 2 12 3 13 4 14 5 15 6 16 7 17 8 18 9 19 10 20 11
REMARK SMILES IDX 9 12 8 13 7 14 6 15 5 16 4 17 3 18 2 19 1 20
REMARK H PARENT
REMARK Flexibility Score: inf
ROOT
ATOM      1  C   UNL     1     -21.965 -23.268  30.573  1.00  0.00     0.000 C 
ENDROOT
BRANCH   1   2
ATOM      2  C   UNL     1     -23.119 -24.269  30.412  1.00  0.00     0.000 C 
BRANCH   2   3
ATOM      3  C   UNL     1     -23.137 -24.951  29.032  1.00  0.00     0.000 C 
BRANCH   3   4
ATOM      4  C   UNL     1     -23.772 -26.353  29.007  1.00  0.00     0.000 C 
BRANCH   4   5
ATOM      5  C   UNL     1     -25.071 -26.437  29.822  1.00  0.00     0.000 C 
BRANCH   5   6
ATOM      6  C   UNL     1     -25.924 -27.635  29.377  1.00  0.00     0.000 C 
BRANCH   6   7
ATOM      7  C   UNL     1     -25.827 -27.900  27.866  1.00  0.00     0.006 C 
BRANCH   7   8
ATOM      8  C   UNL     1     -27.118 -28.492  27.285  1.00  0.00     0.053 C 
BRANCH   8   9
ATOM      9  C   UNL     1     -26.987 -28.678  25.807  1.00  0.00     0.041 C 
ATOM     10  O   UNL     1     -25.847 -28.783  25.279  1.00  0.00    -0.550 OA
ATOM     11  O   UNL     1     -28.123 -28.780  25.014  1.00  0.00    -0.550 OA
ENDBRANCH   8   9
ENDBRANCH   7   8
ENDBRANCH   6   7
ENDBRANCH   5   6
ENDBRANCH   4   5
ENDBRANCH   3   4
ENDBRANCH   2   3
ENDBRANCH   1   2
BRANCH   1  12
ATOM     12  C   UNL     1     -22.419 -22.029  31.357  1.00  0.00     0.000 C 
BRANCH  12  13
ATOM     13  C   UNL     1     -21.244 -21.236  31.951  1.00  0.00    -0.000 C 
BRANCH  13  14
ATOM     14  C   UNL     1     -21.090 -19.845  31.311  1.00  0.00    -0.000 C 
BRANCH  14  15
ATOM     15  C   UNL     1     -21.507 -19.819  29.829  1.00  0.00    -0.000 C 
BRANCH  15  16
ATOM     16  C   UNL     1     -20.878 -18.688  28.991  1.00  0.00    -0.000 C 
BRANCH  16  17
ATOM     17  C   UNL     1     -19.483 -18.224  29.457  1.00  0.00    -0.000 C 
BRANCH  17  18
ATOM     18  C   UNL     1     -19.459 -16.863  30.175  1.00  0.00    -0.000 C 
BRANCH  18  19
ATOM     19  C   UNL     1     -18.134 -16.111  29.983  1.00  0.00    -0.003 C 
ATOM     20  C   UNL     1     -17.880 -15.815  28.509  1.00  0.00     0.004 C 
ENDBRANCH  18  19
ENDBRANCH  17  18
ENDBRANCH  16  17
ENDBRANCH  15  16
ENDBRANCH  14  15
ENDBRANCH  13  14
ENDBRANCH  12  13
ENDBRANCH   1  12
TORSDOF 16
ENDMDL
