MODEL 1
REMARK VINA RESULT:    -6.752      0.000      0.000
REMARK INTER + INTRA:          -8.173
REMARK INTER:                  -7.936
REMARK INTRA:                  -0.237
REMARK UNBOUND:                -0.237
REMARK SMILES O=c1c(O)c(-c2ccc(O)cc2)oc2cc(O)cc(O)c12
REMARK SMILES IDX 5 1 3 2 2 3 1 4 21 5 19 6 18 7 16 8 15 9 14 10 13 11 6 12
REMARK SMILES IDX 7 13 8 14 9 15 12 16 11 17 10 18 4 20 20 22 17 24
REMARK H PARENT 10 19 4 21 20 23 17 25
REMARK Flexibility Score: inf
ROOT
ATOM      1  C   UNL     1      31.439  11.201  27.981  1.00  0.00     0.180 A 
ATOM      2  C   UNL     1      31.910  12.069  26.976  1.00  0.00     0.208 A 
ATOM      3  C   UNL     1      31.783  11.683  25.633  1.00  0.00     0.238 A 
ATOM      4  O   UNL     1      32.211  12.447  24.725  1.00  0.00    -0.285 OA
ATOM      5  C   UNL     1      31.172  10.452  25.316  1.00  0.00     0.111 A 
ATOM      6  C   UNL     1      31.002   9.992  23.987  1.00  0.00     0.134 A 
ATOM      7  C   UNL     1      30.375   8.759  23.753  1.00  0.00     0.093 A 
ATOM      8  C   UNL     1      29.917   7.980  24.817  1.00  0.00     0.123 A 
ATOM      9  C   UNL     1      30.082   8.429  26.131  1.00  0.00     0.094 A 
ATOM     10  C   UNL     1      30.705   9.654  26.386  1.00  0.00     0.146 A 
ATOM     11  O   UNL     1      30.855  10.055  27.643  1.00  0.00    -0.452 OA
ENDROOT
BRANCH   1  12
ATOM     12  C   UNL     1      31.554  11.528  29.420  1.00  0.00     0.021 A 
ATOM     13  C   UNL     1      30.456  12.017  30.151  1.00  0.00     0.016 A 
ATOM     14  C   UNL     1      30.596  12.342  31.504  1.00  0.00     0.047 A 
ATOM     15  C   UNL     1      31.833  12.198  32.140  1.00  0.00     0.115 A 
ATOM     16  C   UNL     1      32.799  11.405  30.059  1.00  0.00     0.016 A 
ATOM     17  C   UNL     1      32.936  11.730  31.413  1.00  0.00     0.047 A 
BRANCH  15  18
ATOM     18  O   UNL     1      31.957  12.524  33.488  1.00  0.00    -0.508 OA
ATOM     19  H   UNL     1      32.859  12.531  33.950  1.00  0.00     0.293 HD
ENDBRANCH  15  18
ENDBRANCH   1  12
BRANCH   2  20
ATOM     20  O   UNL     1      32.466  13.305  27.315  1.00  0.00    -0.502 OA
ATOM     21  H   UNL     1      32.705  13.549  28.268  1.00  0.00     0.293 HD
ENDBRANCH   2  20
BRANCH   6  22
ATOM     22  O   UNL     1      31.448  10.748  22.902  1.00  0.00    -0.507 OA
ATOM     23  H   UNL     1      31.075  10.613  21.970  1.00  0.00     0.293 HD
ENDBRANCH   6  22
BRANCH   8  24
ATOM     24  O   UNL     1      29.297   6.759  24.558  1.00  0.00    -0.508 OA
ATOM     25  H   UNL     1      28.339   6.710  24.230  1.00  0.00     0.293 HD
ENDBRANCH   8  24
TORSDOF 5
ENDMDL
MODEL 2
REMARK VINA RESULT:    -6.516      2.541      6.135
REMARK INTER + INTRA:          -7.896
REMARK INTER:                  -7.605
REMARK INTRA:                  -0.291
REMARK UNBOUND:                -0.237
REMARK SMILES O=c1c(O)c(-c2ccc(O)cc2)oc2cc(O)cc(O)c12
REMARK SMILES IDX 5 1 3 2 2 3 1 4 21 5 19 6 18 7 16 8 15 9 14 10 13 11 6 12
REMARK SMILES IDX 7 13 8 14 9 15 12 16 11 17 10 18 4 20 20 22 17 24
REMARK H PARENT 10 19 4 21 20 23 17 25
REMARK Flexibility Score: inf
ROOT
ATOM      1  C   UNL     1      31.419  11.494  28.167  1.00  0.00     0.180 A 
ATOM      2  C   UNL     1      32.186  12.245  29.079  1.00  0.00     0.208 A 
ATOM      3  C   UNL     1      32.441  11.711  30.351  1.00  0.00     0.238 A 
ATOM      4  O   UNL     1      33.118  12.378  31.180  1.00  0.00    -0.285 OA
ATOM      5  C   UNL     1      31.946  10.432  30.683  1.00  0.00     0.111 A 
ATOM      6  C   UNL     1      32.162   9.821  31.942  1.00  0.00     0.134 A 
ATOM      7  C   UNL     1      31.644   8.542  32.192  1.00  0.00     0.093 A 
ATOM      8  C   UNL     1      30.916   7.863  31.212  1.00  0.00     0.123 A 
ATOM      9  C   UNL     1      30.699   8.462  29.967  1.00  0.00     0.094 A 
ATOM     10  C   UNL     1      31.206   9.737  29.698  1.00  0.00     0.146 A 
ATOM     11  O   UNL     1      30.981  10.286  28.510  1.00  0.00    -0.452 OA
ENDROOT
BRANCH   1  12
ATOM     12  C   UNL     1      31.091  11.997  26.814  1.00  0.00     0.021 A 
ATOM     13  C   UNL     1      31.947  11.773  25.720  1.00  0.00     0.016 A 
ATOM     14  C   UNL     1      31.627  12.281  24.457  1.00  0.00     0.047 A 
ATOM     15  C   UNL     1      30.459  13.026  24.271  1.00  0.00     0.115 A 
ATOM     16  C   UNL     1      29.929  12.765  26.625  1.00  0.00     0.016 A 
ATOM     17  C   UNL     1      29.611  13.269  25.360  1.00  0.00     0.047 A 
BRANCH  15  18
ATOM     18  O   UNL     1      30.153  13.523  23.007  1.00  0.00    -0.508 OA
ATOM     19  H   UNL     1      29.194  13.646  22.704  1.00  0.00     0.293 HD
ENDBRANCH  15  18
ENDBRANCH   1  12
BRANCH   2  20
ATOM     20  O   UNL     1      32.707  13.487  28.708  1.00  0.00    -0.502 OA
ATOM     21  H   UNL     1      32.392  13.983  27.883  1.00  0.00     0.293 HD
ENDBRANCH   2  20
BRANCH   6  22
ATOM     22  O   UNL     1      32.886  10.472  32.942  1.00  0.00    -0.507 OA
ATOM     23  H   UNL     1      33.352  11.356  32.773  1.00  0.00     0.293 HD
ENDBRANCH   6  22
BRANCH   8  24
ATOM     24  O   UNL     1      30.413   6.593  31.485  1.00  0.00    -0.508 OA
ATOM     25  H   UNL     1      30.024   6.009  30.754  1.00  0.00     0.293 HD
ENDBRANCH   8  24
TORSDOF 5
ENDMDL
MODEL 3
REMARK VINA RESULT:    -6.339      3.007      4.779
REMARK INTER + INTRA:          -7.688
REMARK INTER:                  -7.710
REMARK INTRA:                   0.023
REMARK UNBOUND:                -0.237
REMARK SMILES O=c1c(O)c(-c2ccc(O)cc2)oc2cc(O)cc(O)c12
REMARK SMILES IDX 5 1 3 2 2 3 1 4 21 5 19 6 18 7 16 8 15 9 14 10 13 11 6 12
REMARK SMILES IDX 7 13 8 14 9 15 12 16 11 17 10 18 4 20 20 22 17 24
REMARK H PARENT 10 19 4 21 20 23 17 25
REMARK Flexibility Score: inf
ROOT
ATOM      1  C   UNL     1      31.868  10.164  31.576  1.00  0.00     0.180 A 
ATOM      2  C   UNL     1      32.440  11.446  31.688  1.00  0.00     0.208 A 
ATOM      3  C   UNL     1      32.552  12.242  30.537  1.00  0.00     0.238 A 
ATOM      4  O   UNL     1      33.071  13.388  30.624  1.00  0.00    -0.285 OA
ATOM      5  C   UNL     1      32.074  11.754  29.303  1.00  0.00     0.111 A 
ATOM      6  C   UNL     1      32.146  12.494  28.098  1.00  0.00     0.134 A 
ATOM      7  C   UNL     1      31.639  11.943  26.912  1.00  0.00     0.093 A 
ATOM      8  C   UNL     1      31.065  10.669  26.907  1.00  0.00     0.123 A 
ATOM      9  C   UNL     1      30.992   9.933  28.093  1.00  0.00     0.094 A 
ATOM     10  C   UNL     1      31.492  10.465  29.285  1.00  0.00     0.146 A 
ATOM     11  O   UNL     1      31.415   9.743  30.398  1.00  0.00    -0.452 OA
ENDROOT
BRANCH   1  12
ATOM     12  C   UNL     1      31.733   9.258  32.739  1.00  0.00     0.021 A 
ATOM     13  C   UNL     1      32.198   7.931  32.694  1.00  0.00     0.016 A 
ATOM     14  C   UNL     1      32.036   7.088  33.797  1.00  0.00     0.047 A 
ATOM     15  C   UNL     1      31.398   7.551  34.952  1.00  0.00     0.115 A 
ATOM     16  C   UNL     1      31.074   9.711  33.894  1.00  0.00     0.016 A 
ATOM     17  C   UNL     1      30.915   8.865  34.997  1.00  0.00     0.047 A 
BRANCH  15  18
ATOM     18  O   UNL     1      31.246   6.700  36.043  1.00  0.00    -0.508 OA
ATOM     19  H   UNL     1      30.333   6.496  36.432  1.00  0.00     0.293 HD
ENDBRANCH  15  18
ENDBRANCH   1  12
BRANCH   2  20
ATOM     20  O   UNL     1      32.859  11.925  32.931  1.00  0.00    -0.502 OA
ATOM     21  H   UNL     1      33.207  12.867  33.060  1.00  0.00     0.293 HD
ENDBRANCH   2  20
BRANCH   6  22
ATOM     22  O   UNL     1      32.712  13.769  28.071  1.00  0.00    -0.507 OA
ATOM     23  H   UNL     1      33.691  13.922  28.285  1.00  0.00     0.293 HD
ENDBRANCH   6  22
BRANCH   8  24
ATOM     24  O   UNL     1      30.569  10.144  25.715  1.00  0.00    -0.508 OA
ATOM     25  H   UNL     1      29.688  10.457  25.324  1.00  0.00     0.293 HD
ENDBRANCH   8  24
TORSDOF 5
ENDMDL
MODEL 4
REMARK VINA RESULT:    -6.338      3.432      5.159
REMARK INTER + INTRA:          -7.686
REMARK INTER:                  -7.490
REMARK INTRA:                  -0.196
REMARK UNBOUND:                -0.237
REMARK SMILES O=c1c(O)c(-c2ccc(O)cc2)oc2cc(O)cc(O)c12
REMARK SMILES IDX 5 1 3 2 2 3 1 4 21 5 19 6 18 7 16 8 15 9 14 10 13 11 6 12
REMARK SMILES IDX 7 13 8 14 9 15 12 16 11 17 10 18 4 20 20 22 17 24
REMARK H PARENT 10 19 4 21 20 23 17 25
REMARK Flexibility Score: inf
ROOT
ATOM      1  C   UNL     1      31.143   8.849  30.970  1.00  0.00     0.180 A 
ATOM      2  C   UNL     1      31.046   7.903  29.931  1.00  0.00     0.208 A 
ATOM      3  C   UNL     1      31.236   8.328  28.607  1.00  0.00     0.238 A 
ATOM      4  O   UNL     1      31.142   7.491  27.667  1.00  0.00    -0.285 OA
ATOM      5  C   UNL     1      31.537   9.680  28.345  1.00  0.00     0.111 A 
ATOM      6  C   UNL     1      31.745  10.188  27.040  1.00  0.00     0.134 A 
ATOM      7  C   UNL     1      32.051  11.546  26.863  1.00  0.00     0.093 A 
ATOM      8  C   UNL     1      32.151  12.403  27.961  1.00  0.00     0.123 A 
ATOM      9  C   UNL     1      31.945  11.907  29.252  1.00  0.00     0.094 A 
ATOM     10  C   UNL     1      31.639  10.558  29.450  1.00  0.00     0.146 A 
ATOM     11  O   UNL     1      31.443  10.113  30.686  1.00  0.00    -0.452 OA
ENDROOT
BRANCH   1  12
ATOM     12  C   UNL     1      30.938   8.483  32.390  1.00  0.00     0.021 A 
ATOM     13  C   UNL     1      31.877   7.703  33.089  1.00  0.00     0.016 A 
ATOM     14  C   UNL     1      31.648   7.349  34.422  1.00  0.00     0.047 A 
ATOM     15  C   UNL     1      30.477   7.755  35.069  1.00  0.00     0.115 A 
ATOM     16  C   UNL     1      29.753   8.870  33.039  1.00  0.00     0.016 A 
ATOM     17  C   UNL     1      29.528   8.515  34.373  1.00  0.00     0.047 A 
BRANCH  15  18
ATOM     18  O   UNL     1      30.265   7.396  36.398  1.00  0.00    -0.508 OA
ATOM     19  H   UNL     1      31.031   7.332  37.058  1.00  0.00     0.293 HD
ENDBRANCH  15  18
ENDBRANCH   1  12
BRANCH   2  20
ATOM     20  O   UNL     1      30.797   6.559  30.221  1.00  0.00    -0.502 OA
ATOM     21  H   UNL     1      31.515   5.938  30.573  1.00  0.00     0.293 HD
ENDBRANCH   2  20
BRANCH   6  22
ATOM     22  O   UNL     1      31.654   9.358  25.922  1.00  0.00    -0.507 OA
ATOM     23  H   UNL     1      31.510   9.731  24.991  1.00  0.00     0.293 HD
ENDBRANCH   6  22
BRANCH   8  24
ATOM     24  O   UNL     1      32.456  13.747  27.758  1.00  0.00    -0.508 OA
ATOM     25  H   UNL     1      32.298  14.198  26.864  1.00  0.00     0.293 HD
ENDBRANCH   8  24
TORSDOF 5
ENDMDL
MODEL 5
REMARK VINA RESULT:    -6.270      4.615      7.078
REMARK INTER + INTRA:          -7.606
REMARK INTER:                  -7.332
REMARK INTRA:                  -0.274
REMARK UNBOUND:                -0.237
REMARK SMILES O=c1c(O)c(-c2ccc(O)cc2)oc2cc(O)cc(O)c12
REMARK SMILES IDX 5 1 3 2 2 3 1 4 21 5 19 6 18 7 16 8 15 9 14 10 13 11 6 12
REMARK SMILES IDX 7 13 8 14 9 15 12 16 11 17 10 18 4 20 20 22 17 24
REMARK H PARENT 10 19 4 21 20 23 17 25
REMARK Flexibility Score: inf
ROOT
ATOM      1  C   UNL     1      30.896   8.472  33.356  1.00  0.00     0.180 A 
ATOM      2  C   UNL     1      30.612   7.705  32.210  1.00  0.00     0.208 A 
ATOM      3  C   UNL     1      30.874   8.254  30.944  1.00  0.00     0.238 A 
ATOM      4  O   UNL     1      30.614   7.580  29.910  1.00  0.00    -0.285 OA
ATOM      5  C   UNL     1      31.432   9.545  30.847  1.00  0.00     0.111 A 
ATOM      6  C   UNL     1      31.730  10.168  29.611  1.00  0.00     0.134 A 
ATOM      7  C   UNL     1      32.293  11.453  29.597  1.00  0.00     0.093 A 
ATOM      8  C   UNL     1      32.564  12.125  30.791  1.00  0.00     0.123 A 
ATOM      9  C   UNL     1      32.272  11.515  32.015  1.00  0.00     0.094 A 
ATOM     10  C   UNL     1      31.709  10.236  32.050  1.00  0.00     0.146 A 
ATOM     11  O   UNL     1      31.436   9.680  33.225  1.00  0.00    -0.452 OA
ENDROOT
BRANCH   1  12
ATOM     12  C   UNL     1      30.630   7.971  34.724  1.00  0.00     0.021 A 
ATOM     13  C   UNL     1      31.535   7.117  35.381  1.00  0.00     0.016 A 
ATOM     14  C   UNL     1      31.249   6.637  36.662  1.00  0.00     0.047 A 
ATOM     15  C   UNL     1      30.055   6.991  37.298  1.00  0.00     0.115 A 
ATOM     16  C   UNL     1      29.423   8.306  35.359  1.00  0.00     0.016 A 
ATOM     17  C   UNL     1      29.141   7.825  36.642  1.00  0.00     0.047 A 
BRANCH  15  18
ATOM     18  O   UNL     1      29.786   6.506  38.576  1.00  0.00    -0.508 OA
ATOM     19  H   UNL     1      29.026   6.879  39.134  1.00  0.00     0.293 HD
ENDBRANCH  15  18
ENDBRANCH   1  12
BRANCH   2  20
ATOM     20  O   UNL     1      30.106   6.409  32.335  1.00  0.00    -0.502 OA
ATOM     21  H   UNL     1      29.607   5.947  31.585  1.00  0.00     0.293 HD
ENDBRANCH   2  20
BRANCH   6  22
ATOM     22  O   UNL     1      31.472   9.523  28.400  1.00  0.00    -0.507 OA
ATOM     23  H   UNL     1      32.221   9.202  27.798  1.00  0.00     0.293 HD
ENDBRANCH   6  22
BRANCH   8  24
ATOM     24  O   UNL     1      33.125  13.399  30.751  1.00  0.00    -0.508 OA
ATOM     25  H   UNL     1      32.793  14.144  31.351  1.00  0.00     0.293 HD
ENDBRANCH   8  24
TORSDOF 5
ENDMDL
MODEL 6
REMARK VINA RESULT:    -6.203      2.273      3.044
REMARK INTER + INTRA:          -7.527
REMARK INTER:                  -7.237
REMARK INTRA:                  -0.291
REMARK UNBOUND:                -0.237
REMARK SMILES O=c1c(O)c(-c2ccc(O)cc2)oc2cc(O)cc(O)c12
REMARK SMILES IDX 5 1 3 2 2 3 1 4 21 5 19 6 18 7 16 8 15 9 14 10 13 11 6 12
REMARK SMILES IDX 7 13 8 14 9 15 12 16 11 17 10 18 4 20 20 22 17 24
REMARK H PARENT 10 19 4 21 20 23 17 25
REMARK Flexibility Score: inf
ROOT
ATOM      1  C   UNL     1      30.820  11.018  28.899  1.00  0.00     0.180 A 
ATOM      2  C   UNL     1      30.264  12.310  28.812  1.00  0.00     0.208 A 
ATOM      3  C   UNL     1      30.110  12.898  27.546  1.00  0.00     0.238 A 
ATOM      4  O   UNL     1      29.624  14.057  27.456  1.00  0.00    -0.285 OA
ATOM      5  C   UNL     1      30.493  12.181  26.394  1.00  0.00     0.111 A 
ATOM      6  C   UNL     1      30.367  12.700  25.082  1.00  0.00     0.134 A 
ATOM      7  C   UNL     1      30.762  11.921  23.985  1.00  0.00     0.093 A 
ATOM      8  C   UNL     1      31.279  10.637  24.172  1.00  0.00     0.123 A 
ATOM      9  C   UNL     1      31.406  10.119  25.464  1.00  0.00     0.094 A 
ATOM     10  C   UNL     1      31.020  10.880  26.571  1.00  0.00     0.146 A 
ATOM     11  O   UNL     1      31.155  10.367  27.789  1.00  0.00    -0.452 OA
ENDROOT
BRANCH   1  12
ATOM     12  C   UNL     1      31.032  10.339  30.197  1.00  0.00     0.021 A 
ATOM     13  C   UNL     1      32.177  10.587  30.976  1.00  0.00     0.016 A 
ATOM     14  C   UNL     1      32.367   9.914  32.187  1.00  0.00     0.047 A 
ATOM     15  C   UNL     1      31.426   8.979  32.629  1.00  0.00     0.115 A 
ATOM     16  C   UNL     1      30.101   9.382  30.637  1.00  0.00     0.016 A 
ATOM     17  C   UNL     1      30.294   8.712  31.849  1.00  0.00     0.047 A 
BRANCH  15  18
ATOM     18  O   UNL     1      31.628   8.318  33.838  1.00  0.00    -0.508 OA
ATOM     19  H   UNL     1      30.913   8.297  34.556  1.00  0.00     0.293 HD
ENDBRANCH  15  18
ENDBRANCH   1  12
BRANCH   2  20
ATOM     20  O   UNL     1      29.847  12.978  29.965  1.00  0.00    -0.502 OA
ATOM     21  H   UNL     1      30.489  13.495  30.554  1.00  0.00     0.293 HD
ENDBRANCH   2  20
BRANCH   6  22
ATOM     22  O   UNL     1      29.853  13.979  24.862  1.00  0.00    -0.507 OA
ATOM     23  H   UNL     1      28.941  14.122  24.444  1.00  0.00     0.293 HD
ENDBRANCH   6  22
BRANCH   8  24
ATOM     24  O   UNL     1      31.663   9.883  23.065  1.00  0.00    -0.508 OA
ATOM     25  H   UNL     1      31.675  10.278  22.132  1.00  0.00     0.293 HD
ENDBRANCH   8  24
TORSDOF 5
ENDMDL
MODEL 7
REMARK VINA RESULT:    -6.190      1.513      2.167
REMARK INTER + INTRA:          -7.512
REMARK INTER:                  -7.365
REMARK INTRA:                  -0.147
REMARK UNBOUND:                -0.237
REMARK SMILES O=c1c(O)c(-c2ccc(O)cc2)oc2cc(O)cc(O)c12
REMARK SMILES IDX 5 1 3 2 2 3 1 4 21 5 19 6 18 7 16 8 15 9 14 10 13 11 6 12
REMARK SMILES IDX 7 13 8 14 9 15 12 16 11 17 10 18 4 20 20 22 17 24
REMARK H PARENT 10 19 4 21 20 23 17 25
REMARK Flexibility Score: inf
ROOT
ATOM      1  C   UNL     1      31.634  10.740  29.755  1.00  0.00     0.180 A 
ATOM      2  C   UNL     1      32.144  11.765  28.935  1.00  0.00     0.208 A 
ATOM      3  C   UNL     1      32.027  11.641  27.542  1.00  0.00     0.238 A 
ATOM      4  O   UNL     1      32.489  12.548  26.797  1.00  0.00    -0.285 OA
ATOM      5  C   UNL     1      31.387  10.510  26.994  1.00  0.00     0.111 A 
ATOM      6  C   UNL     1      31.225  10.312  25.602  1.00  0.00     0.134 A 
ATOM      7  C   UNL     1      30.567   9.164  25.135  1.00  0.00     0.093 A 
ATOM      8  C   UNL     1      30.071   8.213  26.030  1.00  0.00     0.123 A 
ATOM      9  C   UNL     1      30.229   8.403  27.406  1.00  0.00     0.094 A 
ATOM     10  C   UNL     1      30.882   9.540  27.891  1.00  0.00     0.146 A 
ATOM     11  O   UNL     1      31.023   9.695  29.203  1.00  0.00    -0.452 OA
ENDROOT
BRANCH   1  12
ATOM     12  C   UNL     1      31.736  10.788  31.231  1.00  0.00     0.021 A 
ATOM     13  C   UNL     1      32.984  10.781  31.881  1.00  0.00     0.016 A 
ATOM     14  C   UNL     1      33.054  10.802  33.277  1.00  0.00     0.047 A 
ATOM     15  C   UNL     1      31.883  10.818  34.041  1.00  0.00     0.115 A 
ATOM     16  C   UNL     1      30.563  10.783  32.005  1.00  0.00     0.016 A 
ATOM     17  C   UNL     1      30.637  10.805  33.402  1.00  0.00     0.047 A 
BRANCH  15  18
ATOM     18  O   UNL     1      31.969  10.841  35.431  1.00  0.00    -0.508 OA
ATOM     19  H   UNL     1      31.195  11.155  36.004  1.00  0.00     0.293 HD
ENDBRANCH  15  18
ENDBRANCH   1  12
BRANCH   2  20
ATOM     20  O   UNL     1      32.729  12.899  29.505  1.00  0.00    -0.502 OA
ATOM     21  H   UNL     1      33.568  12.850  30.070  1.00  0.00     0.293 HD
ENDBRANCH   2  20
BRANCH   6  22
ATOM     22  O   UNL     1      31.708  11.243  24.681  1.00  0.00    -0.507 OA
ATOM     23  H   UNL     1      31.759  11.036  23.691  1.00  0.00     0.293 HD
ENDBRANCH   6  22
BRANCH   8  24
ATOM     24  O   UNL     1      29.422   7.082  25.541  1.00  0.00    -0.508 OA
ATOM     25  H   UNL     1      28.539   7.148  25.048  1.00  0.00     0.293 HD
ENDBRANCH   8  24
TORSDOF 5
ENDMDL
MODEL 8
REMARK VINA RESULT:    -6.164      2.869      3.675
REMARK INTER + INTRA:          -7.482
REMARK INTER:                  -7.215
REMARK INTRA:                  -0.266
REMARK UNBOUND:                -0.237
REMARK SMILES O=c1c(O)c(-c2ccc(O)cc2)oc2cc(O)cc(O)c12
REMARK SMILES IDX 5 1 3 2 2 3 1 4 21 5 19 6 18 7 16 8 15 9 14 10 13 11 6 12
REMARK SMILES IDX 7 13 8 14 9 15 12 16 11 17 10 18 4 20 20 22 17 24
REMARK H PARENT 10 19 4 21 20 23 17 25
REMARK Flexibility Score: inf
ROOT
ATOM      1  C   UNL     1      30.959  11.591  28.172  1.00  0.00     0.180 A 
ATOM      2  C   UNL     1      31.822  11.630  27.060  1.00  0.00     0.208 A 
ATOM      3  C   UNL     1      31.387  12.264  25.886  1.00  0.00     0.238 A 
ATOM      4  O   UNL     1      32.147  12.296  24.880  1.00  0.00    -0.285 OA
ATOM      5  C   UNL     1      30.111  12.864  25.849  1.00  0.00     0.111 A 
ATOM      6  C   UNL     1      29.599  13.526  24.707  1.00  0.00     0.134 A 
ATOM      7  C   UNL     1      28.323  14.106  24.752  1.00  0.00     0.093 A 
ATOM      8  C   UNL     1      27.550  14.038  25.914  1.00  0.00     0.123 A 
ATOM      9  C   UNL     1      28.050  13.385  27.045  1.00  0.00     0.094 A 
ATOM     10  C   UNL     1      29.319  12.800  27.019  1.00  0.00     0.146 A 
ATOM     11  O   UNL     1      29.769  12.181  28.105  1.00  0.00    -0.452 OA
ENDROOT
BRANCH   1  12
ATOM     12  C   UNL     1      31.337  10.925  29.439  1.00  0.00     0.021 A 
ATOM     13  C   UNL     1      32.157  11.563  30.387  1.00  0.00     0.016 A 
ATOM     14  C   UNL     1      32.522  10.903  31.565  1.00  0.00     0.047 A 
ATOM     15  C   UNL     1      32.085   9.597  31.805  1.00  0.00     0.115 A 
ATOM     16  C   UNL     1      30.919   9.604  29.677  1.00  0.00     0.016 A 
ATOM     17  C   UNL     1      31.285   8.948  30.857  1.00  0.00     0.047 A 
BRANCH  15  18
ATOM     18  O   UNL     1      32.455   8.953  32.983  1.00  0.00    -0.508 OA
ATOM     19  H   UNL     1      32.720   9.475  33.811  1.00  0.00     0.293 HD
ENDBRANCH  15  18
ENDBRANCH   1  12
BRANCH   2  20
ATOM     20  O   UNL     1      33.100  11.071  27.139  1.00  0.00    -0.502 OA
ATOM     21  H   UNL     1      33.624  10.798  26.316  1.00  0.00     0.293 HD
ENDBRANCH   2  20
BRANCH   6  22
ATOM     22  O   UNL     1      30.347  13.613  23.531  1.00  0.00    -0.507 OA
ATOM     23  H   UNL     1      30.104  13.079  22.705  1.00  0.00     0.293 HD
ENDBRANCH   6  22
BRANCH   8  24
ATOM     24  O   UNL     1      26.286  14.623  25.934  1.00  0.00    -0.508 OA
ATOM     25  H   UNL     1      26.036  15.322  26.623  1.00  0.00     0.293 HD
ENDBRANCH   8  24
TORSDOF 5
ENDMDL
MODEL 9
REMARK VINA RESULT:    -6.045      2.308      6.693
REMARK INTER + INTRA:          -7.342
REMARK INTER:                  -7.068
REMARK INTRA:                  -0.274
REMARK UNBOUND:                -0.237
REMARK SMILES O=c1c(O)c(-c2ccc(O)cc2)oc2cc(O)cc(O)c12
REMARK SMILES IDX 5 1 3 2 2 3 1 4 21 5 19 6 18 7 16 8 15 9 14 10 13 11 6 12
REMARK SMILES IDX 7 13 8 14 9 15 12 16 11 17 10 18 4 20 20 22 17 24
REMARK H PARENT 10 19 4 21 20 23 17 25
REMARK Flexibility Score: inf
ROOT
ATOM      1  C   UNL     1      30.853  10.037  28.428  1.00  0.00     0.180 A 
ATOM      2  C   UNL     1      31.479  11.277  28.663  1.00  0.00     0.208 A 
ATOM      3  C   UNL     1      32.030  11.530  29.929  1.00  0.00     0.238 A 
ATOM      4  O   UNL     1      32.584  12.641  30.154  1.00  0.00    -0.285 OA
ATOM      5  C   UNL     1      31.966  10.537  30.928  1.00  0.00     0.111 A 
ATOM      6  C   UNL     1      32.501  10.710  32.227  1.00  0.00     0.134 A 
ATOM      7  C   UNL     1      32.405   9.670  33.163  1.00  0.00     0.093 A 
ATOM      8  C   UNL     1      31.788   8.463  32.827  1.00  0.00     0.123 A 
ATOM      9  C   UNL     1      31.257   8.286  31.545  1.00  0.00     0.094 A 
ATOM     10  C   UNL     1      31.341   9.311  30.599  1.00  0.00     0.146 A 
ATOM     11  O   UNL     1      30.825   9.119  29.390  1.00  0.00    -0.452 OA
ENDROOT
BRANCH   1  12
ATOM     12  C   UNL     1      30.232   9.704  27.126  1.00  0.00     0.021 A 
ATOM     13  C   UNL     1      31.000   9.229  26.047  1.00  0.00     0.016 A 
ATOM     14  C   UNL     1      30.393   8.945  24.820  1.00  0.00     0.047 A 
ATOM     15  C   UNL     1      29.019   9.142  24.650  1.00  0.00     0.115 A 
ATOM     16  C   UNL     1      28.856   9.920  26.943  1.00  0.00     0.016 A 
ATOM     17  C   UNL     1      28.252   9.633  25.714  1.00  0.00     0.047 A 
BRANCH  15  18
ATOM     18  O   UNL     1      28.429   8.852  23.422  1.00  0.00    -0.508 OA
ATOM     19  H   UNL     1      27.437   8.659  23.344  1.00  0.00     0.293 HD
ENDBRANCH  15  18
ENDBRANCH   1  12
BRANCH   2  20
ATOM     20  O   UNL     1      31.573  12.225  27.641  1.00  0.00    -0.502 OA
ATOM     21  H   UNL     1      31.594  13.221  27.825  1.00  0.00     0.293 HD
ENDBRANCH   2  20
BRANCH   6  22
ATOM     22  O   UNL     1      33.125  11.904  32.594  1.00  0.00    -0.507 OA
ATOM     23  H   UNL     1      33.850  12.322  32.024  1.00  0.00     0.293 HD
ENDBRANCH   6  22
BRANCH   8  24
ATOM     24  O   UNL     1      31.706   7.445  33.775  1.00  0.00    -0.508 OA
ATOM     25  H   UNL     1      32.320   7.421  34.581  1.00  0.00     0.293 HD
ENDBRANCH   8  24
TORSDOF 5
ENDMDL
