MODEL 1
REMARK VINA RESULT:    -3.098      0.000      0.000
REMARK INTER + INTRA:         -10.949
REMARK INTER:                  -7.083
REMARK INTRA:                  -3.866
REMARK UNBOUND:                -3.866
REMARK SMILES CCCCCCCCCCCCCCCCCCCCCCCC(=O)[O-]
REMARK SMILES IDX 13 1 14 2 15 3 16 4 17 5 18 6 19 7 20 8 21 9 22 10 23 11
REMARK SMILES IDX 24 12 25 13 26 14 12 15 11 16 10 17 9 18 8 19 7 20 6 21 5 22
REMARK SMILES IDX 4 23 3 24 2 25 1 26
REMARK H PARENT
REMARK Flexibility Score: inf
ROOT
ATOM      1  C   UNL     1     -15.428 -18.926   5.937  1.00  0.00     0.000 C 
ENDROOT
BRANCH   1   2
ATOM      2  C   UNL     1     -15.322 -17.698   6.858  1.00  0.00     0.000 C 
BRANCH   2   3
ATOM      3  C   UNL     1     -15.874 -16.420   6.205  1.00  0.00     0.000 C 
BRANCH   3   4
ATOM      4  C   UNL     1     -15.513 -16.308   4.713  1.00  0.00     0.000 C 
BRANCH   4   5
ATOM      5  C   UNL     1     -14.218 -15.513   4.469  1.00  0.00     0.000 C 
BRANCH   5   6
ATOM      6  C   UNL     1     -13.949 -15.141   2.999  1.00  0.00     0.000 C 
BRANCH   6   7
ATOM      7  C   UNL     1     -14.927 -14.079   2.463  1.00  0.00     0.000 C 
BRANCH   7   8
ATOM      8  C   UNL     1     -14.227 -12.749   2.135  1.00  0.00     0.000 C 
BRANCH   8   9
ATOM      9  C   UNL     1     -12.797 -12.682   2.696  1.00  0.00     0.000 C 
BRANCH   9  10
ATOM     10  C   UNL     1     -12.637 -11.634   3.812  1.00  0.00     0.006 C 
BRANCH  10  11
ATOM     11  C   UNL     1     -13.954 -11.264   4.517  1.00  0.00     0.053 C 
BRANCH  11  12
ATOM     12  C   UNL     1     -14.172  -9.782   4.588  1.00  0.00     0.041 C 
ATOM     13  O   UNL     1     -13.327  -8.993   4.088  1.00  0.00    -0.550 OA
ATOM     14  O   UNL     1     -15.289  -9.268   5.237  1.00  0.00    -0.550 OA
ENDBRANCH  11  12
ENDBRANCH  10  11
ENDBRANCH   9  10
ENDBRANCH   8   9
ENDBRANCH   7   8
ENDBRANCH   6   7
ENDBRANCH   5   6
ENDBRANCH   4   5
ENDBRANCH   3   4
ENDBRANCH   2   3
ENDBRANCH   1   2
BRANCH   1  15
ATOM     15  C   UNL     1     -14.080 -19.640   5.736  1.00  0.00     0.000 C 
BRANCH  15  16
ATOM     16  C   UNL     1     -12.841 -18.721   5.757  1.00  0.00     0.000 C 
BRANCH  16  17
ATOM     17  C   UNL     1     -11.842 -18.935   4.601  1.00  0.00     0.000 C 
BRANCH  17  18
ATOM     18  C   UNL     1     -12.348 -18.492   3.216  1.00  0.00    -0.000 C 
BRANCH  18  19
ATOM     19  C   UNL     1     -12.315 -19.629   2.182  1.00  0.00    -0.000 C 
BRANCH  19  20
ATOM     20  C   UNL     1     -13.619 -19.676   1.373  1.00  0.00    -0.000 C 
BRANCH  20  21
ATOM     21  C   UNL     1     -14.790 -18.984   2.089  1.00  0.00    -0.000 C 
BRANCH  21  22
ATOM     22  C   UNL     1     -15.889 -19.967   2.524  1.00  0.00    -0.000 C 
BRANCH  22  23
ATOM     23  C   UNL     1     -15.402 -21.420   2.412  1.00  0.00    -0.000 C 
BRANCH  23  24
ATOM     24  C   UNL     1     -15.665 -22.229   3.698  1.00  0.00    -0.000 C 
BRANCH  24  25
ATOM     25  C   UNL     1     -14.560 -23.248   4.028  1.00  0.00    -0.003 C 
ATOM     26  C   UNL     1     -13.159 -22.643   4.002  1.00  0.00     0.004 C 
ENDBRANCH  24  25
ENDBRANCH  23  24
ENDBRANCH  22  23
ENDBRANCH  21  22
ENDBRANCH  20  21
ENDBRANCH  19  20
ENDBRANCH  18  19
ENDBRANCH  17  18
ENDBRANCH  16  17
ENDBRANCH  15  16
ENDBRANCH   1  15
TORSDOF 22
ENDMDL
MODEL 2
REMARK VINA RESULT:    -3.091      1.868      3.576
REMARK INTER + INTRA:         -10.932
REMARK INTER:                  -7.347
REMARK INTRA:                  -3.585
REMARK UNBOUND:                -3.866
REMARK SMILES CCCCCCCCCCCCCCCCCCCCCCCC(=O)[O-]
REMARK SMILES IDX 13 1 14 2 15 3 16 4 17 5 18 6 19 7 20 8 21 9 22 10 23 11
REMARK SMILES IDX 24 12 25 13 26 14 12 15 11 16 10 17 9 18 8 19 7 20 6 21 5 22
REMARK SMILES IDX 4 23 3 24 2 25 1 26
REMARK H PARENT
REMARK Flexibility Score: inf
ROOT
ATOM      1  C   UNL     1     -12.064 -19.260   4.174  1.00  0.00     0.000 C 
ENDROOT
BRANCH   1   2
ATOM      2  C   UNL     1     -12.843 -18.189   4.956  1.00  0.00     0.000 C 
BRANCH   2   3
ATOM      3  C   UNL     1     -13.537 -18.758   6.204  1.00  0.00     0.000 C 
BRANCH   3   4
ATOM      4  C   UNL     1     -14.874 -18.061   6.514  1.00  0.00     0.000 C 
BRANCH   4   5
ATOM      5  C   UNL     1     -15.377 -17.189   5.350  1.00  0.00     0.000 C 
BRANCH   5   6
ATOM      6  C   UNL     1     -15.604 -15.706   5.697  1.00  0.00     0.000 C 
BRANCH   6   7
ATOM      7  C   UNL     1     -14.618 -14.766   4.981  1.00  0.00     0.000 C 
BRANCH   7   8
ATOM      8  C   UNL     1     -14.652 -13.336   5.548  1.00  0.00     0.000 C 
BRANCH   8   9
ATOM      9  C   UNL     1     -13.245 -12.759   5.776  1.00  0.00     0.000 C 
BRANCH   9  10
ATOM     10  C   UNL     1     -12.701 -11.999   4.553  1.00  0.00     0.006 C 
BRANCH  10  11
ATOM     11  C   UNL     1     -13.783 -11.588   3.539  1.00  0.00     0.053 C 
BRANCH  11  12
ATOM     12  C   UNL     1     -13.447 -12.004   2.138  1.00  0.00     0.041 C 
ATOM     13  O   UNL     1     -12.844 -13.090   1.928  1.00  0.00    -0.550 OA
ATOM     14  O   UNL     1     -13.767 -11.180   1.066  1.00  0.00    -0.550 OA
ENDBRANCH  11  12
ENDBRANCH  10  11
ENDBRANCH   9  10
ENDBRANCH   8   9
ENDBRANCH   7   8
ENDBRANCH   6   7
ENDBRANCH   5   6
ENDBRANCH   4   5
ENDBRANCH   3   4
ENDBRANCH   2   3
ENDBRANCH   1   2
BRANCH   1  15
ATOM     15  C   UNL     1     -12.577 -19.439   2.734  1.00  0.00     0.000 C 
BRANCH  15  16
ATOM     16  C   UNL     1     -14.098 -19.259   2.553  1.00  0.00     0.000 C 
BRANCH  16  17
ATOM     17  C   UNL     1     -14.857 -20.512   2.068  1.00  0.00     0.000 C 
BRANCH  17  18
ATOM     18  C   UNL     1     -16.119 -20.861   2.877  1.00  0.00    -0.000 C 
BRANCH  18  19
ATOM     19  C   UNL     1     -15.886 -20.798   4.395  1.00  0.00    -0.000 C 
BRANCH  19  20
ATOM     20  C   UNL     1     -15.449 -22.166   4.942  1.00  0.00    -0.000 C 
BRANCH  20  21
ATOM     21  C   UNL     1     -13.960 -22.207   5.321  1.00  0.00    -0.000 C 
BRANCH  21  22
ATOM     22  C   UNL     1     -13.115 -23.027   4.332  1.00  0.00    -0.000 C 
BRANCH  22  23
ATOM     23  C   UNL     1     -14.004 -23.941   3.476  1.00  0.00    -0.000 C 
BRANCH  23  24
ATOM     24  C   UNL     1     -13.424 -24.172   2.065  1.00  0.00    -0.000 C 
BRANCH  24  25
ATOM     25  C   UNL     1     -12.599 -22.987   1.531  1.00  0.00    -0.003 C 
ATOM     26  C   UNL     1     -11.155 -23.361   1.205  1.00  0.00     0.004 C 
ENDBRANCH  24  25
ENDBRANCH  23  24
ENDBRANCH  22  23
ENDBRANCH  21  22
ENDBRANCH  20  21
ENDBRANCH  19  20
ENDBRANCH  18  19
ENDBRANCH  17  18
ENDBRANCH  16  17
ENDBRANCH  15  16
ENDBRANCH   1  15
TORSDOF 22
ENDMDL
MODEL 3
REMARK VINA RESULT:    -3.077      1.311      2.829
REMARK INTER + INTRA:         -10.902
REMARK INTER:                  -7.142
REMARK INTRA:                  -3.760
REMARK UNBOUND:                -3.866
REMARK SMILES CCCCCCCCCCCCCCCCCCCCCCCC(=O)[O-]
REMARK SMILES IDX 13 1 14 2 15 3 16 4 17 5 18 6 19 7 20 8 21 9 22 10 23 11
REMARK SMILES IDX 24 12 25 13 26 14 12 15 11 16 10 17 9 18 8 19 7 20 6 21 5 22
REMARK SMILES IDX 4 23 3 24 2 25 1 26
REMARK H PARENT
REMARK Flexibility Score: inf
ROOT
ATOM      1  C   UNL     1     -12.364 -18.386   4.737  1.00  0.00     0.000 C 
ENDROOT
BRANCH   1   2
ATOM      2  C   UNL     1     -13.135 -19.370   5.633  1.00  0.00     0.000 C 
BRANCH   2   3
ATOM      3  C   UNL     1     -14.203 -18.675   6.493  1.00  0.00     0.000 C 
BRANCH   3   4
ATOM      4  C   UNL     1     -15.617 -18.786   5.896  1.00  0.00     0.000 C 
BRANCH   4   5
ATOM      5  C   UNL     1     -16.124 -17.457   5.310  1.00  0.00     0.000 C 
BRANCH   5   6
ATOM      6  C   UNL     1     -15.269 -16.224   5.657  1.00  0.00     0.000 C 
BRANCH   6   7
ATOM      7  C   UNL     1     -15.452 -15.067   4.658  1.00  0.00     0.000 C 
BRANCH   7   8
ATOM      8  C   UNL     1     -14.161 -14.257   4.454  1.00  0.00     0.000 C 
BRANCH   8   9
ATOM      9  C   UNL     1     -13.987 -13.152   5.510  1.00  0.00     0.000 C 
BRANCH   9  10
ATOM     10  C   UNL     1     -12.886 -12.140   5.145  1.00  0.00     0.006 C 
BRANCH  10  11
ATOM     11  C   UNL     1     -12.820 -11.799   3.646  1.00  0.00     0.053 C 
BRANCH  11  12
ATOM     12  C   UNL     1     -13.481 -10.492   3.323  1.00  0.00     0.041 C 
ATOM     13  O   UNL     1     -14.213 -10.387   2.304  1.00  0.00    -0.550 OA
ATOM     14  O   UNL     1     -13.263  -9.378   4.127  1.00  0.00    -0.550 OA
ENDBRANCH  11  12
ENDBRANCH  10  11
ENDBRANCH   9  10
ENDBRANCH   8   9
ENDBRANCH   7   8
ENDBRANCH   6   7
ENDBRANCH   5   6
ENDBRANCH   4   5
ENDBRANCH   3   4
ENDBRANCH   2   3
ENDBRANCH   1   2
BRANCH   1  15
ATOM     15  C   UNL     1     -12.503 -18.707   3.238  1.00  0.00     0.000 C 
BRANCH  15  16
ATOM     16  C   UNL     1     -13.118 -17.583   2.380  1.00  0.00     0.000 C 
BRANCH  16  17
ATOM     17  C   UNL     1     -14.624 -17.732   2.081  1.00  0.00     0.000 C 
BRANCH  17  18
ATOM     18  C   UNL     1     -15.171 -19.167   2.200  1.00  0.00    -0.000 C 
BRANCH  18  19
ATOM     19  C   UNL     1     -15.022 -19.968   0.898  1.00  0.00    -0.000 C 
BRANCH  19  20
ATOM     20  C   UNL     1     -14.716 -21.444   1.191  1.00  0.00    -0.000 C 
BRANCH  20  21
ATOM     21  C   UNL     1     -13.243 -21.807   0.946  1.00  0.00    -0.000 C 
BRANCH  21  22
ATOM     22  C   UNL     1     -12.508 -22.221   2.231  1.00  0.00    -0.000 C 
BRANCH  22  23
ATOM     23  C   UNL     1     -13.399 -23.109   3.112  1.00  0.00    -0.000 C 
BRANCH  23  24
ATOM     24  C   UNL     1     -13.204 -22.829   4.616  1.00  0.00    -0.000 C 
BRANCH  24  25
ATOM     25  C   UNL     1     -14.520 -22.592   5.379  1.00  0.00    -0.003 C 
ATOM     26  C   UNL     1     -15.722 -22.401   4.457  1.00  0.00     0.004 C 
ENDBRANCH  24  25
ENDBRANCH  23  24
ENDBRANCH  22  23
ENDBRANCH  21  22
ENDBRANCH  20  21
ENDBRANCH  19  20
ENDBRANCH  18  19
ENDBRANCH  17  18
ENDBRANCH  16  17
ENDBRANCH  15  16
ENDBRANCH   1  15
TORSDOF 22
ENDMDL
MODEL 4
REMARK VINA RESULT:    -3.053      3.920      8.173
REMARK INTER + INTRA:         -10.845
REMARK INTER:                  -6.893
REMARK INTRA:                  -3.953
REMARK UNBOUND:                -3.866
REMARK SMILES CCCCCCCCCCCCCCCCCCCCCCCC(=O)[O-]
REMARK SMILES IDX 13 1 14 2 15 3 16 4 17 5 18 6 19 7 20 8 21 9 22 10 23 11
REMARK SMILES IDX 24 12 25 13 26 14 12 15 11 16 10 17 9 18 8 19 7 20 6 21 5 22
REMARK SMILES IDX 4 23 3 24 2 25 1 26
REMARK H PARENT
REMARK Flexibility Score: inf
ROOT
ATOM      1  C   UNL     1     -13.730 -19.377   5.835  1.00  0.00     0.000 C 
ENDROOT
BRANCH   1   2
ATOM      2  C   UNL     1     -12.370 -18.821   5.379  1.00  0.00     0.000 C 
BRANCH   2   3
ATOM      3  C   UNL     1     -11.978 -19.302   3.973  1.00  0.00     0.000 C 
BRANCH   3   4
ATOM      4  C   UNL     1     -12.526 -18.395   2.856  1.00  0.00     0.000 C 
BRANCH   4   5
ATOM      5  C   UNL     1     -12.707 -19.137   1.520  1.00  0.00     0.000 C 
BRANCH   5   6
ATOM      6  C   UNL     1     -14.157 -19.532   1.186  1.00  0.00     0.000 C 
BRANCH   6   7
ATOM      7  C   UNL     1     -15.181 -18.942   2.172  1.00  0.00     0.000 C 
BRANCH   7   8
ATOM      8  C   UNL     1     -16.125 -20.011   2.749  1.00  0.00     0.000 C 
BRANCH   8   9
ATOM      9  C   UNL     1     -16.093 -21.321   1.944  1.00  0.00     0.000 C 
BRANCH   9  10
ATOM     10  C   UNL     1     -15.792 -22.554   2.814  1.00  0.00     0.006 C 
BRANCH  10  11
ATOM     11  C   UNL     1     -14.968 -22.244   4.076  1.00  0.00     0.053 C 
BRANCH  11  12
ATOM     12  C   UNL     1     -13.531 -22.652   3.940  1.00  0.00     0.041 C 
ATOM     13  O   UNL     1     -12.888 -23.049   4.948  1.00  0.00    -0.550 OA
ATOM     14  O   UNL     1     -12.889 -22.561   2.711  1.00  0.00    -0.550 OA
ENDBRANCH  11  12
ENDBRANCH  10  11
ENDBRANCH   9  10
ENDBRANCH   8   9
ENDBRANCH   7   8
ENDBRANCH   6   7
ENDBRANCH   5   6
ENDBRANCH   4   5
ENDBRANCH   3   4
ENDBRANCH   2   3
ENDBRANCH   1   2
BRANCH   1  15
ATOM     15  C   UNL     1     -14.629 -18.304   6.476  1.00  0.00     0.000 C 
BRANCH  15  16
ATOM     16  C   UNL     1     -15.500 -17.502   5.487  1.00  0.00     0.000 C 
BRANCH  16  17
ATOM     17  C   UNL     1     -15.174 -15.997   5.394  1.00  0.00     0.000 C 
BRANCH  17  18
ATOM     18  C   UNL     1     -14.118 -15.625   4.336  1.00  0.00    -0.000 C 
BRANCH  18  19
ATOM     19  C   UNL     1     -14.735 -15.344   2.957  1.00  0.00    -0.000 C 
BRANCH  19  20
ATOM     20  C   UNL     1     -13.652 -15.290   1.870  1.00  0.00    -0.000 C 
BRANCH  20  21
ATOM     21  C   UNL     1     -13.449 -13.877   1.301  1.00  0.00    -0.000 C 
BRANCH  21  22
ATOM     22  C   UNL     1     -12.352 -13.090   2.036  1.00  0.00    -0.000 C 
BRANCH  22  23
ATOM     23  C   UNL     1     -12.937 -11.851   2.732  1.00  0.00    -0.000 C 
BRANCH  23  24
ATOM     24  C   UNL     1     -12.740 -11.889   4.261  1.00  0.00    -0.000 C 
BRANCH  24  25
ATOM     25  C   UNL     1     -14.041 -12.127   5.049  1.00  0.00    -0.003 C 
ATOM     26  C   UNL     1     -14.995 -10.935   5.004  1.00  0.00     0.004 C 
ENDBRANCH  24  25
ENDBRANCH  23  24
ENDBRANCH  22  23
ENDBRANCH  21  22
ENDBRANCH  20  21
ENDBRANCH  19  20
ENDBRANCH  18  19
ENDBRANCH  17  18
ENDBRANCH  16  17
ENDBRANCH  15  16
ENDBRANCH   1  15
TORSDOF 22
ENDMDL
MODEL 5
REMARK VINA RESULT:    -3.049      4.002      9.068
REMARK INTER + INTRA:         -10.837
REMARK INTER:                  -8.056
REMARK INTRA:                  -2.782
REMARK UNBOUND:                -3.866
REMARK SMILES CCCCCCCCCCCCCCCCCCCCCCCC(=O)[O-]
REMARK SMILES IDX 13 1 14 2 15 3 16 4 17 5 18 6 19 7 20 8 21 9 22 10 23 11
REMARK SMILES IDX 24 12 25 13 26 14 12 15 11 16 10 17 9 18 8 19 7 20 6 21 5 22
REMARK SMILES IDX 4 23 3 24 2 25 1 26
REMARK H PARENT
REMARK Flexibility Score: inf
ROOT
ATOM      1  C   UNL     1     -14.993 -15.557   5.329  1.00  0.00     0.000 C 
ENDROOT
BRANCH   1   2
ATOM      2  C   UNL     1     -15.968 -16.429   6.139  1.00  0.00     0.000 C 
BRANCH   2   3
ATOM      3  C   UNL     1     -15.293 -17.679   6.727  1.00  0.00     0.000 C 
BRANCH   3   4
ATOM      4  C   UNL     1     -14.834 -18.675   5.648  1.00  0.00     0.000 C 
BRANCH   4   5
ATOM      5  C   UNL     1     -13.484 -19.336   5.980  1.00  0.00     0.000 C 
BRANCH   5   6
ATOM      6  C   UNL     1     -12.264 -18.716   5.275  1.00  0.00     0.000 C 
BRANCH   6   7
ATOM      7  C   UNL     1     -12.632 -17.994   3.966  1.00  0.00     0.000 C 
BRANCH   7   8
ATOM      8  C   UNL     1     -12.350 -18.853   2.722  1.00  0.00     0.000 C 
BRANCH   8   9
ATOM      9  C   UNL     1     -13.635 -19.252   1.977  1.00  0.00     0.000 C 
BRANCH   9  10
ATOM     10  C   UNL     1     -13.807 -20.776   1.847  1.00  0.00     0.006 C 
BRANCH  10  11
ATOM     11  C   UNL     1     -12.872 -21.591   2.757  1.00  0.00     0.053 C 
BRANCH  11  12
ATOM     12  C   UNL     1     -13.609 -22.300   3.854  1.00  0.00     0.041 C 
ATOM     13  O   UNL     1     -14.816 -22.025   4.085  1.00  0.00    -0.550 OA
ATOM     14  O   UNL     1     -12.957 -23.241   4.643  1.00  0.00    -0.550 OA
ENDBRANCH  11  12
ENDBRANCH  10  11
ENDBRANCH   9  10
ENDBRANCH   8   9
ENDBRANCH   7   8
ENDBRANCH   6   7
ENDBRANCH   5   6
ENDBRANCH   4   5
ENDBRANCH   3   4
ENDBRANCH   2   3
ENDBRANCH   1   2
BRANCH   1  15
ATOM     15  C   UNL     1     -15.351 -14.060   5.377  1.00  0.00     0.000 C 
BRANCH  15  16
ATOM     16  C   UNL     1     -14.182 -13.117   5.728  1.00  0.00     0.000 C 
BRANCH  16  17
ATOM     17  C   UNL     1     -13.981 -11.931   4.763  1.00  0.00     0.000 C 
BRANCH  17  18
ATOM     18  C   UNL     1     -12.639 -11.929   4.008  1.00  0.00    -0.000 C 
BRANCH  18  19
ATOM     19  C   UNL     1     -12.738 -12.588   2.623  1.00  0.00    -0.000 C 
BRANCH  19  20
ATOM     20  C   UNL     1     -14.046 -12.196   1.919  1.00  0.00    -0.000 C 
BRANCH  20  21
ATOM     21  C   UNL     1     -13.988 -10.794   1.292  1.00  0.00    -0.000 C 
BRANCH  21  22
ATOM     22  C   UNL     1     -15.149  -9.891   1.739  1.00  0.00    -0.000 C 
BRANCH  22  23
ATOM     23  C   UNL     1     -14.640  -8.497   2.136  1.00  0.00    -0.000 C 
BRANCH  23  24
ATOM     24  C   UNL     1     -13.518  -8.560   3.193  1.00  0.00    -0.000 C 
BRANCH  24  25
ATOM     25  C   UNL     1     -13.944  -8.050   4.582  1.00  0.00    -0.003 C 
ATOM     26  C   UNL     1     -15.345  -8.504   4.984  1.00  0.00     0.004 C 
ENDBRANCH  24  25
ENDBRANCH  23  24
ENDBRANCH  22  23
ENDBRANCH  21  22
ENDBRANCH  20  21
ENDBRANCH  19  20
ENDBRANCH  18  19
ENDBRANCH  17  18
ENDBRANCH  16  17
ENDBRANCH  15  16
ENDBRANCH   1  15
TORSDOF 22
ENDMDL
MODEL 6
REMARK VINA RESULT:    -3.006      1.475      2.957
REMARK INTER + INTRA:         -10.738
REMARK INTER:                  -7.327
REMARK INTRA:                  -3.411
REMARK UNBOUND:                -3.866
REMARK SMILES CCCCCCCCCCCCCCCCCCCCCCCC(=O)[O-]
REMARK SMILES IDX 13 1 14 2 15 3 16 4 17 5 18 6 19 7 20 8 21 9 22 10 23 11
REMARK SMILES IDX 24 12 25 13 26 14 12 15 11 16 10 17 9 18 8 19 7 20 6 21 5 22
REMARK SMILES IDX 4 23 3 24 2 25 1 26
REMARK H PARENT
REMARK Flexibility Score: inf
ROOT
ATOM      1  C   UNL     1     -14.090 -19.109   6.301  1.00  0.00     0.000 C 
ENDROOT
BRANCH   1   2
ATOM      2  C   UNL     1     -15.117 -17.982   6.506  1.00  0.00     0.000 C 
BRANCH   2   3
ATOM      3  C   UNL     1     -15.695 -17.461   5.181  1.00  0.00     0.000 C 
BRANCH   3   4
ATOM      4  C   UNL     1     -15.418 -15.964   4.954  1.00  0.00     0.000 C 
BRANCH   4   5
ATOM      5  C   UNL     1     -14.136 -15.710   4.142  1.00  0.00     0.000 C 
BRANCH   5   6
ATOM      6  C   UNL     1     -14.356 -15.046   2.770  1.00  0.00     0.000 C 
BRANCH   6   7
ATOM      7  C   UNL     1     -13.043 -14.807   2.003  1.00  0.00     0.000 C 
BRANCH   7   8
ATOM      8  C   UNL     1     -12.930 -13.371   1.465  1.00  0.00     0.000 C 
BRANCH   8   9
ATOM      9  C   UNL     1     -14.086 -12.472   1.936  1.00  0.00     0.000 C 
BRANCH   9  10
ATOM     10  C   UNL     1     -13.612 -11.274   2.778  1.00  0.00     0.006 C 
BRANCH  10  11
ATOM     11  C   UNL     1     -12.696 -11.656   3.953  1.00  0.00     0.053 C 
BRANCH  11  12
ATOM     12  C   UNL     1     -13.462 -12.142   5.147  1.00  0.00     0.041 C 
ATOM     13  O   UNL     1     -14.691 -11.890   5.255  1.00  0.00    -0.550 OA
ATOM     14  O   UNL     1     -12.815 -12.844   6.157  1.00  0.00    -0.550 OA
ENDBRANCH  11  12
ENDBRANCH  10  11
ENDBRANCH   9  10
ENDBRANCH   8   9
ENDBRANCH   7   8
ENDBRANCH   6   7
ENDBRANCH   5   6
ENDBRANCH   4   5
ENDBRANCH   3   4
ENDBRANCH   2   3
ENDBRANCH   1   2
BRANCH   1  15
ATOM     15  C   UNL     1     -14.574 -20.184   5.311  1.00  0.00     0.000 C 
BRANCH  15  16
ATOM     16  C   UNL     1     -13.863 -21.548   5.425  1.00  0.00     0.000 C 
BRANCH  16  17
ATOM     17  C   UNL     1     -13.457 -22.193   4.084  1.00  0.00     0.000 C 
BRANCH  17  18
ATOM     18  C   UNL     1     -14.631 -22.681   3.215  1.00  0.00    -0.000 C 
BRANCH  18  19
ATOM     19  C   UNL     1     -14.278 -22.740   1.721  1.00  0.00    -0.000 C 
BRANCH  19  20
ATOM     20  C   UNL     1     -13.364 -21.571   1.325  1.00  0.00    -0.000 C 
BRANCH  20  21
ATOM     21  C   UNL     1     -14.149 -20.310   0.927  1.00  0.00    -0.000 C 
BRANCH  21  22
ATOM     22  C   UNL     1     -14.085 -19.206   1.995  1.00  0.00    -0.000 C 
BRANCH  22  23
ATOM     23  C   UNL     1     -12.729 -18.485   1.960  1.00  0.00    -0.000 C 
BRANCH  23  24
ATOM     24  C   UNL     1     -11.747 -19.029   3.017  1.00  0.00    -0.000 C 
BRANCH  24  25
ATOM     25  C   UNL     1     -11.721 -18.211   4.320  1.00  0.00    -0.003 C 
ATOM     26  C   UNL     1     -10.567 -18.593   5.245  1.00  0.00     0.004 C 
ENDBRANCH  24  25
ENDBRANCH  23  24
ENDBRANCH  22  23
ENDBRANCH  21  22
ENDBRANCH  20  21
ENDBRANCH  19  20
ENDBRANCH  18  19
ENDBRANCH  17  18
ENDBRANCH  16  17
ENDBRANCH  15  16
ENDBRANCH   1  15
TORSDOF 22
ENDMDL
MODEL 7
REMARK VINA RESULT:    -3.000      1.723      3.457
REMARK INTER + INTRA:         -10.726
REMARK INTER:                  -6.746
REMARK INTRA:                  -3.980
REMARK UNBOUND:                -3.866
REMARK SMILES CCCCCCCCCCCCCCCCCCCCCCCC(=O)[O-]
REMARK SMILES IDX 13 1 14 2 15 3 16 4 17 5 18 6 19 7 20 8 21 9 22 10 23 11
REMARK SMILES IDX 24 12 25 13 26 14 12 15 11 16 10 17 9 18 8 19 7 20 6 21 5 22
REMARK SMILES IDX 4 23 3 24 2 25 1 26
REMARK H PARENT
REMARK Flexibility Score: inf
ROOT
ATOM      1  C   UNL     1     -14.454 -15.202   5.006  1.00  0.00     0.000 C 
ENDROOT
BRANCH   1   2
ATOM      2  C   UNL     1     -15.463 -14.092   5.349  1.00  0.00     0.000 C 
BRANCH   2   3
ATOM      3  C   UNL     1     -14.781 -12.751   5.664  1.00  0.00     0.000 C 
BRANCH   3   4
ATOM      4  C   UNL     1     -13.268 -12.769   5.383  1.00  0.00     0.000 C 
BRANCH   4   5
ATOM      5  C   UNL     1     -12.847 -11.745   4.313  1.00  0.00     0.000 C 
BRANCH   5   6
ATOM      6  C   UNL     1     -12.465 -12.349   2.949  1.00  0.00     0.000 C 
BRANCH   6   7
ATOM      7  C   UNL     1     -13.664 -12.980   2.217  1.00  0.00     0.000 C 
BRANCH   7   8
ATOM      8  C   UNL     1     -14.529 -11.933   1.495  1.00  0.00     0.000 C 
BRANCH   8   9
ATOM      9  C   UNL     1     -15.839 -11.634   2.243  1.00  0.00     0.000 C 
BRANCH   9  10
ATOM     10  C   UNL     1     -16.082 -10.128   2.449  1.00  0.00     0.006 C 
BRANCH  10  11
ATOM     11  C   UNL     1     -15.694  -9.616   3.847  1.00  0.00     0.053 C 
BRANCH  11  12
ATOM     12  C   UNL     1     -14.852  -8.376   3.793  1.00  0.00     0.041 C 
ATOM     13  O   UNL     1     -14.788  -7.701   2.732  1.00  0.00    -0.550 OA
ATOM     14  O   UNL     1     -14.111  -7.983   4.901  1.00  0.00    -0.550 OA
ENDBRANCH  11  12
ENDBRANCH  10  11
ENDBRANCH   9  10
ENDBRANCH   8   9
ENDBRANCH   7   8
ENDBRANCH   6   7
ENDBRANCH   5   6
ENDBRANCH   4   5
ENDBRANCH   3   4
ENDBRANCH   2   3
ENDBRANCH   1   2
BRANCH   1  15
ATOM     15  C   UNL     1     -15.076 -16.337   4.172  1.00  0.00     0.000 C 
BRANCH  15  16
ATOM     16  C   UNL     1     -15.672 -15.904   2.817  1.00  0.00     0.000 C 
BRANCH  16  17
ATOM     17  C   UNL     1     -14.897 -16.386   1.573  1.00  0.00     0.000 C 
BRANCH  17  18
ATOM     18  C   UNL     1     -13.399 -16.657   1.805  1.00  0.00    -0.000 C 
BRANCH  18  19
ATOM     19  C   UNL     1     -13.001 -18.104   1.475  1.00  0.00    -0.000 C 
BRANCH  19  20
ATOM     20  C   UNL     1     -14.238 -18.955   1.153  1.00  0.00    -0.000 C 
BRANCH  20  21
ATOM     21  C   UNL     1     -14.591 -19.943   2.277  1.00  0.00    -0.000 C 
BRANCH  21  22
ATOM     22  C   UNL     1     -13.462 -20.101   3.308  1.00  0.00    -0.000 C 
BRANCH  22  23
ATOM     23  C   UNL     1     -13.967 -19.793   4.726  1.00  0.00    -0.000 C 
BRANCH  23  24
ATOM     24  C   UNL     1     -12.894 -19.105   5.595  1.00  0.00    -0.000 C 
BRANCH  24  25
ATOM     25  C   UNL     1     -11.840 -18.331   4.784  1.00  0.00    -0.003 C 
ATOM     26  C   UNL     1     -10.426 -18.477   5.344  1.00  0.00     0.004 C 
ENDBRANCH  24  25
ENDBRANCH  23  24
ENDBRANCH  22  23
ENDBRANCH  21  22
ENDBRANCH  20  21
ENDBRANCH  19  20
ENDBRANCH  18  19
ENDBRANCH  17  18
ENDBRANCH  16  17
ENDBRANCH  15  16
ENDBRANCH   1  15
TORSDOF 22
ENDMDL
MODEL 8
REMARK VINA RESULT:    -2.923      2.266      4.519
REMARK INTER + INTRA:         -10.548
REMARK INTER:                  -7.396
REMARK INTRA:                  -3.152
REMARK UNBOUND:                -3.866
REMARK SMILES CCCCCCCCCCCCCCCCCCCCCCCC(=O)[O-]
REMARK SMILES IDX 13 1 14 2 15 3 16 4 17 5 18 6 19 7 20 8 21 9 22 10 23 11
REMARK SMILES IDX 24 12 25 13 26 14 12 15 11 16 10 17 9 18 8 19 7 20 6 21 5 22
REMARK SMILES IDX 4 23 3 24 2 25 1 26
REMARK H PARENT
REMARK Flexibility Score: inf
ROOT
ATOM      1  C   UNL     1     -14.478 -14.248   4.735  1.00  0.00     0.000 C 
ENDROOT
BRANCH   1   2
ATOM      2  C   UNL     1     -14.180 -13.065   5.672  1.00  0.00     0.000 C 
BRANCH   2   3
ATOM      3  C   UNL     1     -12.833 -12.392   5.364  1.00  0.00     0.000 C 
BRANCH   3   4
ATOM      4  C   UNL     1     -12.948 -11.285   4.302  1.00  0.00     0.000 C 
BRANCH   4   5
ATOM      5  C   UNL     1     -14.217 -10.429   4.464  1.00  0.00     0.000 C 
BRANCH   5   6
ATOM      6  C   UNL     1     -15.018 -10.200   3.169  1.00  0.00     0.000 C 
BRANCH   6   7
ATOM      7  C   UNL     1     -14.134 -10.212   1.909  1.00  0.00     0.000 C 
BRANCH   7   8
ATOM      8  C   UNL     1     -14.083  -8.840   1.214  1.00  0.00     0.000 C 
BRANCH   8   9
ATOM      9  C   UNL     1     -13.394  -7.769   2.075  1.00  0.00     0.000 C 
BRANCH   9  10
ATOM     10  C   UNL     1     -14.295  -6.553   2.357  1.00  0.00     0.006 C 
BRANCH  10  11
ATOM     11  C   UNL     1     -13.840  -5.701   3.555  1.00  0.00     0.053 C 
BRANCH  11  12
ATOM     12  C   UNL     1     -14.448  -6.154   4.849  1.00  0.00     0.041 C 
ATOM     13  O   UNL     1     -15.315  -7.068   4.854  1.00  0.00    -0.550 OA
ATOM     14  O   UNL     1     -14.086  -5.546   6.045  1.00  0.00    -0.550 OA
ENDBRANCH  11  12
ENDBRANCH  10  11
ENDBRANCH   9  10
ENDBRANCH   8   9
ENDBRANCH   7   8
ENDBRANCH   6   7
ENDBRANCH   5   6
ENDBRANCH   4   5
ENDBRANCH   3   4
ENDBRANCH   2   3
ENDBRANCH   1   2
BRANCH   1  15
ATOM     15  C   UNL     1     -15.509 -13.902   3.646  1.00  0.00     0.000 C 
BRANCH  15  16
ATOM     16  C   UNL     1     -14.963 -13.897   2.204  1.00  0.00     0.000 C 
BRANCH  16  17
ATOM     17  C   UNL     1     -13.469 -14.257   2.064  1.00  0.00     0.000 C 
BRANCH  17  18
ATOM     18  C   UNL     1     -13.186 -15.587   1.343  1.00  0.00    -0.000 C 
BRANCH  18  19
ATOM     19  C   UNL     1     -14.420 -16.501   1.281  1.00  0.00    -0.000 C 
BRANCH  19  20
ATOM     20  C   UNL     1     -14.386 -17.548   2.404  1.00  0.00    -0.000 C 
BRANCH  20  21
ATOM     21  C   UNL     1     -12.960 -17.864   2.882  1.00  0.00    -0.000 C 
BRANCH  21  22
ATOM     22  C   UNL     1     -12.774 -17.648   4.392  1.00  0.00    -0.000 C 
BRANCH  22  23
ATOM     23  C   UNL     1     -12.394 -18.962   5.092  1.00  0.00    -0.000 C 
BRANCH  23  24
ATOM     24  C   UNL     1     -13.599 -19.625   5.791  1.00  0.00    -0.000 C 
BRANCH  24  25
ATOM     25  C   UNL     1     -14.273 -20.727   4.955  1.00  0.00    -0.003 C 
ATOM     26  C   UNL     1     -13.880 -22.137   5.393  1.00  0.00     0.004 C 
ENDBRANCH  24  25
ENDBRANCH  23  24
ENDBRANCH  22  23
ENDBRANCH  21  22
ENDBRANCH  20  21
ENDBRANCH  19  20
ENDBRANCH  18  19
ENDBRANCH  17  18
ENDBRANCH  16  17
ENDBRANCH  15  16
ENDBRANCH   1  15
TORSDOF 22
ENDMDL
MODEL 9
REMARK VINA RESULT:    -0.792      1.788      3.495
REMARK INTER + INTRA:          -5.677
REMARK INTER:                  -2.482
REMARK INTRA:                  -3.195
REMARK UNBOUND:                -3.866
REMARK SMILES CCCCCCCCCCCCCCCCCCCCCCCC(=O)[O-]
REMARK SMILES IDX 13 1 14 2 15 3 16 4 17 5 18 6 19 7 20 8 21 9 22 10 23 11
REMARK SMILES IDX 24 12 25 13 26 14 12 15 11 16 10 17 9 18 8 19 7 20 6 21 5 22
REMARK SMILES IDX 4 23 3 24 2 25 1 26
REMARK H PARENT
REMARK Flexibility Score: inf
ROOT
ATOM      1  C   UNL     1     -13.930 -16.177   3.722  1.00  0.00     0.000 C 
ENDROOT
BRANCH   1   2
ATOM      2  C   UNL     1     -15.273 -16.308   4.461  1.00  0.00     0.000 C 
BRANCH   2   3
ATOM      3  C   UNL     1     -16.013 -14.966   4.582  1.00  0.00     0.000 C 
BRANCH   3   4
ATOM      4  C   UNL     1     -15.751 -14.258   5.923  1.00  0.00     0.000 C 
BRANCH   4   5
ATOM      5  C   UNL     1     -15.001 -12.925   5.758  1.00  0.00     0.000 C 
BRANCH   5   6
ATOM      6  C   UNL     1     -13.500 -13.058   5.439  1.00  0.00     0.000 C 
BRANCH   6   7
ATOM      7  C   UNL     1     -12.948 -11.857   4.649  1.00  0.00     0.000 C 
BRANCH   7   8
ATOM      8  C   UNL     1     -12.818 -12.153   3.145  1.00  0.00     0.000 C 
BRANCH   8   9
ATOM      9  C   UNL     1     -14.079 -11.764   2.357  1.00  0.00     0.000 C 
BRANCH   9  10
ATOM     10  C   UNL     1     -13.767 -10.982   1.069  1.00  0.00     0.006 C 
BRANCH  10  11
ATOM     11  C   UNL     1     -14.566  -9.677   0.918  1.00  0.00     0.053 C 
BRANCH  11  12
ATOM     12  C   UNL     1     -13.870  -8.500   1.535  1.00  0.00     0.041 C 
ATOM     13  O   UNL     1     -13.715  -7.439   0.875  1.00  0.00    -0.550 OA
ATOM     14  O   UNL     1     -13.362  -8.585   2.826  1.00  0.00    -0.550 OA
ENDBRANCH  11  12
ENDBRANCH  10  11
ENDBRANCH   9  10
ENDBRANCH   8   9
ENDBRANCH   7   8
ENDBRANCH   6   7
ENDBRANCH   5   6
ENDBRANCH   4   5
ENDBRANCH   3   4
ENDBRANCH   2   3
ENDBRANCH   1   2
BRANCH   1  15
ATOM     15  C   UNL     1     -14.068 -15.495   2.349  1.00  0.00     0.000 C 
BRANCH  15  16
ATOM     16  C   UNL     1     -13.604 -16.342   1.146  1.00  0.00     0.000 C 
BRANCH  16  17
ATOM     17  C   UNL     1     -12.706 -17.547   1.497  1.00  0.00     0.000 C 
BRANCH  17  18
ATOM     18  C   UNL     1     -13.261 -18.917   1.067  1.00  0.00    -0.000 C 
BRANCH  18  19
ATOM     19  C   UNL     1     -14.744 -19.095   1.428  1.00  0.00    -0.000 C 
BRANCH  19  20
ATOM     20  C   UNL     1     -14.977 -20.425   2.160  1.00  0.00    -0.000 C 
BRANCH  20  21
ATOM     21  C   UNL     1     -13.688 -21.006   2.764  1.00  0.00    -0.000 C 
BRANCH  21  22
ATOM     22  C   UNL     1     -13.748 -21.128   4.295  1.00  0.00    -0.000 C 
BRANCH  22  23
ATOM     23  C   UNL     1     -14.060 -19.770   4.943  1.00  0.00    -0.000 C 
BRANCH  23  24
ATOM     24  C   UNL     1     -12.828 -19.152   5.637  1.00  0.00    -0.000 C 
BRANCH  24  25
ATOM     25  C   UNL     1     -11.685 -18.795   4.671  1.00  0.00    -0.003 C 
ATOM     26  C   UNL     1     -10.380 -18.454   5.387  1.00  0.00     0.004 C 
ENDBRANCH  24  25
ENDBRANCH  23  24
ENDBRANCH  22  23
ENDBRANCH  21  22
ENDBRANCH  20  21
ENDBRANCH  19  20
ENDBRANCH  18  19
ENDBRANCH  17  18
ENDBRANCH  16  17
ENDBRANCH  15  16
ENDBRANCH   1  15
TORSDOF 22
ENDMDL
