MODEL 1
REMARK VINA RESULT:    -5.015      0.000      0.000
REMARK INTER + INTRA:          -6.041
REMARK INTER:                  -5.894
REMARK INTRA:                  -0.147
REMARK UNBOUND:                -0.147
REMARK SMILES O=C([O-])C=Cc1ccc(O)c(O)c1
REMARK SMILES IDX 6 1 13 2 7 3 11 4 8 5 9 6 5 7 4 8 2 9 1 10 3 11 12 12 10 14
REMARK H PARENT 12 13 10 15
REMARK Flexibility Score: inf
ROOT
ATOM      1  C   UNL     1       4.622 -14.609   7.501  1.00  0.00    -0.022 A 
ATOM      2  C   UNL     1       5.041 -13.919   6.347  1.00  0.00     0.058 A 
ATOM      3  C   UNL     1       5.520 -15.482   8.130  1.00  0.00     0.012 A 
ATOM      4  C   UNL     1       6.341 -14.077   5.845  1.00  0.00     0.157 A 
ATOM      5  C   UNL     1       6.816 -15.643   7.640  1.00  0.00     0.051 A 
ATOM      6  C   UNL     1       7.241 -14.947   6.504  1.00  0.00     0.157 A 
ENDROOT
BRANCH   1   7
ATOM      7  C   UNL     1       3.252 -14.478   8.055  1.00  0.00     0.010 C 
ATOM      8  C   UNL     1       2.559 -15.500   8.576  1.00  0.00     0.025 C 
BRANCH   8   9
ATOM      9  C   UNL     1       1.195 -15.327   9.103  1.00  0.00     0.064 C 
ATOM     10  O   UNL     1       0.848 -14.215   9.578  1.00  0.00    -0.545 OA
ATOM     11  O   UNL     1       0.280 -16.374   9.083  1.00  0.00    -0.545 OA
ENDBRANCH   8   9
ENDBRANCH   1   7
BRANCH   4  12
ATOM     12  O   UNL     1       6.687 -13.362   4.696  1.00  0.00    -0.504 OA
ATOM     13  H   UNL     1       6.204 -12.535   4.379  1.00  0.00     0.293 HD
ENDBRANCH   4  12
BRANCH   6  14
ATOM     14  O   UNL     1       8.553 -15.147   6.067  1.00  0.00    -0.504 OA
ATOM     15  H   UNL     1       8.806 -15.333   5.108  1.00  0.00     0.293 HD
ENDBRANCH   6  14
TORSDOF 4
ENDMDL
MODEL 2
REMARK VINA RESULT:    -4.993      8.789      9.320
REMARK INTER + INTRA:          -6.016
REMARK INTER:                  -5.884
REMARK INTRA:                  -0.133
REMARK UNBOUND:                -0.147
REMARK SMILES O=C([O-])C=Cc1ccc(O)c(O)c1
REMARK SMILES IDX 6 1 13 2 7 3 11 4 8 5 9 6 5 7 4 8 2 9 1 10 3 11 12 12 10 14
REMARK H PARENT 12 13 10 15
REMARK Flexibility Score: inf
ROOT
ATOM      1  C   UNL     1       5.377 -21.046   0.797  1.00  0.00    -0.022 A 
ATOM      2  C   UNL     1       5.784 -22.140   1.583  1.00  0.00     0.058 A 
ATOM      3  C   UNL     1       6.319 -20.061   0.469  1.00  0.00     0.012 A 
ATOM      4  C   UNL     1       7.112 -22.264   2.014  1.00  0.00     0.157 A 
ATOM      5  C   UNL     1       7.643 -20.177   0.891  1.00  0.00     0.051 A 
ATOM      6  C   UNL     1       8.055 -21.271   1.658  1.00  0.00     0.157 A 
ENDROOT
BRANCH   1   7
ATOM      7  C   UNL     1       3.978 -20.874   0.332  1.00  0.00     0.010 C 
ATOM      8  C   UNL     1       3.138 -19.952   0.824  1.00  0.00     0.025 C 
BRANCH   8   9
ATOM      9  C   UNL     1       1.753 -19.826   0.342  1.00  0.00     0.064 C 
ATOM     10  O   UNL     1       1.022 -20.847   0.276  1.00  0.00    -0.545 OA
ATOM     11  O   UNL     1       1.236 -18.592  -0.039  1.00  0.00    -0.545 OA
ENDBRANCH   8   9
ENDBRANCH   1   7
BRANCH   4  12
ATOM     12  O   UNL     1       7.445 -23.375   2.792  1.00  0.00    -0.504 OA
ATOM     13  H   UNL     1       6.884 -23.717   3.558  1.00  0.00     0.293 HD
ENDBRANCH   4  12
BRANCH   6  14
ATOM     14  O   UNL     1       9.396 -21.331   2.044  1.00  0.00    -0.504 OA
ATOM     15  H   UNL     1      10.102 -20.679   1.736  1.00  0.00     0.293 HD
ENDBRANCH   6  14
TORSDOF 4
ENDMDL
MODEL 3
REMARK VINA RESULT:    -4.964      3.058      6.967
REMARK INTER + INTRA:          -5.981
REMARK INTER:                  -5.854
REMARK INTRA:                  -0.128
REMARK UNBOUND:                -0.147
REMARK SMILES O=C([O-])C=Cc1ccc(O)c(O)c1
REMARK SMILES IDX 6 1 13 2 7 3 11 4 8 5 9 6 5 7 4 8 2 9 1 10 3 11 12 12 10 14
REMARK H PARENT 12 13 10 15
REMARK Flexibility Score: inf
ROOT
ATOM      1  C   UNL     1       8.392 -15.580   6.558  1.00  0.00    -0.022 A 
ATOM      2  C   UNL     1       7.927 -14.716   5.548  1.00  0.00     0.058 A 
ATOM      3  C   UNL     1       7.605 -15.767   7.703  1.00  0.00     0.012 A 
ATOM      4  C   UNL     1       6.688 -14.070   5.666  1.00  0.00     0.157 A 
ATOM      5  C   UNL     1       6.369 -15.131   7.827  1.00  0.00     0.051 A 
ATOM      6  C   UNL     1       5.897 -14.286   6.819  1.00  0.00     0.157 A 
ENDROOT
BRANCH   1   7
ATOM      7  C   UNL     1       9.702 -16.271   6.476  1.00  0.00     0.010 C 
ATOM      8  C   UNL     1      10.879 -15.632   6.417  1.00  0.00     0.025 C 
BRANCH   8   9
ATOM      9  C   UNL     1      12.155 -16.358   6.323  1.00  0.00     0.064 C 
ATOM     10  O   UNL     1      12.227 -17.545   6.733  1.00  0.00    -0.545 OA
ATOM     11  O   UNL     1      13.286 -15.755   5.783  1.00  0.00    -0.545 OA
ENDBRANCH   8   9
ENDBRANCH   1   7
BRANCH   4  12
ATOM     12  O   UNL     1       6.291 -13.227   4.626  1.00  0.00    -0.504 OA
ATOM     13  H   UNL     1       6.302 -12.219   4.681  1.00  0.00     0.293 HD
ENDBRANCH   4  12
BRANCH   6  14
ATOM     14  O   UNL     1       4.649 -13.684   7.001  1.00  0.00    -0.504 OA
ATOM     15  H   UNL     1       3.947 -14.024   7.641  1.00  0.00     0.293 HD
ENDBRANCH   6  14
TORSDOF 4
ENDMDL
MODEL 4
REMARK VINA RESULT:    -4.918      3.216      5.311
REMARK INTER + INTRA:          -5.927
REMARK INTER:                  -5.802
REMARK INTRA:                  -0.125
REMARK UNBOUND:                -0.147
REMARK SMILES O=C([O-])C=Cc1ccc(O)c(O)c1
REMARK SMILES IDX 6 1 13 2 7 3 11 4 8 5 9 6 5 7 4 8 2 9 1 10 3 11 12 12 10 14
REMARK H PARENT 12 13 10 15
REMARK Flexibility Score: inf
ROOT
ATOM      1  C   UNL     1       9.014 -15.707   6.218  1.00  0.00    -0.022 A 
ATOM      2  C   UNL     1       9.173 -16.543   7.340  1.00  0.00     0.058 A 
ATOM      3  C   UNL     1      10.129 -15.436   5.413  1.00  0.00     0.012 A 
ATOM      4  C   UNL     1      10.416 -17.120   7.639  1.00  0.00     0.157 A 
ATOM      5  C   UNL     1      11.369 -16.009   5.700  1.00  0.00     0.051 A 
ATOM      6  C   UNL     1      11.526 -16.853   6.804  1.00  0.00     0.157 A 
ENDROOT
BRANCH   1   7
ATOM      7  C   UNL     1       7.719 -15.068   5.877  1.00  0.00     0.010 C 
ATOM      8  C   UNL     1       6.795 -14.725   6.785  1.00  0.00     0.025 C 
BRANCH   8   9
ATOM      9  C   UNL     1       5.517 -14.105   6.400  1.00  0.00     0.064 C 
ATOM     10  O   UNL     1       5.435 -13.473   5.316  1.00  0.00    -0.545 OA
ATOM     11  O   UNL     1       4.395 -14.209   7.215  1.00  0.00    -0.545 OA
ENDBRANCH   8   9
ENDBRANCH   1   7
BRANCH   4  12
ATOM     12  O   UNL     1      10.500 -17.938   8.767  1.00  0.00    -0.504 OA
ATOM     13  H   UNL     1      11.173 -18.683   8.876  1.00  0.00     0.293 HD
ENDBRANCH   4  12
BRANCH   6  14
ATOM     14  O   UNL     1      12.791 -17.399   7.034  1.00  0.00    -0.504 OA
ATOM     15  H   UNL     1      13.530 -17.421   6.346  1.00  0.00     0.293 HD
ENDBRANCH   6  14
TORSDOF 4
ENDMDL
MODEL 5
REMARK VINA RESULT:    -4.876      1.322      5.883
REMARK INTER + INTRA:          -5.878
REMARK INTER:                  -5.750
REMARK INTRA:                  -0.127
REMARK UNBOUND:                -0.147
REMARK SMILES O=C([O-])C=Cc1ccc(O)c(O)c1
REMARK SMILES IDX 6 1 13 2 7 3 11 4 8 5 9 6 5 7 4 8 2 9 1 10 3 11 12 12 10 14
REMARK H PARENT 12 13 10 15
REMARK Flexibility Score: inf
ROOT
ATOM      1  C   UNL     1       4.261 -14.787   6.915  1.00  0.00    -0.022 A 
ATOM      2  C   UNL     1       3.498 -15.912   6.548  1.00  0.00     0.058 A 
ATOM      3  C   UNL     1       3.845 -14.016   8.009  1.00  0.00     0.012 A 
ATOM      4  C   UNL     1       2.355 -16.276   7.273  1.00  0.00     0.157 A 
ATOM      5  C   UNL     1       2.712 -14.372   8.739  1.00  0.00     0.051 A 
ATOM      6  C   UNL     1       1.960 -15.498   8.387  1.00  0.00     0.157 A 
ENDROOT
BRANCH   1   7
ATOM      7  C   UNL     1       5.469 -14.363   6.164  1.00  0.00     0.010 C 
ATOM      8  C   UNL     1       6.678 -14.919   6.323  1.00  0.00     0.025 C 
BRANCH   8   9
ATOM      9  C   UNL     1       7.853 -14.457   5.566  1.00  0.00     0.064 C 
ATOM     10  O   UNL     1       8.035 -13.224   5.393  1.00  0.00    -0.545 OA
ATOM     11  O   UNL     1       8.769 -15.362   5.041  1.00  0.00    -0.545 OA
ENDBRANCH   8   9
ENDBRANCH   1   7
BRANCH   4  12
ATOM     12  O   UNL     1       1.646 -17.403   6.851  1.00  0.00    -0.504 OA
ATOM     13  H   UNL     1       2.068 -18.196   6.392  1.00  0.00     0.293 HD
ENDBRANCH   4  12
BRANCH   6  14
ATOM     14  O   UNL     1       0.840 -15.804   9.163  1.00  0.00    -0.504 OA
ATOM     15  H   UNL     1       0.731 -16.662   9.684  1.00  0.00     0.293 HD
ENDBRANCH   6  14
TORSDOF 4
ENDMDL
MODEL 6
REMARK VINA RESULT:    -4.849      0.906      1.941
REMARK INTER + INTRA:          -5.846
REMARK INTER:                  -5.693
REMARK INTRA:                  -0.153
REMARK UNBOUND:                -0.147
REMARK SMILES O=C([O-])C=Cc1ccc(O)c(O)c1
REMARK SMILES IDX 6 1 13 2 7 3 11 4 8 5 9 6 5 7 4 8 2 9 1 10 3 11 12 12 10 14
REMARK H PARENT 12 13 10 15
REMARK Flexibility Score: inf
ROOT
ATOM      1  C   UNL     1       5.023 -14.954   7.469  1.00  0.00    -0.022 A 
ATOM      2  C   UNL     1       6.317 -15.509   7.504  1.00  0.00     0.058 A 
ATOM      3  C   UNL     1       4.730 -13.985   6.499  1.00  0.00     0.012 A 
ATOM      4  C   UNL     1       7.293 -15.123   6.575  1.00  0.00     0.157 A 
ATOM      5  C   UNL     1       5.693 -13.597   5.568  1.00  0.00     0.051 A 
ATOM      6  C   UNL     1       6.974 -14.158   5.591  1.00  0.00     0.157 A 
ENDROOT
BRANCH   1   7
ATOM      7  C   UNL     1       3.967 -15.327   8.443  1.00  0.00     0.010 C 
ATOM      8  C   UNL     1       2.732 -14.807   8.438  1.00  0.00     0.025 C 
BRANCH   8   9
ATOM      9  C   UNL     1       1.720 -15.197   9.432  1.00  0.00     0.064 C 
ATOM     10  O   UNL     1       0.665 -14.521   9.544  1.00  0.00    -0.545 OA
ATOM     11  O   UNL     1       1.909 -16.305  10.252  1.00  0.00    -0.545 OA
ENDBRANCH   8   9
ENDBRANCH   1   7
BRANCH   4  12
ATOM     12  O   UNL     1       8.554 -15.714   6.671  1.00  0.00    -0.504 OA
ATOM     13  H   UNL     1       8.718 -16.709   6.614  1.00  0.00     0.293 HD
ENDBRANCH   4  12
BRANCH   6  14
ATOM     14  O   UNL     1       7.891 -13.732   4.627  1.00  0.00    -0.504 OA
ATOM     15  H   UNL     1       7.633 -13.395   3.712  1.00  0.00     0.293 HD
ENDBRANCH   6  14
TORSDOF 4
ENDMDL
MODEL 7
REMARK VINA RESULT:    -4.805      4.101      8.234
REMARK INTER + INTRA:          -5.794
REMARK INTER:                  -5.671
REMARK INTRA:                  -0.124
REMARK UNBOUND:                -0.147
REMARK SMILES O=C([O-])C=Cc1ccc(O)c(O)c1
REMARK SMILES IDX 6 1 13 2 7 3 11 4 8 5 9 6 5 7 4 8 2 9 1 10 3 11 12 12 10 14
REMARK H PARENT 12 13 10 15
REMARK Flexibility Score: inf
ROOT
ATOM      1  C   UNL     1      10.294 -15.879   6.181  1.00  0.00    -0.022 A 
ATOM      2  C   UNL     1       9.555 -15.072   5.296  1.00  0.00     0.058 A 
ATOM      3  C   UNL     1       9.644 -16.435   7.292  1.00  0.00     0.012 A 
ATOM      4  C   UNL     1       8.186 -14.845   5.499  1.00  0.00     0.157 A 
ATOM      5  C   UNL     1       8.282 -16.218   7.500  1.00  0.00     0.051 A 
ATOM      6  C   UNL     1       7.541 -15.430   6.613  1.00  0.00     0.157 A 
ENDROOT
BRANCH   1   7
ATOM      7  C   UNL     1      11.746 -16.132   6.008  1.00  0.00     0.010 C 
ATOM      8  C   UNL     1      12.703 -15.284   6.408  1.00  0.00     0.025 C 
BRANCH   8   9
ATOM      9  C   UNL     1      14.132 -15.569   6.203  1.00  0.00     0.064 C 
ATOM     10  O   UNL     1      14.774 -14.935   5.327  1.00  0.00    -0.545 OA
ATOM     11  O   UNL     1      14.788 -16.530   6.966  1.00  0.00    -0.545 OA
ENDBRANCH   8   9
ENDBRANCH   1   7
BRANCH   4  12
ATOM     12  O   UNL     1       7.517 -14.033   4.580  1.00  0.00    -0.504 OA
ATOM     13  H   UNL     1       6.735 -14.340   4.020  1.00  0.00     0.293 HD
ENDBRANCH   4  12
BRANCH   6  14
ATOM     14  O   UNL     1       6.180 -15.256   6.874  1.00  0.00    -0.504 OA
ATOM     15  H   UNL     1       5.613 -14.531   6.459  1.00  0.00     0.293 HD
ENDBRANCH   6  14
TORSDOF 4
ENDMDL
MODEL 8
REMARK VINA RESULT:    -4.797      1.361      6.175
REMARK INTER + INTRA:          -5.785
REMARK INTER:                  -5.634
REMARK INTRA:                  -0.151
REMARK UNBOUND:                -0.147
REMARK SMILES O=C([O-])C=Cc1ccc(O)c(O)c1
REMARK SMILES IDX 6 1 13 2 7 3 11 4 8 5 9 6 5 7 4 8 2 9 1 10 3 11 12 12 10 14
REMARK H PARENT 12 13 10 15
REMARK Flexibility Score: inf
ROOT
ATOM      1  C   UNL     1       2.745 -15.124   8.037  1.00  0.00    -0.022 A 
ATOM      2  C   UNL     1       1.947 -14.673   9.106  1.00  0.00     0.058 A 
ATOM      3  C   UNL     1       2.289 -16.198   7.259  1.00  0.00     0.012 A 
ATOM      4  C   UNL     1       0.706 -15.265   9.379  1.00  0.00     0.157 A 
ATOM      5  C   UNL     1       1.054 -16.790   7.521  1.00  0.00     0.051 A 
ATOM      6  C   UNL     1       0.252 -16.334   8.571  1.00  0.00     0.157 A 
ENDROOT
BRANCH   1   7
ATOM      7  C   UNL     1       4.070 -14.532   7.724  1.00  0.00     0.010 C 
ATOM      8  C   UNL     1       4.638 -14.578   6.512  1.00  0.00     0.025 C 
BRANCH   8   9
ATOM      9  C   UNL     1       5.962 -13.989   6.250  1.00  0.00     0.064 C 
ATOM     10  O   UNL     1       6.786 -13.869   7.192  1.00  0.00    -0.545 OA
ATOM     11  O   UNL     1       6.318 -13.564   4.974  1.00  0.00    -0.545 OA
ENDBRANCH   8   9
ENDBRANCH   1   7
BRANCH   4  12
ATOM     12  O   UNL     1      -0.031 -14.767  10.455  1.00  0.00    -0.504 OA
ATOM     13  H   UNL     1      -0.866 -14.209  10.358  1.00  0.00     0.293 HD
ENDBRANCH   4  12
BRANCH   6  14
ATOM     14  O   UNL     1      -0.977 -16.966   8.778  1.00  0.00    -0.504 OA
ATOM     15  H   UNL     1      -1.788 -16.509   9.167  1.00  0.00     0.293 HD
ENDBRANCH   6  14
TORSDOF 4
ENDMDL
MODEL 9
REMARK VINA RESULT:    -4.774      8.203      9.423
REMARK INTER + INTRA:          -5.759
REMARK INTER:                  -5.615
REMARK INTRA:                  -0.143
REMARK UNBOUND:                -0.147
REMARK SMILES O=C([O-])C=Cc1ccc(O)c(O)c1
REMARK SMILES IDX 6 1 13 2 7 3 11 4 8 5 9 6 5 7 4 8 2 9 1 10 3 11 12 12 10 14
REMARK H PARENT 12 13 10 15
REMARK Flexibility Score: inf
ROOT
ATOM      1  C   UNL     1       8.295 -13.101  14.522  1.00  0.00    -0.022 A 
ATOM      2  C   UNL     1       7.954 -12.786  13.193  1.00  0.00     0.058 A 
ATOM      3  C   UNL     1       7.743 -12.339  15.561  1.00  0.00     0.012 A 
ATOM      4  C   UNL     1       7.058 -11.746  12.906  1.00  0.00     0.157 A 
ATOM      5  C   UNL     1       6.849 -11.304  15.285  1.00  0.00     0.051 A 
ATOM      6  C   UNL     1       6.495 -10.999  13.967  1.00  0.00     0.157 A 
ENDROOT
BRANCH   1   7
ATOM      7  C   UNL     1       9.248 -14.185  14.865  1.00  0.00     0.010 C 
ATOM      8  C   UNL     1       9.094 -15.009  15.911  1.00  0.00     0.025 C 
BRANCH   8   9
ATOM      9  C   UNL     1      10.072 -16.063  16.223  1.00  0.00     0.064 C 
ATOM     10  O   UNL     1      10.277 -16.388  17.421  1.00  0.00    -0.545 OA
ATOM     11  O   UNL     1      10.774 -16.712  15.212  1.00  0.00    -0.545 OA
ENDBRANCH   8   9
ENDBRANCH   1   7
BRANCH   4  12
ATOM     12  O   UNL     1       6.766 -11.489  11.564  1.00  0.00    -0.504 OA
ATOM     13  H   UNL     1       6.812 -12.183  10.833  1.00  0.00     0.293 HD
ENDBRANCH   4  12
BRANCH   6  14
ATOM     14  O   UNL     1       5.590  -9.956  13.758  1.00  0.00    -0.504 OA
ATOM     15  H   UNL     1       5.681  -9.267  13.026  1.00  0.00     0.293 HD
ENDBRANCH   6  14
TORSDOF 4
ENDMDL
