MODEL 1
REMARK VINA RESULT:    -5.307      0.000      0.000
REMARK INTER + INTRA:         -10.550
REMARK INTER:                  -9.651
REMARK INTRA:                  -0.899
REMARK UNBOUND:                -0.899
REMARK SMILES CCCCCCCCCCCCCCCC(=O)[O-]
REMARK SMILES IDX 9 1 10 2 11 3 12 4 13 5 14 6 15 7 16 8 17 9 18 10 8 11 7 12
REMARK SMILES IDX 6 13 5 14 4 15 3 16 2 17 1 18
REMARK H PARENT
REMARK Flexibility Score: inf
ROOT
ATOM      1  C   UNL     1      16.588 -29.674  22.146  1.00  0.00     0.000 C 
ENDROOT
BRANCH   1   2
ATOM      2  C   UNL     1      17.600 -29.820  20.990  1.00  0.00     0.000 C 
BRANCH   2   3
ATOM      3  C   UNL     1      18.531 -28.601  20.876  1.00  0.00     0.000 C 
BRANCH   3   4
ATOM      4  C   UNL     1      20.017 -28.961  21.058  1.00  0.00     0.000 C 
BRANCH   4   5
ATOM      5  C   UNL     1      20.937 -27.772  21.389  1.00  0.00     0.000 C 
BRANCH   5   6
ATOM      6  C   UNL     1      20.203 -26.420  21.356  1.00  0.00     0.006 C 
BRANCH   6   7
ATOM      7  C   UNL     1      20.496 -25.632  20.074  1.00  0.00     0.053 C 
BRANCH   7   8
ATOM      8  C   UNL     1      21.827 -24.946  20.131  1.00  0.00     0.041 C 
ATOM      9  O   UNL     1      22.635 -25.050  19.171  1.00  0.00    -0.550 OA
ATOM     10  O   UNL     1      22.187 -24.214  21.256  1.00  0.00    -0.550 OA
ENDBRANCH   7   8
ENDBRANCH   6   7
ENDBRANCH   5   6
ENDBRANCH   4   5
ENDBRANCH   3   4
ENDBRANCH   2   3
ENDBRANCH   1   2
BRANCH   1  11
ATOM     11  C   UNL     1      15.181 -29.258  21.686  1.00  0.00     0.000 C 
BRANCH  11  12
ATOM     12  C   UNL     1      14.315 -30.455  21.261  1.00  0.00    -0.000 C 
BRANCH  12  13
ATOM     13  C   UNL     1      13.000 -30.544  22.052  1.00  0.00    -0.000 C 
BRANCH  13  14
ATOM     14  C   UNL     1      13.021 -29.700  23.335  1.00  0.00    -0.000 C 
BRANCH  14  15
ATOM     15  C   UNL     1      11.921 -28.632  23.309  1.00  0.00    -0.000 C 
BRANCH  15  16
ATOM     16  C   UNL     1      12.226 -27.501  24.303  1.00  0.00    -0.000 C 
BRANCH  16  17
ATOM     17  C   UNL     1      13.517 -26.743  23.955  1.00  0.00    -0.003 C 
ATOM     18  C   UNL     1      13.997 -25.841  25.092  1.00  0.00     0.004 C 
ENDBRANCH  16  17
ENDBRANCH  15  16
ENDBRANCH  14  15
ENDBRANCH  13  14
ENDBRANCH  12  13
ENDBRANCH  11  12
ENDBRANCH   1  11
TORSDOF 14
ENDMDL
MODEL 2
REMARK VINA RESULT:    -5.280      5.092      7.753
REMARK INTER + INTRA:         -10.501
REMARK INTER:                  -7.927
REMARK INTRA:                  -2.574
REMARK UNBOUND:                -0.899
REMARK SMILES CCCCCCCCCCCCCCCC(=O)[O-]
REMARK SMILES IDX 9 1 10 2 11 3 12 4 13 5 14 6 15 7 16 8 17 9 18 10 8 11 7 12
REMARK SMILES IDX 6 13 5 14 4 15 3 16 2 17 1 18
REMARK H PARENT
REMARK Flexibility Score: inf
ROOT
ATOM      1  C   UNL     1      14.074 -30.278  23.382  1.00  0.00     0.000 C 
ENDROOT
BRANCH   1   2
ATOM      2  C   UNL     1      13.132 -31.337  22.771  1.00  0.00     0.000 C 
BRANCH   2   3
ATOM      3  C   UNL     1      12.755 -31.008  21.316  1.00  0.00     0.000 C 
BRANCH   3   4
ATOM      4  C   UNL     1      13.458 -31.919  20.293  1.00  0.00     0.000 C 
BRANCH   4   5
ATOM      5  C   UNL     1      14.321 -33.037  20.905  1.00  0.00     0.000 C 
BRANCH   5   6
ATOM      6  C   UNL     1      14.693 -34.130  19.888  1.00  0.00     0.006 C 
BRANCH   6   7
ATOM      7  C   UNL     1      16.094 -33.922  19.299  1.00  0.00     0.053 C 
BRANCH   7   8
ATOM      8  C   UNL     1      16.965 -35.126  19.489  1.00  0.00     0.041 C 
ATOM      9  O   UNL     1      16.497 -36.281  19.305  1.00  0.00    -0.550 OA
ATOM     10  O   UNL     1      18.285 -34.976  19.894  1.00  0.00    -0.550 OA
ENDBRANCH   7   8
ENDBRANCH   6   7
ENDBRANCH   5   6
ENDBRANCH   4   5
ENDBRANCH   3   4
ENDBRANCH   2   3
ENDBRANCH   1   2
BRANCH   1  11
ATOM     11  C   UNL     1      14.288 -29.049  22.483  1.00  0.00     0.000 C 
BRANCH  11  12
ATOM     12  C   UNL     1      15.632 -29.084  21.736  1.00  0.00    -0.000 C 
BRANCH  12  13
ATOM     13  C   UNL     1      16.667 -29.990  22.423  1.00  0.00    -0.000 C 
BRANCH  13  14
ATOM     14  C   UNL     1      17.205 -31.087  21.493  1.00  0.00    -0.000 C 
BRANCH  14  15
ATOM     15  C   UNL     1      17.724 -32.285  22.298  1.00  0.00    -0.000 C 
BRANCH  15  16
ATOM     16  C   UNL     1      17.149 -32.282  23.722  1.00  0.00    -0.000 C 
BRANCH  16  17
ATOM     17  C   UNL     1      16.228 -33.483  23.988  1.00  0.00    -0.003 C 
ATOM     18  C   UNL     1      16.645 -34.732  23.212  1.00  0.00     0.004 C 
ENDBRANCH  16  17
ENDBRANCH  15  16
ENDBRANCH  14  15
ENDBRANCH  13  14
ENDBRANCH  12  13
ENDBRANCH  11  12
ENDBRANCH   1  11
TORSDOF 14
ENDMDL
MODEL 3
REMARK VINA RESULT:    -5.278      5.123      7.274
REMARK INTER + INTRA:         -10.498
REMARK INTER:                  -8.019
REMARK INTRA:                  -2.478
REMARK UNBOUND:                -0.899
REMARK SMILES CCCCCCCCCCCCCCCC(=O)[O-]
REMARK SMILES IDX 9 1 10 2 11 3 12 4 13 5 14 6 15 7 16 8 17 9 18 10 8 11 7 12
REMARK SMILES IDX 6 13 5 14 4 15 3 16 2 17 1 18
REMARK H PARENT
REMARK Flexibility Score: inf
ROOT
ATOM      1  C   UNL     1      18.728 -33.695  20.077  1.00  0.00     0.000 C 
ENDROOT
BRANCH   1   2
ATOM      2  C   UNL     1      18.776 -32.233  20.566  1.00  0.00     0.000 C 
BRANCH   2   3
ATOM      3  C   UNL     1      17.403 -31.545  20.476  1.00  0.00     0.000 C 
BRANCH   3   4
ATOM      4  C   UNL     1      17.332 -30.236  21.284  1.00  0.00     0.000 C 
BRANCH   4   5
ATOM      5  C   UNL     1      16.526 -30.323  22.592  1.00  0.00     0.000 C 
BRANCH   5   6
ATOM      6  C   UNL     1      15.178 -29.586  22.514  1.00  0.00     0.006 C 
BRANCH   6   7
ATOM      7  C   UNL     1      14.006 -30.472  22.958  1.00  0.00     0.053 C 
BRANCH   7   8
ATOM      8  C   UNL     1      13.030 -30.706  21.846  1.00  0.00     0.041 C 
ATOM      9  O   UNL     1      11.808 -30.452  22.013  1.00  0.00    -0.550 OA
ATOM     10  O   UNL     1      13.464 -31.228  20.634  1.00  0.00    -0.550 OA
ENDBRANCH   7   8
ENDBRANCH   6   7
ENDBRANCH   5   6
ENDBRANCH   4   5
ENDBRANCH   3   4
ENDBRANCH   2   3
ENDBRANCH   1   2
BRANCH   1  11
ATOM     11  C   UNL     1      17.757 -33.923  18.906  1.00  0.00     0.000 C 
BRANCH  11  12
ATOM     12  C   UNL     1      16.685 -34.981  19.218  1.00  0.00    -0.000 C 
BRANCH  12  13
ATOM     13  C   UNL     1      16.368 -35.077  20.719  1.00  0.00    -0.000 C 
BRANCH  13  14
ATOM     14  C   UNL     1      15.124 -34.268  21.115  1.00  0.00    -0.000 C 
BRANCH  14  15
ATOM     15  C   UNL     1      15.154 -33.910  22.607  1.00  0.00    -0.000 C 
BRANCH  15  16
ATOM     16  C   UNL     1      16.444 -34.416  23.269  1.00  0.00    -0.000 C 
BRANCH  16  17
ATOM     17  C   UNL     1      17.060 -33.384  24.226  1.00  0.00    -0.003 C 
ATOM     18  C   UNL     1      18.574 -33.253  24.060  1.00  0.00     0.004 C 
ENDBRANCH  16  17
ENDBRANCH  15  16
ENDBRANCH  14  15
ENDBRANCH  13  14
ENDBRANCH  12  13
ENDBRANCH  11  12
ENDBRANCH   1  11
TORSDOF 14
ENDMDL
MODEL 4
REMARK VINA RESULT:    -5.262      4.821      7.992
REMARK INTER + INTRA:         -10.468
REMARK INTER:                  -8.390
REMARK INTRA:                  -2.078
REMARK UNBOUND:                -0.899
REMARK SMILES CCCCCCCCCCCCCCCC(=O)[O-]
REMARK SMILES IDX 9 1 10 2 11 3 12 4 13 5 14 6 15 7 16 8 17 9 18 10 8 11 7 12
REMARK SMILES IDX 6 13 5 14 4 15 3 16 2 17 1 18
REMARK H PARENT
REMARK Flexibility Score: inf
ROOT
ATOM      1  C   UNL     1      15.582 -33.931  19.366  1.00  0.00     0.000 C 
ENDROOT
BRANCH   1   2
ATOM      2  C   UNL     1      14.420 -33.414  20.240  1.00  0.00     0.000 C 
BRANCH   2   3
ATOM      3  C   UNL     1      14.779 -33.403  21.736  1.00  0.00     0.000 C 
BRANCH   3   4
ATOM      4  C   UNL     1      14.264 -32.150  22.468  1.00  0.00     0.000 C 
BRANCH   4   5
ATOM      5  C   UNL     1      13.491 -31.154  21.585  1.00  0.00     0.000 C 
BRANCH   5   6
ATOM      6  C   UNL     1      12.423 -30.368  22.365  1.00  0.00     0.006 C 
BRANCH   6   7
ATOM      7  C   UNL     1      13.034 -29.507  23.478  1.00  0.00     0.053 C 
BRANCH   7   8
ATOM      8  C   UNL     1      12.176 -28.323  23.803  1.00  0.00     0.041 C 
ATOM      9  O   UNL     1      11.124 -28.103  23.145  1.00  0.00    -0.550 OA
ATOM     10  O   UNL     1      12.549 -27.447  24.815  1.00  0.00    -0.550 OA
ENDBRANCH   7   8
ENDBRANCH   6   7
ENDBRANCH   5   6
ENDBRANCH   4   5
ENDBRANCH   3   4
ENDBRANCH   2   3
ENDBRANCH   1   2
BRANCH   1  11
ATOM     11  C   UNL     1      16.112 -35.309  19.796  1.00  0.00     0.000 C 
BRANCH  11  12
ATOM     12  C   UNL     1      17.624 -35.306  20.074  1.00  0.00    -0.000 C 
BRANCH  12  13
ATOM     13  C   UNL     1      18.377 -34.255  19.242  1.00  0.00    -0.000 C 
BRANCH  13  14
ATOM     14  C   UNL     1      19.091 -33.210  20.113  1.00  0.00    -0.000 C 
BRANCH  14  15
ATOM     15  C   UNL     1      18.613 -33.287  21.568  1.00  0.00    -0.000 C 
BRANCH  15  16
ATOM     16  C   UNL     1      18.086 -31.926  22.048  1.00  0.00    -0.000 C 
BRANCH  16  17
ATOM     17  C   UNL     1      17.619 -31.032  20.889  1.00  0.00    -0.003 C 
ATOM     18  C   UNL     1      16.941 -29.749  21.368  1.00  0.00     0.004 C 
ENDBRANCH  16  17
ENDBRANCH  15  16
ENDBRANCH  14  15
ENDBRANCH  13  14
ENDBRANCH  12  13
ENDBRANCH  11  12
ENDBRANCH   1  11
TORSDOF 14
ENDMDL
MODEL 5
REMARK VINA RESULT:    -5.238      5.651      7.848
REMARK INTER + INTRA:         -10.424
REMARK INTER:                  -7.824
REMARK INTRA:                  -2.601
REMARK UNBOUND:                -0.899
REMARK SMILES CCCCCCCCCCCCCCCC(=O)[O-]
REMARK SMILES IDX 9 1 10 2 11 3 12 4 13 5 14 6 15 7 16 8 17 9 18 10 8 11 7 12
REMARK SMILES IDX 6 13 5 14 4 15 3 16 2 17 1 18
REMARK H PARENT
REMARK Flexibility Score: inf
ROOT
ATOM      1  C   UNL     1      14.990 -33.928  21.524  1.00  0.00     0.000 C 
ENDROOT
BRANCH   1   2
ATOM      2  C   UNL     1      14.950 -33.619  23.035  1.00  0.00     0.000 C 
BRANCH   2   3
ATOM      3  C   UNL     1      16.332 -33.768  23.695  1.00  0.00     0.000 C 
BRANCH   3   4
ATOM      4  C   UNL     1      17.051 -35.070  23.295  1.00  0.00     0.000 C 
BRANCH   4   5
ATOM      5  C   UNL     1      18.487 -34.885  22.774  1.00  0.00     0.000 C 
BRANCH   5   6
ATOM      6  C   UNL     1      18.662 -35.353  21.320  1.00  0.00     0.006 C 
BRANCH   6   7
ATOM      7  C   UNL     1      17.693 -36.486  20.955  1.00  0.00     0.053 C 
BRANCH   7   8
ATOM      8  C   UNL     1      17.418 -36.534  19.483  1.00  0.00     0.041 C 
ATOM      9  O   UNL     1      16.772 -35.605  18.930  1.00  0.00    -0.550 OA
ATOM     10  O   UNL     1      17.851 -37.615  18.727  1.00  0.00    -0.550 OA
ENDBRANCH   7   8
ENDBRANCH   6   7
ENDBRANCH   5   6
ENDBRANCH   4   5
ENDBRANCH   3   4
ENDBRANCH   2   3
ENDBRANCH   1   2
BRANCH   1  11
ATOM     11  C   UNL     1      14.223 -32.909  20.665  1.00  0.00     0.000 C 
BRANCH  11  12
ATOM     12  C   UNL     1      13.594 -31.780  21.498  1.00  0.00    -0.000 C 
BRANCH  12  13
ATOM     13  C   UNL     1      14.184 -30.400  21.166  1.00  0.00    -0.000 C 
BRANCH  13  14
ATOM     14  C   UNL     1      14.607 -29.618  22.419  1.00  0.00    -0.000 C 
BRANCH  14  15
ATOM     15  C   UNL     1      16.056 -29.942  22.806  1.00  0.00    -0.000 C 
BRANCH  15  16
ATOM     16  C   UNL     1      16.959 -29.994  21.565  1.00  0.00    -0.000 C 
BRANCH  16  17
ATOM     17  C   UNL     1      17.928 -31.187  21.590  1.00  0.00    -0.003 C 
ATOM     18  C   UNL     1      17.899 -31.999  20.296  1.00  0.00     0.004 C 
ENDBRANCH  16  17
ENDBRANCH  15  16
ENDBRANCH  14  15
ENDBRANCH  13  14
ENDBRANCH  12  13
ENDBRANCH  11  12
ENDBRANCH   1  11
TORSDOF 14
ENDMDL
MODEL 6
REMARK VINA RESULT:    -5.230      2.091      3.733
REMARK INTER + INTRA:         -10.410
REMARK INTER:                  -8.547
REMARK INTRA:                  -1.863
REMARK UNBOUND:                -0.899
REMARK SMILES CCCCCCCCCCCCCCCC(=O)[O-]
REMARK SMILES IDX 9 1 10 2 11 3 12 4 13 5 14 6 15 7 16 8 17 9 18 10 8 11 7 12
REMARK SMILES IDX 6 13 5 14 4 15 3 16 2 17 1 18
REMARK H PARENT
REMARK Flexibility Score: inf
ROOT
ATOM      1  C   UNL     1      16.920 -30.242  21.937  1.00  0.00     0.000 C 
ENDROOT
BRANCH   1   2
ATOM      2  C   UNL     1      17.559 -31.019  20.768  1.00  0.00     0.000 C 
BRANCH   2   3
ATOM      3  C   UNL     1      18.767 -31.857  21.219  1.00  0.00     0.000 C 
BRANCH   3   4
ATOM      4  C   UNL     1      20.116 -31.244  20.798  1.00  0.00     0.000 C 
BRANCH   4   5
ATOM      5  C   UNL     1      20.562 -30.026  21.627  1.00  0.00     0.000 C 
BRANCH   5   6
ATOM      6  C   UNL     1      20.818 -28.777  20.765  1.00  0.00     0.006 C 
BRANCH   6   7
ATOM      7  C   UNL     1      19.609 -27.832  20.741  1.00  0.00     0.053 C 
BRANCH   7   8
ATOM      8  C   UNL     1      20.010 -26.406  20.963  1.00  0.00     0.041 C 
ATOM      9  O   UNL     1      19.917 -25.569  20.027  1.00  0.00    -0.550 OA
ATOM     10  O   UNL     1      20.511 -26.006  22.196  1.00  0.00    -0.550 OA
ENDBRANCH   7   8
ENDBRANCH   6   7
ENDBRANCH   5   6
ENDBRANCH   4   5
ENDBRANCH   3   4
ENDBRANCH   2   3
ENDBRANCH   1   2
BRANCH   1  11
ATOM     11  C   UNL     1      15.624 -29.507  21.555  1.00  0.00     0.000 C 
BRANCH  11  12
ATOM     12  C   UNL     1      14.763 -29.143  22.776  1.00  0.00    -0.000 C 
BRANCH  12  13
ATOM     13  C   UNL     1      13.315 -29.642  22.648  1.00  0.00    -0.000 C 
BRANCH  13  14
ATOM     14  C   UNL     1      13.223 -31.169  22.514  1.00  0.00    -0.000 C 
BRANCH  14  15
ATOM     15  C   UNL     1      13.663 -31.862  23.810  1.00  0.00    -0.000 C 
BRANCH  15  16
ATOM     16  C   UNL     1      14.808 -32.851  23.545  1.00  0.00    -0.000 C 
BRANCH  16  17
ATOM     17  C   UNL     1      14.824 -33.361  22.096  1.00  0.00    -0.003 C 
ATOM     18  C   UNL     1      15.983 -34.317  21.819  1.00  0.00     0.004 C 
ENDBRANCH  16  17
ENDBRANCH  15  16
ENDBRANCH  14  15
ENDBRANCH  13  14
ENDBRANCH  12  13
ENDBRANCH  11  12
ENDBRANCH   1  11
TORSDOF 14
ENDMDL
MODEL 7
REMARK VINA RESULT:    -5.197      4.562      7.513
REMARK INTER + INTRA:         -10.349
REMARK INTER:                  -7.804
REMARK INTRA:                  -2.546
REMARK UNBOUND:                -0.899
REMARK SMILES CCCCCCCCCCCCCCCC(=O)[O-]
REMARK SMILES IDX 9 1 10 2 11 3 12 4 13 5 14 6 15 7 16 8 17 9 18 10 8 11 7 12
REMARK SMILES IDX 6 13 5 14 4 15 3 16 2 17 1 18
REMARK H PARENT
REMARK Flexibility Score: inf
ROOT
ATOM      1  C   UNL     1      17.212 -32.499  20.112  1.00  0.00     0.000 C 
ENDROOT
BRANCH   1   2
ATOM      2  C   UNL     1      16.728 -33.890  19.653  1.00  0.00     0.000 C 
BRANCH   2   3
ATOM      3  C   UNL     1      15.206 -34.055  19.807  1.00  0.00     0.000 C 
BRANCH   3   4
ATOM      4  C   UNL     1      14.620 -33.188  20.937  1.00  0.00     0.000 C 
BRANCH   4   5
ATOM      5  C   UNL     1      13.574 -32.153  20.486  1.00  0.00     0.000 C 
BRANCH   5   6
ATOM      6  C   UNL     1      13.762 -30.782  21.158  1.00  0.00     0.006 C 
BRANCH   6   7
ATOM      7  C   UNL     1      13.172 -30.744  22.574  1.00  0.00     0.053 C 
BRANCH   7   8
ATOM      8  C   UNL     1      13.244 -29.373  23.173  1.00  0.00     0.041 C 
ATOM      9  O   UNL     1      12.359 -28.988  23.981  1.00  0.00    -0.550 OA
ATOM     10  O   UNL     1      14.276 -28.512  22.821  1.00  0.00    -0.550 OA
ENDBRANCH   7   8
ENDBRANCH   6   7
ENDBRANCH   5   6
ENDBRANCH   4   5
ENDBRANCH   3   4
ENDBRANCH   2   3
ENDBRANCH   1   2
BRANCH   1  11
ATOM     11  C   UNL     1      18.615 -32.510  20.741  1.00  0.00     0.000 C 
BRANCH  11  12
ATOM     12  C   UNL     1      18.762 -31.500  21.891  1.00  0.00    -0.000 C 
BRANCH  12  13
ATOM     13  C   UNL     1      17.491 -30.662  22.107  1.00  0.00    -0.000 C 
BRANCH  13  14
ATOM     14  C   UNL     1      16.825 -30.935  23.465  1.00  0.00    -0.000 C 
BRANCH  14  15
ATOM     15  C   UNL     1      17.272 -32.287  24.035  1.00  0.00    -0.000 C 
BRANCH  15  16
ATOM     16  C   UNL     1      16.100 -33.279  24.082  1.00  0.00    -0.000 C 
BRANCH  16  17
ATOM     17  C   UNL     1      16.537 -34.723  23.788  1.00  0.00    -0.003 C 
ATOM     18  C   UNL     1      18.023 -34.833  23.451  1.00  0.00     0.004 C 
ENDBRANCH  16  17
ENDBRANCH  15  16
ENDBRANCH  14  15
ENDBRANCH  13  14
ENDBRANCH  12  13
ENDBRANCH  11  12
ENDBRANCH   1  11
TORSDOF 14
ENDMDL
MODEL 8
REMARK VINA RESULT:    -5.192      5.717      8.466
REMARK INTER + INTRA:         -10.340
REMARK INTER:                  -7.598
REMARK INTRA:                  -2.742
REMARK UNBOUND:                -0.899
REMARK SMILES CCCCCCCCCCCCCCCC(=O)[O-]
REMARK SMILES IDX 9 1 10 2 11 3 12 4 13 5 14 6 15 7 16 8 17 9 18 10 8 11 7 12
REMARK SMILES IDX 6 13 5 14 4 15 3 16 2 17 1 18
REMARK H PARENT
REMARK Flexibility Score: inf
ROOT
ATOM      1  C   UNL     1      17.418 -35.872  19.227  1.00  0.00     0.000 C 
ENDROOT
BRANCH   1   2
ATOM      2  C   UNL     1      16.566 -34.585  19.229  1.00  0.00     0.000 C 
BRANCH   2   3
ATOM      3  C   UNL     1      15.339 -34.702  20.149  1.00  0.00     0.000 C 
BRANCH   3   4
ATOM      4  C   UNL     1      15.099 -33.438  20.995  1.00  0.00     0.000 C 
BRANCH   4   5
ATOM      5  C   UNL     1      14.877 -33.694  22.496  1.00  0.00     0.000 C 
BRANCH   5   6
ATOM      6  C   UNL     1      15.178 -32.460  23.364  1.00  0.00     0.006 C 
BRANCH   6   7
ATOM      7  C   UNL     1      14.858 -31.148  22.637  1.00  0.00     0.053 C 
BRANCH   7   8
ATOM      8  C   UNL     1      13.441 -30.715  22.861  1.00  0.00     0.041 C 
ATOM      9  O   UNL     1      13.125 -30.104  23.916  1.00  0.00    -0.550 OA
ATOM     10  O   UNL     1      12.465 -31.009  21.917  1.00  0.00    -0.550 OA
ENDBRANCH   7   8
ENDBRANCH   6   7
ENDBRANCH   5   6
ENDBRANCH   4   5
ENDBRANCH   3   4
ENDBRANCH   2   3
ENDBRANCH   1   2
BRANCH   1  11
ATOM     11  C   UNL     1      17.256 -36.721  20.499  1.00  0.00     0.000 C 
BRANCH  11  12
ATOM     12  C   UNL     1      18.473 -36.632  21.435  1.00  0.00    -0.000 C 
BRANCH  12  13
ATOM     13  C   UNL     1      18.159 -35.890  22.744  1.00  0.00    -0.000 C 
BRANCH  13  14
ATOM     14  C   UNL     1      18.518 -34.398  22.681  1.00  0.00    -0.000 C 
BRANCH  14  15
ATOM     15  C   UNL     1      19.635 -34.144  21.660  1.00  0.00    -0.000 C 
BRANCH  15  16
ATOM     16  C   UNL     1      19.357 -32.872  20.845  1.00  0.00    -0.000 C 
BRANCH  16  17
ATOM     17  C   UNL     1      18.367 -31.927  21.544  1.00  0.00    -0.003 C 
ATOM     18  C   UNL     1      17.951 -30.750  20.662  1.00  0.00     0.004 C 
ENDBRANCH  16  17
ENDBRANCH  15  16
ENDBRANCH  14  15
ENDBRANCH  13  14
ENDBRANCH  12  13
ENDBRANCH  11  12
ENDBRANCH   1  11
TORSDOF 14
ENDMDL
MODEL 9
REMARK VINA RESULT:    -5.164      5.685      7.097
REMARK INTER + INTRA:         -10.290
REMARK INTER:                  -8.382
REMARK INTRA:                  -1.908
REMARK UNBOUND:                -0.899
REMARK SMILES CCCCCCCCCCCCCCCC(=O)[O-]
REMARK SMILES IDX 9 1 10 2 11 3 12 4 13 5 14 6 15 7 16 8 17 9 18 10 8 11 7 12
REMARK SMILES IDX 6 13 5 14 4 15 3 16 2 17 1 18
REMARK H PARENT
REMARK Flexibility Score: inf
ROOT
ATOM      1  C   UNL     1      17.520 -30.978  22.449  1.00  0.00     0.000 C 
ENDROOT
BRANCH   1   2
ATOM      2  C   UNL     1      17.656 -31.409  20.973  1.00  0.00     0.000 C 
BRANCH   2   3
ATOM      3  C   UNL     1      18.986 -32.133  20.700  1.00  0.00     0.000 C 
BRANCH   3   4
ATOM      4  C   UNL     1      18.807 -33.640  20.438  1.00  0.00     0.000 C 
BRANCH   4   5
ATOM      5  C   UNL     1      18.367 -34.002  19.009  1.00  0.00     0.000 C 
BRANCH   5   6
ATOM      6  C   UNL     1      16.858 -34.276  18.898  1.00  0.00     0.006 C 
BRANCH   6   7
ATOM      7  C   UNL     1      16.400 -35.394  19.844  1.00  0.00     0.053 C 
BRANCH   7   8
ATOM      8  C   UNL     1      17.129 -36.677  19.586  1.00  0.00     0.041 C 
ATOM      9  O   UNL     1      17.125 -37.188  18.435  1.00  0.00    -0.550 OA
ATOM     10  O   UNL     1      17.792 -37.323  20.622  1.00  0.00    -0.550 OA
ENDBRANCH   7   8
ENDBRANCH   6   7
ENDBRANCH   5   6
ENDBRANCH   4   5
ENDBRANCH   3   4
ENDBRANCH   2   3
ENDBRANCH   1   2
BRANCH   1  11
ATOM     11  C   UNL     1      16.980 -32.085  23.368  1.00  0.00     0.000 C 
BRANCH  11  12
ATOM     12  C   UNL     1      16.063 -33.076  22.632  1.00  0.00    -0.000 C 
BRANCH  12  13
ATOM     13  C   UNL     1      14.594 -32.625  22.618  1.00  0.00    -0.000 C 
BRANCH  13  14
ATOM     14  C   UNL     1      14.096 -32.270  21.209  1.00  0.00    -0.000 C 
BRANCH  14  15
ATOM     15  C   UNL     1      13.073 -31.128  21.258  1.00  0.00    -0.000 C 
BRANCH  15  16
ATOM     16  C   UNL     1      12.792 -30.702  22.708  1.00  0.00    -0.000 C 
BRANCH  16  17
ATOM     17  C   UNL     1      13.108 -29.220  22.959  1.00  0.00    -0.003 C 
ATOM     18  C   UNL     1      14.555 -28.859  22.625  1.00  0.00     0.004 C 
ENDBRANCH  16  17
ENDBRANCH  15  16
ENDBRANCH  14  15
ENDBRANCH  13  14
ENDBRANCH  12  13
ENDBRANCH  11  12
ENDBRANCH   1  11
TORSDOF 14
ENDMDL
