MODEL 1
REMARK VINA RESULT:     1.504      0.000      0.000
REMARK INTER + INTRA:           1.650
REMARK INTER:                   3.791
REMARK INTRA:                  -2.141
REMARK UNBOUND:                -2.141
REMARK SMILES CCCCCCCCCCCCCCCCCCCCCCCCCCCC(=O)[O-]
REMARK SMILES IDX 15 1 16 2 17 3 18 4 19 5 20 6 21 7 22 8 23 9 24 10 25 11
REMARK SMILES IDX 26 12 27 13 28 14 29 15 30 16 14 17 13 18 12 19 11 20 10 21
REMARK SMILES IDX 9 22 8 23 7 24 6 25 5 26 4 27 3 28 2 29 1 30
REMARK H PARENT
REMARK Flexibility Score: inf
ROOT
ATOM      1  C   UNL     1      30.651  -0.039  -1.780  1.00  0.00     0.000 C 
ENDROOT
BRANCH   1   2
ATOM      2  C   UNL     1      31.570  -1.149  -2.335  1.00  0.00     0.000 C 
BRANCH   2   3
ATOM      3  C   UNL     1      32.282  -0.721  -3.627  1.00  0.00     0.000 C 
BRANCH   3   4
ATOM      4  C   UNL     1      33.523   0.127  -3.320  1.00  0.00     0.000 C 
BRANCH   4   5
ATOM      5  C   UNL     1      33.506   1.435  -4.124  1.00  0.00     0.000 C 
BRANCH   5   6
ATOM      6  C   UNL     1      32.131   2.127  -4.107  1.00  0.00     0.000 C 
BRANCH   6   7
ATOM      7  C   UNL     1      32.040   3.390  -3.224  1.00  0.00     0.000 C 
BRANCH   7   8
ATOM      8  C   UNL     1      32.809   4.623  -3.741  1.00  0.00     0.000 C 
BRANCH   8   9
ATOM      9  C   UNL     1      32.545   5.929  -2.956  1.00  0.00     0.000 C 
BRANCH   9  10
ATOM     10  C   UNL     1      31.074   6.119  -2.538  1.00  0.00     0.000 C 
BRANCH  10  11
ATOM     11  C   UNL     1      30.739   7.497  -1.940  1.00  0.00     0.000 C 
BRANCH  11  12
ATOM     12  C   UNL     1      30.460   8.609  -2.972  1.00  0.00     0.006 C 
BRANCH  12  13
ATOM     13  C   UNL     1      29.762   9.852  -2.398  1.00  0.00     0.053 C 
BRANCH  13  14
ATOM     14  C   UNL     1      28.308   9.608  -2.138  1.00  0.00     0.041 C 
ATOM     15  O   UNL     1      27.574   9.121  -3.037  1.00  0.00    -0.550 OA
ATOM     16  O   UNL     1      27.756   9.949  -0.909  1.00  0.00    -0.550 OA
ENDBRANCH  13  14
ENDBRANCH  12  13
ENDBRANCH  11  12
ENDBRANCH  10  11
ENDBRANCH   9  10
ENDBRANCH   8   9
ENDBRANCH   7   8
ENDBRANCH   6   7
ENDBRANCH   5   6
ENDBRANCH   4   5
ENDBRANCH   3   4
ENDBRANCH   2   3
ENDBRANCH   1   2
BRANCH   1  17
ATOM     17  C   UNL     1      31.083   0.494  -0.403  1.00  0.00     0.000 C 
BRANCH  17  18
ATOM     18  C   UNL     1      30.062   1.465   0.210  1.00  0.00     0.000 C 
BRANCH  18  19
ATOM     19  C   UNL     1      29.633   1.055   1.628  1.00  0.00     0.000 C 
BRANCH  19  20
ATOM     20  C   UNL     1      29.375   2.265   2.539  1.00  0.00     0.000 C 
BRANCH  20  21
ATOM     21  C   UNL     1      30.430   2.348   3.651  1.00  0.00     0.000 C 
BRANCH  21  22
ATOM     22  C   UNL     1      30.808   3.796   4.012  1.00  0.00    -0.000 C 
BRANCH  22  23
ATOM     23  C   UNL     1      31.383   4.634   2.849  1.00  0.00    -0.000 C 
BRANCH  23  24
ATOM     24  C   UNL     1      30.869   6.082   2.765  1.00  0.00    -0.000 C 
BRANCH  24  25
ATOM     25  C   UNL     1      29.876   6.431   3.888  1.00  0.00    -0.000 C 
BRANCH  25  26
ATOM     26  C   UNL     1      30.475   7.401   4.920  1.00  0.00    -0.000 C 
BRANCH  26  27
ATOM     27  C   UNL     1      30.619   6.769   6.315  1.00  0.00    -0.000 C 
BRANCH  27  28
ATOM     28  C   UNL     1      30.186   7.718   7.448  1.00  0.00    -0.000 C 
BRANCH  28  29
ATOM     29  C   UNL     1      30.117   9.204   7.050  1.00  0.00    -0.003 C 
ATOM     30  C   UNL     1      28.780   9.855   7.402  1.00  0.00     0.004 C 
ENDBRANCH  28  29
ENDBRANCH  27  28
ENDBRANCH  26  27
ENDBRANCH  25  26
ENDBRANCH  24  25
ENDBRANCH  23  24
ENDBRANCH  22  23
ENDBRANCH  21  22
ENDBRANCH  20  21
ENDBRANCH  19  20
ENDBRANCH  18  19
ENDBRANCH  17  18
ENDBRANCH   1  17
TORSDOF 26
ENDMDL
MODEL 2
REMARK VINA RESULT:     1.980      2.372      7.768
REMARK INTER + INTRA:           2.849
REMARK INTER:                   2.642
REMARK INTRA:                   0.207
REMARK UNBOUND:                -2.141
REMARK SMILES CCCCCCCCCCCCCCCCCCCCCCCCCCCC(=O)[O-]
REMARK SMILES IDX 15 1 16 2 17 3 18 4 19 5 20 6 21 7 22 8 23 9 24 10 25 11
REMARK SMILES IDX 26 12 27 13 28 14 29 15 30 16 14 17 13 18 12 19 11 20 10 21
REMARK SMILES IDX 9 22 8 23 7 24 6 25 5 26 4 27 3 28 2 29 1 30
REMARK H PARENT
REMARK Flexibility Score: inf
ROOT
ATOM      1  C   UNL     1      31.080   0.876  -0.075  1.00  0.00     0.000 C 
ENDROOT
BRANCH   1   2
ATOM      2  C   UNL     1      29.823   0.814   0.819  1.00  0.00     0.000 C 
BRANCH   2   3
ATOM      3  C   UNL     1      29.593   2.124   1.588  1.00  0.00     0.000 C 
BRANCH   3   4
ATOM      4  C   UNL     1      30.141   2.030   3.017  1.00  0.00     0.000 C 
BRANCH   4   5
ATOM      5  C   UNL     1      31.058   3.220   3.332  1.00  0.00     0.000 C 
BRANCH   5   6
ATOM      6  C   UNL     1      30.386   4.578   3.066  1.00  0.00     0.000 C 
BRANCH   6   7
ATOM      7  C   UNL     1      31.343   5.719   2.660  1.00  0.00     0.000 C 
BRANCH   7   8
ATOM      8  C   UNL     1      31.154   7.050   3.416  1.00  0.00     0.000 C 
BRANCH   8   9
ATOM      9  C   UNL     1      30.295   6.954   4.698  1.00  0.00     0.000 C 
BRANCH   9  10
ATOM     10  C   UNL     1      30.769   5.870   5.686  1.00  0.00     0.000 C 
BRANCH  10  11
ATOM     11  C   UNL     1      29.940   5.759   6.979  1.00  0.00     0.000 C 
BRANCH  11  12
ATOM     12  C   UNL     1      29.306   7.078   7.467  1.00  0.00     0.006 C 
BRANCH  12  13
ATOM     13  C   UNL     1      30.282   8.262   7.547  1.00  0.00     0.053 C 
BRANCH  13  14
ATOM     14  C   UNL     1      29.645   9.545   7.110  1.00  0.00     0.041 C 
ATOM     15  O   UNL     1      30.037  10.125   6.064  1.00  0.00    -0.550 OA
ATOM     16  O   UNL     1      28.636  10.115   7.876  1.00  0.00    -0.550 OA
ENDBRANCH  13  14
ENDBRANCH  12  13
ENDBRANCH  11  12
ENDBRANCH  10  11
ENDBRANCH   9  10
ENDBRANCH   8   9
ENDBRANCH   7   8
ENDBRANCH   6   7
ENDBRANCH   5   6
ENDBRANCH   4   5
ENDBRANCH   3   4
ENDBRANCH   2   3
ENDBRANCH   1   2
BRANCH   1  17
ATOM     17  C   UNL     1      31.172  -0.271  -1.096  1.00  0.00     0.000 C 
BRANCH  17  18
ATOM     18  C   UNL     1      32.141   0.031  -2.250  1.00  0.00     0.000 C 
BRANCH  18  19
ATOM     19  C   UNL     1      31.432   0.113  -3.612  1.00  0.00     0.000 C 
BRANCH  19  20
ATOM     20  C   UNL     1      30.671   1.434  -3.803  1.00  0.00     0.000 C 
BRANCH  20  21
ATOM     21  C   UNL     1      31.539   2.630  -3.385  1.00  0.00     0.000 C 
BRANCH  21  22
ATOM     22  C   UNL     1      32.890   2.674  -4.120  1.00  0.00    -0.000 C 
BRANCH  22  23
ATOM     23  C   UNL     1      33.795   3.873  -3.760  1.00  0.00    -0.000 C 
BRANCH  23  24
ATOM     24  C   UNL     1      33.093   5.242  -3.734  1.00  0.00    -0.000 C 
BRANCH  24  25
ATOM     25  C   UNL     1      31.742   5.208  -2.999  1.00  0.00    -0.000 C 
BRANCH  25  26
ATOM     26  C   UNL     1      31.596   6.355  -1.985  1.00  0.00    -0.000 C 
BRANCH  26  27
ATOM     27  C   UNL     1      30.254   7.097  -2.117  1.00  0.00    -0.000 C 
BRANCH  27  28
ATOM     28  C   UNL     1      30.325   8.291  -3.087  1.00  0.00    -0.000 C 
BRANCH  28  29
ATOM     29  C   UNL     1      29.077   9.192  -3.089  1.00  0.00    -0.003 C 
ATOM     30  C   UNL     1      28.841   9.891  -1.751  1.00  0.00     0.004 C 
ENDBRANCH  28  29
ENDBRANCH  27  28
ENDBRANCH  26  27
ENDBRANCH  25  26
ENDBRANCH  24  25
ENDBRANCH  23  24
ENDBRANCH  22  23
ENDBRANCH  21  22
ENDBRANCH  20  21
ENDBRANCH  19  20
ENDBRANCH  18  19
ENDBRANCH  17  18
ENDBRANCH   1  17
TORSDOF 26
ENDMDL
MODEL 3
REMARK VINA RESULT:     2.249      3.477     10.029
REMARK INTER + INTRA:           3.527
REMARK INTER:                   4.804
REMARK INTRA:                  -1.277
REMARK UNBOUND:                -2.141
REMARK SMILES CCCCCCCCCCCCCCCCCCCCCCCCCCCC(=O)[O-]
REMARK SMILES IDX 15 1 16 2 17 3 18 4 19 5 20 6 21 7 22 8 23 9 24 10 25 11
REMARK SMILES IDX 26 12 27 13 28 14 29 15 30 16 14 17 13 18 12 19 11 20 10 21
REMARK SMILES IDX 9 22 8 23 7 24 6 25 5 26 4 27 3 28 2 29 1 30
REMARK H PARENT
REMARK Flexibility Score: inf
ROOT
ATOM      1  C   UNL     1      30.015   1.133   0.515  1.00  0.00     0.000 C 
ENDROOT
BRANCH   1   2
ATOM      2  C   UNL     1      30.584   1.216   1.948  1.00  0.00     0.000 C 
BRANCH   2   3
ATOM      3  C   UNL     1      30.994   2.647   2.327  1.00  0.00     0.000 C 
BRANCH   3   4
ATOM      4  C   UNL     1      30.341   3.078   3.646  1.00  0.00     0.000 C 
BRANCH   4   5
ATOM      5  C   UNL     1      31.264   4.019   4.433  1.00  0.00     0.000 C 
BRANCH   5   6
ATOM      6  C   UNL     1      30.757   5.472   4.453  1.00  0.00     0.000 C 
BRANCH   6   7
ATOM      7  C   UNL     1      31.039   6.286   3.172  1.00  0.00     0.000 C 
BRANCH   7   8
ATOM      8  C   UNL     1      29.912   6.288   2.120  1.00  0.00     0.000 C 
BRANCH   8   9
ATOM      9  C   UNL     1      30.380   6.049   0.665  1.00  0.00     0.000 C 
BRANCH   9  10
ATOM     10  C   UNL     1      30.063   7.214  -0.291  1.00  0.00     0.000 C 
BRANCH  10  11
ATOM     11  C   UNL     1      30.664   7.081  -1.703  1.00  0.00     0.000 C 
BRANCH  11  12
ATOM     12  C   UNL     1      29.868   7.783  -2.823  1.00  0.00     0.006 C 
BRANCH  12  13
ATOM     13  C   UNL     1      29.838   9.315  -2.719  1.00  0.00     0.053 C 
BRANCH  13  14
ATOM     14  C   UNL     1      28.440   9.844  -2.631  1.00  0.00     0.041 C 
ATOM     15  O   UNL     1      27.927  10.099  -1.510  1.00  0.00    -0.550 OA
ATOM     16  O   UNL     1      27.692  10.026  -3.787  1.00  0.00    -0.550 OA
ENDBRANCH  13  14
ENDBRANCH  12  13
ENDBRANCH  11  12
ENDBRANCH  10  11
ENDBRANCH   9  10
ENDBRANCH   8   9
ENDBRANCH   7   8
ENDBRANCH   6   7
ENDBRANCH   5   6
ENDBRANCH   4   5
ENDBRANCH   3   4
ENDBRANCH   2   3
ENDBRANCH   1   2
BRANCH   1  17
ATOM     17  C   UNL     1      30.958   0.448  -0.489  1.00  0.00     0.000 C 
BRANCH  17  18
ATOM     18  C   UNL     1      30.418   0.470  -1.927  1.00  0.00     0.000 C 
BRANCH  18  19
ATOM     19  C   UNL     1      31.253  -0.395  -2.886  1.00  0.00     0.000 C 
BRANCH  19  20
ATOM     20  C   UNL     1      32.736  -0.454  -2.487  1.00  0.00     0.000 C 
BRANCH  20  21
ATOM     21  C   UNL     1      33.546  -1.261  -3.512  1.00  0.00     0.000 C 
BRANCH  21  22
ATOM     22  C   UNL     1      34.785  -0.504  -4.024  1.00  0.00    -0.000 C 
BRANCH  22  23
ATOM     23  C   UNL     1      36.074  -1.347  -4.125  1.00  0.00    -0.000 C 
BRANCH  23  24
ATOM     24  C   UNL     1      36.128  -2.579  -3.204  1.00  0.00    -0.000 C 
BRANCH  24  25
ATOM     25  C   UNL     1      35.764  -3.885  -3.931  1.00  0.00    -0.000 C 
BRANCH  25  26
ATOM     26  C   UNL     1      36.948  -4.862  -4.011  1.00  0.00    -0.000 C 
BRANCH  26  27
ATOM     27  C   UNL     1      36.510  -6.335  -3.921  1.00  0.00    -0.000 C 
BRANCH  27  28
ATOM     28  C   UNL     1      36.210  -6.780  -2.478  1.00  0.00    -0.000 C 
BRANCH  28  29
ATOM     29  C   UNL     1      35.387  -8.077  -2.364  1.00  0.00    -0.003 C 
ATOM     30  C   UNL     1      36.180  -9.324  -2.753  1.00  0.00     0.004 C 
ENDBRANCH  28  29
ENDBRANCH  27  28
ENDBRANCH  26  27
ENDBRANCH  25  26
ENDBRANCH  24  25
ENDBRANCH  23  24
ENDBRANCH  22  23
ENDBRANCH  21  22
ENDBRANCH  20  21
ENDBRANCH  19  20
ENDBRANCH  18  19
ENDBRANCH  17  18
ENDBRANCH   1  17
TORSDOF 26
ENDMDL
MODEL 4
REMARK VINA RESULT:     2.461      3.085      7.854
REMARK INTER + INTRA:           4.062
REMARK INTER:                   5.393
REMARK INTRA:                  -1.331
REMARK UNBOUND:                -2.141
REMARK SMILES CCCCCCCCCCCCCCCCCCCCCCCCCCCC(=O)[O-]
REMARK SMILES IDX 15 1 16 2 17 3 18 4 19 5 20 6 21 7 22 8 23 9 24 10 25 11
REMARK SMILES IDX 26 12 27 13 28 14 29 15 30 16 14 17 13 18 12 19 11 20 10 21
REMARK SMILES IDX 9 22 8 23 7 24 6 25 5 26 4 27 3 28 2 29 1 30
REMARK H PARENT
REMARK Flexibility Score: inf
ROOT
ATOM      1  C   UNL     1      31.830   2.423  -3.697  1.00  0.00     0.000 C 
ENDROOT
BRANCH   1   2
ATOM      2  C   UNL     1      33.191   1.694  -3.663  1.00  0.00     0.000 C 
BRANCH   2   3
ATOM      3  C   UNL     1      33.077   0.232  -4.122  1.00  0.00     0.000 C 
BRANCH   3   4
ATOM      4  C   UNL     1      31.621  -0.248  -4.083  1.00  0.00     0.000 C 
BRANCH   4   5
ATOM      5  C   UNL     1      31.379  -1.168  -2.877  1.00  0.00     0.000 C 
BRANCH   5   6
ATOM      6  C   UNL     1      31.727  -0.497  -1.537  1.00  0.00     0.000 C 
BRANCH   6   7
ATOM      7  C   UNL     1      30.521   0.037  -0.735  1.00  0.00     0.000 C 
BRANCH   7   8
ATOM      8  C   UNL     1      30.841   1.128   0.306  1.00  0.00     0.000 C 
BRANCH   8   9
ATOM      9  C   UNL     1      29.999   1.057   1.601  1.00  0.00     0.000 C 
BRANCH   9  10
ATOM     10  C   UNL     1      29.520   2.431   2.110  1.00  0.00     0.000 C 
BRANCH  10  11
ATOM     11  C   UNL     1      30.617   3.314   2.733  1.00  0.00     0.000 C 
BRANCH  11  12
ATOM     12  C   UNL     1      30.250   4.804   2.886  1.00  0.00     0.006 C 
BRANCH  12  13
ATOM     13  C   UNL     1      31.456   5.754   2.955  1.00  0.00     0.053 C 
BRANCH  13  14
ATOM     14  C   UNL     1      31.280   6.810   4.001  1.00  0.00     0.041 C 
ATOM     15  O   UNL     1      30.422   6.666   4.911  1.00  0.00    -0.550 OA
ATOM     16  O   UNL     1      32.043   7.969   3.953  1.00  0.00    -0.550 OA
ENDBRANCH  13  14
ENDBRANCH  12  13
ENDBRANCH  11  12
ENDBRANCH  10  11
ENDBRANCH   9  10
ENDBRANCH   8   9
ENDBRANCH   7   8
ENDBRANCH   6   7
ENDBRANCH   5   6
ENDBRANCH   4   5
ENDBRANCH   3   4
ENDBRANCH   2   3
ENDBRANCH   1   2
BRANCH   1  17
ATOM     17  C   UNL     1      31.946   3.947  -3.871  1.00  0.00     0.000 C 
BRANCH  17  18
ATOM     18  C   UNL     1      31.953   4.703  -2.533  1.00  0.00     0.000 C 
BRANCH  18  19
ATOM     19  C   UNL     1      31.976   6.229  -2.716  1.00  0.00     0.000 C 
BRANCH  19  20
ATOM     20  C   UNL     1      30.577   6.815  -2.965  1.00  0.00     0.000 C 
BRANCH  20  21
ATOM     21  C   UNL     1      30.524   8.295  -2.561  1.00  0.00     0.000 C 
BRANCH  21  22
ATOM     22  C   UNL     1      30.700   9.249  -3.756  1.00  0.00    -0.000 C 
BRANCH  22  23
ATOM     23  C   UNL     1      29.471  10.124  -4.084  1.00  0.00    -0.000 C 
BRANCH  23  24
ATOM     24  C   UNL     1      28.177   9.747  -3.340  1.00  0.00    -0.000 C 
BRANCH  24  25
ATOM     25  C   UNL     1      26.906  10.114  -4.124  1.00  0.00    -0.000 C 
BRANCH  25  26
ATOM     26  C   UNL     1      25.651  10.125  -3.237  1.00  0.00    -0.000 C 
BRANCH  26  27
ATOM     27  C   UNL     1      24.354   9.926  -4.040  1.00  0.00    -0.000 C 
BRANCH  27  28
ATOM     28  C   UNL     1      23.138   9.622  -3.145  1.00  0.00    -0.000 C 
BRANCH  28  29
ATOM     29  C   UNL     1      21.921   9.043  -3.889  1.00  0.00    -0.003 C 
ATOM     30  C   UNL     1      20.735  10.006  -3.935  1.00  0.00     0.004 C 
ENDBRANCH  28  29
ENDBRANCH  27  28
ENDBRANCH  26  27
ENDBRANCH  25  26
ENDBRANCH  24  25
ENDBRANCH  23  24
ENDBRANCH  22  23
ENDBRANCH  21  22
ENDBRANCH  20  21
ENDBRANCH  19  20
ENDBRANCH  18  19
ENDBRANCH  17  18
ENDBRANCH   1  17
TORSDOF 26
ENDMDL
MODEL 5
REMARK VINA RESULT:     3.840      4.020     10.265
REMARK INTER + INTRA:           7.537
REMARK INTER:                   8.141
REMARK INTRA:                  -0.604
REMARK UNBOUND:                -2.141
REMARK SMILES CCCCCCCCCCCCCCCCCCCCCCCCCCCC(=O)[O-]
REMARK SMILES IDX 15 1 16 2 17 3 18 4 19 5 20 6 21 7 22 8 23 9 24 10 25 11
REMARK SMILES IDX 26 12 27 13 28 14 29 15 30 16 14 17 13 18 12 19 11 20 10 21
REMARK SMILES IDX 9 22 8 23 7 24 6 25 5 26 4 27 3 28 2 29 1 30
REMARK H PARENT
REMARK Flexibility Score: inf
ROOT
ATOM      1  C   UNL     1      30.276   1.858   0.491  1.00  0.00     0.000 C 
ENDROOT
BRANCH   1   2
ATOM      2  C   UNL     1      30.297   1.889   2.035  1.00  0.00     0.000 C 
BRANCH   2   3
ATOM      3  C   UNL     1      31.072   3.098   2.580  1.00  0.00     0.000 C 
BRANCH   3   4
ATOM      4  C   UNL     1      30.191   3.947   3.506  1.00  0.00     0.000 C 
BRANCH   4   5
ATOM      5  C   UNL     1      31.050   4.775   4.472  1.00  0.00     0.000 C 
BRANCH   5   6
ATOM      6  C   UNL     1      31.181   6.246   4.042  1.00  0.00     0.000 C 
BRANCH   6   7
ATOM      7  C   UNL     1      31.543   6.469   2.558  1.00  0.00     0.000 C 
BRANCH   7   8
ATOM      8  C   UNL     1      30.447   6.099   1.539  1.00  0.00     0.000 C 
BRANCH   8   9
ATOM      9  C   UNL     1      30.828   6.337   0.059  1.00  0.00     0.000 C 
BRANCH   9  10
ATOM     10  C   UNL     1      29.779   7.140  -0.733  1.00  0.00     0.000 C 
BRANCH  10  11
ATOM     11  C   UNL     1      30.141   7.412  -2.205  1.00  0.00     0.000 C 
BRANCH  11  12
ATOM     12  C   UNL     1      31.586   7.045  -2.603  1.00  0.00     0.006 C 
BRANCH  12  13
ATOM     13  C   UNL     1      31.693   6.093  -3.804  1.00  0.00     0.053 C 
BRANCH  13  14
ATOM     14  C   UNL     1      32.202   4.742  -3.406  1.00  0.00     0.041 C 
ATOM     15  O   UNL     1      31.458   3.941  -2.784  1.00  0.00    -0.550 OA
ATOM     16  O   UNL     1      33.512   4.381  -3.696  1.00  0.00    -0.550 OA
ENDBRANCH  13  14
ENDBRANCH  12  13
ENDBRANCH  11  12
ENDBRANCH  10  11
ENDBRANCH   9  10
ENDBRANCH   8   9
ENDBRANCH   7   8
ENDBRANCH   6   7
ENDBRANCH   5   6
ENDBRANCH   4   5
ENDBRANCH   3   4
ENDBRANCH   2   3
ENDBRANCH   1   2
BRANCH   1  17
ATOM     17  C   UNL     1      30.968   0.625  -0.114  1.00  0.00     0.000 C 
BRANCH  17  18
ATOM     18  C   UNL     1      30.695   0.463  -1.618  1.00  0.00     0.000 C 
BRANCH  18  19
ATOM     19  C   UNL     1      31.435  -0.738  -2.229  1.00  0.00     0.000 C 
BRANCH  19  20
ATOM     20  C   UNL     1      32.963  -0.577  -2.177  1.00  0.00     0.000 C 
BRANCH  20  21
ATOM     21  C   UNL     1      33.641  -1.451  -3.242  1.00  0.00     0.000 C 
BRANCH  21  22
ATOM     22  C   UNL     1      34.783  -0.724  -3.974  1.00  0.00    -0.000 C 
BRANCH  22  23
ATOM     23  C   UNL     1      36.089  -1.534  -4.121  1.00  0.00    -0.000 C 
BRANCH  23  24
ATOM     24  C   UNL     1      36.231  -2.734  -3.166  1.00  0.00    -0.000 C 
BRANCH  24  25
ATOM     25  C   UNL     1      35.843  -4.069  -3.823  1.00  0.00    -0.000 C 
BRANCH  25  26
ATOM     26  C   UNL     1      36.937  -5.138  -3.669  1.00  0.00    -0.000 C 
BRANCH  26  27
ATOM     27  C   UNL     1      36.739  -6.016  -2.420  1.00  0.00    -0.000 C 
BRANCH  27  28
ATOM     28  C   UNL     1      36.347  -7.464  -2.764  1.00  0.00    -0.000 C 
BRANCH  28  29
ATOM     29  C   UNL     1      35.712  -8.251  -1.604  1.00  0.00    -0.003 C 
ATOM     30  C   UNL     1      35.370  -9.693  -1.975  1.00  0.00     0.004 C 
ENDBRANCH  28  29
ENDBRANCH  27  28
ENDBRANCH  26  27
ENDBRANCH  25  26
ENDBRANCH  24  25
ENDBRANCH  23  24
ENDBRANCH  22  23
ENDBRANCH  21  22
ENDBRANCH  20  21
ENDBRANCH  19  20
ENDBRANCH  18  19
ENDBRANCH  17  18
ENDBRANCH   1  17
TORSDOF 26
ENDMDL
