MODEL 1
REMARK VINA RESULT:    -5.134      0.000      0.000
REMARK INTER + INTRA:          -8.929
REMARK INTER:                  -8.136
REMARK INTRA:                  -0.792
REMARK UNBOUND:                -0.792
REMARK SMILES CCCCCCCCCCCC(=O)[O-]
REMARK SMILES IDX 7 1 8 2 9 3 10 4 11 5 12 6 13 7 14 8 6 9 5 10 4 11 3 12 2 13
REMARK SMILES IDX 1 14
REMARK H PARENT
REMARK Flexibility Score: inf
ROOT
ATOM      1  C   UNL     1      16.247  -6.574  15.032  1.00  0.00     0.000 C 
ENDROOT
BRANCH   1   2
ATOM      2  C   UNL     1      15.847  -7.006  13.613  1.00  0.00     0.000 C 
BRANCH   2   3
ATOM      3  C   UNL     1      16.639  -6.265  12.524  1.00  0.00     0.000 C 
BRANCH   3   4
ATOM      4  C   UNL     1      15.781  -5.240  11.762  1.00  0.00     0.006 C 
BRANCH   4   5
ATOM      5  C   UNL     1      14.306  -5.654  11.699  1.00  0.00     0.053 C 
BRANCH   5   6
ATOM      6  C   UNL     1      13.703  -5.359  10.360  1.00  0.00     0.041 C 
ATOM      7  O   UNL     1      12.718  -4.581  10.264  1.00  0.00    -0.550 OA
ATOM      8  O   UNL     1      14.210  -5.972   9.221  1.00  0.00    -0.550 OA
ENDBRANCH   5   6
ENDBRANCH   4   5
ENDBRANCH   3   4
ENDBRANCH   2   3
ENDBRANCH   1   2
BRANCH   1   9
ATOM      9  C   UNL     1      15.066  -5.927  15.763  1.00  0.00     0.000 C 
BRANCH   9  10
ATOM     10  C   UNL     1      15.080  -4.401  15.590  1.00  0.00    -0.000 C 
BRANCH  10  11
ATOM     11  C   UNL     1      14.387  -3.660  16.747  1.00  0.00    -0.000 C 
BRANCH  11  12
ATOM     12  C   UNL     1      15.312  -2.767  17.598  1.00  0.00    -0.000 C 
BRANCH  12  13
ATOM     13  C   UNL     1      16.812  -2.901  17.285  1.00  0.00    -0.003 C 
ATOM     14  C   UNL     1      17.668  -3.070  18.539  1.00  0.00     0.004 C 
ENDBRANCH  12  13
ENDBRANCH  11  12
ENDBRANCH  10  11
ENDBRANCH   9  10
ENDBRANCH   1   9
TORSDOF 10
ENDMDL
MODEL 2
REMARK VINA RESULT:    -5.086      2.403      4.935
REMARK INTER + INTRA:          -8.851
REMARK INTER:                  -7.874
REMARK INTRA:                  -0.977
REMARK UNBOUND:                -0.792
REMARK SMILES CCCCCCCCCCCC(=O)[O-]
REMARK SMILES IDX 7 1 8 2 9 3 10 4 11 5 12 6 13 7 14 8 6 9 5 10 4 11 3 12 2 13
REMARK SMILES IDX 1 14
REMARK H PARENT
REMARK Flexibility Score: inf
ROOT
ATOM      1  C   UNL     1      15.213  -7.382  15.217  1.00  0.00     0.000 C 
ENDROOT
BRANCH   1   2
ATOM      2  C   UNL     1      14.821  -6.102  15.970  1.00  0.00     0.000 C 
BRANCH   2   3
ATOM      3  C   UNL     1      15.778  -4.933  15.689  1.00  0.00     0.000 C 
BRANCH   3   4
ATOM      4  C   UNL     1      15.192  -3.574  16.111  1.00  0.00     0.006 C 
BRANCH   4   5
ATOM      5  C   UNL     1      13.658  -3.595  16.157  1.00  0.00     0.053 C 
BRANCH   5   6
ATOM      6  C   UNL     1      13.059  -3.015  14.913  1.00  0.00     0.041 C 
ATOM      7  O   UNL     1      11.808  -2.944  14.783  1.00  0.00    -0.550 OA
ATOM      8  O   UNL     1      13.883  -2.585  13.880  1.00  0.00    -0.550 OA
ENDBRANCH   5   6
ENDBRANCH   4   5
ENDBRANCH   3   4
ENDBRANCH   2   3
ENDBRANCH   1   2
BRANCH   1   9
ATOM      9  C   UNL     1      15.355  -7.113  13.715  1.00  0.00     0.000 C 
BRANCH   9  10
ATOM     10  C   UNL     1      14.020  -6.657  13.107  1.00  0.00    -0.000 C 
BRANCH  10  11
ATOM     11  C   UNL     1      14.199  -5.667  11.943  1.00  0.00    -0.000 C 
BRANCH  11  12
ATOM     12  C   UNL     1      15.581  -4.985  11.871  1.00  0.00    -0.000 C 
BRANCH  12  13
ATOM     13  C   UNL     1      16.575  -5.634  10.892  1.00  0.00    -0.003 C 
ATOM     14  C   UNL     1      17.914  -5.975  11.544  1.00  0.00     0.004 C 
ENDBRANCH  12  13
ENDBRANCH  11  12
ENDBRANCH  10  11
ENDBRANCH   9  10
ENDBRANCH   1   9
TORSDOF 10
ENDMDL
MODEL 3
REMARK VINA RESULT:    -5.074      1.612      2.428
REMARK INTER + INTRA:          -8.832
REMARK INTER:                  -7.665
REMARK INTRA:                  -1.167
REMARK UNBOUND:                -0.792
REMARK SMILES CCCCCCCCCCCC(=O)[O-]
REMARK SMILES IDX 7 1 8 2 9 3 10 4 11 5 12 6 13 7 14 8 6 9 5 10 4 11 3 12 2 13
REMARK SMILES IDX 1 14
REMARK H PARENT
REMARK Flexibility Score: inf
ROOT
ATOM      1  C   UNL     1      14.903  -6.937  15.108  1.00  0.00     0.000 C 
ENDROOT
BRANCH   1   2
ATOM      2  C   UNL     1      15.072  -6.788  13.589  1.00  0.00     0.000 C 
BRANCH   2   3
ATOM      3  C   UNL     1      13.778  -6.341  12.891  1.00  0.00     0.000 C 
BRANCH   3   4
ATOM      4  C   UNL     1      13.914  -4.964  12.218  1.00  0.00     0.006 C 
BRANCH   4   5
ATOM      5  C   UNL     1      13.345  -4.959  10.793  1.00  0.00     0.053 C 
BRANCH   5   6
ATOM      6  C   UNL     1      14.336  -5.484   9.799  1.00  0.00     0.041 C 
ATOM      7  O   UNL     1      13.940  -6.062   8.752  1.00  0.00    -0.550 OA
ATOM      8  O   UNL     1      15.698  -5.366  10.048  1.00  0.00    -0.550 OA
ENDBRANCH   5   6
ENDBRANCH   4   5
ENDBRANCH   3   4
ENDBRANCH   2   3
ENDBRANCH   1   2
BRANCH   1   9
ATOM      9  C   UNL     1      15.964  -6.126  15.861  1.00  0.00     0.000 C 
BRANCH   9  10
ATOM     10  C   UNL     1      16.558  -5.029  14.965  1.00  0.00    -0.000 C 
BRANCH  10  11
ATOM     11  C   UNL     1      15.880  -3.662  15.165  1.00  0.00    -0.000 C 
BRANCH  11  12
ATOM     12  C   UNL     1      15.109  -3.501  16.491  1.00  0.00    -0.000 C 
BRANCH  12  13
ATOM     13  C   UNL     1      13.586  -3.692  16.384  1.00  0.00    -0.003 C 
ATOM     14  C   UNL     1      12.989  -3.030  15.144  1.00  0.00     0.004 C 
ENDBRANCH  12  13
ENDBRANCH  11  12
ENDBRANCH  10  11
ENDBRANCH   9  10
ENDBRANCH   1   9
TORSDOF 10
ENDMDL
MODEL 4
REMARK VINA RESULT:    -4.984      2.503      4.639
REMARK INTER + INTRA:          -8.689
REMARK INTER:                  -7.326
REMARK INTRA:                  -1.363
REMARK UNBOUND:                -0.792
REMARK SMILES CCCCCCCCCCCC(=O)[O-]
REMARK SMILES IDX 7 1 8 2 9 3 10 4 11 5 12 6 13 7 14 8 6 9 5 10 4 11 3 12 2 13
REMARK SMILES IDX 1 14
REMARK H PARENT
REMARK Flexibility Score: inf
ROOT
ATOM      1  C   UNL     1      16.567  -6.001  15.491  1.00  0.00     0.000 C 
ENDROOT
BRANCH   1   2
ATOM      2  C   UNL     1      15.983  -4.644  15.911  1.00  0.00     0.000 C 
BRANCH   2   3
ATOM      3  C   UNL     1      14.474  -4.712  16.195  1.00  0.00     0.000 C 
BRANCH   3   4
ATOM      4  C   UNL     1      13.768  -3.364  15.966  1.00  0.00     0.006 C 
BRANCH   4   5
ATOM      5  C   UNL     1      13.017  -3.324  14.629  1.00  0.00     0.053 C 
BRANCH   5   6
ATOM      6  C   UNL     1      13.593  -2.301  13.699  1.00  0.00     0.041 C 
ATOM      7  O   UNL     1      12.845  -1.454  13.144  1.00  0.00    -0.550 OA
ATOM      8  O   UNL     1      14.954  -2.308  13.417  1.00  0.00    -0.550 OA
ENDBRANCH   5   6
ENDBRANCH   4   5
ENDBRANCH   3   4
ENDBRANCH   2   3
ENDBRANCH   1   2
BRANCH   1   9
ATOM      9  C   UNL     1      15.469  -6.934  14.969  1.00  0.00     0.000 C 
BRANCH   9  10
ATOM     10  C   UNL     1      15.616  -7.168  13.458  1.00  0.00    -0.000 C 
BRANCH  10  11
ATOM     11  C   UNL     1      15.031  -6.022  12.615  1.00  0.00    -0.000 C 
BRANCH  11  12
ATOM     12  C   UNL     1      16.059  -5.234  11.779  1.00  0.00    -0.000 C 
BRANCH  12  13
ATOM     13  C   UNL     1      17.489  -5.802  11.804  1.00  0.00    -0.003 C 
ATOM     14  C   UNL     1      18.501  -4.839  12.421  1.00  0.00     0.004 C 
ENDBRANCH  12  13
ENDBRANCH  11  12
ENDBRANCH  10  11
ENDBRANCH   9  10
ENDBRANCH   1   9
TORSDOF 10
ENDMDL
MODEL 5
REMARK VINA RESULT:    -4.977      2.380      4.918
REMARK INTER + INTRA:          -8.679
REMARK INTER:                  -7.605
REMARK INTRA:                  -1.074
REMARK UNBOUND:                -0.792
REMARK SMILES CCCCCCCCCCCC(=O)[O-]
REMARK SMILES IDX 7 1 8 2 9 3 10 4 11 5 12 6 13 7 14 8 6 9 5 10 4 11 3 12 2 13
REMARK SMILES IDX 1 14
REMARK H PARENT
REMARK Flexibility Score: inf
ROOT
ATOM      1  C   UNL     1      15.816  -3.872  15.620  1.00  0.00     0.000 C 
ENDROOT
BRANCH   1   2
ATOM      2  C   UNL     1      14.783  -3.503  16.694  1.00  0.00     0.000 C 
BRANCH   2   3
ATOM      3  C   UNL     1      13.363  -3.357  16.124  1.00  0.00     0.000 C 
BRANCH   3   4
ATOM      4  C   UNL     1      13.342  -3.344  14.585  1.00  0.00     0.006 C 
BRANCH   4   5
ATOM      5  C   UNL     1      12.610  -2.117  14.027  1.00  0.00     0.053 C 
BRANCH   5   6
ATOM      6  C   UNL     1      13.281  -1.581  12.800  1.00  0.00     0.041 C 
ATOM      7  O   UNL     1      12.627  -1.422  11.736  1.00  0.00    -0.550 OA
ATOM      8  O   UNL     1      14.639  -1.291  12.823  1.00  0.00    -0.550 OA
ENDBRANCH   5   6
ENDBRANCH   4   5
ENDBRANCH   3   4
ENDBRANCH   2   3
ENDBRANCH   1   2
BRANCH   1   9
ATOM      9  C   UNL     1      16.432  -5.248  15.900  1.00  0.00     0.000 C 
BRANCH   9  10
ATOM     10  C   UNL     1      15.362  -6.349  15.862  1.00  0.00    -0.000 C 
BRANCH  10  11
ATOM     11  C   UNL     1      15.585  -7.362  14.725  1.00  0.00    -0.000 C 
BRANCH  11  12
ATOM     12  C   UNL     1      15.407  -6.797  13.301  1.00  0.00    -0.000 C 
BRANCH  12  13
ATOM     13  C   UNL     1      13.951  -6.510  12.894  1.00  0.00    -0.003 C 
ATOM     14  C   UNL     1      13.844  -5.656  11.632  1.00  0.00     0.004 C 
ENDBRANCH  12  13
ENDBRANCH  11  12
ENDBRANCH  10  11
ENDBRANCH   9  10
ENDBRANCH   1   9
TORSDOF 10
ENDMDL
MODEL 6
REMARK VINA RESULT:    -4.955      3.799      6.000
REMARK INTER + INTRA:          -8.644
REMARK INTER:                  -7.483
REMARK INTRA:                  -1.160
REMARK UNBOUND:                -0.792
REMARK SMILES CCCCCCCCCCCC(=O)[O-]
REMARK SMILES IDX 7 1 8 2 9 3 10 4 11 5 12 6 13 7 14 8 6 9 5 10 4 11 3 12 2 13
REMARK SMILES IDX 1 14
REMARK H PARENT
REMARK Flexibility Score: inf
ROOT
ATOM      1  C   UNL     1      15.531  -7.124  14.964  1.00  0.00     0.000 C 
ENDROOT
BRANCH   1   2
ATOM      2  C   UNL     1      16.156  -5.927  15.695  1.00  0.00     0.000 C 
BRANCH   2   3
ATOM      3  C   UNL     1      15.118  -4.861  16.081  1.00  0.00     0.000 C 
BRANCH   3   4
ATOM      4  C   UNL     1      15.676  -3.430  15.988  1.00  0.00     0.006 C 
BRANCH   4   5
ATOM      5  C   UNL     1      16.017  -2.852  17.367  1.00  0.00     0.053 C 
BRANCH   5   6
ATOM      6  C   UNL     1      17.470  -3.018  17.694  1.00  0.00     0.041 C 
ATOM      7  O   UNL     1      17.858  -2.997  18.892  1.00  0.00    -0.550 OA
ATOM      8  O   UNL     1      18.399  -3.161  16.671  1.00  0.00    -0.550 OA
ENDBRANCH   5   6
ENDBRANCH   4   5
ENDBRANCH   3   4
ENDBRANCH   2   3
ENDBRANCH   1   2
BRANCH   1   9
ATOM      9  C   UNL     1      15.956  -7.153  13.492  1.00  0.00     0.000 C 
BRANCH   9  10
ATOM     10  C   UNL     1      15.203  -6.089  12.679  1.00  0.00    -0.000 C 
BRANCH  10  11
ATOM     11  C   UNL     1      16.125  -5.283  11.747  1.00  0.00    -0.000 C 
BRANCH  11  12
ATOM     12  C   UNL     1      17.592  -5.756  11.709  1.00  0.00    -0.000 C 
BRANCH  12  13
ATOM     13  C   UNL     1      18.577  -4.880  12.503  1.00  0.00    -0.003 C 
ATOM     14  C   UNL     1      17.938  -3.600  13.036  1.00  0.00     0.004 C 
ENDBRANCH  12  13
ENDBRANCH  11  12
ENDBRANCH  10  11
ENDBRANCH   9  10
ENDBRANCH   1   9
TORSDOF 10
ENDMDL
MODEL 7
REMARK VINA RESULT:    -4.946      3.574      6.064
REMARK INTER + INTRA:          -8.630
REMARK INTER:                  -7.318
REMARK INTRA:                  -1.312
REMARK UNBOUND:                -0.792
REMARK SMILES CCCCCCCCCCCC(=O)[O-]
REMARK SMILES IDX 7 1 8 2 9 3 10 4 11 5 12 6 13 7 14 8 6 9 5 10 4 11 3 12 2 13
REMARK SMILES IDX 1 14
REMARK H PARENT
REMARK Flexibility Score: inf
ROOT
ATOM      1  C   UNL     1      13.886  -3.178  12.557  1.00  0.00     0.000 C 
ENDROOT
BRANCH   1   2
ATOM      2  C   UNL     1      14.165  -2.642  13.969  1.00  0.00     0.000 C 
BRANCH   2   3
ATOM      3  C   UNL     1      13.235  -3.254  15.029  1.00  0.00     0.000 C 
BRANCH   3   4
ATOM      4  C   UNL     1      13.981  -3.642  16.318  1.00  0.00     0.006 C 
BRANCH   4   5
ATOM      5  C   UNL     1      15.491  -3.786  16.090  1.00  0.00     0.053 C 
BRANCH   5   6
ATOM      6  C   UNL     1      16.281  -3.181  17.210  1.00  0.00     0.041 C 
ATOM      7  O   UNL     1      15.781  -2.270  17.920  1.00  0.00    -0.550 OA
ATOM      8  O   UNL     1      17.585  -3.601  17.445  1.00  0.00    -0.550 OA
ENDBRANCH   5   6
ENDBRANCH   4   5
ENDBRANCH   3   4
ENDBRANCH   2   3
ENDBRANCH   1   2
BRANCH   1   9
ATOM      9  C   UNL     1      13.027  -4.446  12.611  1.00  0.00     0.000 C 
BRANCH   9  10
ATOM     10  C   UNL     1      13.799  -5.658  12.070  1.00  0.00    -0.000 C 
BRANCH  10  11
ATOM     11  C   UNL     1      14.312  -6.587  13.185  1.00  0.00    -0.000 C 
BRANCH  11  12
ATOM     12  C   UNL     1      15.847  -6.671  13.312  1.00  0.00    -0.000 C 
BRANCH  12  13
ATOM     13  C   UNL     1      16.619  -5.540  12.611  1.00  0.00    -0.003 C 
ATOM     14  C   UNL     1      17.423  -6.026  11.407  1.00  0.00     0.004 C 
ENDBRANCH  12  13
ENDBRANCH  11  12
ENDBRANCH  10  11
ENDBRANCH   9  10
ENDBRANCH   1   9
TORSDOF 10
ENDMDL
MODEL 8
REMARK VINA RESULT:    -4.945      2.712      4.268
REMARK INTER + INTRA:          -8.628
REMARK INTER:                  -7.221
REMARK INTRA:                  -1.407
REMARK UNBOUND:                -0.792
REMARK SMILES CCCCCCCCCCCC(=O)[O-]
REMARK SMILES IDX 7 1 8 2 9 3 10 4 11 5 12 6 13 7 14 8 6 9 5 10 4 11 3 12 2 13
REMARK SMILES IDX 1 14
REMARK H PARENT
REMARK Flexibility Score: inf
ROOT
ATOM      1  C   UNL     1      13.077  -4.698  10.634  1.00  0.00     0.000 C 
ENDROOT
BRANCH   1   2
ATOM      2  C   UNL     1      14.165  -5.691  11.066  1.00  0.00     0.000 C 
BRANCH   2   3
ATOM      3  C   UNL     1      14.155  -5.959  12.580  1.00  0.00     0.000 C 
BRANCH   3   4
ATOM      4  C   UNL     1      15.553  -5.837  13.212  1.00  0.00     0.006 C 
BRANCH   4   5
ATOM      5  C   UNL     1      16.369  -4.695  12.594  1.00  0.00     0.053 C 
BRANCH   5   6
ATOM      6  C   UNL     1      17.711  -5.164  12.122  1.00  0.00     0.041 C 
ATOM      7  O   UNL     1      17.800  -6.126  11.315  1.00  0.00    -0.550 OA
ATOM      8  O   UNL     1      18.866  -4.560  12.604  1.00  0.00    -0.550 OA
ENDBRANCH   5   6
ENDBRANCH   4   5
ENDBRANCH   3   4
ENDBRANCH   2   3
ENDBRANCH   1   2
BRANCH   1   9
ATOM      9  C   UNL     1      12.433  -4.024  11.850  1.00  0.00     0.000 C 
BRANCH   9  10
ATOM     10  C   UNL     1      12.686  -2.509  11.840  1.00  0.00    -0.000 C 
BRANCH  10  11
ATOM     11  C   UNL     1      13.324  -1.999  13.144  1.00  0.00    -0.000 C 
BRANCH  11  12
ATOM     12  C   UNL     1      12.951  -2.796  14.410  1.00  0.00    -0.000 C 
BRANCH  12  13
ATOM     13  C   UNL     1      14.141  -3.191  15.303  1.00  0.00    -0.003 C 
ATOM     14  C   UNL     1      13.709  -3.739  16.661  1.00  0.00     0.004 C 
ENDBRANCH  12  13
ENDBRANCH  11  12
ENDBRANCH  10  11
ENDBRANCH   9  10
ENDBRANCH   1   9
TORSDOF 10
ENDMDL
MODEL 9
REMARK VINA RESULT:    -4.940      2.790      3.862
REMARK INTER + INTRA:          -8.620
REMARK INTER:                  -7.140
REMARK INTRA:                  -1.480
REMARK UNBOUND:                -0.792
REMARK SMILES CCCCCCCCCCCC(=O)[O-]
REMARK SMILES IDX 7 1 8 2 9 3 10 4 11 5 12 6 13 7 14 8 6 9 5 10 4 11 3 12 2 13
REMARK SMILES IDX 1 14
REMARK H PARENT
REMARK Flexibility Score: inf
ROOT
ATOM      1  C   UNL     1      14.083  -6.468  12.565  1.00  0.00     0.000 C 
ENDROOT
BRANCH   1   2
ATOM      2  C   UNL     1      13.740  -5.099  11.959  1.00  0.00     0.000 C 
BRANCH   2   3
ATOM      3  C   UNL     1      13.101  -4.143  12.979  1.00  0.00     0.000 C 
BRANCH   3   4
ATOM      4  C   UNL     1      13.607  -2.697  12.833  1.00  0.00     0.006 C 
BRANCH   4   5
ATOM      5  C   UNL     1      15.128  -2.634  12.643  1.00  0.00     0.053 C 
BRANCH   5   6
ATOM      6  C   UNL     1      15.597  -1.234  12.390  1.00  0.00     0.041 C 
ATOM      7  O   UNL     1      14.886  -0.435  11.727  1.00  0.00    -0.550 OA
ATOM      8  O   UNL     1      16.839  -0.823  12.860  1.00  0.00    -0.550 OA
ENDBRANCH   5   6
ENDBRANCH   4   5
ENDBRANCH   3   4
ENDBRANCH   2   3
ENDBRANCH   1   2
BRANCH   1   9
ATOM      9  C   UNL     1      15.289  -6.366  13.506  1.00  0.00     0.000 C 
BRANCH   9  10
ATOM     10  C   UNL     1      14.990  -7.027  14.859  1.00  0.00    -0.000 C 
BRANCH  10  11
ATOM     11  C   UNL     1      15.077  -6.042  16.039  1.00  0.00    -0.000 C 
BRANCH  11  12
ATOM     12  C   UNL     1      15.786  -4.709  15.727  1.00  0.00    -0.000 C 
BRANCH  12  13
ATOM     13  C   UNL     1      15.121  -3.462  16.336  1.00  0.00    -0.003 C 
ATOM     14  C   UNL     1      13.622  -3.642  16.571  1.00  0.00     0.004 C 
ENDBRANCH  12  13
ENDBRANCH  11  12
ENDBRANCH  10  11
ENDBRANCH   9  10
ENDBRANCH   1   9
TORSDOF 10
ENDMDL
