MODEL 1
REMARK VINA RESULT:     3.921      0.000      0.000
REMARK INTER + INTRA:           8.000
REMARK INTER:                   9.881
REMARK INTRA:                  -1.881
REMARK UNBOUND:                -1.881
REMARK SMILES CCCCCCCCCCCCCCCCCCCCCCCCCCCC(=O)[O-]
REMARK SMILES IDX 15 1 16 2 17 3 18 4 19 5 20 6 21 7 22 8 23 9 24 10 25 11
REMARK SMILES IDX 26 12 27 13 28 14 29 15 30 16 14 17 13 18 12 19 11 20 10 21
REMARK SMILES IDX 9 22 8 23 7 24 6 25 5 26 4 27 3 28 2 29 1 30
REMARK H PARENT
REMARK Flexibility Score: inf
ROOT
ATOM      1  C   UNL     1     103.493 104.009 102.557  1.00  0.00     0.000 C 
ENDROOT
BRANCH   1   2
ATOM      2  C   UNL     1     104.803 104.806 102.517  1.00  0.00     0.000 C 
BRANCH   2   3
ATOM      3  C   UNL     1     104.587 106.324 102.645  1.00  0.00     0.000 C 
BRANCH   3   4
ATOM      4  C   UNL     1     104.331 107.000 101.281  1.00  0.00     0.000 C 
BRANCH   4   5
ATOM      5  C   UNL     1     104.674 106.113 100.067  1.00  0.00     0.000 C 
BRANCH   5   6
ATOM      6  C   UNL     1     104.591 106.814  98.698  1.00  0.00     0.000 C 
BRANCH   6   7
ATOM      7  C   UNL     1     104.320 105.879  97.503  1.00  0.00     0.000 C 
BRANCH   7   8
ATOM      8  C   UNL     1     104.991 104.495  97.594  1.00  0.00     0.000 C 
BRANCH   8   9
ATOM      9  C   UNL     1     104.058 103.296  97.320  1.00  0.00     0.000 C 
BRANCH   9  10
ATOM     10  C   UNL     1     102.714 103.326  98.075  1.00  0.00     0.000 C 
BRANCH  10  11
ATOM     11  C   UNL     1     101.466 103.136  97.191  1.00  0.00     0.000 C 
BRANCH  11  12
ATOM     12  C   UNL     1     100.220 103.901  97.691  1.00  0.00     0.006 C 
BRANCH  12  13
ATOM     13  C   UNL     1      99.095 104.012  96.648  1.00  0.00     0.053 C 
BRANCH  13  14
ATOM     14  C   UNL     1      97.779 104.378  97.268  1.00  0.00     0.041 C 
ATOM     15  O   UNL     1      96.868 103.512  97.377  1.00  0.00    -0.550 OA
ATOM     16  O   UNL     1      97.563 105.665  97.748  1.00  0.00    -0.550 OA
ENDBRANCH  13  14
ENDBRANCH  12  13
ENDBRANCH  11  12
ENDBRANCH  10  11
ENDBRANCH   9  10
ENDBRANCH   8   9
ENDBRANCH   7   8
ENDBRANCH   6   7
ENDBRANCH   5   6
ENDBRANCH   4   5
ENDBRANCH   3   4
ENDBRANCH   2   3
ENDBRANCH   1   2
BRANCH   1  17
ATOM     17  C   UNL     1     103.697 102.516 102.245  1.00  0.00     0.000 C 
BRANCH  17  18
ATOM     18  C   UNL     1     103.307 101.600 103.419  1.00  0.00     0.000 C 
BRANCH  18  19
ATOM     19  C   UNL     1     103.144 102.341 104.765  1.00  0.00     0.000 C 
BRANCH  19  20
ATOM     20  C   UNL     1     103.503 101.504 106.012  1.00  0.00     0.000 C 
BRANCH  20  21
ATOM     21  C   UNL     1     103.669 102.300 107.325  1.00  0.00     0.000 C 
BRANCH  21  22
ATOM     22  C   UNL     1     103.419 103.815 107.211  1.00  0.00    -0.000 C 
BRANCH  22  23
ATOM     23  C   UNL     1     104.720 104.631 107.222  1.00  0.00    -0.000 C 
BRANCH  23  24
ATOM     24  C   UNL     1     104.432 106.130 107.364  1.00  0.00    -0.000 C 
BRANCH  24  25
ATOM     25  C   UNL     1     104.585 106.577 108.826  1.00  0.00    -0.000 C 
BRANCH  25  26
ATOM     26  C   UNL     1     104.698 105.398 109.805  1.00  0.00    -0.000 C 
BRANCH  26  27
ATOM     27  C   UNL     1     104.569 105.838 111.273  1.00  0.00    -0.000 C 
BRANCH  27  28
ATOM     28  C   UNL     1     104.114 104.696 112.201  1.00  0.00    -0.000 C 
BRANCH  28  29
ATOM     29  C   UNL     1     103.563 103.454 111.476  1.00  0.00    -0.003 C 
ATOM     30  C   UNL     1     103.529 102.209 112.362  1.00  0.00     0.004 C 
ENDBRANCH  28  29
ENDBRANCH  27  28
ENDBRANCH  26  27
ENDBRANCH  25  26
ENDBRANCH  24  25
ENDBRANCH  23  24
ENDBRANCH  22  23
ENDBRANCH  21  22
ENDBRANCH  20  21
ENDBRANCH  19  20
ENDBRANCH  18  19
ENDBRANCH  17  18
ENDBRANCH   1  17
TORSDOF 26
ENDMDL
MODEL 2
REMARK VINA RESULT:     3.982      2.102      3.765
REMARK INTER + INTRA:           8.154
REMARK INTER:                   9.707
REMARK INTRA:                  -1.552
REMARK UNBOUND:                -1.881
REMARK SMILES CCCCCCCCCCCCCCCCCCCCCCCCCCCC(=O)[O-]
REMARK SMILES IDX 15 1 16 2 17 3 18 4 19 5 20 6 21 7 22 8 23 9 24 10 25 11
REMARK SMILES IDX 26 12 27 13 28 14 29 15 30 16 14 17 13 18 12 19 11 20 10 21
REMARK SMILES IDX 9 22 8 23 7 24 6 25 5 26 4 27 3 28 2 29 1 30
REMARK H PARENT
REMARK Flexibility Score: inf
ROOT
ATOM      1  C   UNL     1     103.550 102.103 104.615  1.00  0.00     0.000 C 
ENDROOT
BRANCH   1   2
ATOM      2  C   UNL     1     103.624 101.440 103.233  1.00  0.00     0.000 C 
BRANCH   2   3
ATOM      3  C   UNL     1     102.843 102.211 102.154  1.00  0.00     0.000 C 
BRANCH   3   4
ATOM      4  C   UNL     1     103.083 103.734 102.227  1.00  0.00     0.000 C 
BRANCH   4   5
ATOM      5  C   UNL     1     104.569 104.139 102.147  1.00  0.00     0.000 C 
BRANCH   5   6
ATOM      6  C   UNL     1     104.959 105.375 102.979  1.00  0.00     0.000 C 
BRANCH   6   7
ATOM      7  C   UNL     1     104.296 106.694 102.537  1.00  0.00     0.000 C 
BRANCH   7   8
ATOM      8  C   UNL     1     104.774 107.239 101.178  1.00  0.00     0.000 C 
BRANCH   8   9
ATOM      9  C   UNL     1     104.532 106.303  99.975  1.00  0.00     0.000 C 
BRANCH   9  10
ATOM     10  C   UNL     1     104.491 106.999  98.600  1.00  0.00     0.000 C 
BRANCH  10  11
ATOM     11  C   UNL     1     104.630 106.056  97.389  1.00  0.00     0.000 C 
BRANCH  11  12
ATOM     12  C   UNL     1     105.002 104.603  97.763  1.00  0.00     0.006 C 
BRANCH  12  13
ATOM     13  C   UNL     1     104.324 103.539  96.884  1.00  0.00     0.053 C 
BRANCH  13  14
ATOM     14  C   UNL     1     103.331 102.716  97.652  1.00  0.00     0.041 C 
ATOM     15  O   UNL     1     103.636 101.555  98.037  1.00  0.00    -0.550 OA
ATOM     16  O   UNL     1     102.081 103.237  97.963  1.00  0.00    -0.550 OA
ENDBRANCH  13  14
ENDBRANCH  12  13
ENDBRANCH  11  12
ENDBRANCH  10  11
ENDBRANCH   9  10
ENDBRANCH   8   9
ENDBRANCH   7   8
ENDBRANCH   6   7
ENDBRANCH   5   6
ENDBRANCH   4   5
ENDBRANCH   3   4
ENDBRANCH   2   3
ENDBRANCH   1   2
BRANCH   1  17
ATOM     17  C   UNL     1     103.222 101.103 105.736  1.00  0.00     0.000 C 
BRANCH  17  18
ATOM     18  C   UNL     1     103.945 101.422 107.056  1.00  0.00     0.000 C 
BRANCH  18  19
ATOM     19  C   UNL     1     103.208 102.451 107.941  1.00  0.00     0.000 C 
BRANCH  19  20
ATOM     20  C   UNL     1     103.144 103.880 107.358  1.00  0.00     0.000 C 
BRANCH  20  21
ATOM     21  C   UNL     1     104.495 104.621 107.256  1.00  0.00     0.000 C 
BRANCH  21  22
ATOM     22  C   UNL     1     104.395 106.134 106.986  1.00  0.00    -0.000 C 
BRANCH  22  23
ATOM     23  C   UNL     1     104.762 106.978 108.215  1.00  0.00    -0.000 C 
BRANCH  23  24
ATOM     24  C   UNL     1     104.670 106.152 109.502  1.00  0.00    -0.000 C 
BRANCH  24  25
ATOM     25  C   UNL     1     104.461 107.064 110.721  1.00  0.00    -0.000 C 
BRANCH  25  26
ATOM     26  C   UNL     1     104.640 106.328 112.059  1.00  0.00    -0.000 C 
BRANCH  26  27
ATOM     27  C   UNL     1     104.815 104.811 111.875  1.00  0.00    -0.000 C 
BRANCH  27  28
ATOM     28  C   UNL     1     103.595 104.006 112.360  1.00  0.00    -0.000 C 
BRANCH  28  29
ATOM     29  C   UNL     1     103.211 102.812 111.467  1.00  0.00    -0.003 C 
ATOM     30  C   UNL     1     103.591 101.463 112.075  1.00  0.00     0.004 C 
ENDBRANCH  28  29
ENDBRANCH  27  28
ENDBRANCH  26  27
ENDBRANCH  25  26
ENDBRANCH  24  25
ENDBRANCH  23  24
ENDBRANCH  22  23
ENDBRANCH  21  22
ENDBRANCH  20  21
ENDBRANCH  19  20
ENDBRANCH  18  19
ENDBRANCH  17  18
ENDBRANCH   1  17
TORSDOF 26
ENDMDL
MODEL 3
REMARK VINA RESULT:     4.007      2.805      4.648
REMARK INTER + INTRA:           8.216
REMARK INTER:                   9.606
REMARK INTRA:                  -1.390
REMARK UNBOUND:                -1.881
REMARK SMILES CCCCCCCCCCCCCCCCCCCCCCCCCCCC(=O)[O-]
REMARK SMILES IDX 15 1 16 2 17 3 18 4 19 5 20 6 21 7 22 8 23 9 24 10 25 11
REMARK SMILES IDX 26 12 27 13 28 14 29 15 30 16 14 17 13 18 12 19 11 20 10 21
REMARK SMILES IDX 9 22 8 23 7 24 6 25 5 26 4 27 3 28 2 29 1 30
REMARK H PARENT
REMARK Flexibility Score: inf
ROOT
ATOM      1  C   UNL     1     104.305 106.419 107.224  1.00  0.00     0.000 C 
ENDROOT
BRANCH   1   2
ATOM      2  C   UNL     1     104.711 107.040 105.881  1.00  0.00     0.000 C 
BRANCH   2   3
ATOM      3  C   UNL     1     104.697 106.029 104.722  1.00  0.00     0.000 C 
BRANCH   3   4
ATOM      4  C   UNL     1     104.575 106.713 103.344  1.00  0.00     0.000 C 
BRANCH   4   5
ATOM      5  C   UNL     1     104.160 105.759 102.205  1.00  0.00     0.000 C 
BRANCH   5   6
ATOM      6  C   UNL     1     104.480 104.272 102.444  1.00  0.00     0.000 C 
BRANCH   6   7
ATOM      7  C   UNL     1     103.252 103.369 102.667  1.00  0.00     0.000 C 
BRANCH   7   8
ATOM      8  C   UNL     1     103.516 101.860 102.508  1.00  0.00     0.000 C 
BRANCH   8   9
ATOM      9  C   UNL     1     103.542 101.350 101.052  1.00  0.00     0.000 C 
BRANCH   9  10
ATOM     10  C   UNL     1     103.218 102.410  99.980  1.00  0.00     0.000 C 
BRANCH  10  11
ATOM     11  C   UNL     1     103.370 101.931  98.523  1.00  0.00     0.000 C 
BRANCH  11  12
ATOM     12  C   UNL     1     104.056 102.956  97.593  1.00  0.00     0.006 C 
BRANCH  12  13
ATOM     13  C   UNL     1     103.477 104.377  97.694  1.00  0.00     0.053 C 
BRANCH  13  14
ATOM     14  C   UNL     1     104.549 105.425  97.748  1.00  0.00     0.041 C 
ATOM     15  O   UNL     1     105.764 105.091  97.695  1.00  0.00    -0.550 OA
ATOM     16  O   UNL     1     104.211 106.771  97.832  1.00  0.00    -0.550 OA
ENDBRANCH  13  14
ENDBRANCH  12  13
ENDBRANCH  11  12
ENDBRANCH  10  11
ENDBRANCH   9  10
ENDBRANCH   8   9
ENDBRANCH   7   8
ENDBRANCH   6   7
ENDBRANCH   5   6
ENDBRANCH   4   5
ENDBRANCH   3   4
ENDBRANCH   2   3
ENDBRANCH   1   2
BRANCH   1  17
ATOM     17  C   UNL     1     105.015 105.083 107.500  1.00  0.00     0.000 C 
BRANCH  17  18
ATOM     18  C   UNL     1     104.470 103.926 106.644  1.00  0.00     0.000 C 
BRANCH  18  19
ATOM     19  C   UNL     1     103.216 103.245 107.237  1.00  0.00     0.000 C 
BRANCH  19  20
ATOM     20  C   UNL     1     103.415 101.770 107.650  1.00  0.00     0.000 C 
BRANCH  20  21
ATOM     21  C   UNL     1     103.314 101.480 109.164  1.00  0.00     0.000 C 
BRANCH  21  22
ATOM     22  C   UNL     1     103.279 102.725 110.069  1.00  0.00    -0.000 C 
BRANCH  22  23
ATOM     23  C   UNL     1     103.311 102.369 111.563  1.00  0.00    -0.000 C 
BRANCH  23  24
ATOM     24  C   UNL     1     103.513 103.620 112.426  1.00  0.00    -0.000 C 
BRANCH  24  25
ATOM     25  C   UNL     1     104.199 104.734 111.618  1.00  0.00    -0.000 C 
BRANCH  25  26
ATOM     26  C   UNL     1     105.611 105.061 112.127  1.00  0.00    -0.000 C 
BRANCH  26  27
ATOM     27  C   UNL     1     106.706 104.316 111.345  1.00  0.00    -0.000 C 
BRANCH  27  28
ATOM     28  C   UNL     1     108.120 104.587 111.892  1.00  0.00    -0.000 C 
BRANCH  28  29
ATOM     29  C   UNL     1     109.189 103.569 111.454  1.00  0.00    -0.003 C 
ATOM     30  C   UNL     1     110.609 104.131 111.508  1.00  0.00     0.004 C 
ENDBRANCH  28  29
ENDBRANCH  27  28
ENDBRANCH  26  27
ENDBRANCH  25  26
ENDBRANCH  24  25
ENDBRANCH  23  24
ENDBRANCH  22  23
ENDBRANCH  21  22
ENDBRANCH  20  21
ENDBRANCH  19  20
ENDBRANCH  18  19
ENDBRANCH  17  18
ENDBRANCH   1  17
TORSDOF 26
ENDMDL
MODEL 4
REMARK VINA RESULT:     4.056      4.224     11.054
REMARK INTER + INTRA:           8.340
REMARK INTER:                  10.207
REMARK INTRA:                  -1.867
REMARK UNBOUND:                -1.881
REMARK SMILES CCCCCCCCCCCCCCCCCCCCCCCCCCCC(=O)[O-]
REMARK SMILES IDX 15 1 16 2 17 3 18 4 19 5 20 6 21 7 22 8 23 9 24 10 25 11
REMARK SMILES IDX 26 12 27 13 28 14 29 15 30 16 14 17 13 18 12 19 11 20 10 21
REMARK SMILES IDX 9 22 8 23 7 24 6 25 5 26 4 27 3 28 2 29 1 30
REMARK H PARENT
REMARK Flexibility Score: inf
ROOT
ATOM      1  C   UNL     1     104.667 106.978 103.539  1.00  0.00     0.000 C 
ENDROOT
BRANCH   1   2
ATOM      2  C   UNL     1     104.697 106.094 104.793  1.00  0.00     0.000 C 
BRANCH   2   3
ATOM      3  C   UNL     1     104.712 106.905 106.099  1.00  0.00     0.000 C 
BRANCH   3   4
ATOM      4  C   UNL     1     104.314 106.056 107.326  1.00  0.00     0.000 C 
BRANCH   4   5
ATOM      5  C   UNL     1     104.482 104.537 107.117  1.00  0.00     0.000 C 
BRANCH   5   6
ATOM      6  C   UNL     1     103.169 103.738 107.019  1.00  0.00     0.000 C 
BRANCH   6   7
ATOM      7  C   UNL     1     103.344 102.223 106.793  1.00  0.00     0.000 C 
BRANCH   7   8
ATOM      8  C   UNL     1     103.439 101.381 108.080  1.00  0.00     0.000 C 
BRANCH   8   9
ATOM      9  C   UNL     1     103.261 102.170 109.393  1.00  0.00     0.000 C 
BRANCH   9  10
ATOM     10  C   UNL     1     103.205 101.312 110.672  1.00  0.00     0.000 C 
BRANCH  10  11
ATOM     11  C   UNL     1     103.694 102.017 111.952  1.00  0.00     0.000 C 
BRANCH  11  12
ATOM     12  C   UNL     1     103.401 103.534 111.985  1.00  0.00     0.006 C 
BRANCH  12  13
ATOM     13  C   UNL     1     104.604 104.393 112.408  1.00  0.00     0.053 C 
BRANCH  13  14
ATOM     14  C   UNL     1     104.566 105.764 111.798  1.00  0.00     0.041 C 
ATOM     15  O   UNL     1     104.630 105.901 110.546  1.00  0.00    -0.550 OA
ATOM     16  O   UNL     1     104.436 106.888 112.606  1.00  0.00    -0.550 OA
ENDBRANCH  13  14
ENDBRANCH  12  13
ENDBRANCH  11  12
ENDBRANCH  10  11
ENDBRANCH   9  10
ENDBRANCH   8   9
ENDBRANCH   7   8
ENDBRANCH   6   7
ENDBRANCH   5   6
ENDBRANCH   4   5
ENDBRANCH   3   4
ENDBRANCH   2   3
ENDBRANCH   1   2
BRANCH   1  17
ATOM     17  C   UNL     1     104.326 106.188 102.264  1.00  0.00     0.000 C 
BRANCH  17  18
ATOM     18  C   UNL     1     104.567 104.676 102.412  1.00  0.00     0.000 C 
BRANCH  18  19
ATOM     19  C   UNL     1     103.282 103.858 102.666  1.00  0.00     0.000 C 
BRANCH  19  20
ATOM     20  C   UNL     1     103.518 102.432 103.212  1.00  0.00     0.000 C 
BRANCH  20  21
ATOM     21  C   UNL     1     103.957 101.382 102.167  1.00  0.00     0.000 C 
BRANCH  21  22
ATOM     22  C   UNL     1     102.990 101.187 100.985  1.00  0.00    -0.000 C 
BRANCH  22  23
ATOM     23  C   UNL     1     103.315 102.107  99.799  1.00  0.00    -0.000 C 
BRANCH  23  24
ATOM     24  C   UNL     1     103.688 101.294  98.554  1.00  0.00    -0.000 C 
BRANCH  24  25
ATOM     25  C   UNL     1     103.334 102.068  97.273  1.00  0.00    -0.000 C 
BRANCH  25  26
ATOM     26  C   UNL     1     103.139 103.572  97.517  1.00  0.00    -0.000 C 
BRANCH  26  27
ATOM     27  C   UNL     1     104.392 104.392  97.166  1.00  0.00    -0.000 C 
BRANCH  27  28
ATOM     28  C   UNL     1     104.743 105.437  98.241  1.00  0.00    -0.000 C 
BRANCH  28  29
ATOM     29  C   UNL     1     104.190 106.849  97.977  1.00  0.00    -0.003 C 
ATOM     30  C   UNL     1     105.165 107.740  97.208  1.00  0.00     0.004 C 
ENDBRANCH  28  29
ENDBRANCH  27  28
ENDBRANCH  26  27
ENDBRANCH  25  26
ENDBRANCH  24  25
ENDBRANCH  23  24
ENDBRANCH  22  23
ENDBRANCH  21  22
ENDBRANCH  20  21
ENDBRANCH  19  20
ENDBRANCH  18  19
ENDBRANCH  17  18
ENDBRANCH   1  17
TORSDOF 26
ENDMDL
MODEL 5
REMARK VINA RESULT:     4.240      3.934      5.729
REMARK INTER + INTRA:           8.803
REMARK INTER:                  10.798
REMARK INTRA:                  -1.995
REMARK UNBOUND:                -1.881
REMARK SMILES CCCCCCCCCCCCCCCCCCCCCCCCCCCC(=O)[O-]
REMARK SMILES IDX 15 1 16 2 17 3 18 4 19 5 20 6 21 7 22 8 23 9 24 10 25 11
REMARK SMILES IDX 26 12 27 13 28 14 29 15 30 16 14 17 13 18 12 19 11 20 10 21
REMARK SMILES IDX 9 22 8 23 7 24 6 25 5 26 4 27 3 28 2 29 1 30
REMARK H PARENT
REMARK Flexibility Score: inf
ROOT
ATOM      1  C   UNL     1     104.425 106.570 103.141  1.00  0.00     0.000 C 
ENDROOT
BRANCH   1   2
ATOM      2  C   UNL     1     104.257 105.502 102.052  1.00  0.00     0.000 C 
BRANCH   2   3
ATOM      3  C   UNL     1     104.693 104.101 102.511  1.00  0.00     0.000 C 
BRANCH   3   4
ATOM      4  C   UNL     1     103.519 103.100 102.548  1.00  0.00     0.000 C 
BRANCH   4   5
ATOM      5  C   UNL     1     103.395 102.230 101.280  1.00  0.00     0.000 C 
BRANCH   5   6
ATOM      6  C   UNL     1     103.231 103.010  99.962  1.00  0.00     0.000 C 
BRANCH   6   7
ATOM      7  C   UNL     1     103.479 102.186  98.683  1.00  0.00     0.000 C 
BRANCH   7   8
ATOM      8  C   UNL     1     103.703 103.019  97.406  1.00  0.00     0.000 C 
BRANCH   8   9
ATOM      9  C   UNL     1     103.653 104.548  97.606  1.00  0.00     0.000 C 
BRANCH   9  10
ATOM     10  C   UNL     1     104.995 105.279  97.405  1.00  0.00     0.000 C 
BRANCH  10  11
ATOM     11  C   UNL     1     106.214 104.594  98.054  1.00  0.00     0.000 C 
BRANCH  11  12
ATOM     12  C   UNL     1     107.562 104.940  97.381  1.00  0.00     0.006 C 
BRANCH  12  13
ATOM     13  C   UNL     1     108.407 103.711  97.009  1.00  0.00     0.053 C 
BRANCH  13  14
ATOM     14  C   UNL     1     109.848 103.873  97.397  1.00  0.00     0.041 C 
ATOM     15  O   UNL     1     110.447 102.944  98.004  1.00  0.00    -0.550 OA
ATOM     16  O   UNL     1     110.536 105.035  97.069  1.00  0.00    -0.550 OA
ENDBRANCH  13  14
ENDBRANCH  12  13
ENDBRANCH  11  12
ENDBRANCH  10  11
ENDBRANCH   9  10
ENDBRANCH   8   9
ENDBRANCH   7   8
ENDBRANCH   6   7
ENDBRANCH   5   6
ENDBRANCH   4   5
ENDBRANCH   3   4
ENDBRANCH   2   3
ENDBRANCH   1   2
BRANCH   1  17
ATOM     17  C   UNL     1     104.581 105.964 104.546  1.00  0.00     0.000 C 
BRANCH  17  18
ATOM     18  C   UNL     1     104.705 107.031 105.649  1.00  0.00     0.000 C 
BRANCH  18  19
ATOM     19  C   UNL     1     104.346 106.517 107.061  1.00  0.00     0.000 C 
BRANCH  19  20
ATOM     20  C   UNL     1     104.656 105.024 107.305  1.00  0.00     0.000 C 
BRANCH  20  21
ATOM     21  C   UNL     1     103.427 104.094 107.408  1.00  0.00     0.000 C 
BRANCH  21  22
ATOM     22  C   UNL     1     103.669 102.636 106.976  1.00  0.00    -0.000 C 
BRANCH  22  23
ATOM     23  C   UNL     1     103.272 101.625 108.062  1.00  0.00    -0.000 C 
BRANCH  23  24
ATOM     24  C   UNL     1     103.367 102.247 109.459  1.00  0.00    -0.000 C 
BRANCH  24  25
ATOM     25  C   UNL     1     103.499 101.155 110.533  1.00  0.00    -0.000 C 
BRANCH  25  26
ATOM     26  C   UNL     1     103.414 101.710 111.964  1.00  0.00    -0.000 C 
BRANCH  26  27
ATOM     27  C   UNL     1     103.085 103.212 111.994  1.00  0.00    -0.000 C 
BRANCH  27  28
ATOM     28  C   UNL     1     104.278 104.075 112.447  1.00  0.00    -0.000 C 
BRANCH  28  29
ATOM     29  C   UNL     1     104.706 105.164 111.445  1.00  0.00    -0.003 C 
ATOM     30  C   UNL     1     104.370 106.578 111.918  1.00  0.00     0.004 C 
ENDBRANCH  28  29
ENDBRANCH  27  28
ENDBRANCH  26  27
ENDBRANCH  25  26
ENDBRANCH  24  25
ENDBRANCH  23  24
ENDBRANCH  22  23
ENDBRANCH  21  22
ENDBRANCH  20  21
ENDBRANCH  19  20
ENDBRANCH  18  19
ENDBRANCH  17  18
ENDBRANCH   1  17
TORSDOF 26
ENDMDL
MODEL 6
REMARK VINA RESULT:     4.283      2.601      4.506
REMARK INTER + INTRA:           8.913
REMARK INTER:                  11.031
REMARK INTRA:                  -2.118
REMARK UNBOUND:                -1.881
REMARK SMILES CCCCCCCCCCCCCCCCCCCCCCCCCCCC(=O)[O-]
REMARK SMILES IDX 15 1 16 2 17 3 18 4 19 5 20 6 21 7 22 8 23 9 24 10 25 11
REMARK SMILES IDX 26 12 27 13 28 14 29 15 30 16 14 17 13 18 12 19 11 20 10 21
REMARK SMILES IDX 9 22 8 23 7 24 6 25 5 26 4 27 3 28 2 29 1 30
REMARK H PARENT
REMARK Flexibility Score: inf
ROOT
ATOM      1  C   UNL     1     104.738 106.762 103.337  1.00  0.00     0.000 C 
ENDROOT
BRANCH   1   2
ATOM      2  C   UNL     1     104.198 105.873 102.210  1.00  0.00     0.000 C 
BRANCH   2   3
ATOM      3  C   UNL     1     104.437 104.374 102.459  1.00  0.00     0.000 C 
BRANCH   3   4
ATOM      4  C   UNL     1     103.126 103.601 102.713  1.00  0.00     0.000 C 
BRANCH   4   5
ATOM      5  C   UNL     1     103.324 102.242 103.415  1.00  0.00     0.000 C 
BRANCH   5   6
ATOM      6  C   UNL     1     103.803 101.096 102.504  1.00  0.00     0.000 C 
BRANCH   6   7
ATOM      7  C   UNL     1     103.031 100.951 101.178  1.00  0.00     0.000 C 
BRANCH   7   8
ATOM      8  C   UNL     1     103.658 101.684  99.977  1.00  0.00     0.000 C 
BRANCH   8   9
ATOM      9  C   UNL     1     103.129 101.246  98.595  1.00  0.00     0.000 C 
BRANCH   9  10
ATOM     10  C   UNL     1     103.980 101.700  97.393  1.00  0.00     0.000 C 
BRANCH  10  11
ATOM     11  C   UNL     1     103.442 102.934  96.642  1.00  0.00     0.000 C 
BRANCH  11  12
ATOM     12  C   UNL     1     103.327 104.201  97.519  1.00  0.00     0.006 C 
BRANCH  12  13
ATOM     13  C   UNL     1     104.663 104.929  97.743  1.00  0.00     0.053 C 
BRANCH  13  14
ATOM     14  C   UNL     1     104.476 106.399  97.983  1.00  0.00     0.041 C 
ATOM     15  O   UNL     1     104.631 106.875  99.140  1.00  0.00    -0.550 OA
ATOM     16  O   UNL     1     104.156 107.247  96.928  1.00  0.00    -0.550 OA
ENDBRANCH  13  14
ENDBRANCH  12  13
ENDBRANCH  11  12
ENDBRANCH  10  11
ENDBRANCH   9  10
ENDBRANCH   8   9
ENDBRANCH   7   8
ENDBRANCH   6   7
ENDBRANCH   5   6
ENDBRANCH   4   5
ENDBRANCH   3   4
ENDBRANCH   2   3
ENDBRANCH   1   2
BRANCH   1  17
ATOM     17  C   UNL     1     104.712 106.065 104.708  1.00  0.00     0.000 C 
BRANCH  17  18
ATOM     18  C   UNL     1     104.419 107.032 105.868  1.00  0.00     0.000 C 
BRANCH  18  19
ATOM     19  C   UNL     1     104.580 106.399 107.268  1.00  0.00     0.000 C 
BRANCH  19  20
ATOM     20  C   UNL     1     104.621 104.855 107.280  1.00  0.00     0.000 C 
BRANCH  20  21
ATOM     21  C   UNL     1     103.256 104.153 107.451  1.00  0.00     0.000 C 
BRANCH  21  22
ATOM     22  C   UNL     1     103.188 102.710 106.917  1.00  0.00    -0.000 C 
BRANCH  22  23
ATOM     23  C   UNL     1     103.462 101.663 108.007  1.00  0.00    -0.000 C 
BRANCH  23  24
ATOM     24  C   UNL     1     103.236 102.249 109.406  1.00  0.00    -0.000 C 
BRANCH  24  25
ATOM     25  C   UNL     1     103.508 101.192 110.488  1.00  0.00    -0.000 C 
BRANCH  25  26
ATOM     26  C   UNL     1     103.498 101.775 111.910  1.00  0.00    -0.000 C 
BRANCH  26  27
ATOM     27  C   UNL     1     103.071 103.253 111.937  1.00  0.00    -0.000 C 
BRANCH  27  28
ATOM     28  C   UNL     1     104.198 104.192 112.405  1.00  0.00    -0.000 C 
BRANCH  28  29
ATOM     29  C   UNL     1     104.589 105.287 111.396  1.00  0.00    -0.003 C 
ATOM     30  C   UNL     1     104.421 106.701 111.952  1.00  0.00     0.004 C 
ENDBRANCH  28  29
ENDBRANCH  27  28
ENDBRANCH  26  27
ENDBRANCH  25  26
ENDBRANCH  24  25
ENDBRANCH  23  24
ENDBRANCH  22  23
ENDBRANCH  21  22
ENDBRANCH  20  21
ENDBRANCH  19  20
ENDBRANCH  18  19
ENDBRANCH  17  18
ENDBRANCH   1  17
TORSDOF 26
ENDMDL
MODEL 7
REMARK VINA RESULT:     4.345      2.329      4.931
REMARK INTER + INTRA:           9.068
REMARK INTER:                  11.089
REMARK INTRA:                  -2.021
REMARK UNBOUND:                -1.881
REMARK SMILES CCCCCCCCCCCCCCCCCCCCCCCCCCCC(=O)[O-]
REMARK SMILES IDX 15 1 16 2 17 3 18 4 19 5 20 6 21 7 22 8 23 9 24 10 25 11
REMARK SMILES IDX 26 12 27 13 28 14 29 15 30 16 14 17 13 18 12 19 11 20 10 21
REMARK SMILES IDX 9 22 8 23 7 24 6 25 5 26 4 27 3 28 2 29 1 30
REMARK H PARENT
REMARK Flexibility Score: inf
ROOT
ATOM      1  C   UNL     1     103.671 101.709 107.215  1.00  0.00     0.000 C 
ENDROOT
BRANCH   1   2
ATOM      2  C   UNL     1     103.216 101.196 105.842  1.00  0.00     0.000 C 
BRANCH   2   3
ATOM      3  C   UNL     1     103.738 102.053 104.677  1.00  0.00     0.000 C 
BRANCH   3   4
ATOM      4  C   UNL     1     103.312 101.500 103.300  1.00  0.00     0.000 C 
BRANCH   4   5
ATOM      5  C   UNL     1     103.488 102.501 102.140  1.00  0.00     0.000 C 
BRANCH   5   6
ATOM      6  C   UNL     1     103.386 103.986 102.533  1.00  0.00     0.000 C 
BRANCH   6   7
ATOM      7  C   UNL     1     104.686 104.796 102.360  1.00  0.00     0.000 C 
BRANCH   7   8
ATOM      8  C   UNL     1     104.503 106.325 102.344  1.00  0.00     0.000 C 
BRANCH   8   9
ATOM      9  C   UNL     1     104.485 106.968 100.942  1.00  0.00     0.000 C 
BRANCH   9  10
ATOM     10  C   UNL     1     104.921 106.041  99.790  1.00  0.00     0.000 C 
BRANCH  10  11
ATOM     11  C   UNL     1     104.359 106.415  98.404  1.00  0.00     0.000 C 
BRANCH  11  12
ATOM     12  C   UNL     1     104.300 105.233  97.410  1.00  0.00     0.006 C 
BRANCH  12  13
ATOM     13  C   UNL     1     104.601 103.866  98.046  1.00  0.00     0.053 C 
BRANCH  13  14
ATOM     14  C   UNL     1     103.477 102.890  97.856  1.00  0.00     0.041 C 
ATOM     15  O   UNL     1     103.714 101.652  97.827  1.00  0.00    -0.550 OA
ATOM     16  O   UNL     1     102.168 103.342  97.735  1.00  0.00    -0.550 OA
ENDBRANCH  13  14
ENDBRANCH  12  13
ENDBRANCH  11  12
ENDBRANCH  10  11
ENDBRANCH   9  10
ENDBRANCH   8   9
ENDBRANCH   7   8
ENDBRANCH   6   7
ENDBRANCH   5   6
ENDBRANCH   4   5
ENDBRANCH   3   4
ENDBRANCH   2   3
ENDBRANCH   1   2
BRANCH   1  17
ATOM     17  C   UNL     1     102.886 102.948 107.676  1.00  0.00     0.000 C 
BRANCH  17  18
ATOM     18  C   UNL     1     103.236 104.213 106.873  1.00  0.00     0.000 C 
BRANCH  18  19
ATOM     19  C   UNL     1     104.657 104.754 107.142  1.00  0.00     0.000 C 
BRANCH  19  20
ATOM     20  C   UNL     1     104.721 106.253 107.510  1.00  0.00     0.000 C 
BRANCH  20  21
ATOM     21  C   UNL     1     104.556 106.580 109.011  1.00  0.00     0.000 C 
BRANCH  21  22
ATOM     22  C   UNL     1     104.639 105.370 109.960  1.00  0.00    -0.000 C 
BRANCH  22  23
ATOM     23  C   UNL     1     104.748 105.783 111.435  1.00  0.00    -0.000 C 
BRANCH  23  24
ATOM     24  C   UNL     1     104.259 104.664 112.361  1.00  0.00    -0.000 C 
BRANCH  24  25
ATOM     25  C   UNL     1     103.793 103.447 111.545  1.00  0.00    -0.000 C 
BRANCH  25  26
ATOM     26  C   UNL     1     102.402 102.945 111.961  1.00  0.00    -0.000 C 
BRANCH  26  27
ATOM     27  C   UNL     1     101.361 104.076 112.020  1.00  0.00    -0.000 C 
BRANCH  27  28
ATOM     28  C   UNL     1     100.065 103.734 111.262  1.00  0.00    -0.000 C 
BRANCH  28  29
ATOM     29  C   UNL     1      98.865 104.643 111.589  1.00  0.00    -0.003 C 
ATOM     30  C   UNL     1      97.522 103.919 111.494  1.00  0.00     0.004 C 
ENDBRANCH  28  29
ENDBRANCH  27  28
ENDBRANCH  26  27
ENDBRANCH  25  26
ENDBRANCH  24  25
ENDBRANCH  23  24
ENDBRANCH  22  23
ENDBRANCH  21  22
ENDBRANCH  20  21
ENDBRANCH  19  20
ENDBRANCH  18  19
ENDBRANCH  17  18
ENDBRANCH   1  17
TORSDOF 26
ENDMDL
MODEL 8
REMARK VINA RESULT:     4.363      4.678     11.053
REMARK INTER + INTRA:           9.113
REMARK INTER:                  10.974
REMARK INTRA:                  -1.860
REMARK UNBOUND:                -1.881
REMARK SMILES CCCCCCCCCCCCCCCCCCCCCCCCCCCC(=O)[O-]
REMARK SMILES IDX 15 1 16 2 17 3 18 4 19 5 20 6 21 7 22 8 23 9 24 10 25 11
REMARK SMILES IDX 26 12 27 13 28 14 29 15 30 16 14 17 13 18 12 19 11 20 10 21
REMARK SMILES IDX 9 22 8 23 7 24 6 25 5 26 4 27 3 28 2 29 1 30
REMARK H PARENT
REMARK Flexibility Score: inf
ROOT
ATOM      1  C   UNL     1     104.695 106.266 102.290  1.00  0.00     0.000 C 
ENDROOT
BRANCH   1   2
ATOM      2  C   UNL     1     104.745 107.027 103.621  1.00  0.00     0.000 C 
BRANCH   2   3
ATOM      3  C   UNL     1     104.752 106.095 104.846  1.00  0.00     0.000 C 
BRANCH   3   4
ATOM      4  C   UNL     1     104.424 106.842 106.157  1.00  0.00     0.000 C 
BRANCH   4   5
ATOM      5  C   UNL     1     104.393 105.935 107.404  1.00  0.00     0.000 C 
BRANCH   5   6
ATOM      6  C   UNL     1     104.660 104.442 107.138  1.00  0.00     0.000 C 
BRANCH   6   7
ATOM      7  C   UNL     1     103.398 103.563 107.036  1.00  0.00     0.000 C 
BRANCH   7   8
ATOM      8  C   UNL     1     103.645 102.050 107.182  1.00  0.00     0.000 C 
BRANCH   8   9
ATOM      9  C   UNL     1     103.316 101.464 108.571  1.00  0.00     0.000 C 
BRANCH   9  10
ATOM     10  C   UNL     1     103.191 102.500 109.706  1.00  0.00     0.000 C 
BRANCH  10  11
ATOM     11  C   UNL     1     103.488 101.958 111.118  1.00  0.00     0.000 C 
BRANCH  11  12
ATOM     12  C   UNL     1     103.661 103.058 112.190  1.00  0.00     0.006 C 
BRANCH  12  13
ATOM     13  C   UNL     1     103.459 104.486 111.657  1.00  0.00     0.053 C 
BRANCH  13  14
ATOM     14  C   UNL     1     104.606 105.390 112.003  1.00  0.00     0.041 C 
ATOM     15  O   UNL     1     105.781 104.933 112.043  1.00  0.00    -0.550 OA
ATOM     16  O   UNL     1     104.385 106.738 112.259  1.00  0.00    -0.550 OA
ENDBRANCH  13  14
ENDBRANCH  12  13
ENDBRANCH  11  12
ENDBRANCH  10  11
ENDBRANCH   9  10
ENDBRANCH   8   9
ENDBRANCH   7   8
ENDBRANCH   6   7
ENDBRANCH   5   6
ENDBRANCH   4   5
ENDBRANCH   3   4
ENDBRANCH   2   3
ENDBRANCH   1   2
BRANCH   1  17
ATOM     17  C   UNL     1     104.673 104.740 102.478  1.00  0.00     0.000 C 
BRANCH  17  18
ATOM     18  C   UNL     1     103.274 104.131 102.284  1.00  0.00     0.000 C 
BRANCH  18  19
ATOM     19  C   UNL     1     103.154 102.668 102.766  1.00  0.00     0.000 C 
BRANCH  19  20
ATOM     20  C   UNL     1     103.954 101.644 101.931  1.00  0.00     0.000 C 
BRANCH  20  21
ATOM     21  C   UNL     1     103.303 101.214 100.598  1.00  0.00     0.000 C 
BRANCH  21  22
ATOM     22  C   UNL     1     103.195 102.322  99.533  1.00  0.00    -0.000 C 
BRANCH  22  23
ATOM     23  C   UNL     1     103.729 101.877  98.163  1.00  0.00    -0.000 C 
BRANCH  23  24
ATOM     24  C   UNL     1     103.666 103.023  97.146  1.00  0.00    -0.000 C 
BRANCH  24  25
ATOM     25  C   UNL     1     103.784 104.384  97.851  1.00  0.00    -0.000 C 
BRANCH  25  26
ATOM     26  C   UNL     1     105.094 105.116  97.522  1.00  0.00    -0.000 C 
BRANCH  26  27
ATOM     27  C   UNL     1     106.335 104.344  98.000  1.00  0.00    -0.000 C 
BRANCH  27  28
ATOM     28  C   UNL     1     107.586 104.642  97.153  1.00  0.00    -0.000 C 
BRANCH  28  29
ATOM     29  C   UNL     1     108.925 104.307  97.836  1.00  0.00    -0.003 C 
ATOM     30  C   UNL     1     109.940 103.671  96.887  1.00  0.00     0.004 C 
ENDBRANCH  28  29
ENDBRANCH  27  28
ENDBRANCH  26  27
ENDBRANCH  25  26
ENDBRANCH  24  25
ENDBRANCH  23  24
ENDBRANCH  22  23
ENDBRANCH  21  22
ENDBRANCH  20  21
ENDBRANCH  19  20
ENDBRANCH  18  19
ENDBRANCH  17  18
ENDBRANCH   1  17
TORSDOF 26
ENDMDL
MODEL 9
REMARK VINA RESULT:     4.432      4.511     11.712
REMARK INTER + INTRA:           9.287
REMARK INTER:                  10.493
REMARK INTRA:                  -1.206
REMARK UNBOUND:                -1.881
REMARK SMILES CCCCCCCCCCCCCCCCCCCCCCCCCCCC(=O)[O-]
REMARK SMILES IDX 15 1 16 2 17 3 18 4 19 5 20 6 21 7 22 8 23 9 24 10 25 11
REMARK SMILES IDX 26 12 27 13 28 14 29 15 30 16 14 17 13 18 12 19 11 20 10 21
REMARK SMILES IDX 9 22 8 23 7 24 6 25 5 26 4 27 3 28 2 29 1 30
REMARK H PARENT
REMARK Flexibility Score: inf
ROOT
ATOM      1  C   UNL     1     104.484 106.584 103.256  1.00  0.00     0.000 C 
ENDROOT
BRANCH   1   2
ATOM      2  C   UNL     1     104.491 105.956 104.656  1.00  0.00     0.000 C 
BRANCH   2   3
ATOM      3  C   UNL     1     104.740 106.982 105.774  1.00  0.00     0.000 C 
BRANCH   3   4
ATOM      4  C   UNL     1     104.402 106.425 107.173  1.00  0.00     0.000 C 
BRANCH   4   5
ATOM      5  C   UNL     1     104.632 104.906 107.316  1.00  0.00     0.000 C 
BRANCH   5   6
ATOM      6  C   UNL     1     103.431 104.021 106.935  1.00  0.00     0.000 C 
BRANCH   6   7
ATOM      7  C   UNL     1     103.733 102.511 106.858  1.00  0.00     0.000 C 
BRANCH   7   8
ATOM      8  C   UNL     1     103.185 101.677 108.031  1.00  0.00     0.000 C 
BRANCH   8   9
ATOM      9  C   UNL     1     103.353 102.319 109.425  1.00  0.00     0.000 C 
BRANCH   9  10
ATOM     10  C   UNL     1     103.439 101.324 110.599  1.00  0.00     0.000 C 
BRANCH  10  11
ATOM     11  C   UNL     1     103.440 101.968 111.999  1.00  0.00     0.000 C 
BRANCH  11  12
ATOM     12  C   UNL     1     103.116 103.480 111.996  1.00  0.00     0.006 C 
BRANCH  12  13
ATOM     13  C   UNL     1     104.057 104.321 112.874  1.00  0.00     0.053 C 
BRANCH  13  14
ATOM     14  C   UNL     1     104.771 105.382 112.088  1.00  0.00     0.041 C 
ATOM     15  O   UNL     1     105.968 105.208 111.732  1.00  0.00    -0.550 OA
ATOM     16  O   UNL     1     104.110 106.551 111.727  1.00  0.00    -0.550 OA
ENDBRANCH  13  14
ENDBRANCH  12  13
ENDBRANCH  11  12
ENDBRANCH  10  11
ENDBRANCH   9  10
ENDBRANCH   8   9
ENDBRANCH   7   8
ENDBRANCH   6   7
ENDBRANCH   5   6
ENDBRANCH   4   5
ENDBRANCH   3   4
ENDBRANCH   2   3
ENDBRANCH   1   2
BRANCH   1  17
ATOM     17  C   UNL     1     104.361 105.537 102.136  1.00  0.00     0.000 C 
BRANCH  17  18
ATOM     18  C   UNL     1     104.714 104.114 102.603  1.00  0.00     0.000 C 
BRANCH  18  19
ATOM     19  C   UNL     1     103.513 103.142 102.615  1.00  0.00     0.000 C 
BRANCH  19  20
ATOM     20  C   UNL     1     103.496 102.120 101.457  1.00  0.00     0.000 C 
BRANCH  20  21
ATOM     21  C   UNL     1     103.170 102.696 100.061  1.00  0.00     0.000 C 
BRANCH  21  22
ATOM     22  C   UNL     1     103.330 101.710  98.889  1.00  0.00    -0.000 C 
BRANCH  22  23
ATOM     23  C   UNL     1     103.598 102.419  97.554  1.00  0.00    -0.000 C 
BRANCH  23  24
ATOM     24  C   UNL     1     103.508 103.941  97.707  1.00  0.00    -0.000 C 
BRANCH  24  25
ATOM     25  C   UNL     1     104.903 104.581  97.614  1.00  0.00    -0.000 C 
BRANCH  25  26
ATOM     26  C   UNL     1     104.867 106.114  97.709  1.00  0.00    -0.000 C 
BRANCH  26  27
ATOM     27  C   UNL     1     104.340 106.770  96.421  1.00  0.00    -0.000 C 
BRANCH  27  28
ATOM     28  C   UNL     1     104.302 105.796  95.228  1.00  0.00    -0.000 C 
BRANCH  28  29
ATOM     29  C   UNL     1     104.750 106.401  93.884  1.00  0.00    -0.003 C 
ATOM     30  C   UNL     1     105.204 105.346  92.875  1.00  0.00     0.004 C 
ENDBRANCH  28  29
ENDBRANCH  27  28
ENDBRANCH  26  27
ENDBRANCH  25  26
ENDBRANCH  24  25
ENDBRANCH  23  24
ENDBRANCH  22  23
ENDBRANCH  21  22
ENDBRANCH  20  21
ENDBRANCH  19  20
ENDBRANCH  18  19
ENDBRANCH  17  18
ENDBRANCH   1  17
TORSDOF 26
ENDMDL
