MODEL 1
REMARK VINA RESULT:    -5.327      0.000      0.000
REMARK INTER + INTRA:          -5.482
REMARK INTER:                  -5.482
REMARK INTRA:                   0.000
REMARK UNBOUND:                 0.000
REMARK SMILES O=c1ccc2ccc(O)cc2o1
REMARK SMILES IDX 6 1 7 2 8 3 10 4 11 5 5 6 4 7 3 8 2 9 1 10 12 11 9 12
REMARK H PARENT 9 13
REMARK Flexibility Score: inf
ROOT
ATOM      1  C   UNL     1      21.862  -0.648 -22.480  1.00  0.00     0.016 A 
ATOM      2  C   UNL     1      22.239   0.537 -23.119  1.00  0.00     0.047 A 
ATOM      3  C   UNL     1      22.239   1.750 -22.419  1.00  0.00     0.119 A 
ATOM      4  C   UNL     1      21.858   1.779 -21.069  1.00  0.00     0.094 A 
ATOM      5  C   UNL     1      21.478   0.599 -20.422  1.00  0.00     0.142 A 
ATOM      6  C   UNL     1      21.480  -0.623 -21.130  1.00  0.00     0.018 A 
ATOM      7  C   UNL     1      21.096  -1.786 -20.456  1.00  0.00     0.019 A 
ATOM      8  C   UNL     1      20.725  -1.708 -19.114  1.00  0.00     0.094 A 
ATOM      9  C   UNL     1      20.747  -0.463 -18.476  1.00  0.00     0.336 A 
ATOM     10  O   UNL     1      20.416  -0.372 -17.265  1.00  0.00    -0.246 OA
ATOM     11  O   UNL     1      21.117   0.628 -19.141  1.00  0.00    -0.423 OA
ENDROOT
BRANCH   3  12
ATOM     12  O   UNL     1      22.618   2.920 -23.073  1.00  0.00    -0.508 OA
ATOM     13  H   UNL     1      21.965   3.444 -23.642  1.00  0.00     0.293 HD
ENDBRANCH   3  12
TORSDOF 1
ENDMDL
MODEL 2
REMARK VINA RESULT:    -5.071     15.915     18.658
REMARK INTER + INTRA:          -5.219
REMARK INTER:                  -5.219
REMARK INTRA:                   0.000
REMARK UNBOUND:                 0.000
REMARK SMILES O=c1ccc2ccc(O)cc2o1
REMARK SMILES IDX 6 1 7 2 8 3 10 4 11 5 5 6 4 7 3 8 2 9 1 10 12 11 9 12
REMARK H PARENT 9 13
REMARK Flexibility Score: inf
ROOT
ATOM      1  C   UNL     1      12.889   4.624  -3.470  1.00  0.00     0.016 A 
ATOM      2  C   UNL     1      11.770   4.031  -2.875  1.00  0.00     0.047 A 
ATOM      3  C   UNL     1      11.031   3.063  -3.566  1.00  0.00     0.119 A 
ATOM      4  C   UNL     1      11.412   2.685  -4.862  1.00  0.00     0.094 A 
ATOM      5  C   UNL     1      12.529   3.273  -5.465  1.00  0.00     0.142 A 
ATOM      6  C   UNL     1      13.273   4.249  -4.765  1.00  0.00     0.018 A 
ATOM      7  C   UNL     1      14.383   4.819  -5.394  1.00  0.00     0.019 A 
ATOM      8  C   UNL     1      14.724   4.411  -6.683  1.00  0.00     0.094 A 
ATOM      9  C   UNL     1      13.941   3.439  -7.316  1.00  0.00     0.336 A 
ATOM     10  O   UNL     1      14.231   3.058  -8.480  1.00  0.00    -0.246 OA
ATOM     11  O   UNL     1      12.888   2.913  -6.695  1.00  0.00    -0.423 OA
ENDROOT
BRANCH   3  12
ATOM     12  O   UNL     1       9.921   2.484  -2.957  1.00  0.00    -0.508 OA
ATOM     13  H   UNL     1       9.878   1.490  -2.770  1.00  0.00     0.293 HD
ENDBRANCH   3  12
TORSDOF 1
ENDMDL
MODEL 3
REMARK VINA RESULT:    -4.997     16.738     19.454
REMARK INTER + INTRA:          -5.143
REMARK INTER:                  -5.143
REMARK INTRA:                   0.000
REMARK UNBOUND:                 0.000
REMARK SMILES O=c1ccc2ccc(O)cc2o1
REMARK SMILES IDX 6 1 7 2 8 3 10 4 11 5 5 6 4 7 3 8 2 9 1 10 12 11 9 12
REMARK H PARENT 9 13
REMARK Flexibility Score: inf
ROOT
ATOM      1  C   UNL     1       8.278  -7.693  -6.552  1.00  0.00     0.016 A 
ATOM      2  C   UNL     1       7.660  -6.779  -5.692  1.00  0.00     0.047 A 
ATOM      3  C   UNL     1       8.086  -5.447  -5.649  1.00  0.00     0.119 A 
ATOM      4  C   UNL     1       9.140  -5.023  -6.472  1.00  0.00     0.094 A 
ATOM      5  C   UNL     1       9.766  -5.929  -7.335  1.00  0.00     0.142 A 
ATOM      6  C   UNL     1       9.333  -7.273  -7.376  1.00  0.00     0.018 A 
ATOM      7  C   UNL     1       9.977  -8.155  -8.248  1.00  0.00     0.019 A 
ATOM      8  C   UNL     1      11.020  -7.688  -9.047  1.00  0.00     0.094 A 
ATOM      9  C   UNL     1      11.396  -6.343  -8.954  1.00  0.00     0.336 A 
ATOM     10  O   UNL     1      12.335  -5.902  -9.666  1.00  0.00    -0.246 OA
ATOM     11  O   UNL     1      10.766  -5.524  -8.115  1.00  0.00    -0.423 OA
ENDROOT
BRANCH   3  12
ATOM     12  O   UNL     1       7.457  -4.552  -4.787  1.00  0.00    -0.508 OA
ATOM     13  H   UNL     1       7.841  -3.633  -4.606  1.00  0.00     0.293 HD
ENDBRANCH   3  12
TORSDOF 1
ENDMDL
MODEL 4
REMARK VINA RESULT:    -4.973      0.977      4.231
REMARK INTER + INTRA:          -5.119
REMARK INTER:                  -5.119
REMARK INTRA:                   0.000
REMARK UNBOUND:                 0.000
REMARK SMILES O=c1ccc2ccc(O)cc2o1
REMARK SMILES IDX 6 1 7 2 8 3 10 4 11 5 5 6 4 7 3 8 2 9 1 10 12 11 9 12
REMARK H PARENT 9 13
REMARK Flexibility Score: inf
ROOT
ATOM      1  C   UNL     1      20.507  -1.900 -20.139  1.00  0.00     0.016 A 
ATOM      2  C   UNL     1      20.242  -1.631 -18.792  1.00  0.00     0.047 A 
ATOM      3  C   UNL     1      20.549  -0.379 -18.247  1.00  0.00     0.119 A 
ATOM      4  C   UNL     1      21.127   0.613 -19.054  1.00  0.00     0.094 A 
ATOM      5  C   UNL     1      21.396   0.353 -20.402  1.00  0.00     0.142 A 
ATOM      6  C   UNL     1      21.084  -0.911 -20.949  1.00  0.00     0.018 A 
ATOM      7  C   UNL     1      21.364  -1.142 -22.298  1.00  0.00     0.019 A 
ATOM      8  C   UNL     1      21.939  -0.126 -23.062  1.00  0.00     0.094 A 
ATOM      9  C   UNL     1      22.221   1.103 -22.453  1.00  0.00     0.336 A 
ATOM     10  O   UNL     1      22.739   2.032 -23.124  1.00  0.00    -0.246 OA
ATOM     11  O   UNL     1      21.944   1.295 -21.165  1.00  0.00    -0.423 OA
ENDROOT
BRANCH   3  12
ATOM     12  O   UNL     1      20.278  -0.129 -16.904  1.00  0.00    -0.508 OA
ATOM     13  H   UNL     1      20.407   0.790 -16.499  1.00  0.00     0.293 HD
ENDBRANCH   3  12
TORSDOF 1
ENDMDL
MODEL 5
REMARK VINA RESULT:    -4.834     16.501     18.723
REMARK INTER + INTRA:          -4.975
REMARK INTER:                  -4.975
REMARK INTRA:                   0.000
REMARK UNBOUND:                 0.000
REMARK SMILES O=c1ccc2ccc(O)cc2o1
REMARK SMILES IDX 6 1 7 2 8 3 10 4 11 5 5 6 4 7 3 8 2 9 1 10 12 11 9 12
REMARK H PARENT 9 13
REMARK Flexibility Score: inf
ROOT
ATOM      1  C   UNL     1      10.222  -5.702  -7.445  1.00  0.00     0.016 A 
ATOM      2  C   UNL     1       9.457  -5.401  -6.314  1.00  0.00     0.047 A 
ATOM      3  C   UNL     1       8.145  -4.932  -6.450  1.00  0.00     0.119 A 
ATOM      4  C   UNL     1       7.592  -4.761  -7.728  1.00  0.00     0.094 A 
ATOM      5  C   UNL     1       8.350  -5.058  -8.866  1.00  0.00     0.142 A 
ATOM      6  C   UNL     1       9.673  -5.533  -8.725  1.00  0.00     0.018 A 
ATOM      7  C   UNL     1      10.405  -5.822  -9.880  1.00  0.00     0.019 A 
ATOM      8  C   UNL     1       9.814  -5.637 -11.129  1.00  0.00     0.094 A 
ATOM      9  C   UNL     1       8.498  -5.164 -11.193  1.00  0.00     0.336 A 
ATOM     10  O   UNL     1       7.946  -4.989 -12.311  1.00  0.00    -0.246 OA
ATOM     11  O   UNL     1       7.823  -4.896 -10.078  1.00  0.00    -0.423 OA
ENDROOT
BRANCH   3  12
ATOM     12  O   UNL     1       7.399  -4.637  -5.311  1.00  0.00    -0.508 OA
ATOM     13  H   UNL     1       7.695  -4.941  -4.392  1.00  0.00     0.293 HD
ENDBRANCH   3  12
TORSDOF 1
ENDMDL
MODEL 6
REMARK VINA RESULT:    -4.794      1.990      2.929
REMARK INTER + INTRA:          -4.934
REMARK INTER:                  -4.934
REMARK INTRA:                   0.000
REMARK UNBOUND:                 0.000
REMARK SMILES O=c1ccc2ccc(O)cc2o1
REMARK SMILES IDX 6 1 7 2 8 3 10 4 11 5 5 6 4 7 3 8 2 9 1 10 12 11 9 12
REMARK H PARENT 9 13
REMARK Flexibility Score: inf
ROOT
ATOM      1  C   UNL     1      21.721   0.647 -19.961  1.00  0.00     0.016 A 
ATOM      2  C   UNL     1      21.870   0.264 -21.298  1.00  0.00     0.047 A 
ATOM      3  C   UNL     1      21.199  -0.862 -21.791  1.00  0.00     0.119 A 
ATOM      4  C   UNL     1      20.372  -1.612 -20.941  1.00  0.00     0.094 A 
ATOM      5  C   UNL     1      20.217  -1.237 -19.602  1.00  0.00     0.142 A 
ATOM      6  C   UNL     1      20.895  -0.100 -19.108  1.00  0.00     0.018 A 
ATOM      7  C   UNL     1      20.720   0.250 -17.766  1.00  0.00     0.019 A 
ATOM      8  C   UNL     1      19.889  -0.525 -16.959  1.00  0.00     0.094 A 
ATOM      9  C   UNL     1      19.248  -1.638 -17.517  1.00  0.00     0.336 A 
ATOM     10  O   UNL     1      18.494  -2.351 -16.805  1.00  0.00    -0.246 OA
ATOM     11  O   UNL     1      19.432  -1.949 -18.797  1.00  0.00    -0.423 OA
ENDROOT
BRANCH   3  12
ATOM     12  O   UNL     1      21.361  -1.227 -23.125  1.00  0.00    -0.508 OA
ATOM     13  H   UNL     1      21.977  -0.714 -23.744  1.00  0.00     0.293 HD
ENDBRANCH   3  12
TORSDOF 1
ENDMDL
MODEL 7
REMARK VINA RESULT:    -4.786     16.903     18.603
REMARK INTER + INTRA:          -4.926
REMARK INTER:                  -4.926
REMARK INTRA:                   0.000
REMARK UNBOUND:                 0.000
REMARK SMILES O=c1ccc2ccc(O)cc2o1
REMARK SMILES IDX 6 1 7 2 8 3 10 4 11 5 5 6 4 7 3 8 2 9 1 10 12 11 9 12
REMARK H PARENT 9 13
REMARK Flexibility Score: inf
ROOT
ATOM      1  C   UNL     1       7.968  -6.783  -7.537  1.00  0.00     0.016 A 
ATOM      2  C   UNL     1       8.670  -6.006  -6.610  1.00  0.00     0.047 A 
ATOM      3  C   UNL     1       9.925  -5.477  -6.936  1.00  0.00     0.119 A 
ATOM      4  C   UNL     1      10.484  -5.729  -8.198  1.00  0.00     0.094 A 
ATOM      5  C   UNL     1       9.790  -6.506  -9.131  1.00  0.00     0.142 A 
ATOM      6  C   UNL     1       8.524  -7.037  -8.800  1.00  0.00     0.018 A 
ATOM      7  C   UNL     1       7.854  -7.810  -9.753  1.00  0.00     0.019 A 
ATOM      8  C   UNL     1       8.449  -8.033 -10.994  1.00  0.00     0.094 A 
ATOM      9  C   UNL     1       9.707  -7.475 -11.253  1.00  0.00     0.336 A 
ATOM     10  O   UNL     1      10.261  -7.665 -12.366  1.00  0.00    -0.246 OA
ATOM     11  O   UNL     1      10.322  -6.743 -10.327  1.00  0.00    -0.423 OA
ENDROOT
BRANCH   3  12
ATOM     12  O   UNL     1      10.608  -4.705  -5.999  1.00  0.00    -0.508 OA
ATOM     13  H   UNL     1      11.578  -4.884  -5.772  1.00  0.00     0.293 HD
ENDBRANCH   3  12
TORSDOF 1
ENDMDL
MODEL 8
REMARK VINA RESULT:    -4.783     15.926     18.644
REMARK INTER + INTRA:          -4.922
REMARK INTER:                  -4.922
REMARK INTRA:                   0.000
REMARK UNBOUND:                 0.000
REMARK SMILES O=c1ccc2ccc(O)cc2o1
REMARK SMILES IDX 6 1 7 2 8 3 10 4 11 5 5 6 4 7 3 8 2 9 1 10 12 11 9 12
REMARK H PARENT 9 13
REMARK Flexibility Score: inf
ROOT
ATOM      1  C   UNL     1       7.427  -4.910  -8.657  1.00  0.00     0.016 A 
ATOM      2  C   UNL     1       7.060  -5.047  -7.314  1.00  0.00     0.047 A 
ATOM      3  C   UNL     1       8.011  -5.410  -6.354  1.00  0.00     0.119 A 
ATOM      4  C   UNL     1       9.341  -5.639  -6.737  1.00  0.00     0.094 A 
ATOM      5  C   UNL     1       9.718  -5.505  -8.077  1.00  0.00     0.142 A 
ATOM      6  C   UNL     1       8.756  -5.138  -9.044  1.00  0.00     0.018 A 
ATOM      7  C   UNL     1       9.163  -5.012 -10.376  1.00  0.00     0.019 A 
ATOM      8  C   UNL     1      10.495  -5.249 -10.710  1.00  0.00     0.094 A 
ATOM      9  C   UNL     1      11.394  -5.609  -9.699  1.00  0.00     0.336 A 
ATOM     10  O   UNL     1      12.601  -5.828  -9.979  1.00  0.00    -0.246 OA
ATOM     11  O   UNL     1      10.980  -5.723  -8.439  1.00  0.00    -0.423 OA
ENDROOT
BRANCH   3  12
ATOM     12  O   UNL     1       7.625  -5.541  -5.022  1.00  0.00    -0.508 OA
ATOM     13  H   UNL     1       8.255  -5.310  -4.263  1.00  0.00     0.293 HD
ENDBRANCH   3  12
TORSDOF 1
ENDMDL
MODEL 9
REMARK VINA RESULT:    -4.726     15.935     18.259
REMARK INTER + INTRA:          -4.864
REMARK INTER:                  -4.864
REMARK INTRA:                   0.000
REMARK UNBOUND:                 0.000
REMARK SMILES O=c1ccc2ccc(O)cc2o1
REMARK SMILES IDX 6 1 7 2 8 3 10 4 11 5 5 6 4 7 3 8 2 9 1 10 12 11 9 12
REMARK H PARENT 9 13
REMARK Flexibility Score: inf
ROOT
ATOM      1  C   UNL     1      14.378   4.728  -5.297  1.00  0.00     0.016 A 
ATOM      2  C   UNL     1      14.718   4.368  -6.605  1.00  0.00     0.047 A 
ATOM      3  C   UNL     1      13.894   3.506  -7.338  1.00  0.00     0.119 A 
ATOM      4  C   UNL     1      12.721   2.999  -6.759  1.00  0.00     0.094 A 
ATOM      5  C   UNL     1      12.373   3.353  -5.451  1.00  0.00     0.142 A 
ATOM      6  C   UNL     1      13.206   4.223  -4.715  1.00  0.00     0.018 A 
ATOM      7  C   UNL     1      12.833   4.559  -3.410  1.00  0.00     0.019 A 
ATOM      8  C   UNL     1      11.658   4.031  -2.877  1.00  0.00     0.094 A 
ATOM      9  C   UNL     1      10.881   3.174  -3.665  1.00  0.00     0.336 A 
ATOM     10  O   UNL     1       9.818   2.687  -3.202  1.00  0.00    -0.246 OA
ATOM     11  O   UNL     1      11.260   2.871  -4.904  1.00  0.00    -0.423 OA
ENDROOT
BRANCH   3  12
ATOM     12  O   UNL     1      14.249   3.159  -8.639  1.00  0.00    -0.508 OA
ATOM     13  H   UNL     1      13.985   2.267  -9.040  1.00  0.00     0.293 HD
ENDBRANCH   3  12
TORSDOF 1
ENDMDL
