MODEL 1
REMARK VINA RESULT:    -4.995      0.000      0.000
REMARK INTER + INTRA:         -11.553
REMARK INTER:                  -9.083
REMARK INTRA:                  -2.470
REMARK UNBOUND:                -2.470
REMARK SMILES CCCCCCCCCCCCCCCC(=O)[O-]
REMARK SMILES IDX 9 1 10 2 11 3 12 4 13 5 14 6 15 7 16 8 17 9 18 10 8 11 7 12
REMARK SMILES IDX 6 13 5 14 4 15 3 16 2 17 1 18
REMARK H PARENT
REMARK Flexibility Score: inf
ROOT
ATOM      1  C   UNL     1     138.162 130.821 128.087  1.00  0.00     0.000 C 
ENDROOT
BRANCH   1   2
ATOM      2  C   UNL     1     138.098 130.119 129.452  1.00  0.00     0.000 C 
BRANCH   2   3
ATOM      3  C   UNL     1     138.630 131.001 130.596  1.00  0.00     0.000 C 
BRANCH   3   4
ATOM      4  C   UNL     1     139.678 132.018 130.115  1.00  0.00     0.000 C 
BRANCH   4   5
ATOM      5  C   UNL     1     139.674 133.312 130.948  1.00  0.00     0.000 C 
BRANCH   5   6
ATOM      6  C   UNL     1     140.033 134.551 130.113  1.00  0.00     0.006 C 
BRANCH   6   7
ATOM      7  C   UNL     1     140.090 135.833 130.957  1.00  0.00     0.053 C 
BRANCH   7   8
ATOM      8  C   UNL     1     138.924 136.716 130.643  1.00  0.00     0.041 C 
ATOM      9  O   UNL     1     137.751 136.325 130.877  1.00  0.00    -0.550 OA
ATOM     10  O   UNL     1     139.135 137.988 130.125  1.00  0.00    -0.550 OA
ENDBRANCH   7   8
ENDBRANCH   6   7
ENDBRANCH   5   6
ENDBRANCH   4   5
ENDBRANCH   3   4
ENDBRANCH   2   3
ENDBRANCH   1   2
BRANCH   1  11
ATOM     11  C   UNL     1     136.782 131.293 127.597  1.00  0.00     0.000 C 
BRANCH  11  12
ATOM     12  C   UNL     1     136.787 132.762 127.146  1.00  0.00    -0.000 C 
BRANCH  12  13
ATOM     13  C   UNL     1     137.001 133.738 128.317  1.00  0.00    -0.000 C 
BRANCH  13  14
ATOM     14  C   UNL     1     135.745 133.900 129.187  1.00  0.00    -0.000 C 
BRANCH  14  15
ATOM     15  C   UNL     1     135.899 133.256 130.575  1.00  0.00    -0.000 C 
BRANCH  15  16
ATOM     16  C   UNL     1     134.635 132.478 130.999  1.00  0.00    -0.000 C 
BRANCH  16  17
ATOM     17  C   UNL     1     134.015 131.648 129.861  1.00  0.00    -0.003 C 
ATOM     18  C   UNL     1     134.306 130.154 129.983  1.00  0.00     0.004 C 
ENDBRANCH  16  17
ENDBRANCH  15  16
ENDBRANCH  14  15
ENDBRANCH  13  14
ENDBRANCH  12  13
ENDBRANCH  11  12
ENDBRANCH   1  11
TORSDOF 14
ENDMDL
MODEL 2
REMARK VINA RESULT:    -4.954      0.713      1.266
REMARK INTER + INTRA:         -11.478
REMARK INTER:                  -8.969
REMARK INTRA:                  -2.508
REMARK UNBOUND:                -2.470
REMARK SMILES CCCCCCCCCCCCCCCC(=O)[O-]
REMARK SMILES IDX 9 1 10 2 11 3 12 4 13 5 14 6 15 7 16 8 17 9 18 10 8 11 7 12
REMARK SMILES IDX 6 13 5 14 4 15 3 16 2 17 1 18
REMARK H PARENT
REMARK Flexibility Score: inf
ROOT
ATOM      1  C   UNL     1     138.108 130.145 129.263  1.00  0.00     0.000 C 
ENDROOT
BRANCH   1   2
ATOM      2  C   UNL     1     139.093 130.779 130.258  1.00  0.00     0.000 C 
BRANCH   2   3
ATOM      3  C   UNL     1     138.400 131.726 131.253  1.00  0.00     0.000 C 
BRANCH   3   4
ATOM      4  C   UNL     1     139.033 133.128 131.269  1.00  0.00     0.000 C 
BRANCH   4   5
ATOM      5  C   UNL     1     139.859 133.419 130.003  1.00  0.00     0.000 C 
BRANCH   5   6
ATOM      6  C   UNL     1     139.789 134.896 129.582  1.00  0.00     0.006 C 
BRANCH   6   7
ATOM      7  C   UNL     1     139.779 135.850 130.783  1.00  0.00     0.053 C 
BRANCH   7   8
ATOM      8  C   UNL     1     138.883 137.017 130.515  1.00  0.00     0.041 C 
ATOM      9  O   UNL     1     139.353 138.082 130.037  1.00  0.00    -0.550 OA
ATOM     10  O   UNL     1     137.518 136.917 130.758  1.00  0.00    -0.550 OA
ENDBRANCH   7   8
ENDBRANCH   6   7
ENDBRANCH   5   6
ENDBRANCH   4   5
ENDBRANCH   3   4
ENDBRANCH   2   3
ENDBRANCH   1   2
BRANCH   1  11
ATOM     11  C   UNL     1     138.138 130.825 127.883  1.00  0.00     0.000 C 
BRANCH  11  12
ATOM     12  C   UNL     1     136.847 131.603 127.582  1.00  0.00    -0.000 C 
BRANCH  12  13
ATOM     13  C   UNL     1     137.015 133.121 127.767  1.00  0.00    -0.000 C 
BRANCH  13  14
ATOM     14  C   UNL     1     135.740 133.796 128.294  1.00  0.00    -0.000 C 
BRANCH  14  15
ATOM     15  C   UNL     1     135.722 133.912 129.828  1.00  0.00    -0.000 C 
BRANCH  15  16
ATOM     16  C   UNL     1     134.532 133.153 130.454  1.00  0.00    -0.000 C 
BRANCH  16  17
ATOM     17  C   UNL     1     134.761 131.635 130.564  1.00  0.00    -0.003 C 
ATOM     18  C   UNL     1     133.819 130.822 129.679  1.00  0.00     0.004 C 
ENDBRANCH  16  17
ENDBRANCH  15  16
ENDBRANCH  14  15
ENDBRANCH  13  14
ENDBRANCH  12  13
ENDBRANCH  11  12
ENDBRANCH   1  11
TORSDOF 14
ENDMDL
MODEL 3
REMARK VINA RESULT:    -4.931      1.157      2.080
REMARK INTER + INTRA:         -11.437
REMARK INTER:                  -9.553
REMARK INTRA:                  -1.885
REMARK UNBOUND:                -2.470
REMARK SMILES CCCCCCCCCCCCCCCC(=O)[O-]
REMARK SMILES IDX 9 1 10 2 11 3 12 4 13 5 14 6 15 7 16 8 17 9 18 10 8 11 7 12
REMARK SMILES IDX 6 13 5 14 4 15 3 16 2 17 1 18
REMARK H PARENT
REMARK Flexibility Score: inf
ROOT
ATOM      1  C   UNL     1     139.371 130.991 129.865  1.00  0.00     0.000 C 
ENDROOT
BRANCH   1   2
ATOM      2  C   UNL     1     138.525 131.758 130.894  1.00  0.00     0.000 C 
BRANCH   2   3
ATOM      3  C   UNL     1     139.012 133.203 131.100  1.00  0.00     0.000 C 
BRANCH   3   4
ATOM      4  C   UNL     1     139.563 133.827 129.807  1.00  0.00     0.000 C 
BRANCH   4   5
ATOM      5  C   UNL     1     140.393 135.097 130.068  1.00  0.00     0.000 C 
BRANCH   5   6
ATOM      6  C   UNL     1     139.665 136.100 130.976  1.00  0.00     0.006 C 
BRANCH   6   7
ATOM      7  C   UNL     1     139.208 137.355 130.219  1.00  0.00     0.053 C 
BRANCH   7   8
ATOM      8  C   UNL     1     137.738 137.564 130.397  1.00  0.00     0.041 C 
ATOM      9  O   UNL     1     136.995 136.603 130.728  1.00  0.00    -0.550 OA
ATOM     10  O   UNL     1     137.190 138.831 130.234  1.00  0.00    -0.550 OA
ENDBRANCH   7   8
ENDBRANCH   6   7
ENDBRANCH   5   6
ENDBRANCH   4   5
ENDBRANCH   3   4
ENDBRANCH   2   3
ENDBRANCH   1   2
BRANCH   1  11
ATOM     11  C   UNL     1     138.544 130.499 128.665  1.00  0.00     0.000 C 
BRANCH  11  12
ATOM     12  C   UNL     1     137.205 131.243 128.528  1.00  0.00    -0.000 C 
BRANCH  12  13
ATOM     13  C   UNL     1     137.063 131.956 127.172  1.00  0.00    -0.000 C 
BRANCH  13  14
ATOM     14  C   UNL     1     136.373 133.324 127.294  1.00  0.00    -0.000 C 
BRANCH  14  15
ATOM     15  C   UNL     1     136.226 133.785 128.754  1.00  0.00    -0.000 C 
BRANCH  15  16
ATOM     16  C   UNL     1     134.843 134.410 129.030  1.00  0.00    -0.000 C 
BRANCH  16  17
ATOM     17  C   UNL     1     134.084 133.735 130.187  1.00  0.00    -0.003 C 
ATOM     18  C   UNL     1     134.869 132.597 130.835  1.00  0.00     0.004 C 
ENDBRANCH  16  17
ENDBRANCH  15  16
ENDBRANCH  14  15
ENDBRANCH  13  14
ENDBRANCH  12  13
ENDBRANCH  11  12
ENDBRANCH   1  11
TORSDOF 14
ENDMDL
MODEL 4
REMARK VINA RESULT:    -4.892      2.740      5.621
REMARK INTER + INTRA:         -11.366
REMARK INTER:                  -9.192
REMARK INTRA:                  -2.174
REMARK UNBOUND:                -2.470
REMARK SMILES CCCCCCCCCCCCCCCC(=O)[O-]
REMARK SMILES IDX 9 1 10 2 11 3 12 4 13 5 14 6 15 7 16 8 17 9 18 10 8 11 7 12
REMARK SMILES IDX 6 13 5 14 4 15 3 16 2 17 1 18
REMARK H PARENT
REMARK Flexibility Score: inf
ROOT
ATOM      1  C   UNL     1     138.276 130.927 127.935  1.00  0.00     0.000 C 
ENDROOT
BRANCH   1   2
ATOM      2  C   UNL     1     136.981 131.596 127.448  1.00  0.00     0.000 C 
BRANCH   2   3
ATOM      3  C   UNL     1     136.937 133.101 127.766  1.00  0.00     0.000 C 
BRANCH   3   4
ATOM      4  C   UNL     1     135.799 133.464 128.734  1.00  0.00     0.000 C 
BRANCH   4   5
ATOM      5  C   UNL     1     136.254 133.485 130.205  1.00  0.00     0.000 C 
BRANCH   5   6
ATOM      6  C   UNL     1     135.634 132.347 131.030  1.00  0.00     0.006 C 
BRANCH   6   7
ATOM      7  C   UNL     1     134.153 132.118 130.695  1.00  0.00     0.053 C 
BRANCH   7   8
ATOM      8  C   UNL     1     133.934 130.711 130.237  1.00  0.00     0.041 C 
ATOM      9  O   UNL     1     134.853 130.086 129.645  1.00  0.00    -0.550 OA
ATOM     10  O   UNL     1     132.726 130.075 130.496  1.00  0.00    -0.550 OA
ENDBRANCH   7   8
ENDBRANCH   6   7
ENDBRANCH   5   6
ENDBRANCH   4   5
ENDBRANCH   3   4
ENDBRANCH   2   3
ENDBRANCH   1   2
BRANCH   1  11
ATOM     11  C   UNL     1     138.090 130.168 129.260  1.00  0.00     0.000 C 
BRANCH  11  12
ATOM     12  C   UNL     1     139.094 130.611 130.337  1.00  0.00    -0.000 C 
BRANCH  12  13
ATOM     13  C   UNL     1     139.946 131.812 129.892  1.00  0.00    -0.000 C 
BRANCH  13  14
ATOM     14  C   UNL     1     139.675 133.071 130.731  1.00  0.00    -0.000 C 
BRANCH  14  15
ATOM     15  C   UNL     1     139.793 134.366 129.909  1.00  0.00    -0.000 C 
BRANCH  15  16
ATOM     16  C   UNL     1     139.966 135.610 130.806  1.00  0.00    -0.000 C 
BRANCH  16  17
ATOM     17  C   UNL     1     139.238 136.857 130.275  1.00  0.00    -0.003 C 
ATOM     18  C   UNL     1     137.757 136.889 130.645  1.00  0.00     0.004 C 
ENDBRANCH  16  17
ENDBRANCH  15  16
ENDBRANCH  14  15
ENDBRANCH  13  14
ENDBRANCH  12  13
ENDBRANCH  11  12
ENDBRANCH   1  11
TORSDOF 14
ENDMDL
MODEL 5
REMARK VINA RESULT:    -4.858      0.988      2.162
REMARK INTER + INTRA:         -11.305
REMARK INTER:                  -9.217
REMARK INTRA:                  -2.088
REMARK UNBOUND:                -2.470
REMARK SMILES CCCCCCCCCCCCCCCC(=O)[O-]
REMARK SMILES IDX 9 1 10 2 11 3 12 4 13 5 14 6 15 7 16 8 17 9 18 10 8 11 7 12
REMARK SMILES IDX 6 13 5 14 4 15 3 16 2 17 1 18
REMARK H PARENT
REMARK Flexibility Score: inf
ROOT
ATOM      1  C   UNL     1     138.383 130.259 129.154  1.00  0.00     0.000 C 
ENDROOT
BRANCH   1   2
ATOM      2  C   UNL     1     139.274 131.191 129.990  1.00  0.00     0.000 C 
BRANCH   2   3
ATOM      3  C   UNL     1     138.502 131.885 131.126  1.00  0.00     0.000 C 
BRANCH   3   4
ATOM      4  C   UNL     1     138.471 133.414 130.966  1.00  0.00     0.000 C 
BRANCH   4   5
ATOM      5  C   UNL     1     139.071 133.884 129.629  1.00  0.00     0.000 C 
BRANCH   5   6
ATOM      6  C   UNL     1     140.136 134.976 129.812  1.00  0.00     0.006 C 
BRANCH   6   7
ATOM      7  C   UNL     1     139.862 135.866 131.032  1.00  0.00     0.053 C 
BRANCH   7   8
ATOM      8  C   UNL     1     138.979 137.012 130.654  1.00  0.00     0.041 C 
ATOM      9  O   UNL     1     139.457 138.010 130.053  1.00  0.00    -0.550 OA
ATOM     10  O   UNL     1     137.619 136.964 130.932  1.00  0.00    -0.550 OA
ENDBRANCH   7   8
ENDBRANCH   6   7
ENDBRANCH   5   6
ENDBRANCH   4   5
ENDBRANCH   3   4
ENDBRANCH   2   3
ENDBRANCH   1   2
BRANCH   1  11
ATOM     11  C   UNL     1     137.812 130.948 127.903  1.00  0.00     0.000 C 
BRANCH  11  12
ATOM     12  C   UNL     1     136.312 131.258 128.036  1.00  0.00    -0.000 C 
BRANCH  12  13
ATOM     13  C   UNL     1     135.674 130.576 129.258  1.00  0.00    -0.000 C 
BRANCH  13  14
ATOM     14  C   UNL     1     134.231 131.041 129.508  1.00  0.00    -0.000 C 
BRANCH  14  15
ATOM     15  C   UNL     1     134.012 131.542 130.946  1.00  0.00    -0.000 C 
BRANCH  15  16
ATOM     16  C   UNL     1     134.450 133.011 131.123  1.00  0.00    -0.000 C 
BRANCH  16  17
ATOM     17  C   UNL     1     134.174 133.888 129.889  1.00  0.00    -0.003 C 
ATOM     18  C   UNL     1     135.417 134.615 129.380  1.00  0.00     0.004 C 
ENDBRANCH  16  17
ENDBRANCH  15  16
ENDBRANCH  14  15
ENDBRANCH  13  14
ENDBRANCH  12  13
ENDBRANCH  11  12
ENDBRANCH   1  11
TORSDOF 14
ENDMDL
MODEL 6
REMARK VINA RESULT:    -4.827      2.222      4.978
REMARK INTER + INTRA:         -11.248
REMARK INTER:                  -9.185
REMARK INTRA:                  -2.063
REMARK UNBOUND:                -2.470
REMARK SMILES CCCCCCCCCCCCCCCC(=O)[O-]
REMARK SMILES IDX 9 1 10 2 11 3 12 4 13 5 14 6 15 7 16 8 17 9 18 10 8 11 7 12
REMARK SMILES IDX 6 13 5 14 4 15 3 16 2 17 1 18
REMARK H PARENT
REMARK Flexibility Score: inf
ROOT
ATOM      1  C   UNL     1     137.917 130.490 129.574  1.00  0.00     0.000 C 
ENDROOT
BRANCH   1   2
ATOM      2  C   UNL     1     138.120 130.783 128.079  1.00  0.00     0.000 C 
BRANCH   2   3
ATOM      3  C   UNL     1     136.835 131.281 127.394  1.00  0.00     0.000 C 
BRANCH   3   4
ATOM      4  C   UNL     1     136.915 132.766 127.004  1.00  0.00     0.000 C 
BRANCH   4   5
ATOM      5  C   UNL     1     136.899 133.703 128.225  1.00  0.00     0.000 C 
BRANCH   5   6
ATOM      6  C   UNL     1     135.713 133.427 129.163  1.00  0.00     0.006 C 
BRANCH   6   7
ATOM      7  C   UNL     1     136.063 133.663 130.639  1.00  0.00     0.053 C 
BRANCH   7   8
ATOM      8  C   UNL     1     135.252 132.765 131.517  1.00  0.00     0.041 C 
ATOM      9  O   UNL     1     134.352 132.037 131.022  1.00  0.00    -0.550 OA
ATOM     10  O   UNL     1     135.514 132.702 132.881  1.00  0.00    -0.550 OA
ENDBRANCH   7   8
ENDBRANCH   6   7
ENDBRANCH   5   6
ENDBRANCH   4   5
ENDBRANCH   3   4
ENDBRANCH   2   3
ENDBRANCH   1   2
BRANCH   1  11
ATOM     11  C   UNL     1     139.161 130.816 130.418  1.00  0.00     0.000 C 
BRANCH  11  12
ATOM     12  C   UNL     1     139.926 132.040 129.890  1.00  0.00    -0.000 C 
BRANCH  12  13
ATOM     13  C   UNL     1     139.667 133.305 130.727  1.00  0.00    -0.000 C 
BRANCH  13  14
ATOM     14  C   UNL     1     140.007 134.596 129.967  1.00  0.00    -0.000 C 
BRANCH  14  15
ATOM     15  C   UNL     1     139.732 135.861 130.797  1.00  0.00    -0.000 C 
BRANCH  15  16
ATOM     16  C   UNL     1     138.866 136.883 130.031  1.00  0.00    -0.000 C 
BRANCH  16  17
ATOM     17  C   UNL     1     137.507 137.160 130.699  1.00  0.00    -0.003 C 
ATOM     18  C   UNL     1     136.934 138.531 130.344  1.00  0.00     0.004 C 
ENDBRANCH  16  17
ENDBRANCH  15  16
ENDBRANCH  14  15
ENDBRANCH  13  14
ENDBRANCH  12  13
ENDBRANCH  11  12
ENDBRANCH   1  11
TORSDOF 14
ENDMDL
MODEL 7
REMARK VINA RESULT:    -4.818      1.401      2.098
REMARK INTER + INTRA:         -11.231
REMARK INTER:                  -8.986
REMARK INTRA:                  -2.246
REMARK UNBOUND:                -2.470
REMARK SMILES CCCCCCCCCCCCCCCC(=O)[O-]
REMARK SMILES IDX 9 1 10 2 11 3 12 4 13 5 14 6 15 7 16 8 17 9 18 10 8 11 7 12
REMARK SMILES IDX 6 13 5 14 4 15 3 16 2 17 1 18
REMARK H PARENT
REMARK Flexibility Score: inf
ROOT
ATOM      1  C   UNL     1     137.078 131.647 127.156  1.00  0.00     0.000 C 
ENDROOT
BRANCH   1   2
ATOM      2  C   UNL     1     137.270 130.973 128.524  1.00  0.00     0.000 C 
BRANCH   2   3
ATOM      3  C   UNL     1     138.709 130.474 128.741  1.00  0.00     0.000 C 
BRANCH   3   4
ATOM      4  C   UNL     1     139.144 130.552 130.214  1.00  0.00     0.000 C 
BRANCH   4   5
ATOM      5  C   UNL     1     138.177 131.387 131.073  1.00  0.00     0.000 C 
BRANCH   5   6
ATOM      6  C   UNL     1     138.810 132.698 131.566  1.00  0.00     0.006 C 
BRANCH   6   7
ATOM      7  C   UNL     1     139.962 133.169 130.668  1.00  0.00     0.053 C 
BRANCH   7   8
ATOM      8  C   UNL     1     140.405 134.541 131.065  1.00  0.00     0.041 C 
ATOM      9  O   UNL     1     140.071 135.540 130.376  1.00  0.00    -0.550 OA
ATOM     10  O   UNL     1     141.159 134.723 132.218  1.00  0.00    -0.550 OA
ENDBRANCH   7   8
ENDBRANCH   6   7
ENDBRANCH   5   6
ENDBRANCH   4   5
ENDBRANCH   3   4
ENDBRANCH   2   3
ENDBRANCH   1   2
BRANCH   1  11
ATOM     11  C   UNL     1     136.619 133.110 127.274  1.00  0.00     0.000 C 
BRANCH  11  12
ATOM     12  C   UNL     1     137.373 133.876 128.374  1.00  0.00    -0.000 C 
BRANCH  12  13
ATOM     13  C   UNL     1     136.434 134.419 129.464  1.00  0.00    -0.000 C 
BRANCH  13  14
ATOM     14  C   UNL     1     134.952 134.318 129.072  1.00  0.00    -0.000 C 
BRANCH  14  15
ATOM     15  C   UNL     1     134.051 133.925 130.257  1.00  0.00    -0.000 C 
BRANCH  15  16
ATOM     16  C   UNL     1     134.608 132.714 131.034  1.00  0.00    -0.000 C 
BRANCH  16  17
ATOM     17  C   UNL     1     133.686 131.482 130.994  1.00  0.00    -0.003 C 
ATOM     18  C   UNL     1     133.860 130.645 129.729  1.00  0.00     0.004 C 
ENDBRANCH  16  17
ENDBRANCH  15  16
ENDBRANCH  14  15
ENDBRANCH  13  14
ENDBRANCH  12  13
ENDBRANCH  11  12
ENDBRANCH   1  11
TORSDOF 14
ENDMDL
MODEL 8
REMARK VINA RESULT:    -4.733      2.695      5.472
REMARK INTER + INTRA:         -11.077
REMARK INTER:                  -8.953
REMARK INTRA:                  -2.124
REMARK UNBOUND:                -2.470
REMARK SMILES CCCCCCCCCCCCCCCC(=O)[O-]
REMARK SMILES IDX 9 1 10 2 11 3 12 4 13 5 14 6 15 7 16 8 17 9 18 10 8 11 7 12
REMARK SMILES IDX 6 13 5 14 4 15 3 16 2 17 1 18
REMARK H PARENT
REMARK Flexibility Score: inf
ROOT
ATOM      1  C   UNL     1     138.076 132.119 132.024  1.00  0.00     0.000 C 
ENDROOT
BRANCH   1   2
ATOM      2  C   UNL     1     136.568 132.367 131.868  1.00  0.00     0.000 C 
BRANCH   2   3
ATOM      3  C   UNL     1     136.258 133.697 131.160  1.00  0.00     0.000 C 
BRANCH   3   4
ATOM      4  C   UNL     1     134.944 133.646 130.362  1.00  0.00     0.000 C 
BRANCH   4   5
ATOM      5  C   UNL     1     135.128 134.051 128.888  1.00  0.00     0.000 C 
BRANCH   5   6
ATOM      6  C   UNL     1     136.576 133.872 128.405  1.00  0.00     0.006 C 
BRANCH   6   7
ATOM      7  C   UNL     1     136.675 132.981 127.159  1.00  0.00     0.053 C 
BRANCH   7   8
ATOM      8  C   UNL     1     136.831 131.547 127.555  1.00  0.00     0.041 C 
ATOM      9  O   UNL     1     137.858 130.903 127.215  1.00  0.00    -0.550 OA
ATOM     10  O   UNL     1     135.859 130.929 128.333  1.00  0.00    -0.550 OA
ENDBRANCH   7   8
ENDBRANCH   6   7
ENDBRANCH   5   6
ENDBRANCH   4   5
ENDBRANCH   3   4
ENDBRANCH   2   3
ENDBRANCH   1   2
BRANCH   1  11
ATOM     11  C   UNL     1     138.742 131.664 130.714  1.00  0.00     0.000 C 
BRANCH  11  12
ATOM     12  C   UNL     1     139.613 132.762 130.084  1.00  0.00    -0.000 C 
BRANCH  12  13
ATOM     13  C   UNL     1     140.110 133.788 131.118  1.00  0.00    -0.000 C 
BRANCH  13  14
ATOM     14  C   UNL     1     140.431 135.152 130.490  1.00  0.00    -0.000 C 
BRANCH  14  15
ATOM     15  C   UNL     1     139.192 135.830 129.880  1.00  0.00    -0.000 C 
BRANCH  15  16
ATOM     16  C   UNL     1     138.631 136.943 130.789  1.00  0.00    -0.000 C 
BRANCH  16  17
ATOM     17  C   UNL     1     137.136 137.229 130.560  1.00  0.00    -0.003 C 
ATOM     18  C   UNL     1     136.841 138.707 130.314  1.00  0.00     0.004 C 
ENDBRANCH  16  17
ENDBRANCH  15  16
ENDBRANCH  14  15
ENDBRANCH  13  14
ENDBRANCH  12  13
ENDBRANCH  11  12
ENDBRANCH   1  11
TORSDOF 14
ENDMDL
MODEL 9
REMARK VINA RESULT:    -4.689      1.473      3.484
REMARK INTER + INTRA:         -10.997
REMARK INTER:                  -8.882
REMARK INTRA:                  -2.114
REMARK UNBOUND:                -2.470
REMARK SMILES CCCCCCCCCCCCCCCC(=O)[O-]
REMARK SMILES IDX 9 1 10 2 11 3 12 4 13 5 14 6 15 7 16 8 17 9 18 10 8 11 7 12
REMARK SMILES IDX 6 13 5 14 4 15 3 16 2 17 1 18
REMARK H PARENT
REMARK Flexibility Score: inf
ROOT
ATOM      1  C   UNL     1     137.981 132.633 131.494  1.00  0.00     0.000 C 
ENDROOT
BRANCH   1   2
ATOM      2  C   UNL     1     139.435 133.009 131.168  1.00  0.00     0.000 C 
BRANCH   2   3
ATOM      3  C   UNL     1     139.536 134.071 130.059  1.00  0.00     0.000 C 
BRANCH   3   4
ATOM      4  C   UNL     1     140.364 135.294 130.490  1.00  0.00     0.000 C 
BRANCH   4   5
ATOM      5  C   UNL     1     139.488 136.455 130.994  1.00  0.00     0.000 C 
BRANCH   5   6
ATOM      6  C   UNL     1     138.831 137.239 129.846  1.00  0.00     0.006 C 
BRANCH   6   7
ATOM      7  C   UNL     1     138.169 138.538 130.325  1.00  0.00     0.053 C 
BRANCH   7   8
ATOM      8  C   UNL     1     136.679 138.421 130.254  1.00  0.00     0.041 C 
ATOM      9  O   UNL     1     135.980 139.414 129.921  1.00  0.00    -0.550 OA
ATOM     10  O   UNL     1     136.063 137.204 130.519  1.00  0.00    -0.550 OA
ENDBRANCH   7   8
ENDBRANCH   6   7
ENDBRANCH   5   6
ENDBRANCH   4   5
ENDBRANCH   3   4
ENDBRANCH   2   3
ENDBRANCH   1   2
BRANCH   1  11
ATOM     11  C   UNL     1     136.975 133.707 131.047  1.00  0.00     0.000 C 
BRANCH  11  12
ATOM     12  C   UNL     1     135.563 133.139 130.836  1.00  0.00    -0.000 C 
BRANCH  12  13
ATOM     13  C   UNL     1     135.332 132.652 129.395  1.00  0.00    -0.000 C 
BRANCH  13  14
ATOM     14  C   UNL     1     136.017 133.548 128.352  1.00  0.00    -0.000 C 
BRANCH  14  15
ATOM     15  C   UNL     1     136.968 132.764 127.432  1.00  0.00    -0.000 C 
BRANCH  15  16
ATOM     16  C   UNL     1     137.004 131.260 127.778  1.00  0.00    -0.000 C 
BRANCH  16  17
ATOM     17  C   UNL     1     138.385 130.771 128.251  1.00  0.00    -0.003 C 
ATOM     18  C   UNL     1     138.305 129.793 129.421  1.00  0.00     0.004 C 
ENDBRANCH  16  17
ENDBRANCH  15  16
ENDBRANCH  14  15
ENDBRANCH  13  14
ENDBRANCH  12  13
ENDBRANCH  11  12
ENDBRANCH   1  11
TORSDOF 14
ENDMDL
