MODEL 1
REMARK VINA RESULT:    -5.508      0.000      0.000
REMARK INTER + INTRA:         -10.919
REMARK INTER:                 -10.016
REMARK INTRA:                  -0.903
REMARK UNBOUND:                -0.903
REMARK SMILES CCCCCCCCCCCCCCCC(=O)[O-]
REMARK SMILES IDX 9 1 10 2 11 3 12 4 13 5 14 6 15 7 16 8 17 9 18 10 8 11 7 12
REMARK SMILES IDX 6 13 5 14 4 15 3 16 2 17 1 18
REMARK H PARENT
REMARK Flexibility Score: inf
ROOT
ATOM      1  C   UNL     1      12.232   8.528 -18.271  1.00  0.00     0.000 C 
ENDROOT
BRANCH   1   2
ATOM      2  C   UNL     1      13.251   7.471 -18.727  1.00  0.00     0.000 C 
BRANCH   2   3
ATOM      3  C   UNL     1      13.313   7.332 -20.258  1.00  0.00     0.000 C 
BRANCH   3   4
ATOM      4  C   UNL     1      14.700   6.893 -20.762  1.00  0.00     0.000 C 
BRANCH   4   5
ATOM      5  C   UNL     1      15.428   7.916 -21.658  1.00  0.00     0.000 C 
BRANCH   5   6
ATOM      6  C   UNL     1      16.691   8.543 -21.040  1.00  0.00     0.006 C 
BRANCH   6   7
ATOM      7  C   UNL     1      16.717   8.445 -19.509  1.00  0.00     0.053 C 
BRANCH   7   8
ATOM      8  C   UNL     1      17.784   9.329 -18.947  1.00  0.00     0.041 C 
ATOM      9  O   UNL     1      17.812  10.553 -19.242  1.00  0.00    -0.550 OA
ATOM     10  O   UNL     1      18.717   8.813 -18.058  1.00  0.00    -0.550 OA
ENDBRANCH   7   8
ENDBRANCH   6   7
ENDBRANCH   5   6
ENDBRANCH   4   5
ENDBRANCH   3   4
ENDBRANCH   2   3
ENDBRANCH   1   2
BRANCH   1  11
ATOM     11  C   UNL     1      11.482   9.171 -19.451  1.00  0.00     0.000 C 
BRANCH  11  12
ATOM     12  C   UNL     1      10.871  10.534 -19.088  1.00  0.00    -0.000 C 
BRANCH  12  13
ATOM     13  C   UNL     1      10.829  10.780 -17.569  1.00  0.00    -0.000 C 
BRANCH  13  14
ATOM     14  C   UNL     1      10.433  12.223 -17.214  1.00  0.00    -0.000 C 
BRANCH  14  15
ATOM     15  C   UNL     1       9.916  13.009 -18.431  1.00  0.00    -0.000 C 
BRANCH  15  16
ATOM     16  C   UNL     1       9.519  14.451 -18.075  1.00  0.00    -0.000 C 
BRANCH  16  17
ATOM     17  C   UNL     1       8.964  15.228 -19.279  1.00  0.00    -0.003 C 
ATOM     18  C   UNL     1       8.602  14.283 -20.421  1.00  0.00     0.004 C 
ENDBRANCH  16  17
ENDBRANCH  15  16
ENDBRANCH  14  15
ENDBRANCH  13  14
ENDBRANCH  12  13
ENDBRANCH  11  12
ENDBRANCH   1  11
TORSDOF 14
ENDMDL
MODEL 2
REMARK VINA RESULT:    -5.499      0.878      1.716
REMARK INTER + INTRA:         -10.902
REMARK INTER:                 -10.046
REMARK INTRA:                  -0.856
REMARK UNBOUND:                -0.903
REMARK SMILES CCCCCCCCCCCCCCCC(=O)[O-]
REMARK SMILES IDX 9 1 10 2 11 3 12 4 13 5 14 6 15 7 16 8 17 9 18 10 8 11 7 12
REMARK SMILES IDX 6 13 5 14 4 15 3 16 2 17 1 18
REMARK H PARENT
REMARK Flexibility Score: inf
ROOT
ATOM      1  C   UNL     1      13.236   7.482 -18.793  1.00  0.00     0.000 C 
ENDROOT
BRANCH   1   2
ATOM      2  C   UNL     1      13.418   7.284 -20.307  1.00  0.00     0.000 C 
BRANCH   2   3
ATOM      3  C   UNL     1      14.752   6.601 -20.657  1.00  0.00     0.000 C 
BRANCH   3   4
ATOM      4  C   UNL     1      15.485   7.285 -21.824  1.00  0.00     0.000 C 
BRANCH   4   5
ATOM      5  C   UNL     1      15.410   8.825 -21.836  1.00  0.00     0.000 C 
BRANCH   5   6
ATOM      6  C   UNL     1      16.737   9.546 -21.536  1.00  0.00     0.006 C 
BRANCH   6   7
ATOM      7  C   UNL     1      17.590   8.812 -20.493  1.00  0.00     0.053 C 
BRANCH   7   8
ATOM      8  C   UNL     1      17.862   9.702 -19.321  1.00  0.00     0.041 C 
ATOM      9  O   UNL     1      18.331   9.220 -18.256  1.00  0.00    -0.550 OA
ATOM     10  O   UNL     1      17.645  11.069 -19.422  1.00  0.00    -0.550 OA
ENDBRANCH   7   8
ENDBRANCH   6   7
ENDBRANCH   5   6
ENDBRANCH   4   5
ENDBRANCH   3   4
ENDBRANCH   2   3
ENDBRANCH   1   2
BRANCH   1  11
ATOM     11  C   UNL     1      11.960   8.271 -18.450  1.00  0.00     0.000 C 
BRANCH  11  12
ATOM     12  C   UNL     1      11.625   9.338 -19.504  1.00  0.00    -0.000 C 
BRANCH  12  13
ATOM     13  C   UNL     1      10.656  10.411 -18.976  1.00  0.00    -0.000 C 
BRANCH  13  14
ATOM     14  C   UNL     1      10.271  11.442 -20.049  1.00  0.00    -0.000 C 
BRANCH  14  15
ATOM     15  C   UNL     1       9.636  12.708 -19.449  1.00  0.00    -0.000 C 
BRANCH  15  16
ATOM     16  C   UNL     1      10.003  12.906 -17.969  1.00  0.00    -0.000 C 
BRANCH  16  17
ATOM     17  C   UNL     1       9.738  14.338 -17.479  1.00  0.00    -0.003 C 
ATOM     18  C   UNL     1       9.180  15.208 -18.601  1.00  0.00     0.004 C 
ENDBRANCH  16  17
ENDBRANCH  15  16
ENDBRANCH  14  15
ENDBRANCH  13  14
ENDBRANCH  12  13
ENDBRANCH  11  12
ENDBRANCH   1  11
TORSDOF 14
ENDMDL
MODEL 3
REMARK VINA RESULT:    -5.461      1.135      2.348
REMARK INTER + INTRA:         -10.834
REMARK INTER:                  -9.800
REMARK INTRA:                  -1.033
REMARK UNBOUND:                -0.903
REMARK SMILES CCCCCCCCCCCCCCCC(=O)[O-]
REMARK SMILES IDX 9 1 10 2 11 3 12 4 13 5 14 6 15 7 16 8 17 9 18 10 8 11 7 12
REMARK SMILES IDX 6 13 5 14 4 15 3 16 2 17 1 18
REMARK H PARENT
REMARK Flexibility Score: inf
ROOT
ATOM      1  C   UNL     1      13.481   7.159 -20.415  1.00  0.00     0.000 C 
ENDROOT
BRANCH   1   2
ATOM      2  C   UNL     1      14.731   6.363 -20.823  1.00  0.00     0.000 C 
BRANCH   2   3
ATOM      3  C   UNL     1      15.573   7.092 -21.885  1.00  0.00     0.000 C 
BRANCH   3   4
ATOM      4  C   UNL     1      15.205   8.580 -22.021  1.00  0.00     0.000 C 
BRANCH   4   5
ATOM      5  C   UNL     1      16.324   9.572 -21.643  1.00  0.00     0.000 C 
BRANCH   5   6
ATOM      6  C   UNL     1      17.503   8.962 -20.866  1.00  0.00     0.006 C 
BRANCH   6   7
ATOM      7  C   UNL     1      17.376   9.147 -19.348  1.00  0.00     0.053 C 
BRANCH   7   8
ATOM      8  C   UNL     1      18.702   8.954 -18.686  1.00  0.00     0.041 C 
ATOM      9  O   UNL     1      19.767   9.161 -19.327  1.00  0.00    -0.550 OA
ATOM     10  O   UNL     1      18.764   8.594 -17.346  1.00  0.00    -0.550 OA
ENDBRANCH   7   8
ENDBRANCH   6   7
ENDBRANCH   5   6
ENDBRANCH   4   5
ENDBRANCH   3   4
ENDBRANCH   2   3
ENDBRANCH   1   2
BRANCH   1  11
ATOM     11  C   UNL     1      13.235   7.133 -18.895  1.00  0.00     0.000 C 
BRANCH  11  12
ATOM     12  C   UNL     1      12.565   8.418 -18.384  1.00  0.00    -0.000 C 
BRANCH  12  13
ATOM     13  C   UNL     1      11.603   9.036 -19.415  1.00  0.00    -0.000 C 
BRANCH  13  14
ATOM     14  C   UNL     1      10.857  10.264 -18.867  1.00  0.00    -0.000 C 
BRANCH  14  15
ATOM     15  C   UNL     1      10.596  11.326 -19.949  1.00  0.00    -0.000 C 
BRANCH  15  16
ATOM     16  C   UNL     1       9.778  12.516 -19.421  1.00  0.00    -0.000 C 
BRANCH  16  17
ATOM     17  C   UNL     1      10.087  12.843 -17.952  1.00  0.00    -0.003 C 
ATOM     18  C   UNL     1       9.696  14.279 -17.616  1.00  0.00     0.004 C 
ENDBRANCH  16  17
ENDBRANCH  15  16
ENDBRANCH  14  15
ENDBRANCH  13  14
ENDBRANCH  12  13
ENDBRANCH  11  12
ENDBRANCH   1  11
TORSDOF 14
ENDMDL
MODEL 4
REMARK VINA RESULT:    -5.435      1.620      2.811
REMARK INTER + INTRA:         -10.786
REMARK INTER:                 -10.004
REMARK INTRA:                  -0.782
REMARK UNBOUND:                -0.903
REMARK SMILES CCCCCCCCCCCCCCCC(=O)[O-]
REMARK SMILES IDX 9 1 10 2 11 3 12 4 13 5 14 6 15 7 16 8 17 9 18 10 8 11 7 12
REMARK SMILES IDX 6 13 5 14 4 15 3 16 2 17 1 18
REMARK H PARENT
REMARK Flexibility Score: inf
ROOT
ATOM      1  C   UNL     1      13.567   7.306 -20.411  1.00  0.00     0.000 C 
ENDROOT
BRANCH   1   2
ATOM      2  C   UNL     1      14.762   6.461 -20.881  1.00  0.00     0.000 C 
BRANCH   2   3
ATOM      3  C   UNL     1      15.704   7.240 -21.816  1.00  0.00     0.000 C 
BRANCH   3   4
ATOM      4  C   UNL     1      16.026   8.653 -21.298  1.00  0.00     0.000 C 
BRANCH   4   5
ATOM      5  C   UNL     1      17.338   8.776 -20.496  1.00  0.00     0.000 C 
BRANCH   5   6
ATOM      6  C   UNL     1      17.564  10.140 -19.820  1.00  0.00     0.006 C 
BRANCH   6   7
ATOM      7  C   UNL     1      17.638  11.298 -20.823  1.00  0.00     0.053 C 
BRANCH   7   8
ATOM      8  C   UNL     1      17.840  12.596 -20.109  1.00  0.00     0.041 C 
ATOM      9  O   UNL     1      19.003  12.996 -19.839  1.00  0.00    -0.550 OA
ATOM     10  O   UNL     1      16.747  13.389 -19.786  1.00  0.00    -0.550 OA
ENDBRANCH   7   8
ENDBRANCH   6   7
ENDBRANCH   5   6
ENDBRANCH   4   5
ENDBRANCH   3   4
ENDBRANCH   2   3
ENDBRANCH   1   2
BRANCH   1  11
ATOM     11  C   UNL     1      13.275   7.133 -18.910  1.00  0.00     0.000 C 
BRANCH  11  12
ATOM     12  C   UNL     1      12.518   8.330 -18.314  1.00  0.00    -0.000 C 
BRANCH  12  13
ATOM     13  C   UNL     1      11.682   9.086 -19.362  1.00  0.00    -0.000 C 
BRANCH  13  14
ATOM     14  C   UNL     1      10.772  10.155 -18.736  1.00  0.00    -0.000 C 
BRANCH  14  15
ATOM     15  C   UNL     1      10.543  11.355 -19.671  1.00  0.00    -0.000 C 
BRANCH  15  16
ATOM     16  C   UNL     1      10.056  12.604 -18.918  1.00  0.00    -0.000 C 
BRANCH  16  17
ATOM     17  C   UNL     1       9.190  13.524 -19.792  1.00  0.00    -0.003 C 
ATOM     18  C   UNL     1       8.297  12.712 -20.726  1.00  0.00     0.004 C 
ENDBRANCH  16  17
ENDBRANCH  15  16
ENDBRANCH  14  15
ENDBRANCH  13  14
ENDBRANCH  12  13
ENDBRANCH  11  12
ENDBRANCH   1  11
TORSDOF 14
ENDMDL
MODEL 5
REMARK VINA RESULT:    -5.431      4.126      6.578
REMARK INTER + INTRA:         -10.780
REMARK INTER:                  -9.160
REMARK INTRA:                  -1.619
REMARK UNBOUND:                -0.903
REMARK SMILES CCCCCCCCCCCCCCCC(=O)[O-]
REMARK SMILES IDX 9 1 10 2 11 3 12 4 13 5 14 6 15 7 16 8 17 9 18 10 8 11 7 12
REMARK SMILES IDX 6 13 5 14 4 15 3 16 2 17 1 18
REMARK H PARENT
REMARK Flexibility Score: inf
ROOT
ATOM      1  C   UNL     1      18.228   8.889 -19.076  1.00  0.00     0.000 C 
ENDROOT
BRANCH   1   2
ATOM      2  C   UNL     1      19.312   9.029 -20.157  1.00  0.00     0.000 C 
BRANCH   2   3
ATOM      3  C   UNL     1      19.790  10.481 -20.329  1.00  0.00     0.000 C 
BRANCH   3   4
ATOM      4  C   UNL     1      19.522  11.035 -21.740  1.00  0.00     0.000 C 
BRANCH   4   5
ATOM      5  C   UNL     1      18.418  12.108 -21.826  1.00  0.00     0.000 C 
BRANCH   5   6
ATOM      6  C   UNL     1      17.664  12.377 -20.512  1.00  0.00     0.006 C 
BRANCH   6   7
ATOM      7  C   UNL     1      17.324  13.860 -20.312  1.00  0.00     0.053 C 
BRANCH   7   8
ATOM      8  C   UNL     1      18.303  14.499 -19.381  1.00  0.00     0.041 C 
ATOM      9  O   UNL     1      17.944  15.454 -18.642  1.00  0.00    -0.550 OA
ATOM     10  O   UNL     1      19.599  14.009 -19.291  1.00  0.00    -0.550 OA
ENDBRANCH   7   8
ENDBRANCH   6   7
ENDBRANCH   5   6
ENDBRANCH   4   5
ENDBRANCH   3   4
ENDBRANCH   2   3
ENDBRANCH   1   2
BRANCH   1  11
ATOM     11  C   UNL     1      16.808   8.836 -19.667  1.00  0.00     0.000 C 
BRANCH  11  12
ATOM     12  C   UNL     1      16.811   8.722 -21.200  1.00  0.00    -0.000 C 
BRANCH  12  13
ATOM     13  C   UNL     1      15.511   8.110 -21.752  1.00  0.00    -0.000 C 
BRANCH  13  14
ATOM     14  C   UNL     1      15.311   6.649 -21.315  1.00  0.00    -0.000 C 
BRANCH  14  15
ATOM     15  C   UNL     1      14.020   6.449 -20.504  1.00  0.00    -0.000 C 
BRANCH  15  16
ATOM     16  C   UNL     1      13.107   7.686 -20.534  1.00  0.00    -0.000 C 
BRANCH  16  17
ATOM     17  C   UNL     1      12.323   7.877 -19.227  1.00  0.00    -0.003 C 
ATOM     18  C   UNL     1      13.240   7.747 -18.014  1.00  0.00     0.004 C 
ENDBRANCH  16  17
ENDBRANCH  15  16
ENDBRANCH  14  15
ENDBRANCH  13  14
ENDBRANCH  12  13
ENDBRANCH  11  12
ENDBRANCH   1  11
TORSDOF 14
ENDMDL
MODEL 6
REMARK VINA RESULT:    -5.427      2.285      4.906
REMARK INTER + INTRA:         -10.772
REMARK INTER:                  -9.745
REMARK INTRA:                  -1.027
REMARK UNBOUND:                -0.903
REMARK SMILES CCCCCCCCCCCCCCCC(=O)[O-]
REMARK SMILES IDX 9 1 10 2 11 3 12 4 13 5 14 6 15 7 16 8 17 9 18 10 8 11 7 12
REMARK SMILES IDX 6 13 5 14 4 15 3 16 2 17 1 18
REMARK H PARENT
REMARK Flexibility Score: inf
ROOT
ATOM      1  C   UNL     1      16.582   8.425 -21.346  1.00  0.00     0.000 C 
ENDROOT
BRANCH   1   2
ATOM      2  C   UNL     1      16.694   8.416 -19.813  1.00  0.00     0.000 C 
BRANCH   2   3
ATOM      3  C   UNL     1      17.816   9.334 -19.298  1.00  0.00     0.000 C 
BRANCH   3   4
ATOM      4  C   UNL     1      19.124   9.183 -20.096  1.00  0.00     0.000 C 
BRANCH   4   5
ATOM      5  C   UNL     1      19.613  10.462 -20.806  1.00  0.00     0.000 C 
BRANCH   5   6
ATOM      6  C   UNL     1      18.564  11.160 -21.691  1.00  0.00     0.006 C 
BRANCH   6   7
ATOM      7  C   UNL     1      18.625  12.690 -21.592  1.00  0.00     0.053 C 
BRANCH   7   8
ATOM      8  C   UNL     1      18.268  13.139 -20.211  1.00  0.00     0.041 C 
ATOM      9  O   UNL     1      19.153  13.614 -19.451  1.00  0.00    -0.550 OA
ATOM     10  O   UNL     1      16.949  13.080 -19.780  1.00  0.00    -0.550 OA
ENDBRANCH   7   8
ENDBRANCH   6   7
ENDBRANCH   5   6
ENDBRANCH   4   5
ENDBRANCH   3   4
ENDBRANCH   2   3
ENDBRANCH   1   2
BRANCH   1  11
ATOM     11  C   UNL     1      15.361   7.637 -21.853  1.00  0.00     0.000 C 
BRANCH  11  12
ATOM     12  C   UNL     1      14.787   6.689 -20.788  1.00  0.00    -0.000 C 
BRANCH  12  13
ATOM     13  C   UNL     1      13.397   7.126 -20.290  1.00  0.00    -0.000 C 
BRANCH  13  14
ATOM     14  C   UNL     1      13.285   7.110 -18.757  1.00  0.00    -0.000 C 
BRANCH  14  15
ATOM     15  C   UNL     1      12.477   8.300 -18.213  1.00  0.00    -0.000 C 
BRANCH  15  16
ATOM     16  C   UNL     1      11.740   9.069 -19.322  1.00  0.00    -0.000 C 
BRANCH  16  17
ATOM     17  C   UNL     1      10.841  10.186 -18.773  1.00  0.00    -0.003 C 
ATOM     18  C   UNL     1      10.513  11.209 -19.857  1.00  0.00     0.004 C 
ENDBRANCH  16  17
ENDBRANCH  15  16
ENDBRANCH  14  15
ENDBRANCH  13  14
ENDBRANCH  12  13
ENDBRANCH  11  12
ENDBRANCH   1  11
TORSDOF 14
ENDMDL
MODEL 7
REMARK VINA RESULT:    -5.235      3.364      7.472
REMARK INTER + INTRA:         -10.422
REMARK INTER:                  -9.310
REMARK INTRA:                  -1.112
REMARK UNBOUND:                -0.903
REMARK SMILES CCCCCCCCCCCCCCCC(=O)[O-]
REMARK SMILES IDX 9 1 10 2 11 3 12 4 13 5 14 6 15 7 16 8 17 9 18 10 8 11 7 12
REMARK SMILES IDX 6 13 5 14 4 15 3 16 2 17 1 18
REMARK H PARENT
REMARK Flexibility Score: inf
ROOT
ATOM      1  C   UNL     1      16.403   8.450 -21.392  1.00  0.00     0.000 C 
ENDROOT
BRANCH   1   2
ATOM      2  C   UNL     1      15.513   7.293 -21.871  1.00  0.00     0.000 C 
BRANCH   2   3
ATOM      3  C   UNL     1      14.803   6.575 -20.710  1.00  0.00     0.000 C 
BRANCH   3   4
ATOM      4  C   UNL     1      13.454   7.221 -20.345  1.00  0.00     0.000 C 
BRANCH   4   5
ATOM      5  C   UNL     1      13.171   7.342 -18.834  1.00  0.00     0.000 C 
BRANCH   5   6
ATOM      6  C   UNL     1      12.174   8.448 -18.442  1.00  0.00     0.006 C 
BRANCH   6   7
ATOM      7  C   UNL     1      11.602   9.191 -19.656  1.00  0.00     0.053 C 
BRANCH   7   8
ATOM      8  C   UNL     1      10.816  10.384 -19.216  1.00  0.00     0.041 C 
ATOM      9  O   UNL     1      10.852  10.757 -18.013  1.00  0.00    -0.550 OA
ATOM     10  O   UNL     1      10.082  11.114 -20.141  1.00  0.00    -0.550 OA
ENDBRANCH   7   8
ENDBRANCH   6   7
ENDBRANCH   5   6
ENDBRANCH   4   5
ENDBRANCH   3   4
ENDBRANCH   2   3
ENDBRANCH   1   2
BRANCH   1  11
ATOM     11  C   UNL     1      16.633   8.428 -19.870  1.00  0.00     0.000 C 
BRANCH  11  12
ATOM     12  C   UNL     1      17.725   9.413 -19.424  1.00  0.00    -0.000 C 
BRANCH  12  13
ATOM     13  C   UNL     1      19.105   9.079 -20.019  1.00  0.00    -0.000 C 
BRANCH  13  14
ATOM     14  C   UNL     1      19.748  10.279 -20.734  1.00  0.00    -0.000 C 
BRANCH  14  15
ATOM     15  C   UNL     1      18.870  11.541 -20.671  1.00  0.00    -0.000 C 
BRANCH  15  16
ATOM     16  C   UNL     1      18.369  11.979 -22.058  1.00  0.00    -0.000 C 
BRANCH  16  17
ATOM     17  C   UNL     1      19.410  11.754 -23.164  1.00  0.00    -0.003 C 
ATOM     18  C   UNL     1      18.740  11.593 -24.524  1.00  0.00     0.004 C 
ENDBRANCH  16  17
ENDBRANCH  15  16
ENDBRANCH  14  15
ENDBRANCH  13  14
ENDBRANCH  12  13
ENDBRANCH  11  12
ENDBRANCH   1  11
TORSDOF 14
ENDMDL
MODEL 8
REMARK VINA RESULT:    -5.189      3.614      7.645
REMARK INTER + INTRA:         -10.338
REMARK INTER:                  -9.359
REMARK INTRA:                  -0.979
REMARK UNBOUND:                -0.903
REMARK SMILES CCCCCCCCCCCCCCCC(=O)[O-]
REMARK SMILES IDX 9 1 10 2 11 3 12 4 13 5 14 6 15 7 16 8 17 9 18 10 8 11 7 12
REMARK SMILES IDX 6 13 5 14 4 15 3 16 2 17 1 18
REMARK H PARENT
REMARK Flexibility Score: inf
ROOT
ATOM      1  C   UNL     1      14.852   6.769 -20.583  1.00  0.00     0.000 C 
ENDROOT
BRANCH   1   2
ATOM      2  C   UNL     1      13.403   7.243 -20.383  1.00  0.00     0.000 C 
BRANCH   2   3
ATOM      3  C   UNL     1      12.966   7.197 -18.908  1.00  0.00     0.000 C 
BRANCH   3   4
ATOM      4  C   UNL     1      12.278   8.495 -18.449  1.00  0.00     0.000 C 
BRANCH   4   5
ATOM      5  C   UNL     1      11.542   9.277 -19.557  1.00  0.00     0.000 C 
BRANCH   5   6
ATOM      6  C   UNL     1      10.698  10.466 -19.066  1.00  0.00     0.006 C 
BRANCH   6   7
ATOM      7  C   UNL     1      10.705  11.646 -20.046  1.00  0.00     0.053 C 
BRANCH   7   8
ATOM      8  C   UNL     1       9.349  12.274 -20.118  1.00  0.00     0.041 C 
ATOM      9  O   UNL     1       9.135  13.383 -19.560  1.00  0.00    -0.550 OA
ATOM     10  O   UNL     1       8.337  11.659 -20.842  1.00  0.00    -0.550 OA
ENDBRANCH   7   8
ENDBRANCH   6   7
ENDBRANCH   5   6
ENDBRANCH   4   5
ENDBRANCH   3   4
ENDBRANCH   2   3
ENDBRANCH   1   2
BRANCH   1  11
ATOM     11  C   UNL     1      15.553   7.492 -21.748  1.00  0.00     0.000 C 
BRANCH  11  12
ATOM     12  C   UNL     1      16.541   8.566 -21.266  1.00  0.00    -0.000 C 
BRANCH  12  13
ATOM     13  C   UNL     1      16.703   8.579 -19.735  1.00  0.00    -0.000 C 
BRANCH  13  14
ATOM     14  C   UNL     1      18.016   9.240 -19.283  1.00  0.00    -0.000 C 
BRANCH  14  15
ATOM     15  C   UNL     1      19.020   9.404 -20.437  1.00  0.00    -0.000 C 
BRANCH  15  16
ATOM     16  C   UNL     1      19.452  10.866 -20.639  1.00  0.00    -0.000 C 
BRANCH  16  17
ATOM     17  C   UNL     1      18.406  11.694 -21.401  1.00  0.00    -0.003 C 
ATOM     18  C   UNL     1      18.650  11.636 -22.906  1.00  0.00     0.004 C 
ENDBRANCH  16  17
ENDBRANCH  15  16
ENDBRANCH  14  15
ENDBRANCH  13  14
ENDBRANCH  12  13
ENDBRANCH  11  12
ENDBRANCH   1  11
TORSDOF 14
ENDMDL
MODEL 9
REMARK VINA RESULT:    -5.150      3.194      7.455
REMARK INTER + INTRA:         -10.268
REMARK INTER:                  -9.093
REMARK INTRA:                  -1.175
REMARK UNBOUND:                -0.903
REMARK SMILES CCCCCCCCCCCCCCCC(=O)[O-]
REMARK SMILES IDX 9 1 10 2 11 3 12 4 13 5 14 6 15 7 16 8 17 9 18 10 8 11 7 12
REMARK SMILES IDX 6 13 5 14 4 15 3 16 2 17 1 18
REMARK H PARENT
REMARK Flexibility Score: inf
ROOT
ATOM      1  C   UNL     1      15.504   7.383 -21.655  1.00  0.00     0.000 C 
ENDROOT
BRANCH   1   2
ATOM      2  C   UNL     1      14.896   6.650 -20.449  1.00  0.00     0.000 C 
BRANCH   2   3
ATOM      3  C   UNL     1      13.357   6.670 -20.460  1.00  0.00     0.000 C 
BRANCH   3   4
ATOM      4  C   UNL     1      12.764   7.535 -19.334  1.00  0.00     0.000 C 
BRANCH   4   5
ATOM      5  C   UNL     1      12.198   8.899 -19.781  1.00  0.00     0.000 C 
BRANCH   5   6
ATOM      6  C   UNL     1      11.117   9.491 -18.860  1.00  0.00     0.006 C 
BRANCH   6   7
ATOM      7  C   UNL     1      10.654  10.884 -19.304  1.00  0.00     0.053 C 
BRANCH   7   8
ATOM      8  C   UNL     1      10.533  11.795 -18.124  1.00  0.00     0.041 C 
ATOM      9  O   UNL     1      10.144  12.983 -18.278  1.00  0.00    -0.550 OA
ATOM     10  O   UNL     1      10.800  11.318 -16.848  1.00  0.00    -0.550 OA
ENDBRANCH   7   8
ENDBRANCH   6   7
ENDBRANCH   5   6
ENDBRANCH   4   5
ENDBRANCH   3   4
ENDBRANCH   2   3
ENDBRANCH   1   2
BRANCH   1  11
ATOM     11  C   UNL     1      16.520   8.462 -21.240  1.00  0.00     0.000 C 
BRANCH  11  12
ATOM     12  C   UNL     1      16.644   8.598 -19.714  1.00  0.00    -0.000 C 
BRANCH  12  13
ATOM     13  C   UNL     1      17.916   9.355 -19.287  1.00  0.00    -0.000 C 
BRANCH  13  14
ATOM     14  C   UNL     1      19.121   9.043 -20.189  1.00  0.00    -0.000 C 
BRANCH  14  15
ATOM     15  C   UNL     1      19.797  10.316 -20.729  1.00  0.00    -0.000 C 
BRANCH  15  16
ATOM     16  C   UNL     1      18.791  11.446 -21.004  1.00  0.00    -0.000 C 
BRANCH  16  17
ATOM     17  C   UNL     1      18.301  11.462 -22.460  1.00  0.00    -0.003 C 
ATOM     18  C   UNL     1      19.442  11.781 -23.420  1.00  0.00     0.004 C 
ENDBRANCH  16  17
ENDBRANCH  15  16
ENDBRANCH  14  15
ENDBRANCH  13  14
ENDBRANCH  12  13
ENDBRANCH  11  12
ENDBRANCH   1  11
TORSDOF 14
ENDMDL
