MODEL 1
REMARK VINA RESULT:    -4.299      0.000      0.000
REMARK INTER + INTRA:         -10.633
REMARK INTER:                  -9.325
REMARK INTRA:                  -1.308
REMARK UNBOUND:                -1.308
REMARK SMILES CCCCCCCCCCCCCCCCCCCCCC(=O)[O-]
REMARK SMILES IDX 12 1 11 2 10 3 9 4 8 5 7 6 6 7 5 8 4 9 3 10 2 11 1 12 13 13
REMARK SMILES IDX 14 14 15 15 16 16 17 17 18 18 19 19 20 20 21 21 22 22 23 23
REMARK SMILES IDX 24 24
REMARK H PARENT
REMARK Flexibility Score: inf
ROOT
ATOM      1  C   UNL     1       1.565  21.561  35.086  1.00  0.00     0.000 C 
ENDROOT
BRANCH   1   2
ATOM      2  C   UNL     1       0.147  21.781  34.533  1.00  0.00     0.000 C 
BRANCH   2   3
ATOM      3  C   UNL     1       0.152  22.519  33.184  1.00  0.00     0.000 C 
BRANCH   3   4
ATOM      4  C   UNL     1      -0.912  21.977  32.215  1.00  0.00    -0.000 C 
BRANCH   4   5
ATOM      5  C   UNL     1      -0.408  20.783  31.389  1.00  0.00    -0.000 C 
BRANCH   5   6
ATOM      6  C   UNL     1      -1.187  20.612  30.071  1.00  0.00    -0.000 C 
BRANCH   6   7
ATOM      7  C   UNL     1      -0.954  19.230  29.432  1.00  0.00    -0.000 C 
BRANCH   7   8
ATOM      8  C   UNL     1      -1.967  18.903  28.315  1.00  0.00    -0.000 C 
BRANCH   8   9
ATOM      9  C   UNL     1      -3.105  19.937  28.203  1.00  0.00    -0.000 C 
BRANCH   9  10
ATOM     10  C   UNL     1      -2.843  20.977  27.100  1.00  0.00    -0.000 C 
BRANCH  10  11
ATOM     11  C   UNL     1      -1.684  20.571  26.174  1.00  0.00    -0.003 C 
ATOM     12  C   UNL     1      -1.082  21.760  25.426  1.00  0.00     0.004 C 
ENDBRANCH  10  11
ENDBRANCH   9  10
ENDBRANCH   8   9
ENDBRANCH   7   8
ENDBRANCH   6   7
ENDBRANCH   5   6
ENDBRANCH   4   5
ENDBRANCH   3   4
ENDBRANCH   2   3
ENDBRANCH   1   2
BRANCH   1  13
ATOM     13  C   UNL     1       1.966  20.079  35.120  1.00  0.00     0.000 C 
BRANCH  13  14
ATOM     14  C   UNL     1       1.428  19.294  33.913  1.00  0.00     0.000 C 
BRANCH  14  15
ATOM     15  C   UNL     1       2.480  19.093  32.810  1.00  0.00     0.000 C 
BRANCH  15  16
ATOM     16  C   UNL     1       3.908  19.497  33.233  1.00  0.00     0.000 C 
BRANCH  16  17
ATOM     17  C   UNL     1       4.973  18.527  32.693  1.00  0.00     0.000 C 
BRANCH  17  18
ATOM     18  C   UNL     1       5.321  17.413  33.693  1.00  0.00     0.000 C 
BRANCH  18  19
ATOM     19  C   UNL     1       6.605  16.658  33.314  1.00  0.00     0.000 C 
BRANCH  19  20
ATOM     20  C   UNL     1       6.547  16.170  31.859  1.00  0.00     0.006 C 
BRANCH  20  21
ATOM     21  C   UNL     1       7.634  15.128  31.553  1.00  0.00     0.053 C 
BRANCH  21  22
ATOM     22  C   UNL     1       7.129  14.049  30.643  1.00  0.00     0.041 C 
ATOM     23  O   UNL     1       6.588  14.346  29.545  1.00  0.00    -0.550 OA
ATOM     24  O   UNL     1       7.220  12.717  31.025  1.00  0.00    -0.550 OA
ENDBRANCH  21  22
ENDBRANCH  20  21
ENDBRANCH  19  20
ENDBRANCH  18  19
ENDBRANCH  17  18
ENDBRANCH  16  17
ENDBRANCH  15  16
ENDBRANCH  14  15
ENDBRANCH  13  14
ENDBRANCH   1  13
TORSDOF 20
ENDMDL
MODEL 2
REMARK VINA RESULT:    -4.259      3.577      8.858
REMARK INTER + INTRA:         -10.547
REMARK INTER:                  -9.629
REMARK INTRA:                  -0.918
REMARK UNBOUND:                -1.308
REMARK SMILES CCCCCCCCCCCCCCCCCCCCCC(=O)[O-]
REMARK SMILES IDX 12 1 11 2 10 3 9 4 8 5 7 6 6 7 5 8 4 9 3 10 2 11 1 12 13 13
REMARK SMILES IDX 14 14 15 15 16 16 17 17 18 18 19 19 20 20 21 21 22 22 23 23
REMARK SMILES IDX 24 24
REMARK H PARENT
REMARK Flexibility Score: inf
ROOT
ATOM      1  C   UNL     1       2.451  20.551  33.353  1.00  0.00     0.000 C 
ENDROOT
BRANCH   1   2
ATOM      2  C   UNL     1       2.392  19.055  33.003  1.00  0.00     0.000 C 
BRANCH   2   3
ATOM      3  C   UNL     1       1.799  18.210  34.144  1.00  0.00     0.000 C 
BRANCH   3   4
ATOM      4  C   UNL     1       2.875  17.713  35.125  1.00  0.00    -0.000 C 
BRANCH   4   5
ATOM      5  C   UNL     1       4.294  17.795  34.541  1.00  0.00    -0.000 C 
BRANCH   5   6
ATOM      6  C   UNL     1       5.144  16.559  34.889  1.00  0.00    -0.000 C 
BRANCH   6   7
ATOM      7  C   UNL     1       6.654  16.856  34.838  1.00  0.00    -0.000 C 
BRANCH   7   8
ATOM      8  C   UNL     1       6.999  18.079  33.964  1.00  0.00    -0.000 C 
BRANCH   8   9
ATOM      9  C   UNL     1       7.127  17.740  32.466  1.00  0.00    -0.000 C 
BRANCH   9  10
ATOM     10  C   UNL     1       6.684  16.301  32.152  1.00  0.00    -0.000 C 
BRANCH  10  11
ATOM     11  C   UNL     1       7.849  15.424  31.662  1.00  0.00    -0.003 C 
ATOM     12  C   UNL     1       7.413  14.395  30.619  1.00  0.00     0.004 C 
ENDBRANCH  10  11
ENDBRANCH   9  10
ENDBRANCH   8   9
ENDBRANCH   7   8
ENDBRANCH   6   7
ENDBRANCH   5   6
ENDBRANCH   4   5
ENDBRANCH   3   4
ENDBRANCH   2   3
ENDBRANCH   1   2
BRANCH   1  13
ATOM     13  C   UNL     1       1.837  20.864  34.726  1.00  0.00     0.000 C 
BRANCH  13  14
ATOM     14  C   UNL     1       0.376  21.330  34.628  1.00  0.00     0.000 C 
BRANCH  14  15
ATOM     15  C   UNL     1       0.213  22.632  33.825  1.00  0.00     0.000 C 
BRANCH  15  16
ATOM     16  C   UNL     1      -0.602  22.462  32.527  1.00  0.00     0.000 C 
BRANCH  16  17
ATOM     17  C   UNL     1      -0.837  20.983  32.174  1.00  0.00     0.000 C 
BRANCH  17  18
ATOM     18  C   UNL     1      -0.409  20.641  30.738  1.00  0.00     0.000 C 
BRANCH  18  19
ATOM     19  C   UNL     1      -1.605  20.354  29.817  1.00  0.00     0.000 C 
BRANCH  19  20
ATOM     20  C   UNL     1      -1.412  19.031  29.060  1.00  0.00     0.006 C 
BRANCH  20  21
ATOM     21  C   UNL     1      -2.321  18.930  27.826  1.00  0.00     0.053 C 
BRANCH  21  22
ATOM     22  C   UNL     1      -2.490  20.258  27.151  1.00  0.00     0.041 C 
ATOM     23  O   UNL     1      -1.575  20.718  26.417  1.00  0.00    -0.550 OA
ATOM     24  O   UNL     1      -3.641  21.005  27.362  1.00  0.00    -0.550 OA
ENDBRANCH  21  22
ENDBRANCH  20  21
ENDBRANCH  19  20
ENDBRANCH  18  19
ENDBRANCH  17  18
ENDBRANCH  16  17
ENDBRANCH  15  16
ENDBRANCH  14  15
ENDBRANCH  13  14
ENDBRANCH   1  13
TORSDOF 20
ENDMDL
MODEL 3
REMARK VINA RESULT:    -4.227     12.746     16.174
REMARK INTER + INTRA:         -10.478
REMARK INTER:                  -9.604
REMARK INTRA:                  -0.874
REMARK UNBOUND:                -1.308
REMARK SMILES CCCCCCCCCCCCCCCCCCCCCC(=O)[O-]
REMARK SMILES IDX 12 1 11 2 10 3 9 4 8 5 7 6 6 7 5 8 4 9 3 10 2 11 1 12 13 13
REMARK SMILES IDX 14 14 15 15 16 16 17 17 18 18 19 19 20 20 21 21 22 22 23 23
REMARK SMILES IDX 24 24
REMARK H PARENT
REMARK Flexibility Score: inf
ROOT
ATOM      1  C   UNL     1       6.300  10.988  15.300  1.00  0.00     0.000 C 
ENDROOT
BRANCH   1   2
ATOM      2  C   UNL     1       5.322  10.105  16.094  1.00  0.00     0.000 C 
BRANCH   2   3
ATOM      3  C   UNL     1       4.056   9.766  15.289  1.00  0.00     0.000 C 
BRANCH   3   4
ATOM      4  C   UNL     1       2.902   9.290  16.188  1.00  0.00    -0.000 C 
BRANCH   4   5
ATOM      5  C   UNL     1       1.888   8.413  15.436  1.00  0.00    -0.000 C 
BRANCH   5   6
ATOM      6  C   UNL     1       0.481   8.476  16.060  1.00  0.00    -0.000 C 
BRANCH   6   7
ATOM      7  C   UNL     1       0.396   9.502  17.205  1.00  0.00    -0.000 C 
BRANCH   7   8
ATOM      8  C   UNL     1      -0.945   9.449  17.965  1.00  0.00    -0.000 C 
BRANCH   8   9
ATOM      9  C   UNL     1      -1.317  10.786  18.636  1.00  0.00    -0.000 C 
BRANCH   9  10
ATOM     10  C   UNL     1      -2.599  10.680  19.479  1.00  0.00    -0.000 C 
BRANCH  10  11
ATOM     11  C   UNL     1      -2.642   9.394  20.322  1.00  0.00    -0.003 C 
ATOM     12  C   UNL     1      -1.604   9.390  21.444  1.00  0.00     0.004 C 
ENDBRANCH  10  11
ENDBRANCH   9  10
ENDBRANCH   8   9
ENDBRANCH   7   8
ENDBRANCH   6   7
ENDBRANCH   5   6
ENDBRANCH   4   5
ENDBRANCH   3   4
ENDBRANCH   2   3
ENDBRANCH   1   2
BRANCH   1  13
ATOM     13  C   UNL     1       7.771  10.673  15.614  1.00  0.00     0.000 C 
BRANCH  13  14
ATOM     14  C   UNL     1       8.552  11.910  16.085  1.00  0.00     0.000 C 
BRANCH  14  15
ATOM     15  C   UNL     1       8.123  12.396  17.479  1.00  0.00     0.000 C 
BRANCH  15  16
ATOM     16  C   UNL     1       9.163  12.113  18.582  1.00  0.00     0.000 C 
BRANCH  16  17
ATOM     17  C   UNL     1       9.719  13.405  19.205  1.00  0.00     0.000 C 
BRANCH  17  18
ATOM     18  C   UNL     1       8.650  14.500  19.353  1.00  0.00     0.000 C 
BRANCH  18  19
ATOM     19  C   UNL     1       8.867  15.375  20.597  1.00  0.00     0.000 C 
BRANCH  19  20
ATOM     20  C   UNL     1       8.479  14.619  21.877  1.00  0.00     0.006 C 
BRANCH  20  21
ATOM     21  C   UNL     1       9.296  15.079  23.094  1.00  0.00     0.053 C 
BRANCH  21  22
ATOM     22  C   UNL     1       8.632  14.702  24.383  1.00  0.00     0.041 C 
ATOM     23  O   UNL     1       7.396  14.887  24.539  1.00  0.00    -0.550 OA
ATOM     24  O   UNL     1       9.384  14.181  25.428  1.00  0.00    -0.550 OA
ENDBRANCH  21  22
ENDBRANCH  20  21
ENDBRANCH  19  20
ENDBRANCH  18  19
ENDBRANCH  17  18
ENDBRANCH  16  17
ENDBRANCH  15  16
ENDBRANCH  14  15
ENDBRANCH  13  14
ENDBRANCH   1  13
TORSDOF 20
ENDMDL
MODEL 4
REMARK VINA RESULT:    -4.067     12.525     15.875
REMARK INTER + INTRA:         -10.131
REMARK INTER:                  -9.294
REMARK INTRA:                  -0.836
REMARK UNBOUND:                -1.308
REMARK SMILES CCCCCCCCCCCCCCCCCCCCCC(=O)[O-]
REMARK SMILES IDX 12 1 11 2 10 3 9 4 8 5 7 6 6 7 5 8 4 9 3 10 2 11 1 12 13 13
REMARK SMILES IDX 14 14 15 15 16 16 17 17 18 18 19 19 20 20 21 21 22 22 23 23
REMARK SMILES IDX 24 24
REMARK H PARENT
REMARK Flexibility Score: inf
ROOT
ATOM      1  C   UNL     1       7.079  10.930  17.208  1.00  0.00     0.000 C 
ENDROOT
BRANCH   1   2
ATOM      2  C   UNL     1       6.977  11.417  15.753  1.00  0.00     0.000 C 
BRANCH   2   3
ATOM      3  C   UNL     1       5.625  11.061  15.111  1.00  0.00     0.000 C 
BRANCH   3   4
ATOM      4  C   UNL     1       5.006   9.790  15.718  1.00  0.00    -0.000 C 
BRANCH   4   5
ATOM      5  C   UNL     1       3.483   9.898  15.893  1.00  0.00    -0.000 C 
BRANCH   5   6
ATOM      6  C   UNL     1       2.719   8.877  15.029  1.00  0.00    -0.000 C 
BRANCH   6   7
ATOM      7  C   UNL     1       1.324   8.559  15.598  1.00  0.00    -0.000 C 
BRANCH   7   8
ATOM      8  C   UNL     1       0.931   9.472  16.778  1.00  0.00    -0.000 C 
BRANCH   8   9
ATOM      9  C   UNL     1      -0.451   9.136  17.374  1.00  0.00    -0.000 C 
BRANCH   9  10
ATOM     10  C   UNL     1      -0.934  10.204  18.370  1.00  0.00    -0.000 C 
BRANCH  10  11
ATOM     11  C   UNL     1      -2.087   9.701  19.255  1.00  0.00    -0.003 C 
ATOM     12  C   UNL     1      -1.690   9.578  20.726  1.00  0.00     0.004 C 
ENDBRANCH  10  11
ENDBRANCH   9  10
ENDBRANCH   8   9
ENDBRANCH   7   8
ENDBRANCH   6   7
ENDBRANCH   5   6
ENDBRANCH   4   5
ENDBRANCH   3   4
ENDBRANCH   2   3
ENDBRANCH   1   2
BRANCH   1  13
ATOM     13  C   UNL     1       8.465  11.183  17.822  1.00  0.00     0.000 C 
BRANCH  13  14
ATOM     14  C   UNL     1       8.901  12.652  17.709  1.00  0.00     0.000 C 
BRANCH  14  15
ATOM     15  C   UNL     1       9.258  13.279  19.067  1.00  0.00     0.000 C 
BRANCH  15  16
ATOM     16  C   UNL     1       8.563  14.631  19.328  1.00  0.00     0.000 C 
BRANCH  16  17
ATOM     17  C   UNL     1       8.394  14.921  20.829  1.00  0.00     0.000 C 
BRANCH  17  18
ATOM     18  C   UNL     1       9.556  14.371  21.673  1.00  0.00     0.000 C 
BRANCH  18  19
ATOM     19  C   UNL     1       9.728  15.121  23.002  1.00  0.00     0.000 C 
BRANCH  19  20
ATOM     20  C   UNL     1      10.356  14.212  24.071  1.00  0.00     0.006 C 
BRANCH  20  21
ATOM     21  C   UNL     1      11.891  14.211  24.003  1.00  0.00     0.053 C 
BRANCH  21  22
ATOM     22  C   UNL     1      12.507  14.139  25.367  1.00  0.00     0.041 C 
ATOM     23  O   UNL     1      13.750  14.284  25.511  1.00  0.00    -0.550 OA
ATOM     24  O   UNL     1      11.714  13.874  26.476  1.00  0.00    -0.550 OA
ENDBRANCH  21  22
ENDBRANCH  20  21
ENDBRANCH  19  20
ENDBRANCH  18  19
ENDBRANCH  17  18
ENDBRANCH  16  17
ENDBRANCH  15  16
ENDBRANCH  14  15
ENDBRANCH  13  14
ENDBRANCH   1  13
TORSDOF 20
ENDMDL
MODEL 5
REMARK VINA RESULT:    -4.000     12.356     15.829
REMARK INTER + INTRA:          -9.985
REMARK INTER:                  -8.946
REMARK INTRA:                  -1.039
REMARK UNBOUND:                -1.308
REMARK SMILES CCCCCCCCCCCCCCCCCCCCCC(=O)[O-]
REMARK SMILES IDX 12 1 11 2 10 3 9 4 8 5 7 6 6 7 5 8 4 9 3 10 2 11 1 12 13 13
REMARK SMILES IDX 14 14 15 15 16 16 17 17 18 18 19 19 20 20 21 21 22 22 23 23
REMARK SMILES IDX 24 24
REMARK H PARENT
REMARK Flexibility Score: inf
ROOT
ATOM      1  C   UNL     1       8.077  10.657  17.070  1.00  0.00     0.000 C 
ENDROOT
BRANCH   1   2
ATOM      2  C   UNL     1       7.266  11.667  16.242  1.00  0.00     0.000 C 
BRANCH   2   3
ATOM      3  C   UNL     1       6.668  11.036  14.973  1.00  0.00     0.000 C 
BRANCH   3   4
ATOM      4  C   UNL     1       5.961   9.701  15.260  1.00  0.00    -0.000 C 
BRANCH   4   5
ATOM      5  C   UNL     1       4.723   9.866  16.155  1.00  0.00    -0.000 C 
BRANCH   5   6
ATOM      6  C   UNL     1       3.420   9.476  15.433  1.00  0.00    -0.000 C 
BRANCH   6   7
ATOM      7  C   UNL     1       2.229   9.356  16.402  1.00  0.00    -0.000 C 
BRANCH   7   8
ATOM      8  C   UNL     1       1.027   8.607  15.792  1.00  0.00    -0.000 C 
BRANCH   8   9
ATOM      9  C   UNL     1      -0.208   8.583  16.715  1.00  0.00    -0.000 C 
BRANCH   9  10
ATOM     10  C   UNL     1      -0.241   9.781  17.678  1.00  0.00    -0.000 C 
BRANCH  10  11
ATOM     11  C   UNL     1      -1.437   9.722  18.645  1.00  0.00    -0.003 C 
ATOM     12  C   UNL     1      -1.379  10.806  19.721  1.00  0.00     0.004 C 
ENDBRANCH  10  11
ENDBRANCH   9  10
ENDBRANCH   8   9
ENDBRANCH   7   8
ENDBRANCH   6   7
ENDBRANCH   5   6
ENDBRANCH   4   5
ENDBRANCH   3   4
ENDBRANCH   2   3
ENDBRANCH   1   2
BRANCH   1  13
ATOM     13  C   UNL     1       8.876  11.323  18.200  1.00  0.00     0.000 C 
BRANCH  13  14
ATOM     14  C   UNL     1       9.181  12.802  17.916  1.00  0.00     0.000 C 
BRANCH  14  15
ATOM     15  C   UNL     1       9.575  13.587  19.179  1.00  0.00     0.000 C 
BRANCH  15  16
ATOM     16  C   UNL     1       8.503  14.594  19.643  1.00  0.00     0.000 C 
BRANCH  16  17
ATOM     17  C   UNL     1       8.658  14.968  21.127  1.00  0.00     0.000 C 
BRANCH  17  18
ATOM     18  C   UNL     1       9.627  14.038  21.875  1.00  0.00     0.000 C 
BRANCH  18  19
ATOM     19  C   UNL     1      10.140  14.650  23.188  1.00  0.00     0.000 C 
BRANCH  19  20
ATOM     20  C   UNL     1       8.988  15.273  23.991  1.00  0.00     0.006 C 
BRANCH  20  21
ATOM     21  C   UNL     1       8.132  14.212  24.698  1.00  0.00     0.053 C 
BRANCH  21  22
ATOM     22  C   UNL     1       6.667  14.503  24.569  1.00  0.00     0.041 C 
ATOM     23  O   UNL     1       5.930  13.754  23.875  1.00  0.00    -0.550 OA
ATOM     24  O   UNL     1       6.123  15.623  25.185  1.00  0.00    -0.550 OA
ENDBRANCH  21  22
ENDBRANCH  20  21
ENDBRANCH  19  20
ENDBRANCH  18  19
ENDBRANCH  17  18
ENDBRANCH  16  17
ENDBRANCH  15  16
ENDBRANCH  14  15
ENDBRANCH  13  14
ENDBRANCH   1  13
TORSDOF 20
ENDMDL
MODEL 6
REMARK VINA RESULT:    -3.811     13.224     17.879
REMARK INTER + INTRA:          -9.575
REMARK INTER:                  -9.201
REMARK INTRA:                  -0.375
REMARK UNBOUND:                -1.308
REMARK SMILES CCCCCCCCCCCCCCCCCCCCCC(=O)[O-]
REMARK SMILES IDX 12 1 11 2 10 3 9 4 8 5 7 6 6 7 5 8 4 9 3 10 2 11 1 12 13 13
REMARK SMILES IDX 14 14 15 15 16 16 17 17 18 18 19 19 20 20 21 21 22 22 23 23
REMARK SMILES IDX 24 24
REMARK H PARENT
REMARK Flexibility Score: inf
ROOT
ATOM      1  C   UNL     1       5.863   9.821  16.403  1.00  0.00     0.000 C 
ENDROOT
BRANCH   1   2
ATOM      2  C   UNL     1       7.102  10.303  15.629  1.00  0.00     0.000 C 
BRANCH   2   3
ATOM      3  C   UNL     1       7.245  11.834  15.650  1.00  0.00     0.000 C 
BRANCH   3   4
ATOM      4  C   UNL     1       8.469  12.296  16.460  1.00  0.00    -0.000 C 
BRANCH   4   5
ATOM      5  C   UNL     1       8.181  12.390  17.967  1.00  0.00    -0.000 C 
BRANCH   5   6
ATOM      6  C   UNL     1       9.324  13.073  18.741  1.00  0.00    -0.000 C 
BRANCH   6   7
ATOM      7  C   UNL     1       8.814  14.192  19.668  1.00  0.00    -0.000 C 
BRANCH   7   8
ATOM      8  C   UNL     1       9.597  14.282  20.994  1.00  0.00    -0.000 C 
BRANCH   8   9
ATOM      9  C   UNL     1       8.792  14.936  22.134  1.00  0.00    -0.000 C 
BRANCH   9  10
ATOM     10  C   UNL     1       9.525  14.863  23.485  1.00  0.00    -0.000 C 
BRANCH  10  11
ATOM     11  C   UNL     1       8.616  14.357  24.618  1.00  0.00    -0.003 C 
ATOM     12  C   UNL     1       7.200  14.927  24.536  1.00  0.00     0.004 C 
ENDBRANCH  10  11
ENDBRANCH   9  10
ENDBRANCH   8   9
ENDBRANCH   7   8
ENDBRANCH   6   7
ENDBRANCH   5   6
ENDBRANCH   4   5
ENDBRANCH   3   4
ENDBRANCH   2   3
ENDBRANCH   1   2
BRANCH   1  13
ATOM     13  C   UNL     1       4.561  10.457  15.894  1.00  0.00     0.000 C 
BRANCH  13  14
ATOM     14  C   UNL     1       3.322   9.609  16.221  1.00  0.00     0.000 C 
BRANCH  14  15
ATOM     15  C   UNL     1       2.696   8.956  14.977  1.00  0.00     0.000 C 
BRANCH  15  16
ATOM     16  C   UNL     1       1.750   7.782  15.302  1.00  0.00     0.000 C 
BRANCH  16  17
ATOM     17  C   UNL     1       0.340   8.260  15.691  1.00  0.00     0.000 C 
BRANCH  17  18
ATOM     18  C   UNL     1       0.358   9.308  16.815  1.00  0.00     0.000 C 
BRANCH  18  19
ATOM     19  C   UNL     1      -0.777   9.105  17.831  1.00  0.00     0.000 C 
BRANCH  19  20
ATOM     20  C   UNL     1      -1.243  10.450  18.411  1.00  0.00     0.006 C 
BRANCH  20  21
ATOM     21  C   UNL     1      -1.056  10.521  19.934  1.00  0.00     0.053 C 
BRANCH  21  22
ATOM     22  C   UNL     1      -2.008   9.614  20.654  1.00  0.00     0.041 C 
ATOM     23  O   UNL     1      -1.632   8.980  21.676  1.00  0.00    -0.550 OA
ATOM     24  O   UNL     1      -3.300   9.439  20.174  1.00  0.00    -0.550 OA
ENDBRANCH  21  22
ENDBRANCH  20  21
ENDBRANCH  19  20
ENDBRANCH  18  19
ENDBRANCH  17  18
ENDBRANCH  16  17
ENDBRANCH  15  16
ENDBRANCH  14  15
ENDBRANCH  13  14
ENDBRANCH   1  13
TORSDOF 20
ENDMDL
MODEL 7
REMARK VINA RESULT:    -3.692      3.255      8.832
REMARK INTER + INTRA:          -9.316
REMARK INTER:                  -8.085
REMARK INTRA:                  -1.231
REMARK UNBOUND:                -1.308
REMARK SMILES CCCCCCCCCCCCCCCCCCCCCC(=O)[O-]
REMARK SMILES IDX 12 1 11 2 10 3 9 4 8 5 7 6 6 7 5 8 4 9 3 10 2 11 1 12 13 13
REMARK SMILES IDX 14 14 15 15 16 16 17 17 18 18 19 19 20 20 21 21 22 22 23 23
REMARK SMILES IDX 24 24
REMARK H PARENT
REMARK Flexibility Score: inf
ROOT
ATOM      1  C   UNL     1      -0.070  22.291  32.539  1.00  0.00     0.000 C 
ENDROOT
BRANCH   1   2
ATOM      2  C   UNL     1      -0.747  22.625  33.879  1.00  0.00     0.000 C 
BRANCH   2   3
ATOM      3  C   UNL     1       0.184  22.386  35.080  1.00  0.00     0.000 C 
BRANCH   3   4
ATOM      4  C   UNL     1       0.723  20.946  35.125  1.00  0.00    -0.000 C 
BRANCH   4   5
ATOM      5  C   UNL     1       2.232  20.869  34.843  1.00  0.00    -0.000 C 
BRANCH   5   6
ATOM      6  C   UNL     1       2.571  19.849  33.739  1.00  0.00    -0.000 C 
BRANCH   6   7
ATOM      7  C   UNL     1       4.090  19.689  33.540  1.00  0.00    -0.000 C 
BRANCH   7   8
ATOM      8  C   UNL     1       4.491  18.276  33.069  1.00  0.00    -0.000 C 
BRANCH   8   9
ATOM      9  C   UNL     1       5.006  17.377  34.210  1.00  0.00    -0.000 C 
BRANCH   9  10
ATOM     10  C   UNL     1       6.309  16.648  33.838  1.00  0.00    -0.000 C 
BRANCH  10  11
ATOM     11  C   UNL     1       6.685  16.839  32.359  1.00  0.00    -0.003 C 
ATOM     12  C   UNL     1       7.453  15.647  31.787  1.00  0.00     0.004 C 
ENDBRANCH  10  11
ENDBRANCH   9  10
ENDBRANCH   8   9
ENDBRANCH   7   8
ENDBRANCH   6   7
ENDBRANCH   5   6
ENDBRANCH   4   5
ENDBRANCH   3   4
ENDBRANCH   2   3
ENDBRANCH   1   2
BRANCH   1  13
ATOM     13  C   UNL     1      -0.530  20.944  31.961  1.00  0.00     0.000 C 
BRANCH  13  14
ATOM     14  C   UNL     1      -0.551  20.937  30.425  1.00  0.00     0.000 C 
BRANCH  14  15
ATOM     15  C   UNL     1      -0.563  19.518  29.831  1.00  0.00     0.000 C 
BRANCH  15  16
ATOM     16  C   UNL     1      -1.957  19.054  29.361  1.00  0.00     0.000 C 
BRANCH  16  17
ATOM     17  C   UNL     1      -1.934  17.628  28.786  1.00  0.00     0.000 C 
BRANCH  17  18
ATOM     18  C   UNL     1      -2.889  17.454  27.593  1.00  0.00     0.000 C 
BRANCH  18  19
ATOM     19  C   UNL     1      -3.859  18.636  27.436  1.00  0.00     0.000 C 
BRANCH  19  20
ATOM     20  C   UNL     1      -3.517  19.467  26.189  1.00  0.00     0.006 C 
BRANCH  20  21
ATOM     21  C   UNL     1      -2.959  20.852  26.550  1.00  0.00     0.053 C 
BRANCH  21  22
ATOM     22  C   UNL     1      -1.518  20.989  26.158  1.00  0.00     0.041 C 
ATOM     23  O   UNL     1      -0.679  20.116  26.509  1.00  0.00    -0.550 OA
ATOM     24  O   UNL     1      -1.095  22.098  25.438  1.00  0.00    -0.550 OA
ENDBRANCH  21  22
ENDBRANCH  20  21
ENDBRANCH  19  20
ENDBRANCH  18  19
ENDBRANCH  17  18
ENDBRANCH  16  17
ENDBRANCH  15  16
ENDBRANCH  14  15
ENDBRANCH  13  14
ENDBRANCH   1  13
TORSDOF 20
ENDMDL
MODEL 8
REMARK VINA RESULT:    -3.569     12.422     17.628
REMARK INTER + INTRA:          -9.050
REMARK INTER:                  -8.320
REMARK INTRA:                  -0.730
REMARK UNBOUND:                -1.308
REMARK SMILES CCCCCCCCCCCCCCCCCCCCCC(=O)[O-]
REMARK SMILES IDX 12 1 11 2 10 3 9 4 8 5 7 6 6 7 5 8 4 9 3 10 2 11 1 12 13 13
REMARK SMILES IDX 14 14 15 15 16 16 17 17 18 18 19 19 20 20 21 21 22 22 23 23
REMARK SMILES IDX 24 24
REMARK H PARENT
REMARK Flexibility Score: inf
ROOT
ATOM      1  C   UNL     1       7.685  11.386  17.721  1.00  0.00     0.000 C 
ENDROOT
BRANCH   1   2
ATOM      2  C   UNL     1       8.902  12.313  17.574  1.00  0.00     0.000 C 
BRANCH   2   3
ATOM      3  C   UNL     1       9.350  12.907  18.920  1.00  0.00     0.000 C 
BRANCH   3   4
ATOM      4  C   UNL     1       8.809  14.331  19.141  1.00  0.00    -0.000 C 
BRANCH   4   5
ATOM      5  C   UNL     1       8.567  14.649  20.625  1.00  0.00    -0.000 C 
BRANCH   5   6
ATOM      6  C   UNL     1       9.729  14.185  21.522  1.00  0.00    -0.000 C 
BRANCH   6   7
ATOM      7  C   UNL     1       9.758  14.928  22.871  1.00  0.00    -0.000 C 
BRANCH   7   8
ATOM      8  C   UNL     1      11.148  14.917  23.537  1.00  0.00    -0.000 C 
BRANCH   8   9
ATOM      9  C   UNL     1      11.319  13.787  24.571  1.00  0.00    -0.000 C 
BRANCH   9  10
ATOM     10  C   UNL     1      12.395  14.113  25.622  1.00  0.00    -0.000 C 
BRANCH  10  11
ATOM     11  C   UNL     1      11.897  13.887  27.059  1.00  0.00    -0.003 C 
ATOM     12  C   UNL     1      10.387  13.667  27.133  1.00  0.00     0.004 C 
ENDBRANCH  10  11
ENDBRANCH   9  10
ENDBRANCH   8   9
ENDBRANCH   7   8
ENDBRANCH   6   7
ENDBRANCH   5   6
ENDBRANCH   4   5
ENDBRANCH   3   4
ENDBRANCH   2   3
ENDBRANCH   1   2
BRANCH   1  13
ATOM     13  C   UNL     1       6.776  11.400  16.482  1.00  0.00     0.000 C 
BRANCH  13  14
ATOM     14  C   UNL     1       6.126  10.035  16.211  1.00  0.00     0.000 C 
BRANCH  14  15
ATOM     15  C   UNL     1       4.759  10.148  15.513  1.00  0.00     0.000 C 
BRANCH  15  16
ATOM     16  C   UNL     1       3.592   9.567  16.337  1.00  0.00     0.000 C 
BRANCH  16  17
ATOM     17  C   UNL     1       2.341   9.313  15.479  1.00  0.00     0.000 C 
BRANCH  17  18
ATOM     18  C   UNL     1       1.332   8.378  16.165  1.00  0.00     0.000 C 
BRANCH  18  19
ATOM     19  C   UNL     1      -0.004   9.073  16.472  1.00  0.00     0.000 C 
BRANCH  19  20
ATOM     20  C   UNL     1      -0.154   9.334  17.979  1.00  0.00     0.006 C 
BRANCH  20  21
ATOM     21  C   UNL     1      -1.135  10.479  18.275  1.00  0.00     0.053 C 
BRANCH  21  22
ATOM     22  C   UNL     1      -2.094  10.119  19.369  1.00  0.00     0.041 C 
ATOM     23  O   UNL     1      -1.691  10.020  20.559  1.00  0.00    -0.550 OA
ATOM     24  O   UNL     1      -3.424   9.857  19.071  1.00  0.00    -0.550 OA
ENDBRANCH  21  22
ENDBRANCH  20  21
ENDBRANCH  19  20
ENDBRANCH  18  19
ENDBRANCH  17  18
ENDBRANCH  16  17
ENDBRANCH  15  16
ENDBRANCH  14  15
ENDBRANCH  13  14
ENDBRANCH   1  13
TORSDOF 20
ENDMDL
MODEL 9
REMARK VINA RESULT:    -3.514      5.148     10.771
REMARK INTER + INTRA:          -8.930
REMARK INTER:                  -7.644
REMARK INTRA:                  -1.286
REMARK UNBOUND:                -1.308
REMARK SMILES CCCCCCCCCCCCCCCCCCCCCC(=O)[O-]
REMARK SMILES IDX 12 1 11 2 10 3 9 4 8 5 7 6 6 7 5 8 4 9 3 10 2 11 1 12 13 13
REMARK SMILES IDX 14 14 15 15 16 16 17 17 18 18 19 19 20 20 21 21 22 22 23 23
REMARK SMILES IDX 24 24
REMARK H PARENT
REMARK Flexibility Score: inf
ROOT
ATOM      1  C   UNL     1       7.032  14.179  30.098  1.00  0.00     0.000 C 
ENDROOT
BRANCH   1   2
ATOM      2  C   UNL     1       7.787  13.476  28.958  1.00  0.00     0.000 C 
BRANCH   2   3
ATOM      3  C   UNL     1       9.044  14.249  28.524  1.00  0.00     0.000 C 
BRANCH   3   4
ATOM      4  C   UNL     1       9.868  13.484  27.474  1.00  0.00    -0.000 C 
BRANCH   4   5
ATOM      5  C   UNL     1      11.327  13.962  27.403  1.00  0.00    -0.000 C 
BRANCH   5   6
ATOM      6  C   UNL     1      12.057  13.433  26.154  1.00  0.00    -0.000 C 
BRANCH   6   7
ATOM      7  C   UNL     1      12.237  14.521  25.079  1.00  0.00    -0.000 C 
BRANCH   7   8
ATOM      8  C   UNL     1      11.415  14.250  23.802  1.00  0.00    -0.000 C 
BRANCH   8   9
ATOM      9  C   UNL     1      10.377  15.349  23.501  1.00  0.00    -0.000 C 
BRANCH   9  10
ATOM     10  C   UNL     1       8.957  14.783  23.330  1.00  0.00    -0.000 C 
BRANCH  10  11
ATOM     11  C   UNL     1       8.239  14.584  24.676  1.00  0.00    -0.003 C 
ATOM     12  C   UNL     1       6.769  14.998  24.627  1.00  0.00     0.004 C 
ENDBRANCH  10  11
ENDBRANCH   9  10
ENDBRANCH   8   9
ENDBRANCH   7   8
ENDBRANCH   6   7
ENDBRANCH   5   6
ENDBRANCH   4   5
ENDBRANCH   3   4
ENDBRANCH   2   3
ENDBRANCH   1   2
BRANCH   1  13
ATOM     13  C   UNL     1       7.960  14.620  31.241  1.00  0.00     0.000 C 
BRANCH  13  14
ATOM     14  C   UNL     1       7.782  16.101  31.609  1.00  0.00     0.000 C 
BRANCH  14  15
ATOM     15  C   UNL     1       6.553  16.354  32.499  1.00  0.00     0.000 C 
BRANCH  15  16
ATOM     16  C   UNL     1       6.283  17.848  32.772  1.00  0.00     0.000 C 
BRANCH  16  17
ATOM     17  C   UNL     1       5.929  18.118  34.244  1.00  0.00     0.000 C 
BRANCH  17  18
ATOM     18  C   UNL     1       4.776  19.123  34.402  1.00  0.00     0.000 C 
BRANCH  18  19
ATOM     19  C   UNL     1       3.547  18.750  33.559  1.00  0.00     0.000 C 
BRANCH  19  20
ATOM     20  C   UNL     1       3.193  19.874  32.573  1.00  0.00     0.006 C 
BRANCH  20  21
ATOM     21  C   UNL     1       1.703  19.872  32.200  1.00  0.00     0.053 C 
BRANCH  21  22
ATOM     22  C   UNL     1       0.961  20.988  32.871  1.00  0.00     0.041 C 
ATOM     23  O   UNL     1       1.273  21.347  34.038  1.00  0.00    -0.550 OA
ATOM     24  O   UNL     1      -0.099  21.608  32.223  1.00  0.00    -0.550 OA
ENDBRANCH  21  22
ENDBRANCH  20  21
ENDBRANCH  19  20
ENDBRANCH  18  19
ENDBRANCH  17  18
ENDBRANCH  16  17
ENDBRANCH  15  16
ENDBRANCH  14  15
ENDBRANCH  13  14
ENDBRANCH   1  13
TORSDOF 20
ENDMDL
