MODEL 1
REMARK VINA RESULT:     8.932      0.000      0.000
REMARK INTER + INTRA:          11.225
REMARK INTER:                  10.760
REMARK INTRA:                   0.465
REMARK UNBOUND:                 0.465
REMARK SMILES O=c1c(O)c(-c2ccc(O)c(O)c2)oc2cc(O)cc(O)c12
REMARK SMILES IDX 5 1 3 2 2 3 1 4 22 5 20 6 19 7 17 8 16 9 15 10 14 11 6 12
REMARK SMILES IDX 7 13 8 14 9 15 13 16 11 17 10 18 12 20 4 22 21 24 18 26
REMARK H PARENT 10 19 12 21 4 23 21 25 18 27
REMARK Flexibility Score: inf
ROOT
ATOM      1  C   UNL     1      20.509   8.205   6.319  1.00  0.00     0.180 A 
ATOM      2  C   UNL     1      21.890   8.362   6.114  1.00  0.00     0.208 A 
ATOM      3  C   UNL     1      22.712   7.224   6.114  1.00  0.00     0.238 A 
ATOM      4  O   UNL     1      23.940   7.366   5.875  1.00  0.00    -0.285 OA
ATOM      5  C   UNL     1      22.146   5.946   6.334  1.00  0.00     0.111 A 
ATOM      6  C   UNL     1      22.889   4.729   6.395  1.00  0.00     0.134 A 
ATOM      7  C   UNL     1      22.210   3.509   6.488  1.00  0.00     0.093 A 
ATOM      8  C   UNL     1      20.817   3.466   6.589  1.00  0.00     0.123 A 
ATOM      9  C   UNL     1      20.087   4.651   6.590  1.00  0.00     0.094 A 
ATOM     10  C   UNL     1      20.733   5.882   6.462  1.00  0.00     0.146 A 
ATOM     11  O   UNL     1      19.998   6.987   6.458  1.00  0.00    -0.452 OA
ENDROOT
BRANCH   1  12
ATOM     12  C   UNL     1      19.582   9.360   6.358  1.00  0.00     0.025 A 
ATOM     13  C   UNL     1      18.211   9.138   6.564  1.00  0.00     0.016 A 
ATOM     14  C   UNL     1      17.322  10.214   6.625  1.00  0.00     0.051 A 
ATOM     15  C   UNL     1      17.788  11.526   6.497  1.00  0.00     0.157 A 
ATOM     16  C   UNL     1      20.052  10.681   6.250  1.00  0.00     0.062 A 
ATOM     17  C   UNL     1      19.161  11.762   6.313  1.00  0.00     0.158 A 
BRANCH  15  18
ATOM     18  O   UNL     1      16.876  12.578   6.560  1.00  0.00    -0.504 OA
ATOM     19  H   UNL     1      17.093  13.501   6.199  1.00  0.00     0.293 HD
ENDBRANCH  15  18
BRANCH  17  20
ATOM     20  O   UNL     1      19.635  13.068   6.199  1.00  0.00    -0.504 OA
ATOM     21  H   UNL     1      19.079  13.862   6.493  1.00  0.00     0.293 HD
ENDBRANCH  17  20
ENDBRANCH   1  12
BRANCH   2  22
ATOM     22  O   UNL     1      22.426   9.631   5.875  1.00  0.00    -0.502 OA
ATOM     23  H   UNL     1      22.614  10.291   6.621  1.00  0.00     0.293 HD
ENDBRANCH   2  22
BRANCH   6  24
ATOM     24  O   UNL     1      24.286   4.667   6.395  1.00  0.00    -0.507 OA
ATOM     25  H   UNL     1      24.895   5.427   6.662  1.00  0.00     0.293 HD
ENDBRANCH   6  24
BRANCH   8  26
ATOM     26  O   UNL     1      20.150   2.246   6.697  1.00  0.00    -0.508 OA
ATOM     27  H   UNL     1      20.433   1.437   6.158  1.00  0.00     0.293 HD
ENDBRANCH   8  26
TORSDOF 6
ENDMDL
