MODEL 1
REMARK VINA RESULT:   -10.526      0.000      0.000
REMARK INTER + INTRA:         -10.871
REMARK INTER:                 -11.449
REMARK INTRA:                   0.577
REMARK UNBOUND:                 0.577
REMARK SMILES C[C@@H]1[C@H](C)CC[C@]2(C(=O)[O-])CC[C@@]3(C)C(=CC[C@@H]4[C@@]5(C)CC[C@@H](O)C(C)(C)[C@@H]5CC[C@@]43C)[C@@H]12
REMARK SMILES IDX 7 1 6 2 11 3 33 4 5 5 12 6 15 7 2 8 3 9 13 10 16 11 1 12
REMARK SMILES IDX 4 13 14 14 31 15 17 16 18 17 30 18 32 19 19 20 29 21 28 22
REMARK SMILES IDX 21 23 20 24 25 25 22 26 23 27 26 28 27 29 8 30 9 31 10 32
REMARK SMILES IDX 24 33
REMARK H PARENT 24 34
REMARK Flexibility Score: inf
ROOT
ATOM      1  C   UNL     1     -35.402  37.274 -42.814  1.00  0.00     0.017 C 
ATOM      2  C   UNL     1     -36.346  38.496 -42.604  1.00  0.00     0.014 C 
ATOM      3  C   UNL     1     -36.106  35.878 -43.209  1.00  0.00     0.014 C 
ATOM      4  C   UNL     1     -34.625  36.978 -41.488  1.00  0.00     0.030 C 
ATOM      5  C   UNL     1     -35.675  39.867 -42.023  1.00  0.00     0.004 C 
ATOM      6  C   UNL     1     -35.375  34.568 -42.603  1.00  0.00     0.013 C 
ATOM      7  C   UNL     1     -33.514  35.897 -41.612  1.00  0.00    -0.063 C 
ATOM      8  C   UNL     1     -34.247  38.258 -40.615  1.00  0.00    -0.003 C 
ATOM      9  C   UNL     1     -34.286  39.618 -41.393  1.00  0.00    -0.011 C 
ATOM     10  C   UNL     1     -33.796  34.699 -42.630  1.00  0.00    -0.006 C 
ATOM     11  C   UNL     1     -32.838  35.707 -40.463  1.00  0.00    -0.027 C 
ATOM     12  C   UNL     1     -35.223  38.348 -39.364  1.00  0.00     0.008 C 
ATOM     13  C   UNL     1     -33.875  40.801 -40.436  1.00  0.00     0.008 C 
ATOM     14  C   UNL     1     -33.300  34.987 -44.094  1.00  0.00     0.017 C 
ATOM     15  C   UNL     1     -32.978  33.365 -42.185  1.00  0.00    -0.020 C 
ATOM     16  C   UNL     1     -32.356  34.382 -39.981  1.00  0.00     0.032 C 
ATOM     17  C   UNL     1     -33.074  33.142 -40.658  1.00  0.00     0.006 C 
ATOM     18  C   UNL     1     -31.395  33.531 -42.519  1.00  0.00     0.008 C 
ATOM     19  C   UNL     1     -33.603  32.142 -43.020  1.00  0.00     0.012 C 
ATOM     20  C   UNL     1     -32.441  31.749 -40.212  1.00  0.00    -0.025 C 
ATOM     21  C   UNL     1     -30.462  32.601 -41.648  1.00  0.00     0.005 C 
ATOM     22  C   UNL     1     -31.282  31.318 -41.262  1.00  0.00     0.003 C 
ATOM     23  C   UNL     1     -33.482  30.581 -40.034  1.00  0.00     0.010 C 
ATOM     24  C   UNL     1     -31.931  31.936 -38.743  1.00  0.00     0.012 C 
ATOM     25  C   UNL     1     -30.369  30.053 -40.908  1.00  0.00    -0.006 C 
ATOM     26  C   UNL     1     -32.750  29.161 -39.874  1.00  0.00     0.033 C 
ATOM     27  C   UNL     1     -31.430  28.864 -40.539  1.00  0.00     0.120 C 
ATOM     28  C   UNL     1     -29.380  29.643 -42.022  1.00  0.00     0.014 C 
ATOM     29  C   UNL     1     -29.334  30.465 -39.672  1.00  0.00     0.014 C 
ENDROOT
BRANCH   1  30
ATOM     30  C   UNL     1     -34.508  37.760 -43.998  1.00  0.00     0.048 C 
ATOM     31  O   UNL     1     -34.978  38.099 -45.125  1.00  0.00    -0.550 OA
ATOM     32  O   UNL     1     -33.115  37.854 -43.820  1.00  0.00    -0.550 OA
ENDBRANCH   1  30
BRANCH  27  33
ATOM     33  O   UNL     1     -31.803  28.003 -41.695  1.00  0.00    -0.393 OA
ATOM     34  H   UNL     1     -32.705  28.273 -42.149  1.00  0.00     0.210 HD
ENDBRANCH  27  33
TORSDOF 2
ENDMDL
MODEL 2
REMARK VINA RESULT:    -9.671      2.890      8.718
REMARK INTER + INTRA:          -9.942
REMARK INTER:                 -10.310
REMARK INTRA:                   0.368
REMARK UNBOUND:                 0.577
REMARK SMILES C[C@@H]1[C@H](C)CC[C@]2(C(=O)[O-])CC[C@@]3(C)C(=CC[C@@H]4[C@@]5(C)CC[C@@H](O)C(C)(C)[C@@H]5CC[C@@]43C)[C@@H]12
REMARK SMILES IDX 7 1 6 2 11 3 33 4 5 5 12 6 15 7 2 8 3 9 13 10 16 11 1 12
REMARK SMILES IDX 4 13 14 14 31 15 17 16 18 17 30 18 32 19 19 20 29 21 28 22
REMARK SMILES IDX 21 23 20 24 25 25 22 26 23 27 26 28 27 29 8 30 9 31 10 32
REMARK SMILES IDX 24 33
REMARK H PARENT 24 34
REMARK Flexibility Score: inf
ROOT
ATOM      1  C   UNL     1     -28.512  29.364 -37.381  1.00  0.00     0.017 C 
ATOM      2  C   UNL     1     -27.513  29.006 -36.240  1.00  0.00     0.014 C 
ATOM      3  C   UNL     1     -27.885  29.559 -38.854  1.00  0.00     0.014 C 
ATOM      4  C   UNL     1     -29.217  30.722 -37.055  1.00  0.00     0.030 C 
ATOM      5  C   UNL     1     -28.097  28.989 -34.715  1.00  0.00     0.004 C 
ATOM      6  C   UNL     1     -28.625  30.686 -39.750  1.00  0.00     0.013 C 
ATOM      7  C   UNL     1     -30.373  31.106 -38.022  1.00  0.00    -0.063 C 
ATOM      8  C   UNL     1     -29.493  30.996 -35.508  1.00  0.00    -0.003 C 
ATOM      9  C   UNL     1     -29.452  29.720 -34.598  1.00  0.00    -0.011 C 
ATOM     10  C   UNL     1     -30.197  30.670 -39.549  1.00  0.00    -0.006 C 
ATOM     11  C   UNL     1     -30.984  32.256 -37.678  1.00  0.00    -0.027 C 
ATOM     12  C   UNL     1     -28.440  32.055 -34.964  1.00  0.00     0.008 C 
ATOM     13  C   UNL     1     -29.760  30.112 -33.102  1.00  0.00     0.008 C 
ATOM     14  C   UNL     1     -30.771  29.241 -39.865  1.00  0.00     0.017 C 
ATOM     15  C   UNL     1     -31.034  31.664 -40.527  1.00  0.00    -0.020 C 
ATOM     16  C   UNL     1     -31.484  33.265 -38.653  1.00  0.00     0.032 C 
ATOM     17  C   UNL     1     -30.854  33.139 -40.102  1.00  0.00     0.006 C 
ATOM     18  C   UNL     1     -32.628  31.355 -40.422  1.00  0.00     0.008 C 
ATOM     19  C   UNL     1     -30.507  31.392 -42.021  1.00  0.00     0.012 C 
ATOM     20  C   UNL     1     -31.509  34.151 -41.144  1.00  0.00    -0.025 C 
ATOM     21  C   UNL     1     -33.540  32.571 -40.850  1.00  0.00     0.005 C 
ATOM     22  C   UNL     1     -32.745  33.424 -41.903  1.00  0.00     0.003 C 
ATOM     23  C   UNL     1     -30.502  34.759 -42.193  1.00  0.00     0.010 C 
ATOM     24  C   UNL     1     -31.922  35.427 -40.336  1.00  0.00     0.012 C 
ATOM     25  C   UNL     1     -33.681  34.311 -42.851  1.00  0.00    -0.006 C 
ATOM     26  C   UNL     1     -31.275  35.526 -43.372  1.00  0.00     0.033 C 
ATOM     27  C   UNL     1     -32.643  35.099 -43.841  1.00  0.00     0.120 C 
ATOM     28  C   UNL     1     -34.750  33.510 -43.628  1.00  0.00     0.014 C 
ATOM     29  C   UNL     1     -34.623  35.302 -41.904  1.00  0.00     0.014 C 
ENDROOT
BRANCH   1  30
ATOM     30  C   UNL     1     -29.458  28.122 -37.379  1.00  0.00     0.048 C 
ATOM     31  O   UNL     1     -30.673  28.180 -37.020  1.00  0.00    -0.550 OA
ATOM     32  O   UNL     1     -28.966  26.876 -37.811  1.00  0.00    -0.550 OA
ENDBRANCH   1  30
BRANCH  27  33
ATOM     33  O   UNL     1     -32.374  34.394 -45.124  1.00  0.00    -0.393 OA
ATOM     34  H   UNL     1     -33.209  33.907 -45.521  1.00  0.00     0.210 HD
ENDBRANCH  27  33
TORSDOF 2
ENDMDL
MODEL 3
REMARK VINA RESULT:    -8.290      1.484      8.025
REMARK INTER + INTRA:          -8.440
REMARK INTER:                  -8.787
REMARK INTRA:                   0.347
REMARK UNBOUND:                 0.577
REMARK SMILES C[C@@H]1[C@H](C)CC[C@]2(C(=O)[O-])CC[C@@]3(C)C(=CC[C@@H]4[C@@]5(C)CC[C@@H](O)C(C)(C)[C@@H]5CC[C@@]43C)[C@@H]12
REMARK SMILES IDX 7 1 6 2 11 3 33 4 5 5 12 6 15 7 2 8 3 9 13 10 16 11 1 12
REMARK SMILES IDX 4 13 14 14 31 15 17 16 18 17 30 18 32 19 19 20 29 21 28 22
REMARK SMILES IDX 21 23 20 24 25 25 22 26 23 27 26 28 27 29 8 30 9 31 10 32
REMARK SMILES IDX 24 33
REMARK H PARENT 24 34
REMARK Flexibility Score: inf
ROOT
ATOM      1  C   UNL     1     -30.663  31.644 -42.120  1.00  0.00     0.017 C 
ATOM      2  C   UNL     1     -29.751  30.655 -41.333  1.00  0.00     0.014 C 
ATOM      3  C   UNL     1     -29.929  32.883 -42.845  1.00  0.00     0.014 C 
ATOM      4  C   UNL     1     -31.696  32.297 -41.142  1.00  0.00     0.030 C 
ATOM      5  C   UNL     1     -30.491  29.506 -40.440  1.00  0.00     0.004 C 
ATOM      6  C   UNL     1     -30.796  34.248 -42.874  1.00  0.00     0.013 C 
ATOM      7  C   UNL     1     -32.785  33.167 -41.830  1.00  0.00    -0.063 C 
ATOM      8  C   UNL     1     -32.208  31.357 -39.959  1.00  0.00    -0.003 C 
ATOM      9  C   UNL     1     -31.983  29.824 -40.195  1.00  0.00    -0.011 C 
ATOM     10  C   UNL     1     -32.335  33.972 -43.134  1.00  0.00    -0.006 C 
ATOM     11  C   UNL     1     -33.681  33.670 -40.959  1.00  0.00    -0.027 C 
ATOM     12  C   UNL     1     -31.499  31.784 -38.602  1.00  0.00     0.008 C 
ATOM     13  C   UNL     1     -32.548  29.001 -38.975  1.00  0.00     0.008 C 
ATOM     14  C   UNL     1     -32.523  33.163 -44.469  1.00  0.00     0.017 C 
ATOM     15  C   UNL     1     -33.256  35.298 -43.335  1.00  0.00    -0.020 C 
ATOM     16  C   UNL     1     -34.280  35.030 -41.063  1.00  0.00     0.032 C 
ATOM     17  C   UNL     1     -33.471  36.030 -41.991  1.00  0.00     0.006 C 
ATOM     18  C   UNL     1     -34.737  34.884 -43.867  1.00  0.00     0.008 C 
ATOM     19  C   UNL     1     -32.508  36.220 -44.418  1.00  0.00     0.012 C 
ATOM     20  C   UNL     1     -34.214  37.428 -42.178  1.00  0.00    -0.025 C 
ATOM     21  C   UNL     1     -35.847  35.964 -43.555  1.00  0.00     0.005 C 
ATOM     22  C   UNL     1     -35.150  37.372 -43.501  1.00  0.00     0.003 C 
ATOM     23  C   UNL     1     -33.257  38.678 -42.236  1.00  0.00     0.010 C 
ATOM     24  C   UNL     1     -35.001  37.701 -40.853  1.00  0.00     0.012 C 
ATOM     25  C   UNL     1     -36.146  38.593 -43.778  1.00  0.00    -0.006 C 
ATOM     26  C   UNL     1     -34.040  39.995 -42.713  1.00  0.00     0.033 C 
ATOM     27  C   UNL     1     -35.208  39.929 -43.665  1.00  0.00     0.120 C 
ATOM     28  C   UNL     1     -36.904  38.512 -45.123  1.00  0.00     0.014 C 
ATOM     29  C   UNL     1     -37.396  38.530 -42.683  1.00  0.00     0.014 C 
ENDROOT
BRANCH   1  30
ATOM     30  C   UNL     1     -31.292  30.708 -43.199  1.00  0.00     0.048 C 
ATOM     31  O   UNL     1     -32.508  30.349 -43.179  1.00  0.00    -0.550 OA
ATOM     32  O   UNL     1     -30.496  30.247 -44.265  1.00  0.00    -0.550 OA
ENDBRANCH   1  30
BRANCH  27  33
ATOM     33  O   UNL     1     -34.634  40.380 -44.962  1.00  0.00    -0.393 OA
ATOM     34  H   UNL     1     -35.252  40.192 -45.784  1.00  0.00     0.210 HD
ENDBRANCH  27  33
TORSDOF 2
ENDMDL
MODEL 4
REMARK VINA RESULT:    -8.079      2.003      8.433
REMARK INTER + INTRA:          -8.211
REMARK INTER:                  -8.626
REMARK INTRA:                   0.415
REMARK UNBOUND:                 0.577
REMARK SMILES C[C@@H]1[C@H](C)CC[C@]2(C(=O)[O-])CC[C@@]3(C)C(=CC[C@@H]4[C@@]5(C)CC[C@@H](O)C(C)(C)[C@@H]5CC[C@@]43C)[C@@H]12
REMARK SMILES IDX 7 1 6 2 11 3 33 4 5 5 12 6 15 7 2 8 3 9 13 10 16 11 1 12
REMARK SMILES IDX 4 13 14 14 31 15 17 16 18 17 30 18 32 19 19 20 29 21 28 22
REMARK SMILES IDX 21 23 20 24 25 25 22 26 23 27 26 28 27 29 8 30 9 31 10 32
REMARK SMILES IDX 24 33
REMARK H PARENT 24 34
REMARK Flexibility Score: inf
ROOT
ATOM      1  C   UNL     1     -31.168  29.388 -39.440  1.00  0.00     0.017 C 
ATOM      2  C   UNL     1     -30.867  27.879 -39.193  1.00  0.00     0.014 C 
ATOM      3  C   UNL     1     -32.629  29.913 -39.007  1.00  0.00     0.014 C 
ATOM      4  C   UNL     1     -31.057  29.702 -40.969  1.00  0.00     0.030 C 
ATOM      5  C   UNL     1     -29.468  27.288 -39.793  1.00  0.00     0.004 C 
ATOM      6  C   UNL     1     -33.232  31.071 -39.963  1.00  0.00     0.013 C 
ATOM      7  C   UNL     1     -31.154  31.210 -41.333  1.00  0.00    -0.063 C 
ATOM      8  C   UNL     1     -29.950  28.871 -41.760  1.00  0.00    -0.003 C 
ATOM      9  C   UNL     1     -28.847  28.220 -40.857  1.00  0.00    -0.011 C 
ATOM     10  C   UNL     1     -32.120  32.101 -40.425  1.00  0.00    -0.006 C 
ATOM     11  C   UNL     1     -31.006  31.441 -42.652  1.00  0.00    -0.027 C 
ATOM     12  C   UNL     1     -30.658  27.733 -42.616  1.00  0.00     0.008 C 
ATOM     13  C   UNL     1     -27.802  27.448 -41.750  1.00  0.00     0.008 C 
ATOM     14  C   UNL     1     -31.406  32.729 -39.173  1.00  0.00     0.017 C 
ATOM     15  C   UNL     1     -32.666  33.387 -41.261  1.00  0.00    -0.020 C 
ATOM     16  C   UNL     1     -31.764  32.474 -43.413  1.00  0.00     0.032 C 
ATOM     17  C   UNL     1     -33.082  32.978 -42.692  1.00  0.00     0.006 C 
ATOM     18  C   UNL     1     -31.487  34.495 -41.431  1.00  0.00     0.008 C 
ATOM     19  C   UNL     1     -33.893  33.996 -40.420  1.00  0.00     0.012 C 
ATOM     20  C   UNL     1     -33.791  34.171 -43.477  1.00  0.00    -0.025 C 
ATOM     21  C   UNL     1     -31.704  35.467 -42.657  1.00  0.00     0.005 C 
ATOM     22  C   UNL     1     -33.250  35.591 -42.909  1.00  0.00     0.003 C 
ATOM     23  C   UNL     1     -35.365  34.133 -43.450  1.00  0.00     0.010 C 
ATOM     24  C   UNL     1     -33.502  33.944 -44.999  1.00  0.00     0.012 C 
ATOM     25  C   UNL     1     -33.671  36.927 -43.681  1.00  0.00    -0.006 C 
ATOM     26  C   UNL     1     -35.995  35.503 -44.000  1.00  0.00     0.033 C 
ATOM     27  C   UNL     1     -35.297  36.828 -43.829  1.00  0.00     0.120 C 
ATOM     28  C   UNL     1     -33.215  38.236 -42.997  1.00  0.00     0.014 C 
ATOM     29  C   UNL     1     -32.848  36.998 -45.125  1.00  0.00     0.014 C 
ENDROOT
BRANCH   1  30
ATOM     30  C   UNL     1     -30.083  30.078 -38.554  1.00  0.00     0.048 C 
ATOM     31  O   UNL     1     -30.116  30.067 -37.287  1.00  0.00    -0.550 OA
ATOM     32  O   UNL     1     -28.998  30.730 -39.170  1.00  0.00    -0.550 OA
ENDBRANCH   1  30
BRANCH  27  33
ATOM     33  O   UNL     1     -36.048  37.484 -42.724  1.00  0.00    -0.393 OA
ATOM     34  H   UNL     1     -35.848  37.082 -41.780  1.00  0.00     0.210 HD
ENDBRANCH  27  33
TORSDOF 2
ENDMDL
