MODEL 1
REMARK VINA RESULT:    -2.909      0.000      0.000
REMARK INTER + INTRA:          -4.817
REMARK INTER:                  -4.610
REMARK INTRA:                  -0.207
REMARK UNBOUND:                -0.207
REMARK SMILES CCCCCCCCCCCC(=O)[O-]
REMARK SMILES IDX 7 1 8 2 9 3 10 4 11 5 12 6 13 7 14 8 6 9 5 10 4 11 3 12 2 13
REMARK SMILES IDX 1 14
REMARK H PARENT
REMARK Flexibility Score: inf
ROOT
ATOM      1  C   UNL     1     -12.971  -4.037 -11.926  1.00  0.00     0.000 C 
ENDROOT
BRANCH   1   2
ATOM      2  C   UNL     1     -11.903  -3.161 -11.254  1.00  0.00     0.000 C 
BRANCH   2   3
ATOM      3  C   UNL     1     -12.431  -2.433 -10.008  1.00  0.00     0.000 C 
BRANCH   3   4
ATOM      4  C   UNL     1     -12.816  -3.401  -8.875  1.00  0.00     0.006 C 
BRANCH   4   5
ATOM      5  C   UNL     1     -11.968  -4.680  -8.894  1.00  0.00     0.053 C 
BRANCH   5   6
ATOM      6  C   UNL     1     -12.817  -5.914  -8.887  1.00  0.00     0.041 C 
ATOM      7  O   UNL     1     -14.071  -5.820  -8.921  1.00  0.00    -0.550 OA
ATOM      8  O   UNL     1     -12.221  -7.169  -8.876  1.00  0.00    -0.550 OA
ENDBRANCH   5   6
ENDBRANCH   4   5
ENDBRANCH   3   4
ENDBRANCH   2   3
ENDBRANCH   1   2
BRANCH   1   9
ATOM      9  C   UNL     1     -14.361  -3.402 -11.800  1.00  0.00     0.000 C 
BRANCH   9  10
ATOM     10  C   UNL     1     -14.828  -2.827 -13.143  1.00  0.00    -0.000 C 
BRANCH  10  11
ATOM     11  C   UNL     1     -13.845  -3.180 -14.264  1.00  0.00    -0.000 C 
BRANCH  11  12
ATOM     12  C   UNL     1     -12.934  -1.990 -14.593  1.00  0.00    -0.000 C 
BRANCH  12  13
ATOM     13  C   UNL     1     -13.404  -1.273 -15.864  1.00  0.00    -0.003 C 
ATOM     14  C   UNL     1     -14.136  -2.230 -16.799  1.00  0.00     0.004 C 
ENDBRANCH  12  13
ENDBRANCH  11  12
ENDBRANCH  10  11
ENDBRANCH   9  10
ENDBRANCH   1   9
TORSDOF 10
ENDMDL
MODEL 2
REMARK VINA RESULT:    -2.680      3.536      6.269
REMARK INTER + INTRA:          -4.453
REMARK INTER:                  -4.369
REMARK INTRA:                  -0.084
REMARK UNBOUND:                -0.207
REMARK SMILES CCCCCCCCCCCC(=O)[O-]
REMARK SMILES IDX 7 1 8 2 9 3 10 4 11 5 12 6 13 7 14 8 6 9 5 10 4 11 3 12 2 13
REMARK SMILES IDX 1 14
REMARK H PARENT
REMARK Flexibility Score: inf
ROOT
ATOM      1  C   UNL     1     -13.676  -4.099 -11.744  1.00  0.00     0.000 C 
ENDROOT
BRANCH   1   2
ATOM      2  C   UNL     1     -12.476  -3.494 -12.489  1.00  0.00     0.000 C 
BRANCH   2   3
ATOM      3  C   UNL     1     -12.876  -2.821 -13.810  1.00  0.00     0.000 C 
BRANCH   3   4
ATOM      4  C   UNL     1     -13.992  -3.582 -14.549  1.00  0.00     0.006 C 
BRANCH   4   5
ATOM      5  C   UNL     1     -14.257  -3.006 -15.946  1.00  0.00     0.053 C 
BRANCH   5   6
ATOM      6  C   UNL     1     -13.653  -1.645 -16.113  1.00  0.00     0.041 C 
ATOM      7  O   UNL     1     -12.965  -1.379 -17.133  1.00  0.00    -0.550 OA
ATOM      8  O   UNL     1     -13.877  -0.662 -15.157  1.00  0.00    -0.550 OA
ENDBRANCH   5   6
ENDBRANCH   4   5
ENDBRANCH   3   4
ENDBRANCH   2   3
ENDBRANCH   1   2
BRANCH   1   9
ATOM      9  C   UNL     1     -13.242  -4.703 -10.403  1.00  0.00     0.000 C 
BRANCH   9  10
ATOM     10  C   UNL     1     -14.133  -4.204  -9.259  1.00  0.00    -0.000 C 
BRANCH  10  11
ATOM     11  C   UNL     1     -13.779  -2.762  -8.875  1.00  0.00    -0.000 C 
BRANCH  11  12
ATOM     12  C   UNL     1     -12.260  -2.547  -8.887  1.00  0.00    -0.000 C 
BRANCH  12  13
ATOM     13  C   UNL     1     -11.886  -1.315  -9.720  1.00  0.00    -0.003 C 
ATOM     14  C   UNL     1     -11.930  -0.045  -8.875  1.00  0.00     0.004 C 
ENDBRANCH  12  13
ENDBRANCH  11  12
ENDBRANCH  10  11
ENDBRANCH   9  10
ENDBRANCH   1   9
TORSDOF 10
ENDMDL
MODEL 3
REMARK VINA RESULT:    -2.405      3.165      6.169
REMARK INTER + INTRA:          -4.018
REMARK INTER:                  -4.110
REMARK INTRA:                   0.092
REMARK UNBOUND:                -0.207
REMARK SMILES CCCCCCCCCCCC(=O)[O-]
REMARK SMILES IDX 7 1 8 2 9 3 10 4 11 5 12 6 13 7 14 8 6 9 5 10 4 11 3 12 2 13
REMARK SMILES IDX 1 14
REMARK H PARENT
REMARK Flexibility Score: inf
ROOT
ATOM      1  C   UNL     1     -12.618  -2.201 -11.411  1.00  0.00     0.000 C 
ENDROOT
BRANCH   1   2
ATOM      2  C   UNL     1     -11.997  -3.495 -11.959  1.00  0.00     0.000 C 
BRANCH   2   3
ATOM      3  C   UNL     1     -12.813  -4.104 -13.110  1.00  0.00     0.000 C 
BRANCH   3   4
ATOM      4  C   UNL     1     -14.182  -3.424 -13.290  1.00  0.00     0.006 C 
BRANCH   4   5
ATOM      5  C   UNL     1     -14.500  -3.147 -14.765  1.00  0.00     0.053 C 
BRANCH   5   6
ATOM      6  C   UNL     1     -13.727  -1.978 -15.293  1.00  0.00     0.041 C 
ATOM      7  O   UNL     1     -12.962  -1.329 -14.533  1.00  0.00    -0.550 OA
ATOM      8  O   UNL     1     -13.827  -1.624 -16.633  1.00  0.00    -0.550 OA
ENDBRANCH   5   6
ENDBRANCH   4   5
ENDBRANCH   3   4
ENDBRANCH   2   3
ENDBRANCH   1   2
BRANCH   1   9
ATOM      9  C   UNL     1     -11.876  -1.725 -10.156  1.00  0.00     0.000 C 
BRANCH   9  10
ATOM     10  C   UNL     1     -12.675  -2.050  -8.888  1.00  0.00    -0.000 C 
BRANCH  10  11
ATOM     11  C   UNL     1     -13.220  -3.482  -8.932  1.00  0.00    -0.000 C 
BRANCH  11  12
ATOM     12  C   UNL     1     -12.079  -4.501  -9.041  1.00  0.00    -0.000 C 
BRANCH  12  13
ATOM     13  C   UNL     1     -12.603  -5.933  -8.875  1.00  0.00    -0.003 C 
ATOM     14  C   UNL     1     -14.120  -5.986  -9.030  1.00  0.00     0.004 C 
ENDBRANCH  12  13
ENDBRANCH  11  12
ENDBRANCH  10  11
ENDBRANCH   9  10
ENDBRANCH   1   9
TORSDOF 10
ENDMDL
MODEL 4
REMARK VINA RESULT:    -2.118     23.457     24.835
REMARK INTER + INTRA:          -3.563
REMARK INTER:                  -2.914
REMARK INTRA:                  -0.649
REMARK UNBOUND:                -0.207
REMARK SMILES CCCCCCCCCCCC(=O)[O-]
REMARK SMILES IDX 7 1 8 2 9 3 10 4 11 5 12 6 13 7 14 8 6 9 5 10 4 11 3 12 2 13
REMARK SMILES IDX 1 14
REMARK H PARENT
REMARK Flexibility Score: inf
ROOT
ATOM      1  C   UNL     1     -31.231   0.557 -25.603  1.00  0.00     0.000 C 
ENDROOT
BRANCH   1   2
ATOM      2  C   UNL     1     -31.220   1.470 -24.368  1.00  0.00     0.000 C 
BRANCH   2   3
ATOM      3  C   UNL     1     -31.744   2.883 -24.669  1.00  0.00     0.000 C 
BRANCH   3   4
ATOM      4  C   UNL     1     -30.920   3.601 -25.753  1.00  0.00     0.006 C 
BRANCH   4   5
ATOM      5  C   UNL     1     -31.801   4.440 -26.687  1.00  0.00     0.053 C 
BRANCH   5   6
ATOM      6  C   UNL     1     -31.579   4.092 -28.127  1.00  0.00     0.041 C 
ATOM      7  O   UNL     1     -31.866   2.942 -28.552  1.00  0.00    -0.550 OA
ATOM      8  O   UNL     1     -31.083   5.047 -29.006  1.00  0.00    -0.550 OA
ENDBRANCH   5   6
ENDBRANCH   4   5
ENDBRANCH   3   4
ENDBRANCH   2   3
ENDBRANCH   1   2
BRANCH   1   9
ATOM      9  C   UNL     1     -31.361  -0.916 -25.195  1.00  0.00     0.000 C 
BRANCH   9  10
ATOM     10  C   UNL     1     -32.049  -1.734 -26.296  1.00  0.00    -0.000 C 
BRANCH  10  11
ATOM     11  C   UNL     1     -32.125  -0.940 -27.605  1.00  0.00    -0.000 C 
BRANCH  11  12
ATOM     12  C   UNL     1     -31.797  -1.831 -28.809  1.00  0.00    -0.000 C 
BRANCH  12  13
ATOM     13  C   UNL     1     -31.735  -3.307 -28.401  1.00  0.00    -0.003 C 
ATOM     14  C   UNL     1     -30.604  -4.032 -29.125  1.00  0.00     0.004 C 
ENDBRANCH  12  13
ENDBRANCH  11  12
ENDBRANCH  10  11
ENDBRANCH   9  10
ENDBRANCH   1   9
TORSDOF 10
ENDMDL
MODEL 5
REMARK VINA RESULT:    -1.964     23.214     24.491
REMARK INTER + INTRA:          -3.319
REMARK INTER:                  -2.749
REMARK INTRA:                  -0.570
REMARK UNBOUND:                -0.207
REMARK SMILES CCCCCCCCCCCC(=O)[O-]
REMARK SMILES IDX 7 1 8 2 9 3 10 4 11 5 12 6 13 7 14 8 6 9 5 10 4 11 3 12 2 13
REMARK SMILES IDX 1 14
REMARK H PARENT
REMARK Flexibility Score: inf
ROOT
ATOM      1  C   UNL     1     -31.045   1.297 -25.332  1.00  0.00     0.000 C 
ENDROOT
BRANCH   1   2
ATOM      2  C   UNL     1     -31.584  -0.019 -24.751  1.00  0.00     0.000 C 
BRANCH   2   3
ATOM      3  C   UNL     1     -31.264  -1.233 -25.636  1.00  0.00     0.000 C 
BRANCH   3   4
ATOM      4  C   UNL     1     -31.545  -0.971 -27.126  1.00  0.00     0.006 C 
BRANCH   4   5
ATOM      5  C   UNL     1     -32.125  -2.204 -27.831  1.00  0.00     0.053 C 
BRANCH   5   6
ATOM      6  C   UNL     1     -31.060  -3.015 -28.506  1.00  0.00     0.041 C 
ATOM      7  O   UNL     1     -29.884  -2.573 -28.587  1.00  0.00    -0.550 OA
ATOM      8  O   UNL     1     -31.361  -4.270 -29.018  1.00  0.00    -0.550 OA
ENDBRANCH   5   6
ENDBRANCH   4   5
ENDBRANCH   3   4
ENDBRANCH   2   3
ENDBRANCH   1   2
BRANCH   1   9
ATOM      9  C   UNL     1     -31.728   2.505 -24.679  1.00  0.00     0.000 C 
BRANCH   9  10
ATOM     10  C   UNL     1     -31.889   3.656 -25.681  1.00  0.00    -0.000 C 
BRANCH  10  11
ATOM     11  C   UNL     1     -30.712   3.698 -26.663  1.00  0.00    -0.000 C 
BRANCH  11  12
ATOM     12  C   UNL     1     -30.900   4.814 -27.699  1.00  0.00    -0.000 C 
BRANCH  12  13
ATOM     13  C   UNL     1     -32.118   4.538 -28.589  1.00  0.00    -0.003 C 
ATOM     14  C   UNL     1     -32.125   3.093 -29.081  1.00  0.00     0.004 C 
ENDBRANCH  12  13
ENDBRANCH  11  12
ENDBRANCH  10  11
ENDBRANCH   9  10
ENDBRANCH   1   9
TORSDOF 10
ENDMDL
MODEL 6
REMARK VINA RESULT:    -1.339      0.933      1.682
REMARK INTER + INTRA:          -2.329
REMARK INTER:                  -2.878
REMARK INTRA:                   0.549
REMARK UNBOUND:                -0.207
REMARK SMILES CCCCCCCCCCCC(=O)[O-]
REMARK SMILES IDX 7 1 8 2 9 3 10 4 11 5 12 6 13 7 14 8 6 9 5 10 4 11 3 12 2 13
REMARK SMILES IDX 1 14
REMARK H PARENT
REMARK Flexibility Score: inf
ROOT
ATOM      1  C   UNL     1     -13.605  -3.636 -12.054  1.00  0.00     0.000 C 
ENDROOT
BRANCH   1   2
ATOM      2  C   UNL     1     -12.210  -3.477 -11.431  1.00  0.00     0.000 C 
BRANCH   2   3
ATOM      3  C   UNL     1     -12.213  -2.565 -10.195  1.00  0.00     0.000 C 
BRANCH   3   4
ATOM      4  C   UNL     1     -12.103  -3.353  -8.877  1.00  0.00     0.006 C 
BRANCH   4   5
ATOM      5  C   UNL     1     -11.997  -4.865  -9.116  1.00  0.00     0.053 C 
BRANCH   5   6
ATOM      6  C   UNL     1     -13.337  -5.535  -9.060  1.00  0.00     0.041 C 
ATOM      7  O   UNL     1     -13.423  -6.787  -9.152  1.00  0.00    -0.550 OA
ATOM      8  O   UNL     1     -14.487  -4.777  -8.875  1.00  0.00    -0.550 OA
ENDBRANCH   5   6
ENDBRANCH   4   5
ENDBRANCH   3   4
ENDBRANCH   2   3
ENDBRANCH   1   2
BRANCH   1   9
ATOM      9  C   UNL     1     -13.537  -3.538 -13.583  1.00  0.00     0.000 C 
BRANCH   9  10
ATOM     10  C   UNL     1     -12.620  -2.390 -14.022  1.00  0.00    -0.000 C 
BRANCH  10  11
ATOM     11  C   UNL     1     -13.392  -1.353 -14.846  1.00  0.00    -0.000 C 
BRANCH  11  12
ATOM     12  C   UNL     1     -13.697  -1.884 -16.252  1.00  0.00    -0.000 C 
BRANCH  12  13
ATOM     13  C   UNL     1     -14.245  -3.315 -16.193  1.00  0.00    -0.003 C 
ATOM     14  C   UNL     1     -14.476  -3.875 -17.593  1.00  0.00     0.004 C 
ENDBRANCH  12  13
ENDBRANCH  11  12
ENDBRANCH  10  11
ENDBRANCH   9  10
ENDBRANCH   1   9
TORSDOF 10
ENDMDL
MODEL 7
REMARK VINA RESULT:    -0.299      1.772      3.155
REMARK INTER + INTRA:          -0.680
REMARK INTER:                  -0.058
REMARK INTRA:                  -0.623
REMARK UNBOUND:                -0.207
REMARK SMILES CCCCCCCCCCCC(=O)[O-]
REMARK SMILES IDX 7 1 8 2 9 3 10 4 11 5 12 6 13 7 14 8 6 9 5 10 4 11 3 12 2 13
REMARK SMILES IDX 1 14
REMARK H PARENT
REMARK Flexibility Score: inf
ROOT
ATOM      1  C   UNL     1     -13.143  -1.675 -13.846  1.00  0.00     0.000 C 
ENDROOT
BRANCH   1   2
ATOM      2  C   UNL     1     -11.996  -2.638 -13.502  1.00  0.00     0.000 C 
BRANCH   2   3
ATOM      3  C   UNL     1     -11.877  -2.903 -11.993  1.00  0.00     0.000 C 
BRANCH   3   4
ATOM      4  C   UNL     1     -13.121  -3.602 -11.415  1.00  0.00     0.006 C 
BRANCH   4   5
ATOM      5  C   UNL     1     -12.792  -4.424 -10.162  1.00  0.00     0.053 C 
BRANCH   5   6
ATOM      6  C   UNL     1     -14.030  -4.911  -9.472  1.00  0.00     0.041 C 
ATOM      7  O   UNL     1     -14.247  -6.145  -9.358  1.00  0.00    -0.550 OA
ATOM      8  O   UNL     1     -14.928  -4.000  -8.928  1.00  0.00    -0.550 OA
ENDBRANCH   5   6
ENDBRANCH   4   5
ENDBRANCH   3   4
ENDBRANCH   2   3
ENDBRANCH   1   2
BRANCH   1   9
ATOM      9  C   UNL     1     -13.116  -1.299 -15.333  1.00  0.00     0.000 C 
BRANCH   9  10
ATOM     10  C   UNL     1     -13.901  -2.315 -16.172  1.00  0.00    -0.000 C 
BRANCH  10  11
ATOM     11  C   UNL     1     -14.566  -3.369 -15.280  1.00  0.00    -0.000 C 
BRANCH  11  12
ATOM     12  C   UNL     1     -14.187  -4.787 -15.726  1.00  0.00    -0.000 C 
BRANCH  12  13
ATOM     13  C   UNL     1     -13.989  -5.709 -14.517  1.00  0.00    -0.003 C 
ATOM     14  C   UNL     1     -13.965  -7.175 -14.940  1.00  0.00     0.004 C 
ENDBRANCH  12  13
ENDBRANCH  11  12
ENDBRANCH  10  11
ENDBRANCH   9  10
ENDBRANCH   1   9
TORSDOF 10
ENDMDL
