MODEL 1
REMARK VINA RESULT:    -5.715      0.000      0.000
REMARK INTER + INTRA:          -6.812
REMARK INTER:                  -6.885
REMARK INTRA:                   0.073
REMARK UNBOUND:                 0.073
REMARK SMILES O=c1c(O)c(-c2ccc(O)c(O)c2)oc2cc(O)cc(O)c12
REMARK SMILES IDX 5 1 3 2 2 3 1 4 22 5 20 6 19 7 17 8 16 9 15 10 14 11 6 12
REMARK SMILES IDX 7 13 8 14 9 15 13 16 11 17 10 18 12 20 4 22 21 24 18 26
REMARK H PARENT 10 19 12 21 4 23 21 25 18 27
REMARK Flexibility Score: inf
ROOT
ATOM      1  C   UNL     1       3.110   7.209  -7.309  1.00  0.00     0.180 A 
ATOM      2  C   UNL     1       4.416   7.111  -7.820  1.00  0.00     0.208 A 
ATOM      3  C   UNL     1       5.312   8.171  -7.604  1.00  0.00     0.238 A 
ATOM      4  O   UNL     1       6.463   8.102  -8.110  1.00  0.00    -0.285 OA
ATOM      5  C   UNL     1       4.896   9.308  -6.870  1.00  0.00     0.111 A 
ATOM      6  C   UNL     1       5.732  10.422  -6.558  1.00  0.00     0.134 A 
ATOM      7  C   UNL     1       5.178  11.548  -5.938  1.00  0.00     0.093 A 
ATOM      8  C   UNL     1       3.836  11.576  -5.560  1.00  0.00     0.123 A 
ATOM      9  C   UNL     1       3.024  10.469  -5.806  1.00  0.00     0.094 A 
ATOM     10  C   UNL     1       3.539   9.344  -6.456  1.00  0.00     0.146 A 
ATOM     11  O   UNL     1       2.730   8.316  -6.682  1.00  0.00    -0.452 OA
ENDROOT
BRANCH   1  12
ATOM     12  C   UNL     1       2.117   6.123  -7.474  1.00  0.00     0.025 A 
ATOM     13  C   UNL     1       1.912   5.562  -8.745  1.00  0.00     0.016 A 
ATOM     14  C   UNL     1       0.966   4.551  -8.927  1.00  0.00     0.051 A 
ATOM     15  C   UNL     1       0.199   4.096  -7.850  1.00  0.00     0.157 A 
ATOM     16  C   UNL     1       1.332   5.679  -6.396  1.00  0.00     0.062 A 
ATOM     17  C   UNL     1       0.378   4.666  -6.578  1.00  0.00     0.158 A 
BRANCH  15  18
ATOM     18  O   UNL     1      -0.737   3.085  -8.062  1.00  0.00    -0.504 OA
ATOM     19  H   UNL     1      -0.740   2.231  -7.517  1.00  0.00     0.293 HD
ENDBRANCH  15  18
BRANCH  17  20
ATOM     20  O   UNL     1      -0.392   4.227  -5.502  1.00  0.00    -0.504 OA
ATOM     21  H   UNL     1      -0.247   4.584  -4.565  1.00  0.00     0.293 HD
ENDBRANCH  17  20
ENDBRANCH   1  12
BRANCH   2  22
ATOM     22  O   UNL     1       4.799   5.991  -8.561  1.00  0.00    -0.502 OA
ATOM     23  H   UNL     1       4.194   5.188  -8.686  1.00  0.00     0.293 HD
ENDBRANCH   2  22
BRANCH   6  24
ATOM     24  O   UNL     1       7.107  10.459  -6.808  1.00  0.00    -0.507 OA
ATOM     25  H   UNL     1       7.667   9.662  -7.067  1.00  0.00     0.293 HD
ENDBRANCH   6  24
BRANCH   8  26
ATOM     26  O   UNL     1       3.322  12.708  -4.930  1.00  0.00    -0.508 OA
ATOM     27  H   UNL     1       2.378  12.727  -4.563  1.00  0.00     0.293 HD
ENDBRANCH   8  26
TORSDOF 6
ENDMDL
MODEL 2
REMARK VINA RESULT:    -5.671      2.758      4.910
REMARK INTER + INTRA:          -6.758
REMARK INTER:                  -7.092
REMARK INTRA:                   0.334
REMARK UNBOUND:                 0.073
REMARK SMILES O=c1c(O)c(-c2ccc(O)c(O)c2)oc2cc(O)cc(O)c12
REMARK SMILES IDX 5 1 3 2 2 3 1 4 22 5 20 6 19 7 17 8 16 9 15 10 14 11 6 12
REMARK SMILES IDX 7 13 8 14 9 15 13 16 11 17 10 18 12 20 4 22 21 24 18 26
REMARK H PARENT 10 19 12 21 4 23 21 25 18 27
REMARK Flexibility Score: inf
ROOT
ATOM      1  C   UNL     1       0.003   3.958  -6.620  1.00  0.00     0.180 A 
ATOM      2  C   UNL     1       0.392   4.458  -7.875  1.00  0.00     0.208 A 
ATOM      3  C   UNL     1       1.258   5.562  -7.929  1.00  0.00     0.238 A 
ATOM      4  O   UNL     1       1.560   6.039  -9.055  1.00  0.00    -0.285 OA
ATOM      5  C   UNL     1       1.737   6.142  -6.730  1.00  0.00     0.111 A 
ATOM      6  C   UNL     1       2.650   7.237  -6.667  1.00  0.00     0.134 A 
ATOM      7  C   UNL     1       2.954   7.813  -5.428  1.00  0.00     0.093 A 
ATOM      8  C   UNL     1       2.430   7.293  -4.244  1.00  0.00     0.123 A 
ATOM      9  C   UNL     1       1.584   6.185  -4.289  1.00  0.00     0.094 A 
ATOM     10  C   UNL     1       1.233   5.611  -5.513  1.00  0.00     0.146 A 
ATOM     11  O   UNL     1       0.416   4.565  -5.514  1.00  0.00    -0.452 OA
ENDROOT
BRANCH   1  12
ATOM     12  C   UNL     1      -0.888   2.784  -6.482  1.00  0.00     0.025 A 
ATOM     13  C   UNL     1      -1.579   2.578  -5.277  1.00  0.00     0.016 A 
ATOM     14  C   UNL     1      -2.408   1.465  -5.118  1.00  0.00     0.051 A 
ATOM     15  C   UNL     1      -2.548   0.533  -6.151  1.00  0.00     0.157 A 
ATOM     16  C   UNL     1      -1.014   1.835  -7.512  1.00  0.00     0.062 A 
ATOM     17  C   UNL     1      -1.844   0.715  -7.353  1.00  0.00     0.158 A 
BRANCH  15  18
ATOM     18  O   UNL     1      -3.384  -0.567  -5.964  1.00  0.00    -0.504 OA
ATOM     19  H   UNL     1      -4.137  -0.562  -5.288  1.00  0.00     0.293 HD
ENDBRANCH  15  18
BRANCH  17  20
ATOM     20  O   UNL     1      -1.968  -0.217  -8.383  1.00  0.00    -0.504 OA
ATOM     21  H   UNL     1      -2.861  -0.635  -8.617  1.00  0.00     0.293 HD
ENDBRANCH  17  20
ENDBRANCH   1  12
BRANCH   2  22
ATOM     22  O   UNL     1      -0.111   3.885  -9.047  1.00  0.00    -0.502 OA
ATOM     23  H   UNL     1       0.160   4.206  -9.968  1.00  0.00     0.293 HD
ENDBRANCH   2  22
BRANCH   6  24
ATOM     24  O   UNL     1       3.303   7.773  -7.782  1.00  0.00    -0.507 OA
ATOM     25  H   UNL     1       3.149   7.481  -8.734  1.00  0.00     0.293 HD
ENDBRANCH   6  24
BRANCH   8  26
ATOM     26  O   UNL     1       2.767   7.882  -3.027  1.00  0.00    -0.508 OA
ATOM     27  H   UNL     1       2.661   7.384  -2.150  1.00  0.00     0.293 HD
ENDBRANCH   8  26
TORSDOF 6
ENDMDL
MODEL 3
REMARK VINA RESULT:    -5.587      3.029      8.759
REMARK INTER + INTRA:          -6.657
REMARK INTER:                  -7.008
REMARK INTRA:                   0.351
REMARK UNBOUND:                 0.073
REMARK SMILES O=c1c(O)c(-c2ccc(O)c(O)c2)oc2cc(O)cc(O)c12
REMARK SMILES IDX 5 1 3 2 2 3 1 4 22 5 20 6 19 7 17 8 16 9 15 10 14 11 6 12
REMARK SMILES IDX 7 13 8 14 9 15 13 16 11 17 10 18 12 20 4 22 21 24 18 26
REMARK H PARENT 10 19 12 21 4 23 21 25 18 27
REMARK Flexibility Score: inf
ROOT
ATOM      1  C   UNL     1       0.039   3.715  -6.726  1.00  0.00     0.180 A 
ATOM      2  C   UNL     1       0.124   3.071  -7.972  1.00  0.00     0.208 A 
ATOM      3  C   UNL     1      -0.691   1.954  -8.218  1.00  0.00     0.238 A 
ATOM      4  O   UNL     1      -0.572   1.348  -9.316  1.00  0.00    -0.285 OA
ATOM      5  C   UNL     1      -1.591   1.504  -7.222  1.00  0.00     0.111 A 
ATOM      6  C   UNL     1      -2.492   0.409  -7.378  1.00  0.00     0.134 A 
ATOM      7  C   UNL     1      -3.244  -0.029  -6.282  1.00  0.00     0.093 A 
ATOM      8  C   UNL     1      -3.177   0.629  -5.054  1.00  0.00     0.123 A 
ATOM      9  C   UNL     1      -2.345   1.738  -4.907  1.00  0.00     0.094 A 
ATOM     10  C   UNL     1      -1.555   2.177  -5.972  1.00  0.00     0.146 A 
ATOM     11  O   UNL     1      -0.767   3.230  -5.789  1.00  0.00    -0.452 OA
ENDROOT
BRANCH   1  12
ATOM     12  C   UNL     1       0.847   4.912  -6.401  1.00  0.00     0.025 A 
ATOM     13  C   UNL     1       1.019   5.287  -5.059  1.00  0.00     0.016 A 
ATOM     14  C   UNL     1       1.760   6.425  -4.732  1.00  0.00     0.051 A 
ATOM     15  C   UNL     1       2.327   7.214  -5.737  1.00  0.00     0.157 A 
ATOM     16  C   UNL     1       1.400   5.718  -7.412  1.00  0.00     0.062 A 
ATOM     17  C   UNL     1       2.143   6.863  -7.085  1.00  0.00     0.158 A 
BRANCH  15  18
ATOM     18  O   UNL     1       3.063   8.343  -5.380  1.00  0.00    -0.504 OA
ATOM     19  H   UNL     1       2.619   9.208  -5.099  1.00  0.00     0.293 HD
ENDBRANCH  15  18
BRANCH  17  20
ATOM     20  O   UNL     1       2.693   7.652  -8.094  1.00  0.00    -0.504 OA
ATOM     21  H   UNL     1       2.763   7.321  -9.049  1.00  0.00     0.293 HD
ENDBRANCH  17  20
ENDBRANCH   1  12
BRANCH   2  22
ATOM     22  O   UNL     1       1.035   3.517  -8.933  1.00  0.00    -0.502 OA
ATOM     23  H   UNL     1       1.225   3.000  -9.784  1.00  0.00     0.293 HD
ENDBRANCH   2  22
BRANCH   6  24
ATOM     24  O   UNL     1      -2.704  -0.260  -8.588  1.00  0.00    -0.507 OA
ATOM     25  H   UNL     1      -2.778   0.188  -9.488  1.00  0.00     0.293 HD
ENDBRANCH   6  24
BRANCH   8  26
ATOM     26  O   UNL     1      -3.951   0.175  -3.988  1.00  0.00    -0.508 OA
ATOM     27  H   UNL     1      -3.589   0.154  -3.041  1.00  0.00     0.293 HD
ENDBRANCH   8  26
TORSDOF 6
ENDMDL
MODEL 4
REMARK VINA RESULT:    -5.454      1.653      3.599
REMARK INTER + INTRA:          -6.497
REMARK INTER:                  -6.547
REMARK INTRA:                   0.050
REMARK UNBOUND:                 0.073
REMARK SMILES O=c1c(O)c(-c2ccc(O)c(O)c2)oc2cc(O)cc(O)c12
REMARK SMILES IDX 5 1 3 2 2 3 1 4 22 5 20 6 19 7 17 8 16 9 15 10 14 11 6 12
REMARK SMILES IDX 7 13 8 14 9 15 13 16 11 17 10 18 12 20 4 22 21 24 18 26
REMARK H PARENT 10 19 12 21 4 23 21 25 18 27
REMARK Flexibility Score: inf
ROOT
ATOM      1  C   UNL     1       2.011   6.557  -6.023  1.00  0.00     0.180 A 
ATOM      2  C   UNL     1       1.840   7.738  -5.280  1.00  0.00     0.208 A 
ATOM      3  C   UNL     1       2.765   8.782  -5.439  1.00  0.00     0.238 A 
ATOM      4  O   UNL     1       2.637   9.816  -4.731  1.00  0.00    -0.285 OA
ATOM      5  C   UNL     1       3.840   8.639  -6.350  1.00  0.00     0.111 A 
ATOM      6  C   UNL     1       4.812   9.648  -6.620  1.00  0.00     0.134 A 
ATOM      7  C   UNL     1       5.906   9.350  -7.441  1.00  0.00     0.093 A 
ATOM      8  C   UNL     1       6.028   8.104  -8.054  1.00  0.00     0.123 A 
ATOM      9  C   UNL     1       5.052   7.130  -7.845  1.00  0.00     0.094 A 
ATOM     10  C   UNL     1       3.968   7.385  -7.001  1.00  0.00     0.146 A 
ATOM     11  O   UNL     1       3.065   6.428  -6.819  1.00  0.00    -0.452 OA
ENDROOT
BRANCH   1  12
ATOM     12  C   UNL     1       1.064   5.423  -5.928  1.00  0.00     0.025 A 
ATOM     13  C   UNL     1       0.712   4.921  -4.664  1.00  0.00     0.016 A 
ATOM     14  C   UNL     1      -0.163   3.839  -4.552  1.00  0.00     0.051 A 
ATOM     15  C   UNL     1      -0.687   3.230  -5.696  1.00  0.00     0.157 A 
ATOM     16  C   UNL     1       0.552   4.798  -7.078  1.00  0.00     0.062 A 
ATOM     17  C   UNL     1      -0.325   3.708  -6.967  1.00  0.00     0.158 A 
BRANCH  15  18
ATOM     18  O   UNL     1      -1.560   2.152  -5.554  1.00  0.00    -0.504 OA
ATOM     19  H   UNL     1      -1.528   1.348  -6.168  1.00  0.00     0.293 HD
ENDBRANCH  15  18
BRANCH  17  20
ATOM     20  O   UNL     1      -0.833   3.098  -8.114  1.00  0.00    -0.504 OA
ATOM     21  H   UNL     1      -1.626   2.469  -8.074  1.00  0.00     0.293 HD
ENDBRANCH  17  20
ENDBRANCH   1  12
BRANCH   2  22
ATOM     22  O   UNL     1       0.785   7.850  -4.370  1.00  0.00    -0.502 OA
ATOM     23  H   UNL     1      -0.184   7.889  -4.663  1.00  0.00     0.293 HD
ENDBRANCH   2  22
BRANCH   6  24
ATOM     24  O   UNL     1       4.736  10.956  -6.132  1.00  0.00    -0.507 OA
ATOM     25  H   UNL     1       4.489  11.204  -5.187  1.00  0.00     0.293 HD
ENDBRANCH   6  24
BRANCH   8  26
ATOM     26  O   UNL     1       7.122   7.847  -8.879  1.00  0.00    -0.508 OA
ATOM     27  H   UNL     1       7.991   7.482  -8.507  1.00  0.00     0.293 HD
ENDBRANCH   8  26
TORSDOF 6
ENDMDL
MODEL 5
REMARK VINA RESULT:    -5.393      2.925      5.567
REMARK INTER + INTRA:          -6.424
REMARK INTER:                  -6.140
REMARK INTRA:                  -0.284
REMARK UNBOUND:                 0.073
REMARK SMILES O=c1c(O)c(-c2ccc(O)c(O)c2)oc2cc(O)cc(O)c12
REMARK SMILES IDX 5 1 3 2 2 3 1 4 22 5 20 6 19 7 17 8 16 9 15 10 14 11 6 12
REMARK SMILES IDX 7 13 8 14 9 15 13 16 11 17 10 18 12 20 4 22 21 24 18 26
REMARK H PARENT 10 19 12 21 4 23 21 25 18 27
REMARK Flexibility Score: inf
ROOT
ATOM      1  C   UNL     1       2.511   9.007  -5.684  1.00  0.00     0.180 A 
ATOM      2  C   UNL     1       1.874   8.388  -4.594  1.00  0.00     0.208 A 
ATOM      3  C   UNL     1       0.782   9.030  -3.990  1.00  0.00     0.238 A 
ATOM      4  O   UNL     1       0.250   8.497  -2.980  1.00  0.00    -0.285 OA
ATOM      5  C   UNL     1       0.329  10.275  -4.491  1.00  0.00     0.111 A 
ATOM      6  C   UNL     1      -0.792  10.994  -3.982  1.00  0.00     0.134 A 
ATOM      7  C   UNL     1      -1.070  12.277  -4.469  1.00  0.00     0.093 A 
ATOM      8  C   UNL     1      -0.307  12.838  -5.493  1.00  0.00     0.123 A 
ATOM      9  C   UNL     1       0.755  12.119  -6.040  1.00  0.00     0.094 A 
ATOM     10  C   UNL     1       1.079  10.852  -5.549  1.00  0.00     0.146 A 
ATOM     11  O   UNL     1       2.105  10.204  -6.089  1.00  0.00    -0.452 OA
ENDROOT
BRANCH   1  12
ATOM     12  C   UNL     1       3.653   8.381  -6.389  1.00  0.00     0.025 A 
ATOM     13  C   UNL     1       4.945   8.899  -6.207  1.00  0.00     0.016 A 
ATOM     14  C   UNL     1       6.033   8.337  -6.878  1.00  0.00     0.051 A 
ATOM     15  C   UNL     1       5.848   7.262  -7.752  1.00  0.00     0.157 A 
ATOM     16  C   UNL     1       3.464   7.312  -7.283  1.00  0.00     0.062 A 
ATOM     17  C   UNL     1       4.557   6.748  -7.960  1.00  0.00     0.158 A 
BRANCH  15  18
ATOM     18  O   UNL     1       6.953   6.720  -8.406  1.00  0.00    -0.504 OA
ATOM     19  H   UNL     1       7.314   5.801  -8.183  1.00  0.00     0.293 HD
ENDBRANCH  15  18
BRANCH  17  20
ATOM     20  O   UNL     1       4.361   5.685  -8.840  1.00  0.00    -0.504 OA
ATOM     21  H   UNL     1       4.316   4.727  -8.514  1.00  0.00     0.293 HD
ENDBRANCH  17  20
ENDBRANCH   1  12
BRANCH   2  22
ATOM     22  O   UNL     1       2.351   7.170  -4.101  1.00  0.00    -0.502 OA
ATOM     23  H   UNL     1       1.900   6.287  -4.305  1.00  0.00     0.293 HD
ENDBRANCH   2  22
BRANCH   6  24
ATOM     24  O   UNL     1      -1.675  10.486  -3.023  1.00  0.00    -0.507 OA
ATOM     25  H   UNL     1      -2.677  10.603  -3.045  1.00  0.00     0.293 HD
ENDBRANCH   6  24
BRANCH   8  26
ATOM     26  O   UNL     1      -0.622  14.111  -5.965  1.00  0.00    -0.508 OA
ATOM     27  H   UNL     1      -1.456  14.599  -5.658  1.00  0.00     0.293 HD
ENDBRANCH   8  26
TORSDOF 6
ENDMDL
MODEL 6
REMARK VINA RESULT:    -5.305      2.468      4.687
REMARK INTER + INTRA:          -6.317
REMARK INTER:                  -6.773
REMARK INTRA:                   0.455
REMARK UNBOUND:                 0.073
REMARK SMILES O=c1c(O)c(-c2ccc(O)c(O)c2)oc2cc(O)cc(O)c12
REMARK SMILES IDX 5 1 3 2 2 3 1 4 22 5 20 6 19 7 17 8 16 9 15 10 14 11 6 12
REMARK SMILES IDX 7 13 8 14 9 15 13 16 11 17 10 18 12 20 4 22 21 24 18 26
REMARK H PARENT 10 19 12 21 4 23 21 25 18 27
REMARK Flexibility Score: inf
ROOT
ATOM      1  C   UNL     1       0.362   4.492  -5.900  1.00  0.00     0.180 A 
ATOM      2  C   UNL     1       0.380   4.849  -4.540  1.00  0.00     0.208 A 
ATOM      3  C   UNL     1       1.178   5.930  -4.131  1.00  0.00     0.238 A 
ATOM      4  O   UNL     1       1.233   6.211  -2.905  1.00  0.00    -0.285 OA
ATOM      5  C   UNL     1       1.936   6.649  -5.088  1.00  0.00     0.111 A 
ATOM      6  C   UNL     1       2.747   7.784  -4.791  1.00  0.00     0.134 A 
ATOM      7  C   UNL     1       3.554   8.337  -5.792  1.00  0.00     0.093 A 
ATOM      8  C   UNL     1       3.531   7.837  -7.094  1.00  0.00     0.123 A 
ATOM      9  C   UNL     1       2.696   6.765  -7.409  1.00  0.00     0.094 A 
ATOM     10  C   UNL     1       1.906   6.169  -6.423  1.00  0.00     0.146 A 
ATOM     11  O   UNL     1       1.134   5.143  -6.761  1.00  0.00    -0.452 OA
ENDROOT
BRANCH   1  12
ATOM     12  C   UNL     1      -0.473   3.381  -6.410  1.00  0.00     0.025 A 
ATOM     13  C   UNL     1      -0.392   3.022  -7.766  1.00  0.00     0.016 A 
ATOM     14  C   UNL     1      -1.186   1.991  -8.273  1.00  0.00     0.051 A 
ATOM     15  C   UNL     1      -2.083   1.313  -7.442  1.00  0.00     0.157 A 
ATOM     16  C   UNL     1      -1.390   2.712  -5.580  1.00  0.00     0.062 A 
ATOM     17  C   UNL     1      -2.190   1.678  -6.089  1.00  0.00     0.158 A 
BRANCH  15  18
ATOM     18  O   UNL     1      -2.861   0.287  -7.975  1.00  0.00    -0.504 OA
ATOM     19  H   UNL     1      -3.819   0.434  -8.267  1.00  0.00     0.293 HD
ENDBRANCH  15  18
BRANCH  17  20
ATOM     20  O   UNL     1      -3.092   1.017  -5.257  1.00  0.00    -0.504 OA
ATOM     21  H   UNL     1      -3.841   1.511  -4.786  1.00  0.00     0.293 HD
ENDBRANCH  17  20
ENDBRANCH   1  12
BRANCH   2  22
ATOM     22  O   UNL     1      -0.357   4.112  -3.609  1.00  0.00    -0.502 OA
ATOM     23  H   UNL     1       0.067   3.686  -2.794  1.00  0.00     0.293 HD
ENDBRANCH   2  22
BRANCH   6  24
ATOM     24  O   UNL     1       2.774   8.420  -3.546  1.00  0.00    -0.507 OA
ATOM     25  H   UNL     1       3.526   9.005  -3.215  1.00  0.00     0.293 HD
ENDBRANCH   6  24
BRANCH   8  26
ATOM     26  O   UNL     1       4.336   8.422  -8.070  1.00  0.00    -0.508 OA
ATOM     27  H   UNL     1       3.946   8.778  -8.935  1.00  0.00     0.293 HD
ENDBRANCH   8  26
TORSDOF 6
ENDMDL
MODEL 7
REMARK VINA RESULT:    -5.212      2.930      5.487
REMARK INTER + INTRA:          -6.206
REMARK INTER:                  -6.556
REMARK INTRA:                   0.351
REMARK UNBOUND:                 0.073
REMARK SMILES O=c1c(O)c(-c2ccc(O)c(O)c2)oc2cc(O)cc(O)c12
REMARK SMILES IDX 5 1 3 2 2 3 1 4 22 5 20 6 19 7 17 8 16 9 15 10 14 11 6 12
REMARK SMILES IDX 7 13 8 14 9 15 13 16 11 17 10 18 12 20 4 22 21 24 18 26
REMARK H PARENT 10 19 12 21 4 23 21 25 18 27
REMARK Flexibility Score: inf
ROOT
ATOM      1  C   UNL     1       2.939  10.081  -6.208  1.00  0.00     0.180 A 
ATOM      2  C   UNL     1       1.644   9.611  -5.927  1.00  0.00     0.208 A 
ATOM      3  C   UNL     1       0.678  10.515  -5.459  1.00  0.00     0.238 A 
ATOM      4  O   UNL     1      -0.464  10.078  -5.158  1.00  0.00    -0.285 OA
ATOM      5  C   UNL     1       1.012  11.881  -5.293  1.00  0.00     0.111 A 
ATOM      6  C   UNL     1       0.101  12.892  -4.865  1.00  0.00     0.134 A 
ATOM      7  C   UNL     1       0.573  14.185  -4.610  1.00  0.00     0.093 A 
ATOM      8  C   UNL     1       1.909  14.520  -4.832  1.00  0.00     0.123 A 
ATOM      9  C   UNL     1       2.795  13.555  -5.309  1.00  0.00     0.094 A 
ATOM     10  C   UNL     1       2.362  12.247  -5.537  1.00  0.00     0.146 A 
ATOM     11  O   UNL     1       3.239  11.354  -5.980  1.00  0.00    -0.452 OA
ENDROOT
BRANCH   1  12
ATOM     12  C   UNL     1       4.004   9.193  -6.727  1.00  0.00     0.025 A 
ATOM     13  C   UNL     1       5.346   9.597  -6.636  1.00  0.00     0.016 A 
ATOM     14  C   UNL     1       6.364   8.785  -7.138  1.00  0.00     0.051 A 
ATOM     15  C   UNL     1       6.060   7.566  -7.753  1.00  0.00     0.157 A 
ATOM     16  C   UNL     1       3.698   7.978  -7.363  1.00  0.00     0.062 A 
ATOM     17  C   UNL     1       4.720   7.161  -7.871  1.00  0.00     0.158 A 
BRANCH  15  18
ATOM     18  O   UNL     1       7.098   6.775  -8.243  1.00  0.00    -0.504 OA
ATOM     19  H   UNL     1       7.746   7.111  -8.945  1.00  0.00     0.293 HD
ENDBRANCH  15  18
BRANCH  17  20
ATOM     20  O   UNL     1       4.408   5.954  -8.495  1.00  0.00    -0.504 OA
ATOM     21  H   UNL     1       4.086   5.151  -7.968  1.00  0.00     0.293 HD
ENDBRANCH  17  20
ENDBRANCH   1  12
BRANCH   2  22
ATOM     22  O   UNL     1       1.341   8.254  -6.076  1.00  0.00    -0.502 OA
ATOM     23  H   UNL     1       1.150   7.836  -6.978  1.00  0.00     0.293 HD
ENDBRANCH   2  22
BRANCH   6  24
ATOM     24  O   UNL     1      -1.273  12.687  -4.701  1.00  0.00    -0.507 OA
ATOM     25  H   UNL     1      -1.683  11.915  -4.198  1.00  0.00     0.293 HD
ENDBRANCH   6  24
BRANCH   8  26
ATOM     26  O   UNL     1       2.342  15.821  -4.584  1.00  0.00    -0.508 OA
ATOM     27  H   UNL     1       2.899  16.048  -3.768  1.00  0.00     0.293 HD
ENDBRANCH   8  26
TORSDOF 6
ENDMDL
MODEL 8
REMARK VINA RESULT:    -4.985      2.517      7.444
REMARK INTER + INTRA:          -5.932
REMARK INTER:                  -5.602
REMARK INTRA:                  -0.330
REMARK UNBOUND:                 0.073
REMARK SMILES O=c1c(O)c(-c2ccc(O)c(O)c2)oc2cc(O)cc(O)c12
REMARK SMILES IDX 5 1 3 2 2 3 1 4 22 5 20 6 19 7 17 8 16 9 15 10 14 11 6 12
REMARK SMILES IDX 7 13 8 14 9 15 13 16 11 17 10 18 12 20 4 22 21 24 18 26
REMARK H PARENT 10 19 12 21 4 23 21 25 18 27
REMARK Flexibility Score: inf
ROOT
ATOM      1  C   UNL     1       1.374   5.906  -6.316  1.00  0.00     0.180 A 
ATOM      2  C   UNL     1       1.579   5.602  -7.673  1.00  0.00     0.208 A 
ATOM      3  C   UNL     1       0.886   4.521  -8.241  1.00  0.00     0.238 A 
ATOM      4  O   UNL     1       1.114   4.219  -9.442  1.00  0.00    -0.285 OA
ATOM      5  C   UNL     1      -0.014   3.767  -7.449  1.00  0.00     0.111 A 
ATOM      6  C   UNL     1      -0.799   2.676  -7.930  1.00  0.00     0.134 A 
ATOM      7  C   UNL     1      -1.558   1.920  -7.029  1.00  0.00     0.093 A 
ATOM      8  C   UNL     1      -1.612   2.255  -5.676  1.00  0.00     0.123 A 
ATOM      9  C   UNL     1      -0.896   3.355  -5.205  1.00  0.00     0.094 A 
ATOM     10  C   UNL     1      -0.101   4.107  -6.074  1.00  0.00     0.146 A 
ATOM     11  O   UNL     1       0.574   5.140  -5.584  1.00  0.00    -0.452 OA
ENDROOT
BRANCH   1  12
ATOM     12  C   UNL     1       2.049   7.045  -5.654  1.00  0.00     0.025 A 
ATOM     13  C   UNL     1       3.220   6.818  -4.912  1.00  0.00     0.016 A 
ATOM     14  C   UNL     1       3.861   7.875  -4.262  1.00  0.00     0.051 A 
ATOM     15  C   UNL     1       3.337   9.170  -4.328  1.00  0.00     0.157 A 
ATOM     16  C   UNL     1       1.512   8.344  -5.703  1.00  0.00     0.062 A 
ATOM     17  C   UNL     1       2.154   9.406  -5.048  1.00  0.00     0.158 A 
BRANCH  15  18
ATOM     18  O   UNL     1       4.000  10.205  -3.671  1.00  0.00    -0.504 OA
ATOM     19  H   UNL     1       4.303  10.125  -2.708  1.00  0.00     0.293 HD
ENDBRANCH  15  18
BRANCH  17  20
ATOM     20  O   UNL     1       1.617  10.692  -5.107  1.00  0.00    -0.504 OA
ATOM     21  H   UNL     1       0.794  10.899  -5.660  1.00  0.00     0.293 HD
ENDBRANCH  17  20
ENDBRANCH   1  12
BRANCH   2  22
ATOM     22  O   UNL     1       2.489   6.345  -8.431  1.00  0.00    -0.502 OA
ATOM     23  H   UNL     1       2.238   7.218  -8.879  1.00  0.00     0.293 HD
ENDBRANCH   2  22
BRANCH   6  24
ATOM     24  O   UNL     1      -0.889   2.315  -9.278  1.00  0.00    -0.507 OA
ATOM     25  H   UNL     1      -1.544   2.708  -9.937  1.00  0.00     0.293 HD
ENDBRANCH   6  24
BRANCH   8  26
ATOM     26  O   UNL     1      -2.390   1.489  -4.809  1.00  0.00    -0.508 OA
ATOM     27  H   UNL     1      -3.015   1.920  -4.138  1.00  0.00     0.293 HD
ENDBRANCH   8  26
TORSDOF 6
ENDMDL
MODEL 9
REMARK VINA RESULT:    -4.711      2.688      5.813
REMARK INTER + INTRA:          -5.602
REMARK INTER:                  -5.359
REMARK INTRA:                  -0.242
REMARK UNBOUND:                 0.073
REMARK SMILES O=c1c(O)c(-c2ccc(O)c(O)c2)oc2cc(O)cc(O)c12
REMARK SMILES IDX 5 1 3 2 2 3 1 4 22 5 20 6 19 7 17 8 16 9 15 10 14 11 6 12
REMARK SMILES IDX 7 13 8 14 9 15 13 16 11 17 10 18 12 20 4 22 21 24 18 26
REMARK H PARENT 10 19 12 21 4 23 21 25 18 27
REMARK Flexibility Score: inf
ROOT
ATOM      1  C   UNL     1       2.432  10.144  -5.418  1.00  0.00     0.180 A 
ATOM      2  C   UNL     1       3.632  10.848  -5.213  1.00  0.00     0.208 A 
ATOM      3  C   UNL     1       4.805  10.387  -5.831  1.00  0.00     0.238 A 
ATOM      4  O   UNL     1       5.887  10.990  -5.601  1.00  0.00    -0.285 OA
ATOM      5  C   UNL     1       4.763   9.238  -6.658  1.00  0.00     0.111 A 
ATOM      6  C   UNL     1       5.882   8.706  -7.365  1.00  0.00     0.134 A 
ATOM      7  C   UNL     1       5.754   7.491  -8.048  1.00  0.00     0.093 A 
ATOM      8  C   UNL     1       4.531   6.823  -8.104  1.00  0.00     0.123 A 
ATOM      9  C   UNL     1       3.415   7.364  -7.467  1.00  0.00     0.094 A 
ATOM     10  C   UNL     1       3.521   8.557  -6.747  1.00  0.00     0.146 A 
ATOM     11  O   UNL     1       2.438   9.034  -6.145  1.00  0.00    -0.452 OA
ENDROOT
BRANCH   1  12
ATOM     12  C   UNL     1       1.151  10.583  -4.820  1.00  0.00     0.025 A 
ATOM     13  C   UNL     1       0.544   9.794  -3.830  1.00  0.00     0.016 A 
ATOM     14  C   UNL     1      -0.675  10.178  -3.268  1.00  0.00     0.051 A 
ATOM     15  C   UNL     1      -1.316  11.344  -3.696  1.00  0.00     0.157 A 
ATOM     16  C   UNL     1       0.496  11.745  -5.264  1.00  0.00     0.062 A 
ATOM     17  C   UNL     1      -0.731  12.131  -4.702  1.00  0.00     0.158 A 
BRANCH  15  18
ATOM     18  O   UNL     1      -2.532  11.704  -3.115  1.00  0.00    -0.504 OA
ATOM     19  H   UNL     1      -2.583  12.296  -2.296  1.00  0.00     0.293 HD
ENDBRANCH  15  18
BRANCH  17  20
ATOM     20  O   UNL     1      -1.370  13.289  -5.144  1.00  0.00    -0.504 OA
ATOM     21  H   UNL     1      -1.906  13.304  -6.004  1.00  0.00     0.293 HD
ENDBRANCH  17  20
ENDBRANCH   1  12
BRANCH   2  22
ATOM     22  O   UNL     1       3.657  11.967  -4.376  1.00  0.00    -0.502 OA
ATOM     23  H   UNL     1       2.882  12.211  -3.771  1.00  0.00     0.293 HD
ENDBRANCH   2  22
BRANCH   6  24
ATOM     24  O   UNL     1       7.125   9.342  -7.450  1.00  0.00    -0.507 OA
ATOM     25  H   UNL     1       7.933   9.102  -6.896  1.00  0.00     0.293 HD
ENDBRANCH   6  24
BRANCH   8  26
ATOM     26  O   UNL     1       4.436   5.623  -8.807  1.00  0.00    -0.508 OA
ATOM     27  H   UNL     1       3.662   4.985  -8.663  1.00  0.00     0.293 HD
ENDBRANCH   8  26
TORSDOF 6
ENDMDL
