MODEL 1
REMARK VINA RESULT:    -7.070      0.000      0.000
REMARK INTER + INTRA:          -7.483
REMARK INTER:                  -7.483
REMARK INTRA:                   0.000
REMARK UNBOUND:                 0.000
REMARK SMILES O=c1ccc2cc(O)c(O)cc2o1
REMARK SMILES IDX 4 1 3 2 2 3 1 4 13 5 12 6 11 7 9 8 7 9 6 10 5 11 8 12 10 14
REMARK H PARENT 8 13 10 15
REMARK Flexibility Score: inf
ROOT
ATOM      1  C   UNL     1       9.442  67.260  -0.353  1.00  0.00     0.019 A 
ATOM      2  C   UNL     1       9.382  66.884   0.989  1.00  0.00     0.094 A 
ATOM      3  C   UNL     1       9.499  67.870   1.975  1.00  0.00     0.336 A 
ATOM      4  O   UNL     1       9.447  67.550   3.192  1.00  0.00    -0.246 OA
ATOM      5  O   UNL     1       9.665  69.146   1.636  1.00  0.00    -0.423 OA
ATOM      6  C   UNL     1       9.727  69.548   0.369  1.00  0.00     0.142 A 
ATOM      7  C   UNL     1       9.903  70.902   0.072  1.00  0.00     0.098 A 
ATOM      8  C   UNL     1       9.968  71.331  -1.262  1.00  0.00     0.161 A 
ATOM      9  C   UNL     1       9.859  70.399  -2.304  1.00  0.00     0.158 A 
ATOM     10  C   UNL     1       9.683  69.038  -2.013  1.00  0.00     0.062 A 
ATOM     11  C   UNL     1       9.617  68.609  -0.681  1.00  0.00     0.022 A 
ENDROOT
BRANCH   9  12
ATOM     12  O   UNL     1       9.926  70.834  -3.626  1.00  0.00    -0.504 OA
ATOM     13  H   UNL     1       9.682  70.224  -4.398  1.00  0.00     0.293 HD
ENDBRANCH   9  12
BRANCH   8  14
ATOM     14  O   UNL     1      10.144  72.682  -1.559  1.00  0.00    -0.504 OA
ATOM     15  H   UNL     1      10.498  72.986  -2.458  1.00  0.00     0.293 HD
ENDBRANCH   8  14
TORSDOF 2
ENDMDL
MODEL 2
REMARK VINA RESULT:    -7.064      2.062      3.737
REMARK INTER + INTRA:          -7.477
REMARK INTER:                  -7.477
REMARK INTRA:                   0.000
REMARK UNBOUND:                 0.000
REMARK SMILES O=c1ccc2cc(O)c(O)cc2o1
REMARK SMILES IDX 4 1 3 2 2 3 1 4 13 5 12 6 11 7 9 8 7 9 6 10 5 11 8 12 10 14
REMARK H PARENT 8 13 10 15
REMARK Flexibility Score: inf
ROOT
ATOM      1  C   UNL     1       9.104  67.463   0.855  1.00  0.00     0.019 A 
ATOM      2  C   UNL     1       9.066  66.998  -0.459  1.00  0.00     0.094 A 
ATOM      3  C   UNL     1       9.358  67.885  -1.501  1.00  0.00     0.336 A 
ATOM      4  O   UNL     1       9.330  67.483  -2.694  1.00  0.00    -0.246 OA
ATOM      5  O   UNL     1       9.666  69.153  -1.240  1.00  0.00    -0.423 OA
ATOM      6  C   UNL     1       9.713  69.638  -0.002  1.00  0.00     0.142 A 
ATOM      7  C   UNL     1      10.043  70.979   0.212  1.00  0.00     0.098 A 
ATOM      8  C   UNL     1      10.095  71.495   1.515  1.00  0.00     0.161 A 
ATOM      9  C   UNL     1       9.814  70.664   2.610  1.00  0.00     0.158 A 
ATOM     10  C   UNL     1       9.482  69.317   2.402  1.00  0.00     0.062 A 
ATOM     11  C   UNL     1       9.431  68.801   1.100  1.00  0.00     0.022 A 
ENDROOT
BRANCH   9  12
ATOM     12  O   UNL     1       9.867  71.185   3.901  1.00  0.00    -0.504 OA
ATOM     13  H   UNL     1      10.128  72.149   4.073  1.00  0.00     0.293 HD
ENDBRANCH   9  12
BRANCH   8  14
ATOM     14  O   UNL     1      10.423  72.833   1.730  1.00  0.00    -0.504 OA
ATOM     15  H   UNL     1      10.965  73.361   1.057  1.00  0.00     0.293 HD
ENDBRANCH   8  14
TORSDOF 2
ENDMDL
MODEL 3
REMARK VINA RESULT:    -6.960      1.636      2.341
REMARK INTER + INTRA:          -7.367
REMARK INTER:                  -7.367
REMARK INTRA:                   0.000
REMARK UNBOUND:                 0.000
REMARK SMILES O=c1ccc2cc(O)c(O)cc2o1
REMARK SMILES IDX 4 1 3 2 2 3 1 4 13 5 12 6 11 7 9 8 7 9 6 10 5 11 8 12 10 14
REMARK H PARENT 8 13 10 15
REMARK Flexibility Score: inf
ROOT
ATOM      1  C   UNL     1       9.551  67.855   1.893  1.00  0.00     0.019 A 
ATOM      2  C   UNL     1       9.630  68.708   2.994  1.00  0.00     0.094 A 
ATOM      3  C   UNL     1       9.670  70.090   2.780  1.00  0.00     0.336 A 
ATOM      4  O   UNL     1       9.741  70.876   3.762  1.00  0.00    -0.246 OA
ATOM      5  O   UNL     1       9.636  70.582   1.544  1.00  0.00    -0.423 OA
ATOM      6  C   UNL     1       9.561  69.805   0.467  1.00  0.00     0.142 A 
ATOM      7  C   UNL     1       9.528  70.377  -0.808  1.00  0.00     0.098 A 
ATOM      8  C   UNL     1       9.449  69.563  -1.948  1.00  0.00     0.161 A 
ATOM      9  C   UNL     1       9.404  68.168  -1.810  1.00  0.00     0.158 A 
ATOM     10  C   UNL     1       9.438  67.586  -0.534  1.00  0.00     0.062 A 
ATOM     11  C   UNL     1       9.516  68.400   0.605  1.00  0.00     0.022 A 
ENDROOT
BRANCH   9  12
ATOM     12  O   UNL     1       9.327  67.366  -2.947  1.00  0.00    -0.504 OA
ATOM     13  H   UNL     1       9.534  67.732  -3.869  1.00  0.00     0.293 HD
ENDBRANCH   9  12
BRANCH   8  14
ATOM     14  O   UNL     1       9.416  70.132  -3.219  1.00  0.00    -0.504 OA
ATOM     15  H   UNL     1       8.749  70.856  -3.460  1.00  0.00     0.293 HD
ENDBRANCH   8  14
TORSDOF 2
ENDMDL
MODEL 4
REMARK VINA RESULT:    -6.956      1.217      4.404
REMARK INTER + INTRA:          -7.362
REMARK INTER:                  -7.362
REMARK INTRA:                   0.000
REMARK UNBOUND:                 0.000
REMARK SMILES O=c1ccc2cc(O)c(O)cc2o1
REMARK SMILES IDX 4 1 3 2 2 3 1 4 13 5 12 6 11 7 9 8 7 9 6 10 5 11 8 12 10 14
REMARK H PARENT 8 13 10 15
REMARK Flexibility Score: inf
ROOT
ATOM      1  C   UNL     1       9.385  67.690  -1.440  1.00  0.00     0.019 A 
ATOM      2  C   UNL     1       9.527  68.458  -2.596  1.00  0.00     0.094 A 
ATOM      3  C   UNL     1       9.856  69.812  -2.474  1.00  0.00     0.336 A 
ATOM      4  O   UNL     1       9.989  70.521  -3.506  1.00  0.00    -0.246 OA
ATOM      5  O   UNL     1      10.030  70.358  -1.273  1.00  0.00    -0.423 OA
ATOM      6  C   UNL     1       9.905  69.663  -0.146  1.00  0.00     0.142 A 
ATOM      7  C   UNL     1      10.099  70.289   1.088  1.00  0.00     0.098 A 
ATOM      8  C   UNL     1       9.969  69.560   2.280  1.00  0.00     0.161 A 
ATOM      9  C   UNL     1       9.641  68.197   2.235  1.00  0.00     0.158 A 
ATOM     10  C   UNL     1       9.443  67.562   1.000  1.00  0.00     0.062 A 
ATOM     11  C   UNL     1       9.574  68.290  -0.190  1.00  0.00     0.022 A 
ENDROOT
BRANCH   9  12
ATOM     12  O   UNL     1       9.512  67.481   3.424  1.00  0.00    -0.504 OA
ATOM     13  H   UNL     1       8.646  67.479   3.950  1.00  0.00     0.293 HD
ENDBRANCH   9  12
BRANCH   8  14
ATOM     14  O   UNL     1      10.162  70.184   3.511  1.00  0.00    -0.504 OA
ATOM     15  H   UNL     1      10.090  69.672   4.383  1.00  0.00     0.293 HD
ENDBRANCH   8  14
TORSDOF 2
ENDMDL
MODEL 5
REMARK VINA RESULT:    -6.953      1.063      2.363
REMARK INTER + INTRA:          -7.360
REMARK INTER:                  -7.360
REMARK INTRA:                   0.000
REMARK UNBOUND:                 0.000
REMARK SMILES O=c1ccc2cc(O)c(O)cc2o1
REMARK SMILES IDX 4 1 3 2 2 3 1 4 13 5 12 6 11 7 9 8 7 9 6 10 5 11 8 12 10 14
REMARK H PARENT 8 13 10 15
REMARK Flexibility Score: inf
ROOT
ATOM      1  C   UNL     1       9.888  70.266   2.446  1.00  0.00     0.019 A 
ATOM      2  C   UNL     1       9.642  68.994   2.963  1.00  0.00     0.094 A 
ATOM      3  C   UNL     1       9.372  67.944   2.079  1.00  0.00     0.336 A 
ATOM      4  O   UNL     1       9.147  66.788   2.527  1.00  0.00    -0.246 OA
ATOM      5  O   UNL     1       9.349  68.157   0.766  1.00  0.00    -0.423 OA
ATOM      6  C   UNL     1       9.579  69.353   0.231  1.00  0.00     0.142 A 
ATOM      7  C   UNL     1       9.542  69.518  -1.156  1.00  0.00     0.098 A 
ATOM      8  C   UNL     1       9.784  70.778  -1.725  1.00  0.00     0.161 A 
ATOM      9  C   UNL     1      10.062  71.877  -0.901  1.00  0.00     0.158 A 
ATOM     10  C   UNL     1      10.099  71.719   0.492  1.00  0.00     0.062 A 
ATOM     11  C   UNL     1       9.859  70.461   1.061  1.00  0.00     0.022 A 
ENDROOT
BRANCH   9  12
ATOM     12  O   UNL     1      10.299  73.125  -1.474  1.00  0.00    -0.504 OA
ATOM     13  H   UNL     1       9.540  73.715  -1.793  1.00  0.00     0.293 HD
ENDBRANCH   9  12
BRANCH   8  14
ATOM     14  O   UNL     1       9.748  70.943  -3.109  1.00  0.00    -0.504 OA
ATOM     15  H   UNL     1       8.891  71.185  -3.592  1.00  0.00     0.293 HD
ENDBRANCH   8  14
TORSDOF 2
ENDMDL
MODEL 6
REMARK VINA RESULT:    -6.905      2.177      3.668
REMARK INTER + INTRA:          -7.308
REMARK INTER:                  -7.308
REMARK INTRA:                   0.000
REMARK UNBOUND:                 0.000
REMARK SMILES O=c1ccc2cc(O)c(O)cc2o1
REMARK SMILES IDX 4 1 3 2 2 3 1 4 13 5 12 6 11 7 9 8 7 9 6 10 5 11 8 12 10 14
REMARK H PARENT 8 13 10 15
REMARK Flexibility Score: inf
ROOT
ATOM      1  C   UNL     1       9.799  69.972  -1.899  1.00  0.00     0.019 A 
ATOM      2  C   UNL     1       9.696  68.645  -2.318  1.00  0.00     0.094 A 
ATOM      3  C   UNL     1       9.659  67.632  -1.355  1.00  0.00     0.336 A 
ATOM      4  O   UNL     1       9.566  66.428  -1.713  1.00  0.00    -0.246 OA
ATOM      5  O   UNL     1       9.723  67.929  -0.059  1.00  0.00    -0.423 OA
ATOM      6  C   UNL     1       9.822  69.180   0.383  1.00  0.00     0.142 A 
ATOM      7  C   UNL     1       9.886  69.434   1.756  1.00  0.00     0.098 A 
ATOM      8  C   UNL     1       9.989  70.751   2.228  1.00  0.00     0.161 A 
ATOM      9  C   UNL     1      10.031  71.819   1.320  1.00  0.00     0.158 A 
ATOM     10  C   UNL     1       9.968  71.572  -0.059  1.00  0.00     0.062 A 
ATOM     11  C   UNL     1       9.864  70.256  -0.531  1.00  0.00     0.022 A 
ENDROOT
BRANCH   9  12
ATOM     12  O   UNL     1      10.135  73.124   1.798  1.00  0.00    -0.504 OA
ATOM     13  H   UNL     1       9.344  73.600   2.217  1.00  0.00     0.293 HD
ENDBRANCH   9  12
BRANCH   8  14
ATOM     14  O   UNL     1      10.053  71.005   3.597  1.00  0.00    -0.504 OA
ATOM     15  H   UNL     1       9.305  70.731   4.223  1.00  0.00     0.293 HD
ENDBRANCH   8  14
TORSDOF 2
ENDMDL
MODEL 7
REMARK VINA RESULT:    -6.483      1.599      3.051
REMARK INTER + INTRA:          -6.862
REMARK INTER:                  -6.862
REMARK INTRA:                   0.000
REMARK UNBOUND:                 0.000
REMARK SMILES O=c1ccc2cc(O)c(O)cc2o1
REMARK SMILES IDX 4 1 3 2 2 3 1 4 13 5 12 6 11 7 9 8 7 9 6 10 5 11 8 12 10 14
REMARK H PARENT 8 13 10 15
REMARK Flexibility Score: inf
ROOT
ATOM      1  C   UNL     1      10.118  72.164   0.713  1.00  0.00     0.019 A 
ATOM      2  C   UNL     1      10.051  71.961   2.091  1.00  0.00     0.094 A 
ATOM      3  C   UNL     1       9.718  70.691   2.574  1.00  0.00     0.336 A 
ATOM      4  O   UNL     1       9.653  70.488   3.815  1.00  0.00    -0.246 OA
ATOM      5  O   UNL     1       9.467  69.693   1.730  1.00  0.00    -0.423 OA
ATOM      6  C   UNL     1       9.520  69.844   0.409  1.00  0.00     0.142 A 
ATOM      7  C   UNL     1       9.247  68.759  -0.431  1.00  0.00     0.098 A 
ATOM      8  C   UNL     1       9.301  68.912  -1.824  1.00  0.00     0.161 A 
ATOM      9  C   UNL     1       9.629  70.158  -2.380  1.00  0.00     0.158 A 
ATOM     10  C   UNL     1       9.903  71.250  -1.544  1.00  0.00     0.062 A 
ATOM     11  C   UNL     1       9.850  71.097  -0.152  1.00  0.00     0.022 A 
ENDROOT
BRANCH   9  12
ATOM     12  O   UNL     1       9.679  70.301  -3.765  1.00  0.00    -0.504 OA
ATOM     13  H   UNL     1      10.161  71.079  -4.200  1.00  0.00     0.293 HD
ENDBRANCH   9  12
BRANCH   8  14
ATOM     14  O   UNL     1       9.029  67.832  -2.662  1.00  0.00    -0.504 OA
ATOM     15  H   UNL     1       8.091  67.462  -2.763  1.00  0.00     0.293 HD
ENDBRANCH   8  14
TORSDOF 2
ENDMDL
MODEL 8
REMARK VINA RESULT:    -6.466      1.392      4.530
REMARK INTER + INTRA:          -6.844
REMARK INTER:                  -6.844
REMARK INTRA:                   0.000
REMARK UNBOUND:                 0.000
REMARK SMILES O=c1ccc2cc(O)c(O)cc2o1
REMARK SMILES IDX 4 1 3 2 2 3 1 4 13 5 12 6 11 7 9 8 7 9 6 10 5 11 8 12 10 14
REMARK H PARENT 8 13 10 15
REMARK Flexibility Score: inf
ROOT
ATOM      1  C   UNL     1       9.382  69.863  -1.707  1.00  0.00     0.019 A 
ATOM      2  C   UNL     1       9.772  71.195  -1.840  1.00  0.00     0.094 A 
ATOM      3  C   UNL     1      10.179  71.900  -0.703  1.00  0.00     0.336 A 
ATOM      4  O   UNL     1      10.534  73.104  -0.804  1.00  0.00    -0.246 OA
ATOM      5  O   UNL     1      10.193  71.307   0.488  1.00  0.00    -0.423 OA
ATOM      6  C   UNL     1       9.829  70.039   0.661  1.00  0.00     0.142 A 
ATOM      7  C   UNL     1       9.864  69.468   1.936  1.00  0.00     0.098 A 
ATOM      8  C   UNL     1       9.482  68.131   2.124  1.00  0.00     0.161 A 
ATOM      9  C   UNL     1       9.063  67.363   1.028  1.00  0.00     0.158 A 
ATOM     10  C   UNL     1       9.025  67.929  -0.254  1.00  0.00     0.062 A 
ATOM     11  C   UNL     1       9.407  69.264  -0.442  1.00  0.00     0.022 A 
ENDROOT
BRANCH   9  12
ATOM     12  O   UNL     1       8.684  66.036   1.223  1.00  0.00    -0.504 OA
ATOM     13  H   UNL     1       8.778  65.344   0.489  1.00  0.00     0.293 HD
ENDBRANCH   9  12
BRANCH   8  14
ATOM     14  O   UNL     1       9.516  67.562   3.395  1.00  0.00    -0.504 OA
ATOM     15  H   UNL     1       9.979  68.021   4.171  1.00  0.00     0.293 HD
ENDBRANCH   8  14
TORSDOF 2
ENDMDL
MODEL 9
REMARK VINA RESULT:    -6.322      1.157      5.033
REMARK INTER + INTRA:          -6.692
REMARK INTER:                  -6.692
REMARK INTRA:                   0.000
REMARK UNBOUND:                 0.000
REMARK SMILES O=c1ccc2cc(O)c(O)cc2o1
REMARK SMILES IDX 4 1 3 2 2 3 1 4 13 5 12 6 11 7 9 8 7 9 6 10 5 11 8 12 10 14
REMARK H PARENT 8 13 10 15
REMARK Flexibility Score: inf
ROOT
ATOM      1  C   UNL     1      10.155  71.047  -0.251  1.00  0.00     0.019 A 
ATOM      2  C   UNL     1      10.174  71.307  -1.621  1.00  0.00     0.094 A 
ATOM      3  C   UNL     1       9.821  70.286  -2.509  1.00  0.00     0.336 A 
ATOM      4  O   UNL     1       9.831  70.502  -3.750  1.00  0.00    -0.246 OA
ATOM      5  O   UNL     1       9.473  69.085  -2.053  1.00  0.00    -0.423 OA
ATOM      6  C   UNL     1       9.442  68.795  -0.755  1.00  0.00     0.142 A 
ATOM      7  C   UNL     1       9.069  67.516  -0.333  1.00  0.00     0.098 A 
ATOM      8  C   UNL     1       9.034  67.204   1.035  1.00  0.00     0.161 A 
ATOM      9  C   UNL     1       9.376  68.179   1.984  1.00  0.00     0.158 A 
ATOM     10  C   UNL     1       9.751  69.464   1.568  1.00  0.00     0.062 A 
ATOM     11  C   UNL     1       9.786  69.776   0.202  1.00  0.00     0.022 A 
ENDROOT
BRANCH   9  12
ATOM     12  O   UNL     1       9.339  67.861   3.340  1.00  0.00    -0.504 OA
ATOM     13  H   UNL     1       9.818  67.046   3.707  1.00  0.00     0.293 HD
ENDBRANCH   9  12
BRANCH   8  14
ATOM     14  O   UNL     1       8.663  65.929   1.457  1.00  0.00    -0.504 OA
ATOM     15  H   UNL     1       8.199  65.278   0.835  1.00  0.00     0.293 HD
ENDBRANCH   8  14
TORSDOF 2
ENDMDL
