MODEL 1
REMARK VINA RESULT:    -6.306      0.000      0.000
REMARK INTER + INTRA:          -7.704
REMARK INTER:                  -7.412
REMARK INTRA:                  -0.292
REMARK UNBOUND:                -0.292
REMARK SMILES O=c1cc(-c2ccc(O)c(O)c2)oc2cc(O)cc(O)c12
REMARK SMILES IDX 4 1 3 2 2 3 1 4 21 5 19 6 18 7 16 8 15 9 14 10 13 11 5 12
REMARK SMILES IDX 6 13 7 14 8 15 12 16 10 17 9 18 11 20 20 22 17 24
REMARK H PARENT 9 19 11 21 20 23 17 25
REMARK Flexibility Score: inf
ROOT
ATOM      1  C   UNL     1     -17.048  -1.553 -16.663  1.00  0.00     0.138 A 
ATOM      2  C   UNL     1     -16.146  -1.991 -17.642  1.00  0.00     0.100 A 
ATOM      3  C   UNL     1     -16.017  -3.356 -17.903  1.00  0.00     0.197 A 
ATOM      4  O   UNL     1     -15.156  -3.722 -18.743  1.00  0.00    -0.289 OA
ATOM      5  C   UNL     1     -16.821  -4.284 -17.198  1.00  0.00     0.107 A 
ATOM      6  C   UNL     1     -16.806  -5.695 -17.409  1.00  0.00     0.134 A 
ATOM      7  C   UNL     1     -17.562  -6.526 -16.571  1.00  0.00     0.093 A 
ATOM      8  C   UNL     1     -18.377  -5.994 -15.573  1.00  0.00     0.123 A 
ATOM      9  C   UNL     1     -18.440  -4.612 -15.394  1.00  0.00     0.094 A 
ATOM     10  C   UNL     1     -17.672  -3.759 -16.190  1.00  0.00     0.146 A 
ATOM     11  O   UNL     1     -17.750  -2.449 -15.978  1.00  0.00    -0.456 OA
ENDROOT
BRANCH   1  12
ATOM     12  C   UNL     1     -17.224  -0.113 -16.347  1.00  0.00     0.021 A 
ATOM     13  C   UNL     1     -17.846   0.313 -15.158  1.00  0.00     0.016 A 
ATOM     14  C   UNL     1     -17.988   1.674 -14.880  1.00  0.00     0.051 A 
ATOM     15  C   UNL     1     -17.506   2.634 -15.779  1.00  0.00     0.157 A 
ATOM     16  C   UNL     1     -16.729   0.857 -17.237  1.00  0.00     0.062 A 
ATOM     17  C   UNL     1     -16.872   2.222 -16.962  1.00  0.00     0.158 A 
BRANCH  15  18
ATOM     18  O   UNL     1     -17.651   3.993 -15.500  1.00  0.00    -0.504 OA
ATOM     19  H   UNL     1     -16.995   4.679 -15.852  1.00  0.00     0.293 HD
ENDBRANCH  15  18
BRANCH  17  20
ATOM     20  O   UNL     1     -16.377   3.152 -17.876  1.00  0.00    -0.504 OA
ATOM     21  H   UNL     1     -15.723   2.895 -18.606  1.00  0.00     0.293 HD
ENDBRANCH  17  20
ENDBRANCH   1  12
BRANCH   6  22
ATOM     22  O   UNL     1     -16.092  -6.325 -18.433  1.00  0.00    -0.507 OA
ATOM     23  H   UNL     1     -15.097  -6.487 -18.428  1.00  0.00     0.293 HD
ENDBRANCH   6  22
BRANCH   8  24
ATOM     24  O   UNL     1     -19.125  -6.849 -14.767  1.00  0.00    -0.508 OA
ATOM     25  H   UNL     1     -19.133  -6.756 -13.759  1.00  0.00     0.293 HD
ENDBRANCH   8  24
TORSDOF 5
ENDMDL
MODEL 2
REMARK VINA RESULT:    -5.903      4.638      6.678
REMARK INTER + INTRA:          -7.230
REMARK INTER:                  -6.946
REMARK INTRA:                  -0.285
REMARK UNBOUND:                -0.292
REMARK SMILES O=c1cc(-c2ccc(O)c(O)c2)oc2cc(O)cc(O)c12
REMARK SMILES IDX 4 1 3 2 2 3 1 4 21 5 19 6 18 7 16 8 15 9 14 10 13 11 5 12
REMARK SMILES IDX 6 13 7 14 8 15 12 16 10 17 9 18 11 20 20 22 17 24
REMARK H PARENT 9 19 11 21 20 23 17 25
REMARK Flexibility Score: inf
ROOT
ATOM      1  C   UNL     1     -12.514  -2.644 -18.763  1.00  0.00     0.138 A 
ATOM      2  C   UNL     1     -12.572  -3.901 -18.146  1.00  0.00     0.100 A 
ATOM      3  C   UNL     1     -13.731  -4.285 -17.470  1.00  0.00     0.197 A 
ATOM      4  O   UNL     1     -13.732  -5.393 -16.875  1.00  0.00    -0.289 OA
ATOM      5  C   UNL     1     -14.848  -3.415 -17.439  1.00  0.00     0.107 A 
ATOM      6  C   UNL     1     -16.095  -3.716 -16.816  1.00  0.00     0.134 A 
ATOM      7  C   UNL     1     -17.089  -2.732 -16.748  1.00  0.00     0.093 A 
ATOM      8  C   UNL     1     -16.904  -1.480 -17.334  1.00  0.00     0.123 A 
ATOM      9  C   UNL     1     -15.708  -1.193 -17.992  1.00  0.00     0.094 A 
ATOM     10  C   UNL     1     -14.684  -2.142 -18.047  1.00  0.00     0.146 A 
ATOM     11  O   UNL     1     -13.556  -1.825 -18.672  1.00  0.00    -0.456 OA
ENDROOT
BRANCH   1  12
ATOM     12  C   UNL     1     -11.306  -2.186 -19.496  1.00  0.00     0.021 A 
ATOM     13  C   UNL     1     -10.746  -2.941 -20.545  1.00  0.00     0.016 A 
ATOM     14  C   UNL     1      -9.616  -2.481 -21.224  1.00  0.00     0.051 A 
ATOM     15  C   UNL     1      -9.029  -1.258 -20.876  1.00  0.00     0.157 A 
ATOM     16  C   UNL     1     -10.719  -0.952 -19.162  1.00  0.00     0.062 A 
ATOM     17  C   UNL     1      -9.585  -0.490 -19.840  1.00  0.00     0.158 A 
BRANCH  15  18
ATOM     18  O   UNL     1      -7.899  -0.803 -21.555  1.00  0.00    -0.504 OA
ATOM     19  H   UNL     1      -7.766  -0.984 -22.543  1.00  0.00     0.293 HD
ENDBRANCH  15  18
BRANCH  17  20
ATOM     20  O   UNL     1      -9.028   0.734 -19.471  1.00  0.00    -0.504 OA
ATOM     21  H   UNL     1      -9.434   1.314 -18.746  1.00  0.00     0.293 HD
ENDBRANCH  17  20
ENDBRANCH   1  12
BRANCH   6  22
ATOM     22  O   UNL     1     -16.416  -4.965 -16.273  1.00  0.00    -0.507 OA
ATOM     23  H   UNL     1     -15.762  -5.580 -15.814  1.00  0.00     0.293 HD
ENDBRANCH   6  22
BRANCH   8  24
ATOM     24  O   UNL     1     -17.919  -0.529 -17.259  1.00  0.00    -0.508 OA
ATOM     25  H   UNL     1     -17.753   0.397 -16.884  1.00  0.00     0.293 HD
ENDBRANCH   8  24
TORSDOF 5
ENDMDL
MODEL 3
REMARK VINA RESULT:    -5.854      3.929      6.390
REMARK INTER + INTRA:          -7.173
REMARK INTER:                  -6.887
REMARK INTRA:                  -0.285
REMARK UNBOUND:                -0.292
REMARK SMILES O=c1cc(-c2ccc(O)c(O)c2)oc2cc(O)cc(O)c12
REMARK SMILES IDX 4 1 3 2 2 3 1 4 21 5 19 6 18 7 16 8 15 9 14 10 13 11 5 12
REMARK SMILES IDX 6 13 7 14 8 15 12 16 10 17 9 18 11 20 20 22 17 24
REMARK H PARENT 9 19 11 21 20 23 17 25
REMARK Flexibility Score: inf
ROOT
ATOM      1  C   UNL     1     -14.031  -2.876 -17.876  1.00  0.00     0.138 A 
ATOM      2  C   UNL     1     -13.498  -4.150 -17.638  1.00  0.00     0.100 A 
ATOM      3  C   UNL     1     -12.355  -4.560 -18.326  1.00  0.00     0.197 A 
ATOM      4  O   UNL     1     -11.936  -5.731 -18.137  1.00  0.00    -0.289 OA
ATOM      5  C   UNL     1     -11.726  -3.674 -19.234  1.00  0.00     0.107 A 
ATOM      6  C   UNL     1     -10.534  -3.968 -19.960  1.00  0.00     0.134 A 
ATOM      7  C   UNL     1     -10.068  -3.058 -20.918  1.00  0.00     0.093 A 
ATOM      8  C   UNL     1     -10.715  -1.842 -21.132  1.00  0.00     0.123 A 
ATOM      9  C   UNL     1     -11.851  -1.522 -20.389  1.00  0.00     0.094 A 
ATOM     10  C   UNL     1     -12.361  -2.422 -19.451  1.00  0.00     0.146 A 
ATOM     11  O   UNL     1     -13.453  -2.085 -18.773  1.00  0.00    -0.456 OA
ENDROOT
BRANCH   1  12
ATOM     12  C   UNL     1     -15.244  -2.390 -17.171  1.00  0.00     0.021 A 
ATOM     13  C   UNL     1     -16.147  -1.498 -17.781  1.00  0.00     0.016 A 
ATOM     14  C   UNL     1     -17.287  -1.065 -17.099  1.00  0.00     0.051 A 
ATOM     15  C   UNL     1     -17.551  -1.521 -15.801  1.00  0.00     0.157 A 
ATOM     16  C   UNL     1     -15.525  -2.853 -15.873  1.00  0.00     0.062 A 
ATOM     17  C   UNL     1     -16.665  -2.421 -15.187  1.00  0.00     0.158 A 
BRANCH  15  18
ATOM     18  O   UNL     1     -18.689  -1.086 -15.123  1.00  0.00    -0.504 OA
ATOM     19  H   UNL     1     -19.619  -1.242 -15.493  1.00  0.00     0.293 HD
ENDBRANCH  15  18
BRANCH  17  20
ATOM     20  O   UNL     1     -16.901  -2.896 -13.897  1.00  0.00    -0.504 OA
ATOM     21  H   UNL     1     -17.664  -3.529 -13.687  1.00  0.00     0.293 HD
ENDBRANCH  17  20
ENDBRANCH   1  12
BRANCH   6  22
ATOM     22  O   UNL     1      -9.762  -5.117 -19.763  1.00  0.00    -0.507 OA
ATOM     23  H   UNL     1      -8.860  -5.136 -19.312  1.00  0.00     0.293 HD
ENDBRANCH   6  22
BRANCH   8  24
ATOM     24  O   UNL     1     -10.215  -0.955 -22.083  1.00  0.00    -0.508 OA
ATOM     25  H   UNL     1      -9.632  -0.170 -21.821  1.00  0.00     0.293 HD
ENDBRANCH   8  24
TORSDOF 5
ENDMDL
MODEL 4
REMARK VINA RESULT:    -5.749      5.588      8.863
REMARK INTER + INTRA:          -7.049
REMARK INTER:                  -6.735
REMARK INTRA:                  -0.315
REMARK UNBOUND:                -0.292
REMARK SMILES O=c1cc(-c2ccc(O)c(O)c2)oc2cc(O)cc(O)c12
REMARK SMILES IDX 4 1 3 2 2 3 1 4 21 5 19 6 18 7 16 8 15 9 14 10 13 11 5 12
REMARK SMILES IDX 6 13 7 14 8 15 12 16 10 17 9 18 11 20 20 22 17 24
REMARK H PARENT 9 19 11 21 20 23 17 25
REMARK Flexibility Score: inf
ROOT
ATOM      1  C   UNL     1     -11.691  -2.818 -19.285  1.00  0.00     0.138 A 
ATOM      2  C   UNL     1     -10.734  -3.398 -20.128  1.00  0.00     0.100 A 
ATOM      3  C   UNL     1      -9.782  -2.590 -20.752  1.00  0.00     0.197 A 
ATOM      4  O   UNL     1      -8.974  -3.132 -21.550  1.00  0.00    -0.289 OA
ATOM      5  C   UNL     1      -9.773  -1.196 -20.504  1.00  0.00     0.107 A 
ATOM      6  C   UNL     1      -8.826  -0.281 -21.052  1.00  0.00     0.134 A 
ATOM      7  C   UNL     1      -8.985   1.093 -20.829  1.00  0.00     0.093 A 
ATOM      8  C   UNL     1     -10.020   1.578 -20.030  1.00  0.00     0.123 A 
ATOM      9  C   UNL     1     -10.920   0.687 -19.446  1.00  0.00     0.094 A 
ATOM     10  C   UNL     1     -10.808  -0.686 -19.677  1.00  0.00     0.146 A 
ATOM     11  O   UNL     1     -11.694  -1.500 -19.113  1.00  0.00    -0.456 OA
ENDROOT
BRANCH   1  12
ATOM     12  C   UNL     1     -12.726  -3.631 -18.597  1.00  0.00     0.021 A 
ATOM     13  C   UNL     1     -12.985  -4.965 -18.966  1.00  0.00     0.016 A 
ATOM     14  C   UNL     1     -13.956  -5.711 -18.294  1.00  0.00     0.051 A 
ATOM     15  C   UNL     1     -14.679  -5.143 -17.237  1.00  0.00     0.157 A 
ATOM     16  C   UNL     1     -13.447  -3.073 -17.526  1.00  0.00     0.062 A 
ATOM     17  C   UNL     1     -14.421  -3.818 -16.851  1.00  0.00     0.158 A 
BRANCH  15  18
ATOM     18  O   UNL     1     -15.650  -5.890 -16.570  1.00  0.00    -0.504 OA
ATOM     19  H   UNL     1     -16.108  -5.539 -15.737  1.00  0.00     0.293 HD
ENDBRANCH  15  18
BRANCH  17  20
ATOM     20  O   UNL     1     -15.121  -3.224 -15.801  1.00  0.00    -0.504 OA
ATOM     21  H   UNL     1     -16.132  -3.153 -15.800  1.00  0.00     0.293 HD
ENDBRANCH  17  20
ENDBRANCH   1  12
BRANCH   6  22
ATOM     22  O   UNL     1      -7.705  -0.666 -21.794  1.00  0.00    -0.507 OA
ATOM     23  H   UNL     1      -7.269  -1.575 -21.752  1.00  0.00     0.293 HD
ENDBRANCH   6  22
BRANCH   8  24
ATOM     24  O   UNL     1     -10.140   2.950 -19.819  1.00  0.00    -0.508 OA
ATOM     25  H   UNL     1      -9.503   3.450 -19.210  1.00  0.00     0.293 HD
ENDBRANCH   8  24
TORSDOF 5
ENDMDL
MODEL 5
REMARK VINA RESULT:    -5.673      3.951      5.859
REMARK INTER + INTRA:          -6.960
REMARK INTER:                  -6.656
REMARK INTRA:                  -0.303
REMARK UNBOUND:                -0.292
REMARK SMILES O=c1cc(-c2ccc(O)c(O)c2)oc2cc(O)cc(O)c12
REMARK SMILES IDX 4 1 3 2 2 3 1 4 21 5 19 6 18 7 16 8 15 9 14 10 13 11 5 12
REMARK SMILES IDX 6 13 7 14 8 15 12 16 10 17 9 18 11 20 20 22 17 24
REMARK H PARENT 9 19 11 21 20 23 17 25
REMARK Flexibility Score: inf
ROOT
ATOM      1  C   UNL     1     -13.815  -2.779 -18.255  1.00  0.00     0.138 A 
ATOM      2  C   UNL     1     -13.106  -1.931 -19.116  1.00  0.00     0.100 A 
ATOM      3  C   UNL     1     -12.002  -2.421 -19.814  1.00  0.00     0.197 A 
ATOM      4  O   UNL     1     -11.350  -1.621 -20.533  1.00  0.00    -0.289 OA
ATOM      5  C   UNL     1     -11.625  -3.779 -19.670  1.00  0.00     0.107 A 
ATOM      6  C   UNL     1     -10.543  -4.399 -20.363  1.00  0.00     0.134 A 
ATOM      7  C   UNL     1     -10.191  -5.719 -20.052  1.00  0.00     0.093 A 
ATOM      8  C   UNL     1     -10.919  -6.459 -19.121  1.00  0.00     0.123 A 
ATOM      9  C   UNL     1     -12.013  -5.879 -18.478  1.00  0.00     0.094 A 
ATOM     10  C   UNL     1     -12.368  -4.553 -18.740  1.00  0.00     0.146 A 
ATOM     11  O   UNL     1     -13.407  -4.034 -18.096  1.00  0.00    -0.456 OA
ENDROOT
BRANCH   1  12
ATOM     12  C   UNL     1     -14.997  -2.309 -17.489  1.00  0.00     0.021 A 
ATOM     13  C   UNL     1     -15.896  -1.365 -18.021  1.00  0.00     0.016 A 
ATOM     14  C   UNL     1     -17.006  -0.948 -17.283  1.00  0.00     0.051 A 
ATOM     15  C   UNL     1     -17.244  -1.471 -16.005  1.00  0.00     0.157 A 
ATOM     16  C   UNL     1     -15.250  -2.839 -16.211  1.00  0.00     0.062 A 
ATOM     17  C   UNL     1     -16.361  -2.423 -15.469  1.00  0.00     0.158 A 
BRANCH  15  18
ATOM     18  O   UNL     1     -18.352  -1.052 -15.270  1.00  0.00    -0.504 OA
ATOM     19  H   UNL     1     -19.104  -1.688 -15.036  1.00  0.00     0.293 HD
ENDBRANCH  15  18
BRANCH  17  20
ATOM     20  O   UNL     1     -16.571  -2.965 -14.201  1.00  0.00    -0.504 OA
ATOM     21  H   UNL     1     -16.375  -2.445 -13.354  1.00  0.00     0.293 HD
ENDBRANCH  17  20
ENDBRANCH   1  12
BRANCH   6  22
ATOM     22  O   UNL     1      -9.803  -3.777 -21.373  1.00  0.00    -0.507 OA
ATOM     23  H   UNL     1      -9.863  -4.002 -22.354  1.00  0.00     0.293 HD
ENDBRANCH   6  22
BRANCH   8  24
ATOM     24  O   UNL     1     -10.550  -7.774 -18.848  1.00  0.00    -0.508 OA
ATOM     25  H   UNL     1     -10.627  -8.164 -17.916  1.00  0.00     0.293 HD
ENDBRANCH   8  24
TORSDOF 5
ENDMDL
MODEL 6
REMARK VINA RESULT:    -5.664      3.600      5.381
REMARK INTER + INTRA:          -6.950
REMARK INTER:                  -6.684
REMARK INTRA:                  -0.265
REMARK UNBOUND:                -0.292
REMARK SMILES O=c1cc(-c2ccc(O)c(O)c2)oc2cc(O)cc(O)c12
REMARK SMILES IDX 4 1 3 2 2 3 1 4 21 5 19 6 18 7 16 8 15 9 14 10 13 11 5 12
REMARK SMILES IDX 6 13 7 14 8 15 12 16 10 17 9 18 11 20 20 22 17 24
REMARK H PARENT 9 19 11 21 20 23 17 25
REMARK Flexibility Score: inf
ROOT
ATOM      1  C   UNL     1     -13.771  -3.212 -18.085  1.00  0.00     0.138 A 
ATOM      2  C   UNL     1     -14.163  -4.452 -18.607  1.00  0.00     0.100 A 
ATOM      3  C   UNL     1     -15.350  -5.041 -18.170  1.00  0.00     0.197 A 
ATOM      4  O   UNL     1     -15.645  -6.182 -18.612  1.00  0.00    -0.289 OA
ATOM      5  C   UNL     1     -16.163  -4.369 -17.227  1.00  0.00     0.107 A 
ATOM      6  C   UNL     1     -17.413  -4.853 -16.740  1.00  0.00     0.134 A 
ATOM      7  C   UNL     1     -18.074  -4.157 -15.720  1.00  0.00     0.093 A 
ATOM      8  C   UNL     1     -17.561  -2.963 -15.213  1.00  0.00     0.123 A 
ATOM      9  C   UNL     1     -16.366  -2.453 -15.720  1.00  0.00     0.094 A 
ATOM     10  C   UNL     1     -15.666  -3.141 -16.713  1.00  0.00     0.146 A 
ATOM     11  O   UNL     1     -14.525  -2.628 -17.159  1.00  0.00    -0.456 OA
ENDROOT
BRANCH   1  12
ATOM     12  C   UNL     1     -12.518  -2.541 -18.515  1.00  0.00     0.021 A 
ATOM     13  C   UNL     1     -11.267  -2.893 -17.973  1.00  0.00     0.016 A 
ATOM     14  C   UNL     1     -10.102  -2.252 -18.404  1.00  0.00     0.051 A 
ATOM     15  C   UNL     1     -10.164  -1.258 -19.388  1.00  0.00     0.157 A 
ATOM     16  C   UNL     1     -12.570  -1.551 -19.513  1.00  0.00     0.062 A 
ATOM     17  C   UNL     1     -11.405  -0.907 -19.945  1.00  0.00     0.158 A 
BRANCH  15  18
ATOM     18  O   UNL     1      -9.000  -0.619 -19.815  1.00  0.00    -0.504 OA
ATOM     19  H   UNL     1      -8.953  -0.147 -20.710  1.00  0.00     0.293 HD
ENDBRANCH  15  18
BRANCH  17  20
ATOM     20  O   UNL     1     -11.501   0.077 -20.930  1.00  0.00    -0.504 OA
ATOM     21  H   UNL     1     -12.242   0.767 -20.930  1.00  0.00     0.293 HD
ENDBRANCH  17  20
ENDBRANCH   1  12
BRANCH   6  22
ATOM     22  O   UNL     1     -18.057  -5.991 -17.237  1.00  0.00    -0.507 OA
ATOM     23  H   UNL     1     -18.264  -6.819 -16.699  1.00  0.00     0.293 HD
ENDBRANCH   6  22
BRANCH   8  24
ATOM     24  O   UNL     1     -18.252  -2.290 -14.208  1.00  0.00    -0.508 OA
ATOM     25  H   UNL     1     -17.767  -1.755 -13.498  1.00  0.00     0.293 HD
ENDBRANCH   8  24
TORSDOF 5
ENDMDL
MODEL 7
REMARK VINA RESULT:    -5.632      2.975      6.651
REMARK INTER + INTRA:          -6.912
REMARK INTER:                  -6.636
REMARK INTRA:                  -0.276
REMARK UNBOUND:                -0.292
REMARK SMILES O=c1cc(-c2ccc(O)c(O)c2)oc2cc(O)cc(O)c12
REMARK SMILES IDX 4 1 3 2 2 3 1 4 21 5 19 6 18 7 16 8 15 9 14 10 13 11 5 12
REMARK SMILES IDX 6 13 7 14 8 15 12 16 10 17 9 18 11 20 20 22 17 24
REMARK H PARENT 9 19 11 21 20 23 17 25
REMARK Flexibility Score: inf
ROOT
ATOM      1  C   UNL     1     -14.780  -3.144 -17.675  1.00  0.00     0.138 A 
ATOM      2  C   UNL     1     -14.857  -1.904 -18.324  1.00  0.00     0.100 A 
ATOM      3  C   UNL     1     -15.774  -0.949 -17.881  1.00  0.00     0.197 A 
ATOM      4  O   UNL     1     -15.863   0.130 -18.521  1.00  0.00    -0.289 OA
ATOM      5  C   UNL     1     -16.596  -1.229 -16.763  1.00  0.00     0.107 A 
ATOM      6  C   UNL     1     -17.537  -0.318 -16.198  1.00  0.00     0.134 A 
ATOM      7  C   UNL     1     -18.377  -0.747 -15.163  1.00  0.00     0.093 A 
ATOM      8  C   UNL     1     -18.270  -2.032 -14.633  1.00  0.00     0.123 A 
ATOM      9  C   UNL     1     -17.316  -2.914 -15.142  1.00  0.00     0.094 A 
ATOM     10  C   UNL     1     -16.486  -2.527 -16.197  1.00  0.00     0.146 A 
ATOM     11  O   UNL     1     -15.600  -3.401 -16.663  1.00  0.00    -0.456 OA
ENDROOT
BRANCH   1  12
ATOM     12  C   UNL     1     -13.822  -4.195 -18.105  1.00  0.00     0.021 A 
ATOM     13  C   UNL     1     -14.219  -5.536 -18.266  1.00  0.00     0.016 A 
ATOM     14  C   UNL     1     -13.300  -6.502 -18.682  1.00  0.00     0.051 A 
ATOM     15  C   UNL     1     -11.973  -6.147 -18.953  1.00  0.00     0.157 A 
ATOM     16  C   UNL     1     -12.491  -3.844 -18.392  1.00  0.00     0.062 A 
ATOM     17  C   UNL     1     -11.568  -4.810 -18.808  1.00  0.00     0.158 A 
BRANCH  15  18
ATOM     18  O   UNL     1     -11.057  -7.114 -19.366  1.00  0.00    -0.504 OA
ATOM     19  H   UNL     1     -10.154  -6.860 -19.747  1.00  0.00     0.293 HD
ENDBRANCH  15  18
BRANCH  17  20
ATOM     20  O   UNL     1     -10.254  -4.422 -19.073  1.00  0.00    -0.504 OA
ATOM     21  H   UNL     1     -10.035  -3.652 -19.694  1.00  0.00     0.293 HD
ENDBRANCH  17  20
ENDBRANCH   1  12
BRANCH   6  22
ATOM     22  O   UNL     1     -17.668   1.016 -16.596  1.00  0.00    -0.507 OA
ATOM     23  H   UNL     1     -17.200   1.431 -17.387  1.00  0.00     0.293 HD
ENDBRANCH   6  22
BRANCH   8  24
ATOM     24  O   UNL     1     -19.113  -2.420 -13.594  1.00  0.00    -0.508 OA
ATOM     25  H   UNL     1     -18.880  -2.237 -12.626  1.00  0.00     0.293 HD
ENDBRANCH   8  24
TORSDOF 5
ENDMDL
MODEL 8
REMARK VINA RESULT:    -5.546      5.690      6.887
REMARK INTER + INTRA:          -6.811
REMARK INTER:                  -6.517
REMARK INTRA:                  -0.294
REMARK UNBOUND:                -0.292
REMARK SMILES O=c1cc(-c2ccc(O)c(O)c2)oc2cc(O)cc(O)c12
REMARK SMILES IDX 4 1 3 2 2 3 1 4 21 5 19 6 18 7 16 8 15 9 14 10 13 11 5 12
REMARK SMILES IDX 6 13 7 14 8 15 12 16 10 17 9 18 11 20 20 22 17 24
REMARK H PARENT 9 19 11 21 20 23 17 25
REMARK Flexibility Score: inf
ROOT
ATOM      1  C   UNL     1     -11.048  -1.925 -19.577  1.00  0.00     0.138 A 
ATOM      2  C   UNL     1     -10.357  -3.094 -19.923  1.00  0.00     0.100 A 
ATOM      3  C   UNL     1     -10.867  -4.337 -19.543  1.00  0.00     0.197 A 
ATOM      4  O   UNL     1     -10.193  -5.364 -19.814  1.00  0.00    -0.289 OA
ATOM      5  C   UNL     1     -12.094  -4.407 -18.840  1.00  0.00     0.107 A 
ATOM      6  C   UNL     1     -12.730  -5.619 -18.438  1.00  0.00     0.134 A 
ATOM      7  C   UNL     1     -13.884  -5.562 -17.645  1.00  0.00     0.093 A 
ATOM      8  C   UNL     1     -14.457  -4.340 -17.292  1.00  0.00     0.123 A 
ATOM      9  C   UNL     1     -13.871  -3.150 -17.725  1.00  0.00     0.094 A 
ATOM     10  C   UNL     1     -12.702  -3.173 -18.488  1.00  0.00     0.146 A 
ATOM     11  O   UNL     1     -12.169  -2.017 -18.869  1.00  0.00    -0.456 OA
ENDROOT
BRANCH   1  12
ATOM     12  C   UNL     1     -10.550  -0.579 -19.956  1.00  0.00     0.021 A 
ATOM     13  C   UNL     1     -11.112   0.596 -19.421  1.00  0.00     0.016 A 
ATOM     14  C   UNL     1     -10.616   1.850 -19.787  1.00  0.00     0.051 A 
ATOM     15  C   UNL     1      -9.546   1.954 -20.684  1.00  0.00     0.157 A 
ATOM     16  C   UNL     1      -9.466  -0.466 -20.846  1.00  0.00     0.062 A 
ATOM     17  C   UNL     1      -8.969   0.789 -21.215  1.00  0.00     0.158 A 
BRANCH  15  18
ATOM     18  O   UNL     1      -9.055   3.207 -21.049  1.00  0.00    -0.504 OA
ATOM     19  H   UNL     1      -8.190   3.569 -20.665  1.00  0.00     0.293 HD
ENDBRANCH  15  18
BRANCH  17  20
ATOM     20  O   UNL     1      -7.900   0.858 -22.109  1.00  0.00    -0.504 OA
ATOM     21  H   UNL     1      -6.998   0.445 -21.902  1.00  0.00     0.293 HD
ENDBRANCH  17  20
ENDBRANCH   1  12
BRANCH   6  22
ATOM     22  O   UNL     1     -12.289  -6.893 -18.807  1.00  0.00    -0.507 OA
ATOM     23  H   UNL     1     -11.541  -7.397 -18.358  1.00  0.00     0.293 HD
ENDBRANCH   6  22
BRANCH   8  24
ATOM     24  O   UNL     1     -15.612  -4.322 -16.514  1.00  0.00    -0.508 OA
ATOM     25  H   UNL     1     -16.332  -5.027 -16.618  1.00  0.00     0.293 HD
ENDBRANCH   8  24
TORSDOF 5
ENDMDL
