MODEL 1
REMARK VINA RESULT:    -3.868      0.000      0.000
REMARK INTER + INTRA:         -11.991
REMARK INTER:                  -8.391
REMARK INTRA:                  -3.600
REMARK UNBOUND:                -3.600
REMARK SMILES CCCCCCCCCCCCCCCCCCCCCC(=O)[O-]
REMARK SMILES IDX 12 1 11 2 10 3 9 4 8 5 7 6 6 7 5 8 4 9 3 10 2 11 1 12 13 13
REMARK SMILES IDX 14 14 15 15 16 16 17 17 18 18 19 19 20 20 21 21 22 22 23 23
REMARK SMILES IDX 24 24
REMARK H PARENT
REMARK Flexibility Score: inf
ROOT
ATOM      1  C   UNL     1      23.988  -2.434  16.778  1.00  0.00     0.000 C 
ENDROOT
BRANCH   1   2
ATOM      2  C   UNL     1      22.835  -1.673  17.447  1.00  0.00     0.000 C 
BRANCH   2   3
ATOM      3  C   UNL     1      22.637  -2.056  18.925  1.00  0.00     0.000 C 
BRANCH   3   4
ATOM      4  C   UNL     1      21.222  -2.542  19.292  1.00  0.00    -0.000 C 
BRANCH   4   5
ATOM      5  C   UNL     1      21.219  -3.930  19.956  1.00  0.00    -0.000 C 
BRANCH   5   6
ATOM      6  C   UNL     1      22.323  -4.848  19.406  1.00  0.00    -0.000 C 
BRANCH   6   7
ATOM      7  C   UNL     1      21.793  -5.870  18.390  1.00  0.00    -0.000 C 
BRANCH   7   8
ATOM      8  C   UNL     1      21.874  -5.312  16.961  1.00  0.00    -0.000 C 
BRANCH   8   9
ATOM      9  C   UNL     1      20.581  -5.537  16.156  1.00  0.00    -0.000 C 
BRANCH   9  10
ATOM     10  C   UNL     1      20.749  -5.493  14.624  1.00  0.00    -0.000 C 
BRANCH  10  11
ATOM     11  C   UNL     1      20.808  -6.869  13.937  1.00  0.00    -0.003 C 
ATOM     12  C   UNL     1      21.920  -6.965  12.892  1.00  0.00     0.004 C 
ENDBRANCH  10  11
ENDBRANCH   9  10
ENDBRANCH   8   9
ENDBRANCH   7   8
ENDBRANCH   6   7
ENDBRANCH   5   6
ENDBRANCH   4   5
ENDBRANCH   3   4
ENDBRANCH   2   3
ENDBRANCH   1   2
BRANCH   1  13
ATOM     13  C   UNL     1      24.994  -2.934  17.821  1.00  0.00     0.000 C 
BRANCH  13  14
ATOM     14  C   UNL     1      25.775  -4.147  17.295  1.00  0.00     0.000 C 
BRANCH  14  15
ATOM     15  C   UNL     1      25.677  -5.369  18.225  1.00  0.00     0.000 C 
BRANCH  15  16
ATOM     16  C   UNL     1      25.354  -6.705  17.523  1.00  0.00     0.000 C 
BRANCH  16  17
ATOM     17  C   UNL     1      25.116  -6.608  16.005  1.00  0.00     0.000 C 
BRANCH  17  18
ATOM     18  C   UNL     1      24.238  -7.749  15.465  1.00  0.00     0.000 C 
BRANCH  18  19
ATOM     19  C   UNL     1      23.529  -8.540  16.578  1.00  0.00     0.000 C 
BRANCH  19  20
ATOM     20  C   UNL     1      23.670 -10.072  16.494  1.00  0.00     0.006 C 
BRANCH  20  21
ATOM     21  C   UNL     1      25.044 -10.603  16.944  1.00  0.00     0.053 C 
BRANCH  21  22
ATOM     22  C   UNL     1      25.780 -11.303  15.841  1.00  0.00     0.041 C 
ATOM     23  O   UNL     1      25.575 -10.986  14.640  1.00  0.00    -0.550 OA
ATOM     24  O   UNL     1      26.662 -12.335  16.136  1.00  0.00    -0.550 OA
ENDBRANCH  21  22
ENDBRANCH  20  21
ENDBRANCH  19  20
ENDBRANCH  18  19
ENDBRANCH  17  18
ENDBRANCH  16  17
ENDBRANCH  15  16
ENDBRANCH  14  15
ENDBRANCH  13  14
ENDBRANCH   1  13
TORSDOF 20
ENDMDL
MODEL 2
REMARK VINA RESULT:    -3.755      1.361      2.088
REMARK INTER + INTRA:         -11.746
REMARK INTER:                  -8.327
REMARK INTRA:                  -3.419
REMARK UNBOUND:                -3.600
REMARK SMILES CCCCCCCCCCCCCCCCCCCCCC(=O)[O-]
REMARK SMILES IDX 12 1 11 2 10 3 9 4 8 5 7 6 6 7 5 8 4 9 3 10 2 11 1 12 13 13
REMARK SMILES IDX 14 14 15 15 16 16 17 17 18 18 19 19 20 20 21 21 22 22 23 23
REMARK SMILES IDX 24 24
REMARK H PARENT
REMARK Flexibility Score: inf
ROOT
ATOM      1  C   UNL     1      24.825  -2.791  17.897  1.00  0.00     0.000 C 
ENDROOT
BRANCH   1   2
ATOM      2  C   UNL     1      23.857  -2.237  16.842  1.00  0.00     0.000 C 
BRANCH   2   3
ATOM      3  C   UNL     1      22.508  -1.792  17.436  1.00  0.00     0.000 C 
BRANCH   3   4
ATOM      4  C   UNL     1      22.348  -2.027  18.950  1.00  0.00    -0.000 C 
BRANCH   4   5
ATOM      5  C   UNL     1      21.147  -2.925  19.294  1.00  0.00    -0.000 C 
BRANCH   5   6
ATOM      6  C   UNL     1      21.574  -4.266  19.912  1.00  0.00    -0.000 C 
BRANCH   6   7
ATOM      7  C   UNL     1      22.176  -5.230  18.879  1.00  0.00    -0.000 C 
BRANCH   7   8
ATOM      8  C   UNL     1      21.149  -6.293  18.461  1.00  0.00    -0.000 C 
BRANCH   8   9
ATOM      9  C   UNL     1      20.893  -6.314  16.943  1.00  0.00    -0.000 C 
BRANCH   9  10
ATOM     10  C   UNL     1      21.568  -5.178  16.150  1.00  0.00    -0.000 C 
BRANCH  10  11
ATOM     11  C   UNL     1      20.621  -4.351  15.264  1.00  0.00    -0.003 C 
ATOM     12  C   UNL     1      19.529  -3.638  16.061  1.00  0.00     0.004 C 
ENDBRANCH  10  11
ENDBRANCH   9  10
ENDBRANCH   8   9
ENDBRANCH   7   8
ENDBRANCH   6   7
ENDBRANCH   5   6
ENDBRANCH   4   5
ENDBRANCH   3   4
ENDBRANCH   2   3
ENDBRANCH   1   2
BRANCH   1  13
ATOM     13  C   UNL     1      25.677  -3.926  17.318  1.00  0.00     0.000 C 
BRANCH  13  14
ATOM     14  C   UNL     1      25.715  -5.128  18.272  1.00  0.00     0.000 C 
BRANCH  14  15
ATOM     15  C   UNL     1      25.460  -6.467  17.559  1.00  0.00     0.000 C 
BRANCH  15  16
ATOM     16  C   UNL     1      25.010  -6.351  16.087  1.00  0.00     0.000 C 
BRANCH  16  17
ATOM     17  C   UNL     1      24.296  -7.591  15.519  1.00  0.00     0.000 C 
BRANCH  17  18
ATOM     18  C   UNL     1      24.829  -8.004  14.137  1.00  0.00     0.000 C 
BRANCH  18  19
ATOM     19  C   UNL     1      25.084  -9.517  14.018  1.00  0.00     0.000 C 
BRANCH  19  20
ATOM     20  C   UNL     1      23.821 -10.394  13.916  1.00  0.00     0.006 C 
BRANCH  20  21
ATOM     21  C   UNL     1      23.822 -11.609  14.862  1.00  0.00     0.053 C 
BRANCH  21  22
ATOM     22  C   UNL     1      24.215 -11.247  16.263  1.00  0.00     0.041 C 
ATOM     23  O   UNL     1      23.456 -10.535  16.971  1.00  0.00    -0.550 OA
ATOM     24  O   UNL     1      25.439 -11.661  16.774  1.00  0.00    -0.550 OA
ENDBRANCH  21  22
ENDBRANCH  20  21
ENDBRANCH  19  20
ENDBRANCH  18  19
ENDBRANCH  17  18
ENDBRANCH  16  17
ENDBRANCH  15  16
ENDBRANCH  14  15
ENDBRANCH  13  14
ENDBRANCH   1  13
TORSDOF 20
ENDMDL
MODEL 3
REMARK VINA RESULT:    -3.728     10.445     12.076
REMARK INTER + INTRA:         -11.687
REMARK INTER:                  -7.938
REMARK INTRA:                  -3.749
REMARK UNBOUND:                -3.600
REMARK SMILES CCCCCCCCCCCCCCCCCCCCCC(=O)[O-]
REMARK SMILES IDX 12 1 11 2 10 3 9 4 8 5 7 6 6 7 5 8 4 9 3 10 2 11 1 12 13 13
REMARK SMILES IDX 14 14 15 15 16 16 17 17 18 18 19 19 20 20 21 21 22 22 23 23
REMARK SMILES IDX 24 24
REMARK H PARENT
REMARK Flexibility Score: inf
ROOT
ATOM      1  C   UNL     1      27.623  -0.890   6.371  1.00  0.00     0.000 C 
ENDROOT
BRANCH   1   2
ATOM      2  C   UNL     1      27.961   0.377   5.572  1.00  0.00     0.000 C 
BRANCH   2   3
ATOM      3  C   UNL     1      26.719   1.215   5.216  1.00  0.00     0.000 C 
BRANCH   3   4
ATOM      4  C   UNL     1      26.662   2.611   5.864  1.00  0.00    -0.000 C 
BRANCH   4   5
ATOM      5  C   UNL     1      26.937   2.581   7.378  1.00  0.00    -0.000 C 
BRANCH   5   6
ATOM      6  C   UNL     1      25.644   2.539   8.209  1.00  0.00    -0.000 C 
BRANCH   6   7
ATOM      7  C   UNL     1      25.516   1.253   9.039  1.00  0.00    -0.000 C 
BRANCH   7   8
ATOM      8  C   UNL     1      24.696   0.196   8.285  1.00  0.00    -0.000 C 
BRANCH   8   9
ATOM      9  C   UNL     1      23.515   0.799   7.502  1.00  0.00    -0.000 C 
BRANCH   9  10
ATOM     10  C   UNL     1      23.400   0.339   6.035  1.00  0.00    -0.000 C 
BRANCH  10  11
ATOM     11  C   UNL     1      21.970   0.333   5.466  1.00  0.00    -0.003 C 
ATOM     12  C   UNL     1      20.896   0.386   6.552  1.00  0.00     0.004 C 
ENDBRANCH  10  11
ENDBRANCH   9  10
ENDBRANCH   8   9
ENDBRANCH   7   8
ENDBRANCH   6   7
ENDBRANCH   5   6
ENDBRANCH   4   5
ENDBRANCH   3   4
ENDBRANCH   2   3
ENDBRANCH   1   2
BRANCH   1  13
ATOM     13  C   UNL     1      28.274  -0.854   7.758  1.00  0.00     0.000 C 
BRANCH  13  14
ATOM     14  C   UNL     1      28.419  -2.270   8.334  1.00  0.00     0.000 C 
BRANCH  14  15
ATOM     15  C   UNL     1      28.945  -3.284   7.304  1.00  0.00     0.000 C 
BRANCH  15  16
ATOM     16  C   UNL     1      28.630  -4.762   7.617  1.00  0.00     0.000 C 
BRANCH  16  17
ATOM     17  C   UNL     1      27.731  -5.475   6.591  1.00  0.00     0.000 C 
BRANCH  17  18
ATOM     18  C   UNL     1      26.931  -4.495   5.717  1.00  0.00     0.000 C 
BRANCH  18  19
ATOM     19  C   UNL     1      25.425  -4.503   6.029  1.00  0.00     0.000 C 
BRANCH  19  20
ATOM     20  C   UNL     1      24.842  -3.162   6.515  1.00  0.00     0.006 C 
BRANCH  20  21
ATOM     21  C   UNL     1      23.629  -3.306   7.453  1.00  0.00     0.053 C 
BRANCH  21  22
ATOM     22  C   UNL     1      22.323  -3.156   6.732  1.00  0.00     0.041 C 
ATOM     23  O   UNL     1      21.252  -3.026   7.380  1.00  0.00    -0.550 OA
ATOM     24  O   UNL     1      22.283  -3.199   5.344  1.00  0.00    -0.550 OA
ENDBRANCH  21  22
ENDBRANCH  20  21
ENDBRANCH  19  20
ENDBRANCH  18  19
ENDBRANCH  17  18
ENDBRANCH  16  17
ENDBRANCH  15  16
ENDBRANCH  14  15
ENDBRANCH  13  14
ENDBRANCH   1  13
TORSDOF 20
ENDMDL
MODEL 4
REMARK VINA RESULT:    -3.712      1.375      3.190
REMARK INTER + INTRA:         -11.653
REMARK INTER:                  -8.004
REMARK INTRA:                  -3.648
REMARK UNBOUND:                -3.600
REMARK SMILES CCCCCCCCCCCCCCCCCCCCCC(=O)[O-]
REMARK SMILES IDX 12 1 11 2 10 3 9 4 8 5 7 6 6 7 5 8 4 9 3 10 2 11 1 12 13 13
REMARK SMILES IDX 14 14 15 15 16 16 17 17 18 18 19 19 20 20 21 21 22 22 23 23
REMARK SMILES IDX 24 24
REMARK H PARENT
REMARK Flexibility Score: inf
ROOT
ATOM      1  C   UNL     1      25.711  -5.016  18.181  1.00  0.00     0.000 C 
ENDROOT
BRANCH   1   2
ATOM      2  C   UNL     1      25.453  -3.926  17.131  1.00  0.00     0.000 C 
BRANCH   2   3
ATOM      3  C   UNL     1      24.915  -2.618  17.739  1.00  0.00     0.000 C 
BRANCH   3   4
ATOM      4  C   UNL     1      23.850  -1.893  16.896  1.00  0.00    -0.000 C 
BRANCH   4   5
ATOM      5  C   UNL     1      22.556  -1.610  17.679  1.00  0.00    -0.000 C 
BRANCH   5   6
ATOM      6  C   UNL     1      22.523  -2.329  19.038  1.00  0.00    -0.000 C 
BRANCH   6   7
ATOM      7  C   UNL     1      21.127  -2.861  19.394  1.00  0.00    -0.000 C 
BRANCH   7   8
ATOM      8  C   UNL     1      21.189  -4.350  19.768  1.00  0.00    -0.000 C 
BRANCH   8   9
ATOM      9  C   UNL     1      22.155  -5.152  18.877  1.00  0.00    -0.000 C 
BRANCH   9  10
ATOM     10  C   UNL     1      21.538  -6.384  18.188  1.00  0.00    -0.000 C 
BRANCH  10  11
ATOM     11  C   UNL     1      21.185  -6.191  16.702  1.00  0.00    -0.003 C 
ATOM     12  C   UNL     1      21.620  -4.830  16.159  1.00  0.00     0.004 C 
ENDBRANCH  10  11
ENDBRANCH   9  10
ENDBRANCH   8   9
ENDBRANCH   7   8
ENDBRANCH   6   7
ENDBRANCH   5   6
ENDBRANCH   4   5
ENDBRANCH   3   4
ENDBRANCH   2   3
ENDBRANCH   1   2
BRANCH   1  13
ATOM     13  C   UNL     1      25.396  -6.406  17.618  1.00  0.00     0.000 C 
BRANCH  13  14
ATOM     14  C   UNL     1      25.033  -6.327  16.128  1.00  0.00     0.000 C 
BRANCH  14  15
ATOM     15  C   UNL     1      24.439  -7.639  15.587  1.00  0.00     0.000 C 
BRANCH  15  16
ATOM     16  C   UNL     1      23.698  -7.517  14.238  1.00  0.00     0.000 C 
BRANCH  16  17
ATOM     17  C   UNL     1      22.660  -8.618  13.957  1.00  0.00     0.000 C 
BRANCH  17  18
ATOM     18  C   UNL     1      22.249  -9.388  15.223  1.00  0.00     0.000 C 
BRANCH  18  19
ATOM     19  C   UNL     1      22.459 -10.906  15.098  1.00  0.00     0.000 C 
BRANCH  19  20
ATOM     20  C   UNL     1      23.861 -11.415  15.488  1.00  0.00     0.006 C 
BRANCH  20  21
ATOM     21  C   UNL     1      24.577 -12.201  14.374  1.00  0.00     0.053 C 
BRANCH  21  22
ATOM     22  C   UNL     1      25.142 -11.306  13.311  1.00  0.00     0.041 C 
ATOM     23  O   UNL     1      24.993 -11.593  12.095  1.00  0.00    -0.550 OA
ATOM     24  O   UNL     1      25.870 -10.177  13.664  1.00  0.00    -0.550 OA
ENDBRANCH  21  22
ENDBRANCH  20  21
ENDBRANCH  19  20
ENDBRANCH  18  19
ENDBRANCH  17  18
ENDBRANCH  16  17
ENDBRANCH  15  16
ENDBRANCH  14  15
ENDBRANCH  13  14
ENDBRANCH   1  13
TORSDOF 20
ENDMDL
MODEL 5
REMARK VINA RESULT:    -3.703      1.716      4.108
REMARK INTER + INTRA:         -11.633
REMARK INTER:                  -8.093
REMARK INTRA:                  -3.540
REMARK UNBOUND:                -3.600
REMARK SMILES CCCCCCCCCCCCCCCCCCCCCC(=O)[O-]
REMARK SMILES IDX 12 1 11 2 10 3 9 4 8 5 7 6 6 7 5 8 4 9 3 10 2 11 1 12 13 13
REMARK SMILES IDX 14 14 15 15 16 16 17 17 18 18 19 19 20 20 21 21 22 22 23 23
REMARK SMILES IDX 24 24
REMARK H PARENT
REMARK Flexibility Score: inf
ROOT
ATOM      1  C   UNL     1      25.001  -6.417  16.035  1.00  0.00     0.000 C 
ENDROOT
BRANCH   1   2
ATOM      2  C   UNL     1      24.903  -6.456  17.566  1.00  0.00     0.000 C 
BRANCH   2   3
ATOM      3  C   UNL     1      25.703  -5.333  18.250  1.00  0.00     0.000 C 
BRANCH   3   4
ATOM      4  C   UNL     1      25.903  -4.061  17.405  1.00  0.00    -0.000 C 
BRANCH   4   5
ATOM      5  C   UNL     1      24.898  -2.948  17.750  1.00  0.00    -0.000 C 
BRANCH   5   6
ATOM      6  C   UNL     1      23.694  -2.925  16.793  1.00  0.00    -0.000 C 
BRANCH   6   7
ATOM      7  C   UNL     1      22.354  -3.103  17.521  1.00  0.00    -0.000 C 
BRANCH   7   8
ATOM      8  C   UNL     1      22.579  -3.458  18.999  1.00  0.00    -0.000 C 
BRANCH   8   9
ATOM      9  C   UNL     1      21.958  -4.810  19.392  1.00  0.00    -0.000 C 
BRANCH   9  10
ATOM     10  C   UNL     1      20.929  -5.373  18.390  1.00  0.00    -0.000 C 
BRANCH  10  11
ATOM     11  C   UNL     1      21.216  -6.802  17.897  1.00  0.00    -0.003 C 
ATOM     12  C   UNL     1      19.959  -7.669  17.820  1.00  0.00     0.004 C 
ENDBRANCH  10  11
ENDBRANCH   9  10
ENDBRANCH   8   9
ENDBRANCH   7   8
ENDBRANCH   6   7
ENDBRANCH   5   6
ENDBRANCH   4   5
ENDBRANCH   3   4
ENDBRANCH   2   3
ENDBRANCH   1   2
BRANCH   1  13
ATOM     13  C   UNL     1      23.666  -6.805  15.390  1.00  0.00     0.000 C 
BRANCH  13  14
ATOM     14  C   UNL     1      23.887  -7.700  14.162  1.00  0.00     0.000 C 
BRANCH  14  15
ATOM     15  C   UNL     1      23.687  -9.195  14.467  1.00  0.00     0.000 C 
BRANCH  15  16
ATOM     16  C   UNL     1      22.652  -9.507  15.568  1.00  0.00     0.000 C 
BRANCH  16  17
ATOM     17  C   UNL     1      23.208 -10.232  16.807  1.00  0.00     0.000 C 
BRANCH  17  18
ATOM     18  C   UNL     1      24.724 -10.040  16.980  1.00  0.00     0.000 C 
BRANCH  18  19
ATOM     19  C   UNL     1      25.482 -11.368  17.151  1.00  0.00     0.000 C 
BRANCH  19  20
ATOM     20  C   UNL     1      26.304 -11.822  15.929  1.00  0.00     0.006 C 
BRANCH  20  21
ATOM     21  C   UNL     1      25.463 -12.459  14.807  1.00  0.00     0.053 C 
BRANCH  21  22
ATOM     22  C   UNL     1      24.588 -13.571  15.304  1.00  0.00     0.041 C 
ATOM     23  O   UNL     1      25.101 -14.621  15.772  1.00  0.00    -0.550 OA
ATOM     24  O   UNL     1      23.206 -13.465  15.212  1.00  0.00    -0.550 OA
ENDBRANCH  21  22
ENDBRANCH  20  21
ENDBRANCH  19  20
ENDBRANCH  18  19
ENDBRANCH  17  18
ENDBRANCH  16  17
ENDBRANCH  15  16
ENDBRANCH  14  15
ENDBRANCH  13  14
ENDBRANCH   1  13
TORSDOF 20
ENDMDL
MODEL 6
REMARK VINA RESULT:    -3.693      9.905     11.772
REMARK INTER + INTRA:         -11.610
REMARK INTER:                  -7.812
REMARK INTRA:                  -3.798
REMARK UNBOUND:                -3.600
REMARK SMILES CCCCCCCCCCCCCCCCCCCCCC(=O)[O-]
REMARK SMILES IDX 12 1 11 2 10 3 9 4 8 5 7 6 6 7 5 8 4 9 3 10 2 11 1 12 13 13
REMARK SMILES IDX 14 14 15 15 16 16 17 17 18 18 19 19 20 20 21 21 22 22 23 23
REMARK SMILES IDX 24 24
REMARK H PARENT
REMARK Flexibility Score: inf
ROOT
ATOM      1  C   UNL     1      25.639   0.952   9.010  1.00  0.00     0.000 C 
ENDROOT
BRANCH   1   2
ATOM      2  C   UNL     1      24.566   1.371   7.995  1.00  0.00     0.000 C 
BRANCH   2   3
ATOM      3  C   UNL     1      23.173   1.545   8.626  1.00  0.00     0.000 C 
BRANCH   3   4
ATOM      4  C   UNL     1      21.995   1.515   7.635  1.00  0.00    -0.000 C 
BRANCH   4   5
ATOM      5  C   UNL     1      22.325   0.763   6.334  1.00  0.00    -0.000 C 
BRANCH   5   6
ATOM      6  C   UNL     1      21.177  -0.151   5.875  1.00  0.00    -0.000 C 
BRANCH   6   7
ATOM      7  C   UNL     1      20.403  -0.765   7.051  1.00  0.00    -0.000 C 
BRANCH   7   8
ATOM      8  C   UNL     1      20.951  -2.158   7.397  1.00  0.00    -0.000 C 
BRANCH   8   9
ATOM      9  C   UNL     1      21.979  -2.130   8.543  1.00  0.00    -0.000 C 
BRANCH   9  10
ATOM     10  C   UNL     1      23.437  -2.396   8.119  1.00  0.00    -0.000 C 
BRANCH  10  11
ATOM     11  C   UNL     1      23.611  -2.928   6.685  1.00  0.00    -0.003 C 
ATOM     12  C   UNL     1      24.111  -4.372   6.642  1.00  0.00     0.004 C 
ENDBRANCH  10  11
ENDBRANCH   9  10
ENDBRANCH   8   9
ENDBRANCH   7   8
ENDBRANCH   6   7
ENDBRANCH   5   6
ENDBRANCH   4   5
ENDBRANCH   3   4
ENDBRANCH   2   3
ENDBRANCH   1   2
BRANCH   1  13
ATOM     13  C   UNL     1      25.033   0.092  10.125  1.00  0.00     0.000 C 
BRANCH  13  14
ATOM     14  C   UNL     1      26.090  -0.837  10.739  1.00  0.00     0.000 C 
BRANCH  14  15
ATOM     15  C   UNL     1      27.502  -0.226  10.728  1.00  0.00     0.000 C 
BRANCH  15  16
ATOM     16  C   UNL     1      28.601  -1.123  10.122  1.00  0.00     0.000 C 
BRANCH  16  17
ATOM     17  C   UNL     1      29.016  -0.773   8.682  1.00  0.00     0.000 C 
BRANCH  17  18
ATOM     18  C   UNL     1      28.602  -1.849   7.664  1.00  0.00     0.000 C 
BRANCH  18  19
ATOM     19  C   UNL     1      27.101  -1.812   7.329  1.00  0.00     0.000 C 
BRANCH  19  20
ATOM     20  C   UNL     1      26.732  -1.066   6.032  1.00  0.00     0.006 C 
BRANCH  20  21
ATOM     21  C   UNL     1      27.841  -0.138   5.503  1.00  0.00     0.053 C 
BRANCH  21  22
ATOM     22  C   UNL     1      27.478   1.313   5.610  1.00  0.00     0.041 C 
ATOM     23  O   UNL     1      26.479   1.765   4.992  1.00  0.00    -0.550 OA
ATOM     24  O   UNL     1      28.267   2.176   6.361  1.00  0.00    -0.550 OA
ENDBRANCH  21  22
ENDBRANCH  20  21
ENDBRANCH  19  20
ENDBRANCH  18  19
ENDBRANCH  17  18
ENDBRANCH  16  17
ENDBRANCH  15  16
ENDBRANCH  14  15
ENDBRANCH  13  14
ENDBRANCH   1  13
TORSDOF 20
ENDMDL
MODEL 7
REMARK VINA RESULT:    -3.647      9.881     12.537
REMARK INTER + INTRA:         -11.512
REMARK INTER:                  -7.410
REMARK INTRA:                  -4.102
REMARK UNBOUND:                -3.600
REMARK SMILES CCCCCCCCCCCCCCCCCCCCCC(=O)[O-]
REMARK SMILES IDX 12 1 11 2 10 3 9 4 8 5 7 6 6 7 5 8 4 9 3 10 2 11 1 12 13 13
REMARK SMILES IDX 14 14 15 15 16 16 17 17 18 18 19 19 20 20 21 21 22 22 23 23
REMARK SMILES IDX 24 24
REMARK H PARENT
REMARK Flexibility Score: inf
ROOT
ATOM      1  C   UNL     1      25.806  -2.386   6.740  1.00  0.00     0.000 C 
ENDROOT
BRANCH   1   2
ATOM      2  C   UNL     1      27.329  -2.466   6.569  1.00  0.00     0.000 C 
BRANCH   2   3
ATOM      3  C   UNL     1      28.030  -3.182   7.738  1.00  0.00     0.000 C 
BRANCH   3   4
ATOM      4  C   UNL     1      29.124  -2.363   8.448  1.00  0.00    -0.000 C 
BRANCH   4   5
ATOM      5  C   UNL     1      28.693  -0.915   8.742  1.00  0.00    -0.000 C 
BRANCH   5   6
ATOM      6  C   UNL     1      27.964  -0.781  10.089  1.00  0.00    -0.000 C 
BRANCH   6   7
ATOM      7  C   UNL     1      26.498  -0.352   9.929  1.00  0.00    -0.000 C 
BRANCH   7   8
ATOM      8  C   UNL     1      26.396   0.965   9.146  1.00  0.00    -0.000 C 
BRANCH   8   9
ATOM      9  C   UNL     1      25.465   0.865   7.923  1.00  0.00    -0.000 C 
BRANCH   9  10
ATOM     10  C   UNL     1      25.800   1.827   6.766  1.00  0.00    -0.000 C 
BRANCH  10  11
ATOM     11  C   UNL     1      26.290   1.146   5.476  1.00  0.00    -0.003 C 
ATOM     12  C   UNL     1      27.811   1.010   5.414  1.00  0.00     0.004 C 
ENDBRANCH  10  11
ENDBRANCH   9  10
ENDBRANCH   8   9
ENDBRANCH   7   8
ENDBRANCH   6   7
ENDBRANCH   5   6
ENDBRANCH   4   5
ENDBRANCH   3   4
ENDBRANCH   2   3
ENDBRANCH   1   2
BRANCH   1  13
ATOM     13  C   UNL     1      25.334  -3.289   7.885  1.00  0.00     0.000 C 
BRANCH  13  14
ATOM     14  C   UNL     1      23.801  -3.329   7.958  1.00  0.00     0.000 C 
BRANCH  14  15
ATOM     15  C   UNL     1      23.180  -1.951   8.250  1.00  0.00     0.000 C 
BRANCH  15  16
ATOM     16  C   UNL     1      22.037  -1.532   7.302  1.00  0.00     0.000 C 
BRANCH  16  17
ATOM     17  C   UNL     1      22.478  -0.797   6.024  1.00  0.00     0.000 C 
BRANCH  17  18
ATOM     18  C   UNL     1      22.134   0.701   6.049  1.00  0.00     0.000 C 
BRANCH  18  19
ATOM     19  C   UNL     1      21.359   1.119   7.310  1.00  0.00     0.000 C 
BRANCH  19  20
ATOM     20  C   UNL     1      22.011   2.236   8.147  1.00  0.00     0.006 C 
BRANCH  20  21
ATOM     21  C   UNL     1      21.772   2.107   9.663  1.00  0.00     0.053 C 
BRANCH  21  22
ATOM     22  C   UNL     1      23.044   1.906  10.432  1.00  0.00     0.041 C 
ATOM     23  O   UNL     1      23.318   0.780  10.922  1.00  0.00    -0.550 OA
ATOM     24  O   UNL     1      23.908   2.974  10.641  1.00  0.00    -0.550 OA
ENDBRANCH  21  22
ENDBRANCH  20  21
ENDBRANCH  19  20
ENDBRANCH  18  19
ENDBRANCH  17  18
ENDBRANCH  16  17
ENDBRANCH  15  16
ENDBRANCH  14  15
ENDBRANCH  13  14
ENDBRANCH   1  13
TORSDOF 20
ENDMDL
MODEL 8
REMARK VINA RESULT:    -3.640      9.767     12.285
REMARK INTER + INTRA:         -11.495
REMARK INTER:                  -7.781
REMARK INTRA:                  -3.714
REMARK UNBOUND:                -3.600
REMARK SMILES CCCCCCCCCCCCCCCCCCCCCC(=O)[O-]
REMARK SMILES IDX 12 1 11 2 10 3 9 4 8 5 7 6 6 7 5 8 4 9 3 10 2 11 1 12 13 13
REMARK SMILES IDX 14 14 15 15 16 16 17 17 18 18 19 19 20 20 21 21 22 22 23 23
REMARK SMILES IDX 24 24
REMARK H PARENT
REMARK Flexibility Score: inf
ROOT
ATOM      1  C   UNL     1      27.930  -1.835   7.565  1.00  0.00     0.000 C 
ENDROOT
BRANCH   1   2
ATOM      2  C   UNL     1      28.605  -0.789   8.463  1.00  0.00     0.000 C 
BRANCH   2   3
ATOM      3  C   UNL     1      27.807  -0.487   9.744  1.00  0.00     0.000 C 
BRANCH   3   4
ATOM      4  C   UNL     1      26.719  -1.518  10.096  1.00  0.00    -0.000 C 
BRANCH   4   5
ATOM      5  C   UNL     1      25.292  -0.966   9.928  1.00  0.00    -0.000 C 
BRANCH   5   6
ATOM      6  C   UNL     1      24.435  -1.831   8.989  1.00  0.00    -0.000 C 
BRANCH   6   7
ATOM      7  C   UNL     1      24.178  -1.159   7.633  1.00  0.00    -0.000 C 
BRANCH   7   8
ATOM      8  C   UNL     1      23.850  -2.206   6.558  1.00  0.00    -0.000 C 
BRANCH   8   9
ATOM      9  C   UNL     1      22.469  -1.989   5.913  1.00  0.00    -0.000 C 
BRANCH   9  10
ATOM     10  C   UNL     1      21.485  -1.142   6.744  1.00  0.00    -0.000 C 
BRANCH  10  11
ATOM     11  C   UNL     1      21.026   0.165   6.074  1.00  0.00    -0.003 C 
ATOM     12  C   UNL     1      21.892   0.558   4.877  1.00  0.00     0.004 C 
ENDBRANCH  10  11
ENDBRANCH   9  10
ENDBRANCH   8   9
ENDBRANCH   7   8
ENDBRANCH   6   7
ENDBRANCH   5   6
ENDBRANCH   4   5
ENDBRANCH   3   4
ENDBRANCH   2   3
ENDBRANCH   1   2
BRANCH   1  13
ATOM     13  C   UNL     1      27.892  -1.366   6.107  1.00  0.00     0.000 C 
BRANCH  13  14
ATOM     14  C   UNL     1      26.964  -0.154   5.943  1.00  0.00     0.000 C 
BRANCH  14  15
ATOM     15  C   UNL     1      27.711   1.117   5.502  1.00  0.00     0.000 C 
BRANCH  15  16
ATOM     16  C   UNL     1      27.738   2.257   6.541  1.00  0.00     0.000 C 
BRANCH  16  17
ATOM     17  C   UNL     1      26.370   2.633   7.140  1.00  0.00     0.000 C 
BRANCH  17  18
ATOM     18  C   UNL     1      26.295   2.386   8.656  1.00  0.00     0.000 C 
BRANCH  18  19
ATOM     19  C   UNL     1      24.887   2.610   9.232  1.00  0.00     0.000 C 
BRANCH  19  20
ATOM     20  C   UNL     1      23.733   1.996   8.415  1.00  0.00     0.006 C 
BRANCH  20  21
ATOM     21  C   UNL     1      22.358   2.087   9.104  1.00  0.00     0.053 C 
BRANCH  21  22
ATOM     22  C   UNL     1      22.188   1.064  10.187  1.00  0.00     0.041 C 
ATOM     23  O   UNL     1      21.593  -0.019   9.950  1.00  0.00    -0.550 OA
ATOM     24  O   UNL     1      22.652   1.324  11.471  1.00  0.00    -0.550 OA
ENDBRANCH  21  22
ENDBRANCH  20  21
ENDBRANCH  19  20
ENDBRANCH  18  19
ENDBRANCH  17  18
ENDBRANCH  16  17
ENDBRANCH  15  16
ENDBRANCH  14  15
ENDBRANCH  13  14
ENDBRANCH   1  13
TORSDOF 20
ENDMDL
MODEL 9
REMARK VINA RESULT:    -3.627     10.234     12.798
REMARK INTER + INTRA:         -11.467
REMARK INTER:                  -7.886
REMARK INTRA:                  -3.581
REMARK UNBOUND:                -3.600
REMARK SMILES CCCCCCCCCCCCCCCCCCCCCC(=O)[O-]
REMARK SMILES IDX 12 1 11 2 10 3 9 4 8 5 7 6 6 7 5 8 4 9 3 10 2 11 1 12 13 13
REMARK SMILES IDX 14 14 15 15 16 16 17 17 18 18 19 19 20 20 21 21 22 22 23 23
REMARK SMILES IDX 24 24
REMARK H PARENT
REMARK Flexibility Score: inf
ROOT
ATOM      1  C   UNL     1      27.067  -1.546   7.010  1.00  0.00     0.000 C 
ENDROOT
BRANCH   1   2
ATOM      2  C   UNL     1      27.199  -1.804   5.503  1.00  0.00     0.000 C 
BRANCH   2   3
ATOM      3  C   UNL     1      28.177  -2.945   5.169  1.00  0.00     0.000 C 
BRANCH   3   4
ATOM      4  C   UNL     1      27.671  -3.958   4.124  1.00  0.00    -0.000 C 
BRANCH   4   5
ATOM      5  C   UNL     1      27.651  -5.404   4.652  1.00  0.00    -0.000 C 
BRANCH   5   6
ATOM      6  C   UNL     1      27.990  -5.488   6.149  1.00  0.00    -0.000 C 
BRANCH   6   7
ATOM      7  C   UNL     1      26.819  -6.012   6.993  1.00  0.00    -0.000 C 
BRANCH   7   8
ATOM      8  C   UNL     1      25.795  -4.898   7.258  1.00  0.00    -0.000 C 
BRANCH   8   9
ATOM      9  C   UNL     1      24.442  -5.152   6.569  1.00  0.00    -0.000 C 
BRANCH   9  10
ATOM     10  C   UNL     1      24.116  -4.204   5.399  1.00  0.00    -0.000 C 
BRANCH  10  11
ATOM     11  C   UNL     1      24.050  -4.876   4.016  1.00  0.00    -0.003 C 
ATOM     12  C   UNL     1      24.099  -6.402   4.092  1.00  0.00     0.004 C 
ENDBRANCH  10  11
ENDBRANCH   9  10
ENDBRANCH   8   9
ENDBRANCH   7   8
ENDBRANCH   6   7
ENDBRANCH   5   6
ENDBRANCH   4   5
ENDBRANCH   3   4
ENDBRANCH   2   3
ENDBRANCH   1   2
BRANCH   1  13
ATOM     13  C   UNL     1      28.442  -1.534   7.687  1.00  0.00     0.000 C 
BRANCH  13  14
ATOM     14  C   UNL     1      28.409  -2.306   9.014  1.00  0.00     0.000 C 
BRANCH  14  15
ATOM     15  C   UNL     1      28.954  -1.486  10.196  1.00  0.00     0.000 C 
BRANCH  15  16
ATOM     16  C   UNL     1      28.126  -0.238  10.567  1.00  0.00     0.000 C 
BRANCH  16  17
ATOM     17  C   UNL     1      26.599  -0.412  10.480  1.00  0.00     0.000 C 
BRANCH  17  18
ATOM     18  C   UNL     1      25.880   0.861  10.005  1.00  0.00     0.000 C 
BRANCH  18  19
ATOM     19  C   UNL     1      24.829   0.587   8.916  1.00  0.00     0.000 C 
BRANCH  19  20
ATOM     20  C   UNL     1      24.954   1.449   7.644  1.00  0.00     0.006 C 
BRANCH  20  21
ATOM     21  C   UNL     1      26.160   2.407   7.650  1.00  0.00     0.053 C 
BRANCH  21  22
ATOM     22  C   UNL     1      27.007   2.274   6.419  1.00  0.00     0.041 C 
ATOM     23  O   UNL     1      26.469   2.224   5.282  1.00  0.00    -0.550 OA
ATOM     24  O   UNL     1      28.387   2.163   6.531  1.00  0.00    -0.550 OA
ENDBRANCH  21  22
ENDBRANCH  20  21
ENDBRANCH  19  20
ENDBRANCH  18  19
ENDBRANCH  17  18
ENDBRANCH  16  17
ENDBRANCH  15  16
ENDBRANCH  14  15
ENDBRANCH  13  14
ENDBRANCH   1  13
TORSDOF 20
ENDMDL
