MODEL 1
REMARK VINA RESULT:    -3.601      0.000      0.000
REMARK INTER + INTRA:         -14.621
REMARK INTER:                  -9.075
REMARK INTRA:                  -5.545
REMARK UNBOUND:                -5.545
REMARK SMILES CCCCCCCCCCCCCCCCCCCCCCCCCCCC(=O)[O-]
REMARK SMILES IDX 15 1 16 2 17 3 18 4 19 5 20 6 21 7 22 8 23 9 24 10 25 11
REMARK SMILES IDX 26 12 27 13 28 14 29 15 30 16 14 17 13 18 12 19 11 20 10 21
REMARK SMILES IDX 9 22 8 23 7 24 6 25 5 26 4 27 3 28 2 29 1 30
REMARK H PARENT
REMARK Flexibility Score: inf
ROOT
ATOM      1  C   UNL     1       4.270 125.249 110.244  1.00  0.00     0.000 C 
ENDROOT
BRANCH   1   2
ATOM      2  C   UNL     1       2.861 124.916 110.759  1.00  0.00     0.000 C 
BRANCH   2   3
ATOM      3  C   UNL     1       2.258 126.051 111.605  1.00  0.00     0.000 C 
BRANCH   3   4
ATOM      4  C   UNL     1       2.976 127.400 111.406  1.00  0.00     0.000 C 
BRANCH   4   5
ATOM      5  C   UNL     1       2.179 128.462 110.618  1.00  0.00     0.000 C 
BRANCH   5   6
ATOM      6  C   UNL     1       0.661 128.207 110.527  1.00  0.00     0.000 C 
BRANCH   6   7
ATOM      7  C   UNL     1      -0.198 129.074 111.469  1.00  0.00     0.000 C 
BRANCH   7   8
ATOM      8  C   UNL     1       0.600 129.904 112.493  1.00  0.00     0.000 C 
BRANCH   8   9
ATOM      9  C   UNL     1       0.585 129.355 113.936  1.00  0.00     0.000 C 
BRANCH   9  10
ATOM     10  C   UNL     1       1.760 129.816 114.818  1.00  0.00     0.000 C 
BRANCH  10  11
ATOM     11  C   UNL     1       3.116 129.283 114.330  1.00  0.00     0.000 C 
BRANCH  11  12
ATOM     12  C   UNL     1       4.176 130.395 114.335  1.00  0.00     0.006 C 
BRANCH  12  13
ATOM     13  C   UNL     1       5.277 130.155 113.294  1.00  0.00     0.053 C 
BRANCH  13  14
ATOM     14  C   UNL     1       6.643 130.182 113.911  1.00  0.00     0.041 C 
ATOM     15  O   UNL     1       6.832 129.691 115.057  1.00  0.00    -0.550 OA
ATOM     16  O   UNL     1       7.703 130.764 113.226  1.00  0.00    -0.550 OA
ENDBRANCH  13  14
ENDBRANCH  12  13
ENDBRANCH  11  12
ENDBRANCH  10  11
ENDBRANCH   9  10
ENDBRANCH   8   9
ENDBRANCH   7   8
ENDBRANCH   6   7
ENDBRANCH   5   6
ENDBRANCH   4   5
ENDBRANCH   3   4
ENDBRANCH   2   3
ENDBRANCH   1   2
BRANCH   1  17
ATOM     17  C   UNL     1       5.384 124.537 111.031  1.00  0.00     0.000 C 
BRANCH  17  18
ATOM     18  C   UNL     1       4.822 123.428 111.945  1.00  0.00     0.000 C 
BRANCH  18  19
ATOM     19  C   UNL     1       4.990 123.717 113.447  1.00  0.00     0.000 C 
BRANCH  19  20
ATOM     20  C   UNL     1       5.604 125.097 113.726  1.00  0.00     0.000 C 
BRANCH  20  21
ATOM     21  C   UNL     1       4.688 125.997 114.574  1.00  0.00     0.000 C 
BRANCH  21  22
ATOM     22  C   UNL     1       3.418 125.280 115.081  1.00  0.00    -0.000 C 
BRANCH  22  23
ATOM     23  C   UNL     1       2.542 126.204 115.946  1.00  0.00    -0.000 C 
BRANCH  23  24
ATOM     24  C   UNL     1       1.041 125.867 115.856  1.00  0.00    -0.000 C 
BRANCH  24  25
ATOM     25  C   UNL     1       0.576 125.351 114.480  1.00  0.00    -0.000 C 
BRANCH  25  26
ATOM     26  C   UNL     1       0.209 123.856 114.493  1.00  0.00    -0.000 C 
BRANCH  26  27
ATOM     27  C   UNL     1       1.046 123.026 113.502  1.00  0.00    -0.000 C 
BRANCH  27  28
ATOM     28  C   UNL     1       1.786 121.825 114.119  1.00  0.00    -0.000 C 
BRANCH  28  29
ATOM     29  C   UNL     1       2.064 121.999 115.619  1.00  0.00    -0.003 C 
ATOM     30  C   UNL     1       3.441 121.458 115.990  1.00  0.00     0.004 C 
ENDBRANCH  28  29
ENDBRANCH  27  28
ENDBRANCH  26  27
ENDBRANCH  25  26
ENDBRANCH  24  25
ENDBRANCH  23  24
ENDBRANCH  22  23
ENDBRANCH  21  22
ENDBRANCH  20  21
ENDBRANCH  19  20
ENDBRANCH  18  19
ENDBRANCH  17  18
ENDBRANCH   1  17
TORSDOF 26
ENDMDL
MODEL 2
REMARK VINA RESULT:    -3.534      2.648      6.389
REMARK INTER + INTRA:         -14.451
REMARK INTER:                  -9.077
REMARK INTRA:                  -5.374
REMARK UNBOUND:                -5.545
REMARK SMILES CCCCCCCCCCCCCCCCCCCCCCCCCCCC(=O)[O-]
REMARK SMILES IDX 15 1 16 2 17 3 18 4 19 5 20 6 21 7 22 8 23 9 24 10 25 11
REMARK SMILES IDX 26 12 27 13 28 14 29 15 30 16 14 17 13 18 12 19 11 20 10 21
REMARK SMILES IDX 9 22 8 23 7 24 6 25 5 26 4 27 3 28 2 29 1 30
REMARK H PARENT
REMARK Flexibility Score: inf
ROOT
ATOM      1  C   UNL     1       2.246 127.362 110.290  1.00  0.00     0.000 C 
ENDROOT
BRANCH   1   2
ATOM      2  C   UNL     1       3.411 126.372 110.442  1.00  0.00     0.000 C 
BRANCH   2   3
ATOM      3  C   UNL     1       2.933 124.918 110.608  1.00  0.00     0.000 C 
BRANCH   3   4
ATOM      4  C   UNL     1       2.755 124.505 112.082  1.00  0.00     0.000 C 
BRANCH   4   5
ATOM      5  C   UNL     1       1.472 125.028 112.764  1.00  0.00     0.000 C 
BRANCH   5   6
ATOM      6  C   UNL     1       1.657 125.533 114.208  1.00  0.00     0.000 C 
BRANCH   6   7
ATOM      7  C   UNL     1       3.123 125.631 114.676  1.00  0.00     0.000 C 
BRANCH   7   8
ATOM      8  C   UNL     1       3.716 127.053 114.654  1.00  0.00     0.000 C 
BRANCH   8   9
ATOM      9  C   UNL     1       4.907 127.253 113.693  1.00  0.00     0.000 C 
BRANCH   9  10
ATOM     10  C   UNL     1       5.867 126.053 113.589  1.00  0.00     0.000 C 
BRANCH  10  11
ATOM     11  C   UNL     1       6.381 125.825 112.160  1.00  0.00     0.000 C 
BRANCH  11  12
ATOM     12  C   UNL     1       7.218 124.539 112.078  1.00  0.00     0.006 C 
BRANCH  12  13
ATOM     13  C   UNL     1       7.161 123.894 110.686  1.00  0.00     0.053 C 
BRANCH  13  14
ATOM     14  C   UNL     1       7.801 124.761 109.644  1.00  0.00     0.041 C 
ATOM     15  O   UNL     1       7.102 125.278 108.731  1.00  0.00    -0.550 OA
ATOM     16  O   UNL     1       9.173 124.985 109.673  1.00  0.00    -0.550 OA
ENDBRANCH  13  14
ENDBRANCH  12  13
ENDBRANCH  11  12
ENDBRANCH  10  11
ENDBRANCH   9  10
ENDBRANCH   8   9
ENDBRANCH   7   8
ENDBRANCH   6   7
ENDBRANCH   5   6
ENDBRANCH   4   5
ENDBRANCH   3   4
ENDBRANCH   2   3
ENDBRANCH   1   2
BRANCH   1  17
ATOM     17  C   UNL     1       2.630 128.806 110.658  1.00  0.00     0.000 C 
BRANCH  17  18
ATOM     18  C   UNL     1       2.121 129.195 112.062  1.00  0.00     0.000 C 
BRANCH  18  19
ATOM     19  C   UNL     1       0.718 128.652 112.385  1.00  0.00     0.000 C 
BRANCH  19  20
ATOM     20  C   UNL     1       0.216 129.080 113.773  1.00  0.00     0.000 C 
BRANCH  20  21
ATOM     21  C   UNL     1       1.335 129.650 114.662  1.00  0.00     0.000 C 
BRANCH  21  22
ATOM     22  C   UNL     1       0.972 130.997 115.323  1.00  0.00    -0.000 C 
BRANCH  22  23
ATOM     23  C   UNL     1       1.715 132.177 114.673  1.00  0.00    -0.000 C 
BRANCH  23  24
ATOM     24  C   UNL     1       2.667 132.899 115.646  1.00  0.00    -0.000 C 
BRANCH  24  25
ATOM     25  C   UNL     1       4.165 132.744 115.319  1.00  0.00    -0.000 C 
BRANCH  25  26
ATOM     26  C   UNL     1       4.450 131.588 114.343  1.00  0.00    -0.000 C 
BRANCH  26  27
ATOM     27  C   UNL     1       5.522 130.614 114.866  1.00  0.00    -0.000 C 
BRANCH  27  28
ATOM     28  C   UNL     1       5.774 130.674 116.384  1.00  0.00    -0.000 C 
BRANCH  28  29
ATOM     29  C   UNL     1       5.233 129.445 117.129  1.00  0.00    -0.003 C 
ATOM     30  C   UNL     1       3.750 129.605 117.452  1.00  0.00     0.004 C 
ENDBRANCH  28  29
ENDBRANCH  27  28
ENDBRANCH  26  27
ENDBRANCH  25  26
ENDBRANCH  24  25
ENDBRANCH  23  24
ENDBRANCH  22  23
ENDBRANCH  21  22
ENDBRANCH  20  21
ENDBRANCH  19  20
ENDBRANCH  18  19
ENDBRANCH  17  18
ENDBRANCH   1  17
TORSDOF 26
ENDMDL
MODEL 3
REMARK VINA RESULT:    -3.498      2.274      5.760
REMARK INTER + INTRA:         -14.361
REMARK INTER:                  -9.759
REMARK INTRA:                  -4.602
REMARK UNBOUND:                -5.545
REMARK SMILES CCCCCCCCCCCCCCCCCCCCCCCCCCCC(=O)[O-]
REMARK SMILES IDX 15 1 16 2 17 3 18 4 19 5 20 6 21 7 22 8 23 9 24 10 25 11
REMARK SMILES IDX 26 12 27 13 28 14 29 15 30 16 14 17 13 18 12 19 11 20 10 21
REMARK SMILES IDX 9 22 8 23 7 24 6 25 5 26 4 27 3 28 2 29 1 30
REMARK H PARENT
REMARK Flexibility Score: inf
ROOT
ATOM      1  C   UNL     1       0.893 129.001 113.520  1.00  0.00     0.000 C 
ENDROOT
BRANCH   1   2
ATOM      2  C   UNL     1       2.255 128.625 114.124  1.00  0.00     0.000 C 
BRANCH   2   3
ATOM      3  C   UNL     1       3.424 128.900 113.162  1.00  0.00     0.000 C 
BRANCH   3   4
ATOM      4  C   UNL     1       4.722 128.172 113.564  1.00  0.00     0.000 C 
BRANCH   4   5
ATOM      5  C   UNL     1       4.616 127.280 114.819  1.00  0.00     0.000 C 
BRANCH   5   6
ATOM      6  C   UNL     1       5.909 127.162 115.650  1.00  0.00     0.000 C 
BRANCH   6   7
ATOM      7  C   UNL     1       5.735 127.426 117.159  1.00  0.00     0.000 C 
BRANCH   7   8
ATOM      8  C   UNL     1       4.356 127.979 117.565  1.00  0.00     0.000 C 
BRANCH   8   9
ATOM      9  C   UNL     1       4.384 129.331 118.309  1.00  0.00     0.000 C 
BRANCH   9  10
ATOM     10  C   UNL     1       5.186 130.442 117.608  1.00  0.00     0.000 C 
BRANCH  10  11
ATOM     11  C   UNL     1       4.712 130.702 116.170  1.00  0.00     0.000 C 
BRANCH  11  12
ATOM     12  C   UNL     1       5.331 131.993 115.613  1.00  0.00     0.006 C 
BRANCH  12  13
ATOM     13  C   UNL     1       6.865 131.965 115.642  1.00  0.00     0.053 C 
BRANCH  13  14
ATOM     14  C   UNL     1       7.420 130.893 114.752  1.00  0.00     0.041 C 
ATOM     15  O   UNL     1       8.269 130.075 115.197  1.00  0.00    -0.550 OA
ATOM     16  O   UNL     1       7.010 130.811 113.427  1.00  0.00    -0.550 OA
ENDBRANCH  13  14
ENDBRANCH  12  13
ENDBRANCH  11  12
ENDBRANCH  10  11
ENDBRANCH   9  10
ENDBRANCH   8   9
ENDBRANCH   7   8
ENDBRANCH   6   7
ENDBRANCH   5   6
ENDBRANCH   4   5
ENDBRANCH   3   4
ENDBRANCH   2   3
ENDBRANCH   1   2
BRANCH   1  17
ATOM     17  C   UNL     1       0.996 129.516 112.074  1.00  0.00     0.000 C 
BRANCH  17  18
ATOM     18  C   UNL     1       0.059 128.744 111.122  1.00  0.00     0.000 C 
BRANCH  18  19
ATOM     19  C   UNL     1       0.801 127.899 110.072  1.00  0.00     0.000 C 
BRANCH  19  20
ATOM     20  C   UNL     1       2.323 128.105 110.103  1.00  0.00     0.000 C 
BRANCH  20  21
ATOM     21  C   UNL     1       3.100 126.785 110.247  1.00  0.00     0.000 C 
BRANCH  21  22
ATOM     22  C   UNL     1       2.317 125.687 110.999  1.00  0.00    -0.000 C 
BRANCH  22  23
ATOM     23  C   UNL     1       3.110 125.132 112.196  1.00  0.00    -0.000 C 
BRANCH  23  24
ATOM     24  C   UNL     1       4.321 124.279 111.772  1.00  0.00    -0.000 C 
BRANCH  24  25
ATOM     25  C   UNL     1       5.509 124.309 112.754  1.00  0.00    -0.000 C 
BRANCH  25  26
ATOM     26  C   UNL     1       6.701 125.127 112.227  1.00  0.00    -0.000 C 
BRANCH  26  27
ATOM     27  C   UNL     1       6.571 125.481 110.735  1.00  0.00    -0.000 C 
BRANCH  27  28
ATOM     28  C   UNL     1       7.316 124.539 109.772  1.00  0.00    -0.000 C 
BRANCH  28  29
ATOM     29  C   UNL     1       7.251 125.004 108.309  1.00  0.00    -0.003 C 
ATOM     30  C   UNL     1       8.586 124.788 107.603  1.00  0.00     0.004 C 
ENDBRANCH  28  29
ENDBRANCH  27  28
ENDBRANCH  26  27
ENDBRANCH  25  26
ENDBRANCH  24  25
ENDBRANCH  23  24
ENDBRANCH  22  23
ENDBRANCH  21  22
ENDBRANCH  20  21
ENDBRANCH  19  20
ENDBRANCH  18  19
ENDBRANCH  17  18
ENDBRANCH   1  17
TORSDOF 26
ENDMDL
MODEL 4
REMARK VINA RESULT:    -3.481      2.899      6.811
REMARK INTER + INTRA:         -14.317
REMARK INTER:                  -8.584
REMARK INTRA:                  -5.733
REMARK UNBOUND:                -5.545
REMARK SMILES CCCCCCCCCCCCCCCCCCCCCCCCCCCC(=O)[O-]
REMARK SMILES IDX 15 1 16 2 17 3 18 4 19 5 20 6 21 7 22 8 23 9 24 10 25 11
REMARK SMILES IDX 26 12 27 13 28 14 29 15 30 16 14 17 13 18 12 19 11 20 10 21
REMARK SMILES IDX 9 22 8 23 7 24 6 25 5 26 4 27 3 28 2 29 1 30
REMARK H PARENT
REMARK Flexibility Score: inf
ROOT
ATOM      1  C   UNL     1       0.158 129.321 111.684  1.00  0.00     0.000 C 
ENDROOT
BRANCH   1   2
ATOM      2  C   UNL     1       0.478 128.152 110.739  1.00  0.00     0.000 C 
BRANCH   2   3
ATOM      3  C   UNL     1       1.784 128.369 109.954  1.00  0.00     0.000 C 
BRANCH   3   4
ATOM      4  C   UNL     1       2.794 127.219 110.135  1.00  0.00     0.000 C 
BRANCH   4   5
ATOM      5  C   UNL     1       2.316 126.054 111.028  1.00  0.00     0.000 C 
BRANCH   5   6
ATOM      6  C   UNL     1       3.275 124.849 111.103  1.00  0.00     0.000 C 
BRANCH   6   7
ATOM      7  C   UNL     1       4.632 125.059 110.401  1.00  0.00     0.000 C 
BRANCH   7   8
ATOM      8  C   UNL     1       5.851 125.083 111.344  1.00  0.00     0.000 C 
BRANCH   8   9
ATOM      9  C   UNL     1       5.838 126.204 112.404  1.00  0.00     0.000 C 
BRANCH   9  10
ATOM     10  C   UNL     1       5.952 125.720 113.862  1.00  0.00     0.000 C 
BRANCH  10  11
ATOM     11  C   UNL     1       4.589 125.380 114.485  1.00  0.00     0.000 C 
BRANCH  11  12
ATOM     12  C   UNL     1       4.576 123.941 115.022  1.00  0.00     0.006 C 
BRANCH  12  13
ATOM     13  C   UNL     1       3.410 123.118 114.457  1.00  0.00     0.053 C 
BRANCH  13  14
ATOM     14  C   UNL     1       3.889 122.003 113.577  1.00  0.00     0.041 C 
ATOM     15  O   UNL     1       4.869 122.181 112.804  1.00  0.00    -0.550 OA
ATOM     16  O   UNL     1       3.243 120.773 113.600  1.00  0.00    -0.550 OA
ENDBRANCH  13  14
ENDBRANCH  12  13
ENDBRANCH  11  12
ENDBRANCH  10  11
ENDBRANCH   9  10
ENDBRANCH   8   9
ENDBRANCH   7   8
ENDBRANCH   6   7
ENDBRANCH   5   6
ENDBRANCH   4   5
ENDBRANCH   3   4
ENDBRANCH   2   3
ENDBRANCH   1   2
BRANCH   1  17
ATOM     17  C   UNL     1       1.381 129.804 112.481  1.00  0.00     0.000 C 
BRANCH  17  18
ATOM     18  C   UNL     1       1.779 128.804 113.586  1.00  0.00     0.000 C 
BRANCH  18  19
ATOM     19  C   UNL     1       3.291 128.530 113.662  1.00  0.00     0.000 C 
BRANCH  19  20
ATOM     20  C   UNL     1       4.113 129.459 112.755  1.00  0.00     0.000 C 
BRANCH  20  21
ATOM     21  C   UNL     1       5.299 130.110 113.488  1.00  0.00     0.000 C 
BRANCH  21  22
ATOM     22  C   UNL     1       5.710 129.368 114.778  1.00  0.00    -0.000 C 
BRANCH  22  23
ATOM     23  C   UNL     1       6.078 130.342 115.911  1.00  0.00    -0.000 C 
BRANCH  23  24
ATOM     24  C   UNL     1       5.452 129.955 117.264  1.00  0.00    -0.000 C 
BRANCH  24  25
ATOM     25  C   UNL     1       4.232 129.017 117.167  1.00  0.00    -0.000 C 
BRANCH  25  26
ATOM     26  C   UNL     1       2.902 129.776 117.020  1.00  0.00    -0.000 C 
BRANCH  26  27
ATOM     27  C   UNL     1       2.914 131.146 117.723  1.00  0.00    -0.000 C 
BRANCH  27  28
ATOM     28  C   UNL     1       2.831 132.364 116.784  1.00  0.00    -0.000 C 
BRANCH  28  29
ATOM     29  C   UNL     1       2.393 131.992 115.360  1.00  0.00    -0.003 C 
ATOM     30  C   UNL     1       3.169 132.792 114.319  1.00  0.00     0.004 C 
ENDBRANCH  28  29
ENDBRANCH  27  28
ENDBRANCH  26  27
ENDBRANCH  25  26
ENDBRANCH  24  25
ENDBRANCH  23  24
ENDBRANCH  22  23
ENDBRANCH  21  22
ENDBRANCH  20  21
ENDBRANCH  19  20
ENDBRANCH  18  19
ENDBRANCH  17  18
ENDBRANCH   1  17
TORSDOF 26
ENDMDL
MODEL 5
REMARK VINA RESULT:    -3.462      1.458      4.226
REMARK INTER + INTRA:         -14.270
REMARK INTER:                  -8.949
REMARK INTRA:                  -5.321
REMARK UNBOUND:                -5.545
REMARK SMILES CCCCCCCCCCCCCCCCCCCCCCCCCCCC(=O)[O-]
REMARK SMILES IDX 15 1 16 2 17 3 18 4 19 5 20 6 21 7 22 8 23 9 24 10 25 11
REMARK SMILES IDX 26 12 27 13 28 14 29 15 30 16 14 17 13 18 12 19 11 20 10 21
REMARK SMILES IDX 9 22 8 23 7 24 6 25 5 26 4 27 3 28 2 29 1 30
REMARK H PARENT
REMARK Flexibility Score: inf
ROOT
ATOM      1  C   UNL     1       1.891 127.881 112.719  1.00  0.00     0.000 C 
ENDROOT
BRANCH   1   2
ATOM      2  C   UNL     1       1.226 127.245 111.488  1.00  0.00     0.000 C 
BRANCH   2   3
ATOM      3  C   UNL     1       2.102 127.341 110.227  1.00  0.00     0.000 C 
BRANCH   3   4
ATOM      4  C   UNL     1       3.276 126.342 110.230  1.00  0.00     0.000 C 
BRANCH   4   5
ATOM      5  C   UNL     1       2.908 124.892 110.609  1.00  0.00     0.000 C 
BRANCH   5   6
ATOM      6  C   UNL     1       3.602 124.350 111.875  1.00  0.00     0.000 C 
BRANCH   6   7
ATOM      7  C   UNL     1       5.099 124.023 111.702  1.00  0.00     0.000 C 
BRANCH   7   8
ATOM      8  C   UNL     1       6.061 125.020 112.376  1.00  0.00     0.000 C 
BRANCH   8   9
ATOM      9  C   UNL     1       5.394 126.037 113.326  1.00  0.00     0.000 C 
BRANCH   9  10
ATOM     10  C   UNL     1       5.613 127.515 112.952  1.00  0.00     0.000 C 
BRANCH  10  11
ATOM     11  C   UNL     1       5.169 128.481 114.061  1.00  0.00     0.000 C 
BRANCH  11  12
ATOM     12  C   UNL     1       4.993 129.904 113.510  1.00  0.00     0.006 C 
BRANCH  12  13
ATOM     13  C   UNL     1       5.842 130.933 114.270  1.00  0.00     0.053 C 
BRANCH  13  14
ATOM     14  C   UNL     1       7.309 130.667 114.117  1.00  0.00     0.041 C 
ATOM     15  O   UNL     1       7.822 130.577 112.969  1.00  0.00    -0.550 OA
ATOM     16  O   UNL     1       8.107 130.503 115.243  1.00  0.00    -0.550 OA
ENDBRANCH  13  14
ENDBRANCH  12  13
ENDBRANCH  11  12
ENDBRANCH  10  11
ENDBRANCH   9  10
ENDBRANCH   8   9
ENDBRANCH   7   8
ENDBRANCH   6   7
ENDBRANCH   5   6
ENDBRANCH   4   5
ENDBRANCH   3   4
ENDBRANCH   2   3
ENDBRANCH   1   2
BRANCH   1  17
ATOM     17  C   UNL     1       0.876 128.440 113.731  1.00  0.00     0.000 C 
BRANCH  17  18
ATOM     18  C   UNL     1       1.461 128.499 115.157  1.00  0.00     0.000 C 
BRANCH  18  19
ATOM     19  C   UNL     1       1.348 127.173 115.930  1.00  0.00     0.000 C 
BRANCH  19  20
ATOM     20  C   UNL     1       2.580 126.272 115.757  1.00  0.00     0.000 C 
BRANCH  20  21
ATOM     21  C   UNL     1       2.219 124.854 115.281  1.00  0.00     0.000 C 
BRANCH  21  22
ATOM     22  C   UNL     1       0.891 124.786 114.496  1.00  0.00    -0.000 C 
BRANCH  22  23
ATOM     23  C   UNL     1       0.300 123.365 114.486  1.00  0.00    -0.000 C 
BRANCH  23  24
ATOM     24  C   UNL     1       1.065 122.402 113.557  1.00  0.00    -0.000 C 
BRANCH  24  25
ATOM     25  C   UNL     1       1.860 121.299 114.283  1.00  0.00    -0.000 C 
BRANCH  25  26
ATOM     26  C   UNL     1       3.371 121.362 113.997  1.00  0.00    -0.000 C 
BRANCH  26  27
ATOM     27  C   UNL     1       4.207 121.654 115.256  1.00  0.00    -0.000 C 
BRANCH  27  28
ATOM     28  C   UNL     1       5.294 122.731 115.084  1.00  0.00    -0.000 C 
BRANCH  28  29
ATOM     29  C   UNL     1       5.341 123.725 116.254  1.00  0.00    -0.003 C 
ATOM     30  C   UNL     1       6.758 123.862 116.804  1.00  0.00     0.004 C 
ENDBRANCH  28  29
ENDBRANCH  27  28
ENDBRANCH  26  27
ENDBRANCH  25  26
ENDBRANCH  24  25
ENDBRANCH  23  24
ENDBRANCH  22  23
ENDBRANCH  21  22
ENDBRANCH  20  21
ENDBRANCH  19  20
ENDBRANCH  18  19
ENDBRANCH  17  18
ENDBRANCH   1  17
TORSDOF 26
ENDMDL
MODEL 6
REMARK VINA RESULT:    -3.445      2.079      6.207
REMARK INTER + INTRA:         -14.225
REMARK INTER:                  -8.590
REMARK INTRA:                  -5.635
REMARK UNBOUND:                -5.545
REMARK SMILES CCCCCCCCCCCCCCCCCCCCCCCCCCCC(=O)[O-]
REMARK SMILES IDX 15 1 16 2 17 3 18 4 19 5 20 6 21 7 22 8 23 9 24 10 25 11
REMARK SMILES IDX 26 12 27 13 28 14 29 15 30 16 14 17 13 18 12 19 11 20 10 21
REMARK SMILES IDX 9 22 8 23 7 24 6 25 5 26 4 27 3 28 2 29 1 30
REMARK H PARENT
REMARK Flexibility Score: inf
ROOT
ATOM      1  C   UNL     1       3.481 126.772 111.618  1.00  0.00     0.000 C 
ENDROOT
BRANCH   1   2
ATOM      2  C   UNL     1       2.874 126.187 112.903  1.00  0.00     0.000 C 
BRANCH   2   3
ATOM      3  C   UNL     1       1.657 125.286 112.625  1.00  0.00     0.000 C 
BRANCH   3   4
ATOM      4  C   UNL     1       0.720 125.146 113.841  1.00  0.00     0.000 C 
BRANCH   4   5
ATOM      5  C   UNL     1       1.172 125.895 115.113  1.00  0.00     0.000 C 
BRANCH   5   6
ATOM      6  C   UNL     1       1.700 124.996 116.249  1.00  0.00     0.000 C 
BRANCH   6   7
ATOM      7  C   UNL     1       2.014 123.545 115.833  1.00  0.00     0.000 C 
BRANCH   7   8
ATOM      8  C   UNL     1       3.494 123.139 115.968  1.00  0.00     0.000 C 
BRANCH   8   9
ATOM      9  C   UNL     1       4.507 124.148 115.388  1.00  0.00     0.000 C 
BRANCH   9  10
ATOM     10  C   UNL     1       5.432 123.584 114.293  1.00  0.00     0.000 C 
BRANCH  10  11
ATOM     11  C   UNL     1       4.659 123.046 113.080  1.00  0.00     0.000 C 
BRANCH  11  12
ATOM     12  C   UNL     1       5.331 123.475 111.767  1.00  0.00     0.006 C 
BRANCH  12  13
ATOM     13  C   UNL     1       6.771 123.962 111.981  1.00  0.00     0.053 C 
BRANCH  13  14
ATOM     14  C   UNL     1       7.046 125.235 111.239  1.00  0.00     0.041 C 
ATOM     15  O   UNL     1       7.003 126.343 111.840  1.00  0.00    -0.550 OA
ATOM     16  O   UNL     1       7.333 125.198 109.879  1.00  0.00    -0.550 OA
ENDBRANCH  13  14
ENDBRANCH  12  13
ENDBRANCH  11  12
ENDBRANCH  10  11
ENDBRANCH   9  10
ENDBRANCH   8   9
ENDBRANCH   7   8
ENDBRANCH   6   7
ENDBRANCH   5   6
ENDBRANCH   4   5
ENDBRANCH   3   4
ENDBRANCH   2   3
ENDBRANCH   1   2
BRANCH   1  17
ATOM     17  C   UNL     1       2.508 126.746 110.426  1.00  0.00     0.000 C 
BRANCH  17  18
ATOM     18  C   UNL     1       1.882 128.132 110.167  1.00  0.00     0.000 C 
BRANCH  18  19
ATOM     19  C   UNL     1       0.528 128.342 110.867  1.00  0.00     0.000 C 
BRANCH  19  20
ATOM     20  C   UNL     1       0.522 129.557 111.807  1.00  0.00     0.000 C 
BRANCH  20  21
ATOM     21  C   UNL     1       0.545 129.160 113.294  1.00  0.00     0.000 C 
BRANCH  21  22
ATOM     22  C   UNL     1       1.923 129.354 113.962  1.00  0.00    -0.000 C 
BRANCH  22  23
ATOM     23  C   UNL     1       2.266 130.842 114.153  1.00  0.00    -0.000 C 
BRANCH  23  24
ATOM     24  C   UNL     1       3.721 131.177 113.774  1.00  0.00    -0.000 C 
BRANCH  24  25
ATOM     25  C   UNL     1       4.507 130.014 113.136  1.00  0.00    -0.000 C 
BRANCH  25  26
ATOM     26  C   UNL     1       5.670 129.523 114.017  1.00  0.00    -0.000 C 
BRANCH  26  27
ATOM     27  C   UNL     1       5.418 128.126 114.615  1.00  0.00    -0.000 C 
BRANCH  27  28
ATOM     28  C   UNL     1       5.370 128.072 116.153  1.00  0.00    -0.000 C 
BRANCH  28  29
ATOM     29  C   UNL     1       4.543 129.212 116.766  1.00  0.00    -0.003 C 
ATOM     30  C   UNL     1       5.328 129.941 117.852  1.00  0.00     0.004 C 
ENDBRANCH  28  29
ENDBRANCH  27  28
ENDBRANCH  26  27
ENDBRANCH  25  26
ENDBRANCH  24  25
ENDBRANCH  23  24
ENDBRANCH  22  23
ENDBRANCH  21  22
ENDBRANCH  20  21
ENDBRANCH  19  20
ENDBRANCH  18  19
ENDBRANCH  17  18
ENDBRANCH   1  17
TORSDOF 26
ENDMDL
MODEL 7
REMARK VINA RESULT:    -3.435      1.649      4.962
REMARK INTER + INTRA:         -14.200
REMARK INTER:                  -8.808
REMARK INTRA:                  -5.392
REMARK UNBOUND:                -5.545
REMARK SMILES CCCCCCCCCCCCCCCCCCCCCCCCCCCC(=O)[O-]
REMARK SMILES IDX 15 1 16 2 17 3 18 4 19 5 20 6 21 7 22 8 23 9 24 10 25 11
REMARK SMILES IDX 26 12 27 13 28 14 29 15 30 16 14 17 13 18 12 19 11 20 10 21
REMARK SMILES IDX 9 22 8 23 7 24 6 25 5 26 4 27 3 28 2 29 1 30
REMARK H PARENT
REMARK Flexibility Score: inf
ROOT
ATOM      1  C   UNL     1       4.852 125.275 110.681  1.00  0.00     0.000 C 
ENDROOT
BRANCH   1   2
ATOM      2  C   UNL     1       5.687 124.404 111.632  1.00  0.00     0.000 C 
BRANCH   2   3
ATOM      3  C   UNL     1       5.097 122.995 111.816  1.00  0.00     0.000 C 
BRANCH   3   4
ATOM      4  C   UNL     1       4.745 122.674 113.282  1.00  0.00     0.000 C 
BRANCH   4   5
ATOM      5  C   UNL     1       3.239 122.707 113.622  1.00  0.00     0.000 C 
BRANCH   5   6
ATOM      6  C   UNL     1       2.853 123.632 114.793  1.00  0.00     0.000 C 
BRANCH   6   7
ATOM      7  C   UNL     1       2.086 124.906 114.386  1.00  0.00     0.000 C 
BRANCH   7   8
ATOM      8  C   UNL     1       2.853 126.224 114.611  1.00  0.00     0.000 C 
BRANCH   8   9
ATOM      9  C   UNL     1       4.391 126.107 114.549  1.00  0.00     0.000 C 
BRANCH   9  10
ATOM     10  C   UNL     1       5.106 127.288 113.868  1.00  0.00     0.000 C 
BRANCH  10  11
ATOM     11  C   UNL     1       4.134 128.382 113.400  1.00  0.00     0.000 C 
BRANCH  11  12
ATOM     12  C   UNL     1       4.340 129.677 114.200  1.00  0.00     0.006 C 
BRANCH  12  13
ATOM     13  C   UNL     1       5.539 130.491 113.692  1.00  0.00     0.053 C 
BRANCH  13  14
ATOM     14  C   UNL     1       6.568 130.695 114.763  1.00  0.00     0.041 C 
ATOM     15  O   UNL     1       6.225 131.107 115.904  1.00  0.00    -0.550 OA
ATOM     16  O   UNL     1       7.908 130.444 114.495  1.00  0.00    -0.550 OA
ENDBRANCH  13  14
ENDBRANCH  12  13
ENDBRANCH  11  12
ENDBRANCH  10  11
ENDBRANCH   9  10
ENDBRANCH   8   9
ENDBRANCH   7   8
ENDBRANCH   6   7
ENDBRANCH   5   6
ENDBRANCH   4   5
ENDBRANCH   3   4
ENDBRANCH   2   3
ENDBRANCH   1   2
BRANCH   1  17
ATOM     17  C   UNL     1       3.378 124.840 110.604  1.00  0.00     0.000 C 
BRANCH  17  18
ATOM     18  C   UNL     1       2.420 125.989 110.983  1.00  0.00     0.000 C 
BRANCH  18  19
ATOM     19  C   UNL     1       2.616 127.262 110.142  1.00  0.00     0.000 C 
BRANCH  19  20
ATOM     20  C   UNL     1       1.336 128.105 110.024  1.00  0.00     0.000 C 
BRANCH  20  21
ATOM     21  C   UNL     1       0.583 128.235 111.360  1.00  0.00     0.000 C 
BRANCH  21  22
ATOM     22  C   UNL     1       0.760 129.611 112.037  1.00  0.00    -0.000 C 
BRANCH  22  23
ATOM     23  C   UNL     1      -0.078 129.733 113.321  1.00  0.00    -0.000 C 
BRANCH  23  24
ATOM     24  C   UNL     1       0.455 128.861 114.473  1.00  0.00    -0.000 C 
BRANCH  24  25
ATOM     25  C   UNL     1       0.229 129.442 115.883  1.00  0.00    -0.000 C 
BRANCH  25  26
ATOM     26  C   UNL     1       1.411 130.294 116.377  1.00  0.00    -0.000 C 
BRANCH  26  27
ATOM     27  C   UNL     1       2.044 129.747 117.670  1.00  0.00    -0.000 C 
BRANCH  27  28
ATOM     28  C   UNL     1       3.059 128.607 117.469  1.00  0.00    -0.000 C 
BRANCH  28  29
ATOM     29  C   UNL     1       4.461 128.956 117.989  1.00  0.00    -0.003 C 
ATOM     30  C   UNL     1       5.486 127.914 117.551  1.00  0.00     0.004 C 
ENDBRANCH  28  29
ENDBRANCH  27  28
ENDBRANCH  26  27
ENDBRANCH  25  26
ENDBRANCH  24  25
ENDBRANCH  23  24
ENDBRANCH  22  23
ENDBRANCH  21  22
ENDBRANCH  20  21
ENDBRANCH  19  20
ENDBRANCH  18  19
ENDBRANCH  17  18
ENDBRANCH   1  17
TORSDOF 26
ENDMDL
MODEL 8
REMARK VINA RESULT:    -3.430      1.392      3.118
REMARK INTER + INTRA:         -14.188
REMARK INTER:                  -8.962
REMARK INTRA:                  -5.226
REMARK UNBOUND:                -5.545
REMARK SMILES CCCCCCCCCCCCCCCCCCCCCCCCCCCC(=O)[O-]
REMARK SMILES IDX 15 1 16 2 17 3 18 4 19 5 20 6 21 7 22 8 23 9 24 10 25 11
REMARK SMILES IDX 26 12 27 13 28 14 29 15 30 16 14 17 13 18 12 19 11 20 10 21
REMARK SMILES IDX 9 22 8 23 7 24 6 25 5 26 4 27 3 28 2 29 1 30
REMARK H PARENT
REMARK Flexibility Score: inf
ROOT
ATOM      1  C   UNL     1       2.029 127.584 110.228  1.00  0.00     0.000 C 
ENDROOT
BRANCH   1   2
ATOM      2  C   UNL     1       2.639 128.930 110.649  1.00  0.00     0.000 C 
BRANCH   2   3
ATOM      3  C   UNL     1       3.169 128.912 112.094  1.00  0.00     0.000 C 
BRANCH   3   4
ATOM      4  C   UNL     1       2.554 130.014 112.978  1.00  0.00     0.000 C 
BRANCH   4   5
ATOM      5  C   UNL     1       1.021 130.168 112.870  1.00  0.00     0.000 C 
BRANCH   5   6
ATOM      6  C   UNL     1       0.202 129.134 113.668  1.00  0.00     0.000 C 
BRANCH   6   7
ATOM      7  C   UNL     1       0.830 128.709 115.011  1.00  0.00     0.000 C 
BRANCH   7   8
ATOM      8  C   UNL     1       1.350 127.259 115.052  1.00  0.00     0.000 C 
BRANCH   8   9
ATOM      9  C   UNL     1       2.555 127.021 115.986  1.00  0.00     0.000 C 
BRANCH   9  10
ATOM     10  C   UNL     1       3.861 127.713 115.552  1.00  0.00     0.000 C 
BRANCH  10  11
ATOM     11  C   UNL     1       4.186 128.953 116.399  1.00  0.00     0.000 C 
BRANCH  11  12
ATOM     12  C   UNL     1       5.013 129.966 115.592  1.00  0.00     0.006 C 
BRANCH  12  13
ATOM     13  C   UNL     1       6.480 129.539 115.449  1.00  0.00     0.053 C 
BRANCH  13  14
ATOM     14  C   UNL     1       7.364 130.695 115.085  1.00  0.00     0.041 C 
ATOM     15  O   UNL     1       7.595 131.606 115.924  1.00  0.00    -0.550 OA
ATOM     16  O   UNL     1       7.918 130.771 113.813  1.00  0.00    -0.550 OA
ENDBRANCH  13  14
ENDBRANCH  12  13
ENDBRANCH  11  12
ENDBRANCH  10  11
ENDBRANCH   9  10
ENDBRANCH   8   9
ENDBRANCH   7   8
ENDBRANCH   6   7
ENDBRANCH   5   6
ENDBRANCH   4   5
ENDBRANCH   3   4
ENDBRANCH   2   3
ENDBRANCH   1   2
BRANCH   1  17
ATOM     17  C   UNL     1       1.558 126.735 111.422  1.00  0.00     0.000 C 
BRANCH  17  18
ATOM     18  C   UNL     1       2.234 125.349 111.443  1.00  0.00     0.000 C 
BRANCH  18  19
ATOM     19  C   UNL     1       3.458 125.241 110.517  1.00  0.00     0.000 C 
BRANCH  19  20
ATOM     20  C   UNL     1       4.778 125.075 111.286  1.00  0.00     0.000 C 
BRANCH  20  21
ATOM     21  C   UNL     1       4.671 125.521 112.755  1.00  0.00     0.000 C 
BRANCH  21  22
ATOM     22  C   UNL     1       5.101 124.433 113.763  1.00  0.00    -0.000 C 
BRANCH  22  23
ATOM     23  C   UNL     1       4.500 123.059 113.418  1.00  0.00    -0.000 C 
BRANCH  23  24
ATOM     24  C   UNL     1       3.454 122.585 114.445  1.00  0.00    -0.000 C 
BRANCH  24  25
ATOM     25  C   UNL     1       2.364 121.655 113.875  1.00  0.00    -0.000 C 
BRANCH  25  26
ATOM     26  C   UNL     1       1.017 122.369 113.666  1.00  0.00    -0.000 C 
BRANCH  26  27
ATOM     27  C   UNL     1       0.925 123.708 114.422  1.00  0.00    -0.000 C 
BRANCH  27  28
ATOM     28  C   UNL     1      -0.398 123.946 115.171  1.00  0.00    -0.000 C 
BRANCH  28  29
ATOM     29  C   UNL     1      -0.194 124.264 116.660  1.00  0.00    -0.003 C 
ATOM     30  C   UNL     1       1.122 123.687 117.171  1.00  0.00     0.004 C 
ENDBRANCH  28  29
ENDBRANCH  27  28
ENDBRANCH  26  27
ENDBRANCH  25  26
ENDBRANCH  24  25
ENDBRANCH  23  24
ENDBRANCH  22  23
ENDBRANCH  21  22
ENDBRANCH  20  21
ENDBRANCH  19  20
ENDBRANCH  18  19
ENDBRANCH  17  18
ENDBRANCH   1  17
TORSDOF 26
ENDMDL
MODEL 9
REMARK VINA RESULT:    -3.391      2.305      6.128
REMARK INTER + INTRA:         -14.090
REMARK INTER:                  -8.288
REMARK INTRA:                  -5.801
REMARK UNBOUND:                -5.545
REMARK SMILES CCCCCCCCCCCCCCCCCCCCCCCCCCCC(=O)[O-]
REMARK SMILES IDX 15 1 16 2 17 3 18 4 19 5 20 6 21 7 22 8 23 9 24 10 25 11
REMARK SMILES IDX 26 12 27 13 28 14 29 15 30 16 14 17 13 18 12 19 11 20 10 21
REMARK SMILES IDX 9 22 8 23 7 24 6 25 5 26 4 27 3 28 2 29 1 30
REMARK H PARENT
REMARK Flexibility Score: inf
ROOT
ATOM      1  C   UNL     1       5.601 124.981 114.726  1.00  0.00     0.000 C 
ENDROOT
BRANCH   1   2
ATOM      2  C   UNL     1       5.223 123.537 114.361  1.00  0.00     0.000 C 
BRANCH   2   3
ATOM      3  C   UNL     1       3.867 123.114 114.953  1.00  0.00     0.000 C 
BRANCH   3   4
ATOM      4  C   UNL     1       3.163 122.019 114.128  1.00  0.00     0.000 C 
BRANCH   4   5
ATOM      5  C   UNL     1       1.632 122.173 113.998  1.00  0.00     0.000 C 
BRANCH   5   6
ATOM      6  C   UNL     1       1.015 123.310 114.836  1.00  0.00     0.000 C 
BRANCH   6   7
ATOM      7  C   UNL     1       0.390 124.455 114.013  1.00  0.00     0.000 C 
BRANCH   7   8
ATOM      8  C   UNL     1       1.338 125.635 113.722  1.00  0.00     0.000 C 
BRANCH   8   9
ATOM      9  C   UNL     1       1.706 125.829 112.236  1.00  0.00     0.000 C 
BRANCH   9  10
ATOM     10  C   UNL     1       2.762 124.849 111.694  1.00  0.00     0.000 C 
BRANCH  10  11
ATOM     11  C   UNL     1       3.964 125.561 111.056  1.00  0.00     0.000 C 
BRANCH  11  12
ATOM     12  C   UNL     1       5.178 124.623 110.975  1.00  0.00     0.006 C 
BRANCH  12  13
ATOM     13  C   UNL     1       6.497 125.350 111.269  1.00  0.00     0.053 C 
BRANCH  13  14
ATOM     14  C   UNL     1       7.658 124.403 111.314  1.00  0.00     0.041 C 
ATOM     15  O   UNL     1       7.493 123.213 111.698  1.00  0.00    -0.550 OA
ATOM     16  O   UNL     1       8.925 124.839 110.946  1.00  0.00    -0.550 OA
ENDBRANCH  13  14
ENDBRANCH  12  13
ENDBRANCH  11  12
ENDBRANCH  10  11
ENDBRANCH   9  10
ENDBRANCH   8   9
ENDBRANCH   7   8
ENDBRANCH   6   7
ENDBRANCH   5   6
ENDBRANCH   4   5
ENDBRANCH   3   4
ENDBRANCH   2   3
ENDBRANCH   1   2
BRANCH   1  17
ATOM     17  C   UNL     1       4.559 125.668 115.626  1.00  0.00     0.000 C 
BRANCH  17  18
ATOM     18  C   UNL     1       4.154 127.053 115.081  1.00  0.00     0.000 C 
BRANCH  18  19
ATOM     19  C   UNL     1       5.088 127.584 113.980  1.00  0.00     0.000 C 
BRANCH  19  20
ATOM     20  C   UNL     1       4.414 128.625 113.073  1.00  0.00     0.000 C 
BRANCH  20  21
ATOM     21  C   UNL     1       4.953 130.048 113.295  1.00  0.00     0.000 C 
BRANCH  21  22
ATOM     22  C   UNL     1       6.303 130.087 114.044  1.00  0.00    -0.000 C 
BRANCH  22  23
ATOM     23  C   UNL     1       6.371 131.251 115.048  1.00  0.00    -0.000 C 
BRANCH  23  24
ATOM     24  C   UNL     1       5.177 131.279 116.020  1.00  0.00    -0.000 C 
BRANCH  24  25
ATOM     25  C   UNL     1       5.241 130.237 117.154  1.00  0.00    -0.000 C 
BRANCH  25  26
ATOM     26  C   UNL     1       3.861 129.658 117.516  1.00  0.00    -0.000 C 
BRANCH  26  27
ATOM     27  C   UNL     1       2.703 130.393 116.817  1.00  0.00    -0.000 C 
BRANCH  27  28
ATOM     28  C   UNL     1       1.766 129.497 115.988  1.00  0.00    -0.000 C 
BRANCH  28  29
ATOM     29  C   UNL     1       1.470 130.068 114.593  1.00  0.00    -0.003 C 
ATOM     30  C   UNL     1       0.372 129.273 113.894  1.00  0.00     0.004 C 
ENDBRANCH  28  29
ENDBRANCH  27  28
ENDBRANCH  26  27
ENDBRANCH  25  26
ENDBRANCH  24  25
ENDBRANCH  23  24
ENDBRANCH  22  23
ENDBRANCH  21  22
ENDBRANCH  20  21
ENDBRANCH  19  20
ENDBRANCH  18  19
ENDBRANCH  17  18
ENDBRANCH   1  17
TORSDOF 26
ENDMDL
