MODEL 1
REMARK VINA RESULT:    -2.013      0.000      0.000
REMARK INTER + INTRA:          -6.316
REMARK INTER:                  -4.366
REMARK INTRA:                  -1.950
REMARK UNBOUND:                -1.950
REMARK SMILES CCCCCCCCCCCCCCCCCCCCCC(=O)[O-]
REMARK SMILES IDX 12 1 11 2 10 3 9 4 8 5 7 6 6 7 5 8 4 9 3 10 2 11 1 12 13 13
REMARK SMILES IDX 14 14 15 15 16 16 17 17 18 18 19 19 20 20 21 21 22 22 23 23
REMARK SMILES IDX 24 24
REMARK H PARENT
REMARK Flexibility Score: inf
ROOT
ATOM      1  C   UNL     1       5.291  -8.535   6.009  1.00  0.00     0.000 C 
ENDROOT
BRANCH   1   2
ATOM      2  C   UNL     1       5.812  -9.841   6.625  1.00  0.00     0.000 C 
BRANCH   2   3
ATOM      3  C   UNL     1       5.255 -10.094   8.035  1.00  0.00     0.000 C 
BRANCH   3   4
ATOM      4  C   UNL     1       3.720 -10.120   8.070  1.00  0.00    -0.000 C 
BRANCH   4   5
ATOM      5  C   UNL     1       3.157  -8.774   8.551  1.00  0.00    -0.000 C 
BRANCH   5   6
ATOM      6  C   UNL     1       3.818  -8.272   9.849  1.00  0.00    -0.000 C 
BRANCH   6   7
ATOM      7  C   UNL     1       4.637  -6.975   9.710  1.00  0.00    -0.000 C 
BRANCH   7   8
ATOM      8  C   UNL     1       3.765  -5.741   9.422  1.00  0.00    -0.000 C 
BRANCH   8   9
ATOM      9  C   UNL     1       3.368  -5.621   7.939  1.00  0.00    -0.000 C 
BRANCH   9  10
ATOM     10  C   UNL     1       2.002  -4.960   7.677  1.00  0.00    -0.000 C 
BRANCH  10  11
ATOM     11  C   UNL     1       0.848  -5.972   7.623  1.00  0.00    -0.003 C 
ATOM     12  C   UNL     1      -0.454  -5.295   7.198  1.00  0.00     0.004 C 
ENDBRANCH  10  11
ENDBRANCH   9  10
ENDBRANCH   8   9
ENDBRANCH   7   8
ENDBRANCH   6   7
ENDBRANCH   5   6
ENDBRANCH   4   5
ENDBRANCH   3   4
ENDBRANCH   2   3
ENDBRANCH   1   2
BRANCH   1  13
ATOM     13  C   UNL     1       6.446  -7.577   5.689  1.00  0.00     0.000 C 
BRANCH  13  14
ATOM     14  C   UNL     1       7.081  -6.962   6.950  1.00  0.00     0.000 C 
BRANCH  14  15
ATOM     15  C   UNL     1       6.802  -5.452   7.107  1.00  0.00     0.000 C 
BRANCH  15  16
ATOM     16  C   UNL     1       7.392  -4.885   8.410  1.00  0.00     0.000 C 
BRANCH  16  17
ATOM     17  C   UNL     1       8.927  -4.804   8.378  1.00  0.00     0.000 C 
BRANCH  17  18
ATOM     18  C   UNL     1       9.482  -3.737   9.337  1.00  0.00     0.000 C 
BRANCH  18  19
ATOM     19  C   UNL     1       8.397  -2.772   9.837  1.00  0.00     0.000 C 
BRANCH  19  20
ATOM     20  C   UNL     1       8.410  -1.432   9.081  1.00  0.00     0.006 C 
BRANCH  20  21
ATOM     21  C   UNL     1       8.985  -0.292   9.933  1.00  0.00     0.053 C 
BRANCH  21  22
ATOM     22  C   UNL     1       8.137   0.940   9.859  1.00  0.00     0.041 C 
ATOM     23  O   UNL     1       8.675   2.078   9.786  1.00  0.00    -0.550 OA
ATOM     24  O   UNL     1       6.751   0.836   9.898  1.00  0.00    -0.550 OA
ENDBRANCH  21  22
ENDBRANCH  20  21
ENDBRANCH  19  20
ENDBRANCH  18  19
ENDBRANCH  17  18
ENDBRANCH  16  17
ENDBRANCH  15  16
ENDBRANCH  14  15
ENDBRANCH  13  14
ENDBRANCH   1  13
TORSDOF 20
ENDMDL
MODEL 2
REMARK VINA RESULT:    -1.733     14.309     17.587
REMARK INTER + INTRA:          -5.709
REMARK INTER:                  -4.041
REMARK INTRA:                  -1.668
REMARK UNBOUND:                -1.950
REMARK SMILES CCCCCCCCCCCCCCCCCCCCCC(=O)[O-]
REMARK SMILES IDX 12 1 11 2 10 3 9 4 8 5 7 6 6 7 5 8 4 9 3 10 2 11 1 12 13 13
REMARK SMILES IDX 14 14 15 15 16 16 17 17 18 18 19 19 20 20 21 21 22 22 23 23
REMARK SMILES IDX 24 24
REMARK H PARENT
REMARK Flexibility Score: inf
ROOT
ATOM      1  C   UNL     1      -3.249   9.969   6.223  1.00  0.00     0.000 C 
ENDROOT
BRANCH   1   2
ATOM      2  C   UNL     1      -2.770  10.030   7.681  1.00  0.00     0.000 C 
BRANCH   2   3
ATOM      3  C   UNL     1      -1.244   9.904   7.808  1.00  0.00     0.000 C 
BRANCH   3   4
ATOM      4  C   UNL     1      -0.820   8.936   8.922  1.00  0.00    -0.000 C 
BRANCH   4   5
ATOM      5  C   UNL     1      -0.066   9.677  10.037  1.00  0.00    -0.000 C 
BRANCH   5   6
ATOM      6  C   UNL     1       1.347  10.125   9.618  1.00  0.00    -0.000 C 
BRANCH   6   7
ATOM      7  C   UNL     1       2.355   8.985   9.379  1.00  0.00    -0.000 C 
BRANCH   7   8
ATOM      8  C   UNL     1       2.785   8.861   7.907  1.00  0.00    -0.000 C 
BRANCH   8   9
ATOM      9  C   UNL     1       3.793   7.721   7.672  1.00  0.00    -0.000 C 
BRANCH   9  10
ATOM     10  C   UNL     1       5.130   8.149   7.038  1.00  0.00    -0.000 C 
BRANCH  10  11
ATOM     11  C   UNL     1       5.945   9.089   7.938  1.00  0.00    -0.003 C 
ATOM     12  C   UNL     1       6.388   8.379   9.215  1.00  0.00     0.004 C 
ENDBRANCH  10  11
ENDBRANCH   9  10
ENDBRANCH   8   9
ENDBRANCH   7   8
ENDBRANCH   6   7
ENDBRANCH   5   6
ENDBRANCH   4   5
ENDBRANCH   3   4
ENDBRANCH   2   3
ENDBRANCH   1   2
BRANCH   1  13
ATOM     13  C   UNL     1      -2.482   8.896   5.437  1.00  0.00     0.000 C 
BRANCH  13  14
ATOM     14  C   UNL     1      -3.376   7.724   4.995  1.00  0.00     0.000 C 
BRANCH  14  15
ATOM     15  C   UNL     1      -2.911   6.355   5.535  1.00  0.00     0.000 C 
BRANCH  15  16
ATOM     16  C   UNL     1      -2.943   6.296   7.072  1.00  0.00     0.000 C 
BRANCH  16  17
ATOM     17  C   UNL     1      -4.305   6.712   7.651  1.00  0.00     0.000 C 
BRANCH  17  18
ATOM     18  C   UNL     1      -4.252   6.953   9.170  1.00  0.00     0.000 C 
BRANCH  18  19
ATOM     19  C   UNL     1      -5.520   7.637   9.702  1.00  0.00     0.000 C 
BRANCH  19  20
ATOM     20  C   UNL     1      -5.486   9.164   9.513  1.00  0.00     0.006 C 
BRANCH  20  21
ATOM     21  C   UNL     1      -6.769   9.839  10.018  1.00  0.00     0.053 C 
BRANCH  21  22
ATOM     22  C   UNL     1      -7.997   9.127   9.538  1.00  0.00     0.041 C 
ATOM     23  O   UNL     1      -8.811   9.711   8.773  1.00  0.00    -0.550 OA
ATOM     24  O   UNL     1      -8.258   7.828   9.958  1.00  0.00    -0.550 OA
ENDBRANCH  21  22
ENDBRANCH  20  21
ENDBRANCH  19  20
ENDBRANCH  18  19
ENDBRANCH  17  18
ENDBRANCH  16  17
ENDBRANCH  15  16
ENDBRANCH  14  15
ENDBRANCH  13  14
ENDBRANCH   1  13
TORSDOF 20
ENDMDL
MODEL 3
REMARK VINA RESULT:    -1.670      2.718      6.885
REMARK INTER + INTRA:          -5.572
REMARK INTER:                  -4.335
REMARK INTRA:                  -1.237
REMARK UNBOUND:                -1.950
REMARK SMILES CCCCCCCCCCCCCCCCCCCCCC(=O)[O-]
REMARK SMILES IDX 12 1 11 2 10 3 9 4 8 5 7 6 6 7 5 8 4 9 3 10 2 11 1 12 13 13
REMARK SMILES IDX 14 14 15 15 16 16 17 17 18 18 19 19 20 20 21 21 22 22 23 23
REMARK SMILES IDX 24 24
REMARK H PARENT
REMARK Flexibility Score: inf
ROOT
ATOM      1  C   UNL     1       7.121  -7.087   5.662  1.00  0.00     0.000 C 
ENDROOT
BRANCH   1   2
ATOM      2  C   UNL     1       6.413  -5.992   6.473  1.00  0.00     0.000 C 
BRANCH   2   3
ATOM      3  C   UNL     1       5.995  -6.469   7.872  1.00  0.00     0.000 C 
BRANCH   3   4
ATOM      4  C   UNL     1       6.485  -5.534   8.988  1.00  0.00    -0.000 C 
BRANCH   4   5
ATOM      5  C   UNL     1       7.406  -6.281   9.966  1.00  0.00    -0.000 C 
BRANCH   5   6
ATOM      6  C   UNL     1       8.791  -5.623  10.114  1.00  0.00    -0.000 C 
BRANCH   6   7
ATOM      7  C   UNL     1       9.031  -4.387   9.227  1.00  0.00    -0.000 C 
BRANCH   7   8
ATOM      8  C   UNL     1       9.135  -3.080  10.033  1.00  0.00    -0.000 C 
BRANCH   8   9
ATOM      9  C   UNL     1       8.620  -1.855   9.255  1.00  0.00    -0.000 C 
BRANCH   9  10
ATOM     10  C   UNL     1       8.242  -0.640  10.122  1.00  0.00    -0.000 C 
BRANCH  10  11
ATOM     11  C   UNL     1       7.456   0.427   9.347  1.00  0.00    -0.003 C 
ATOM     12  C   UNL     1       7.648   1.809   9.969  1.00  0.00     0.004 C 
ENDBRANCH  10  11
ENDBRANCH   9  10
ENDBRANCH   8   9
ENDBRANCH   7   8
ENDBRANCH   6   7
ENDBRANCH   5   6
ENDBRANCH   4   5
ENDBRANCH   3   4
ENDBRANCH   2   3
ENDBRANCH   1   2
BRANCH   1  13
ATOM     13  C   UNL     1       6.127  -8.166   5.211  1.00  0.00     0.000 C 
BRANCH  13  14
ATOM     14  C   UNL     1       6.136  -9.408   6.121  1.00  0.00     0.000 C 
BRANCH  14  15
ATOM     15  C   UNL     1       4.750 -10.070   6.276  1.00  0.00     0.000 C 
BRANCH  15  16
ATOM     16  C   UNL     1       4.293 -10.124   7.744  1.00  0.00     0.000 C 
BRANCH  16  17
ATOM     17  C   UNL     1       4.840  -8.953   8.576  1.00  0.00     0.000 C 
BRANCH  17  18
ATOM     18  C   UNL     1       4.065  -8.750   9.890  1.00  0.00     0.000 C 
BRANCH  18  19
ATOM     19  C   UNL     1       2.765  -7.956   9.690  1.00  0.00     0.000 C 
BRANCH  19  20
ATOM     20  C   UNL     1       2.758  -7.164   8.371  1.00  0.00     0.006 C 
BRANCH  20  21
ATOM     21  C   UNL     1       1.449  -6.388   8.169  1.00  0.00     0.053 C 
BRANCH  21  22
ATOM     22  C   UNL     1       1.663  -5.133   7.379  1.00  0.00     0.041 C 
ATOM     23  O   UNL     1       0.705  -4.339   7.178  1.00  0.00    -0.550 OA
ATOM     24  O   UNL     1       2.914  -4.854   6.840  1.00  0.00    -0.550 OA
ENDBRANCH  21  22
ENDBRANCH  20  21
ENDBRANCH  19  20
ENDBRANCH  18  19
ENDBRANCH  17  18
ENDBRANCH  16  17
ENDBRANCH  15  16
ENDBRANCH  14  15
ENDBRANCH  13  14
ENDBRANCH   1  13
TORSDOF 20
ENDMDL
MODEL 4
REMARK VINA RESULT:    -1.057     13.903     17.008
REMARK INTER + INTRA:          -4.244
REMARK INTER:                  -3.769
REMARK INTRA:                  -0.475
REMARK UNBOUND:                -1.950
REMARK SMILES CCCCCCCCCCCCCCCCCCCCCC(=O)[O-]
REMARK SMILES IDX 12 1 11 2 10 3 9 4 8 5 7 6 6 7 5 8 4 9 3 10 2 11 1 12 13 13
REMARK SMILES IDX 14 14 15 15 16 16 17 17 18 18 19 19 20 20 21 21 22 22 23 23
REMARK SMILES IDX 24 24
REMARK H PARENT
REMARK Flexibility Score: inf
ROOT
ATOM      1  C   UNL     1      -3.348  10.034   5.421  1.00  0.00     0.000 C 
ENDROOT
BRANCH   1   2
ATOM      2  C   UNL     1      -2.690   9.089   6.437  1.00  0.00     0.000 C 
BRANCH   2   3
ATOM      3  C   UNL     1      -1.823   9.835   7.463  1.00  0.00     0.000 C 
BRANCH   3   4
ATOM      4  C   UNL     1      -0.618   9.008   7.934  1.00  0.00    -0.000 C 
BRANCH   4   5
ATOM      5  C   UNL     1      -0.404   9.161   9.448  1.00  0.00    -0.000 C 
BRANCH   5   6
ATOM      6  C   UNL     1       0.749  10.120   9.802  1.00  0.00    -0.000 C 
BRANCH   6   7
ATOM      7  C   UNL     1       1.931  10.119   8.815  1.00  0.00    -0.000 C 
BRANCH   7   8
ATOM      8  C   UNL     1       2.676   8.774   8.770  1.00  0.00    -0.000 C 
BRANCH   8   9
ATOM      9  C   UNL     1       3.885   8.727   9.723  1.00  0.00    -0.000 C 
BRANCH   9  10
ATOM     10  C   UNL     1       5.188   8.188   9.102  1.00  0.00    -0.000 C 
BRANCH  10  11
ATOM     11  C   UNL     1       5.439   8.719   7.683  1.00  0.00    -0.003 C 
ATOM     12  C   UNL     1       5.231   7.620   6.643  1.00  0.00     0.004 C 
ENDBRANCH  10  11
ENDBRANCH   9  10
ENDBRANCH   8   9
ENDBRANCH   7   8
ENDBRANCH   6   7
ENDBRANCH   5   6
ENDBRANCH   4   5
ENDBRANCH   3   4
ENDBRANCH   2   3
ENDBRANCH   1   2
BRANCH   1  13
ATOM     13  C   UNL     1      -3.150   9.524   3.987  1.00  0.00     0.000 C 
BRANCH  13  14
ATOM     14  C   UNL     1      -3.428   8.016   3.843  1.00  0.00     0.000 C 
BRANCH  14  15
ATOM     15  C   UNL     1      -2.196   7.132   4.130  1.00  0.00     0.000 C 
BRANCH  15  16
ATOM     16  C   UNL     1      -2.237   6.519   5.540  1.00  0.00     0.000 C 
BRANCH  16  17
ATOM     17  C   UNL     1      -3.401   5.531   5.721  1.00  0.00     0.000 C 
BRANCH  17  18
ATOM     18  C   UNL     1      -3.905   5.471   7.174  1.00  0.00     0.000 C 
BRANCH  18  19
ATOM     19  C   UNL     1      -3.307   6.582   8.051  1.00  0.00     0.000 C 
BRANCH  19  20
ATOM     20  C   UNL     1      -4.163   6.869   9.298  1.00  0.00     0.006 C 
BRANCH  20  21
ATOM     21  C   UNL     1      -5.593   7.290   8.933  1.00  0.00     0.053 C 
BRANCH  21  22
ATOM     22  C   UNL     1      -5.822   8.750   9.179  1.00  0.00     0.041 C 
ATOM     23  O   UNL     1      -6.996   9.206   9.243  1.00  0.00    -0.550 OA
ATOM     24  O   UNL     1      -4.740   9.613   9.311  1.00  0.00    -0.550 OA
ENDBRANCH  21  22
ENDBRANCH  20  21
ENDBRANCH  19  20
ENDBRANCH  18  19
ENDBRANCH  17  18
ENDBRANCH  16  17
ENDBRANCH  15  16
ENDBRANCH  14  15
ENDBRANCH  13  14
ENDBRANCH   1  13
TORSDOF 20
ENDMDL
MODEL 5
REMARK VINA RESULT:    -1.025      3.307      7.578
REMARK INTER + INTRA:          -4.174
REMARK INTER:                  -4.098
REMARK INTRA:                  -0.075
REMARK UNBOUND:                -1.950
REMARK SMILES CCCCCCCCCCCCCCCCCCCCCC(=O)[O-]
REMARK SMILES IDX 12 1 11 2 10 3 9 4 8 5 7 6 6 7 5 8 4 9 3 10 2 11 1 12 13 13
REMARK SMILES IDX 14 14 15 15 16 16 17 17 18 18 19 19 20 20 21 21 22 22 23 23
REMARK SMILES IDX 24 24
REMARK H PARENT
REMARK Flexibility Score: inf
ROOT
ATOM      1  C   UNL     1       6.563  -6.158   6.168  1.00  0.00     0.000 C 
ENDROOT
BRANCH   1   2
ATOM      2  C   UNL     1       6.203  -6.005   7.653  1.00  0.00     0.000 C 
BRANCH   2   3
ATOM      3  C   UNL     1       7.433  -6.082   8.570  1.00  0.00     0.000 C 
BRANCH   3   4
ATOM      4  C   UNL     1       8.346  -4.853   8.442  1.00  0.00    -0.000 C 
BRANCH   4   5
ATOM      5  C   UNL     1       8.768  -4.335   9.825  1.00  0.00    -0.000 C 
BRANCH   5   6
ATOM      6  C   UNL     1       8.629  -2.807   9.966  1.00  0.00    -0.000 C 
BRANCH   6   7
ATOM      7  C   UNL     1       8.670  -2.018   8.644  1.00  0.00    -0.000 C 
BRANCH   7   8
ATOM      8  C   UNL     1       7.765  -0.774   8.658  1.00  0.00    -0.000 C 
BRANCH   8   9
ATOM      9  C   UNL     1       7.844   0.009   9.982  1.00  0.00    -0.000 C 
BRANCH   9  10
ATOM     10  C   UNL     1       9.038   0.973  10.104  1.00  0.00    -0.000 C 
BRANCH  10  11
ATOM     11  C   UNL     1       8.800   2.314   9.395  1.00  0.00    -0.003 C 
ATOM     12  C   UNL     1       9.555   3.444  10.091  1.00  0.00     0.004 C 
ENDBRANCH  10  11
ENDBRANCH   9  10
ENDBRANCH   8   9
ENDBRANCH   7   8
ENDBRANCH   6   7
ENDBRANCH   5   6
ENDBRANCH   4   5
ENDBRANCH   3   4
ENDBRANCH   2   3
ENDBRANCH   1   2
BRANCH   1  13
ATOM     13  C   UNL     1       6.563  -7.635   5.751  1.00  0.00     0.000 C 
BRANCH  13  14
ATOM     14  C   UNL     1       6.019  -8.568   6.848  1.00  0.00     0.000 C 
BRANCH  14  15
ATOM     15  C   UNL     1       4.479  -8.580   6.941  1.00  0.00     0.000 C 
BRANCH  15  16
ATOM     16  C   UNL     1       3.985  -8.954   8.350  1.00  0.00     0.000 C 
BRANCH  16  17
ATOM     17  C   UNL     1       4.022  -7.765   9.323  1.00  0.00     0.000 C 
BRANCH  17  18
ATOM     18  C   UNL     1       3.712  -6.425   8.632  1.00  0.00     0.000 C 
BRANCH  18  19
ATOM     19  C   UNL     1       3.225  -5.353   9.618  1.00  0.00     0.000 C 
BRANCH  19  20
ATOM     20  C   UNL     1       2.051  -4.530   9.058  1.00  0.00     0.006 C 
BRANCH  20  21
ATOM     21  C   UNL     1       1.892  -4.709   7.542  1.00  0.00     0.053 C 
BRANCH  21  22
ATOM     22  C   UNL     1       0.763  -5.635   7.206  1.00  0.00     0.041 C 
ATOM     23  O   UNL     1       0.966  -6.875   7.106  1.00  0.00    -0.550 OA
ATOM     24  O   UNL     1      -0.511  -5.126   6.976  1.00  0.00    -0.550 OA
ENDBRANCH  21  22
ENDBRANCH  20  21
ENDBRANCH  19  20
ENDBRANCH  18  19
ENDBRANCH  17  18
ENDBRANCH  16  17
ENDBRANCH  15  16
ENDBRANCH  14  15
ENDBRANCH  13  14
ENDBRANCH   1  13
TORSDOF 20
ENDMDL
MODEL 6
REMARK VINA RESULT:    -0.999      2.858      7.436
REMARK INTER + INTRA:          -4.116
REMARK INTER:                  -2.725
REMARK INTRA:                  -1.392
REMARK UNBOUND:                -1.950
REMARK SMILES CCCCCCCCCCCCCCCCCCCCCC(=O)[O-]
REMARK SMILES IDX 12 1 11 2 10 3 9 4 8 5 7 6 6 7 5 8 4 9 3 10 2 11 1 12 13 13
REMARK SMILES IDX 14 14 15 15 16 16 17 17 18 18 19 19 20 20 21 21 22 22 23 23
REMARK SMILES IDX 24 24
REMARK H PARENT
REMARK Flexibility Score: inf
ROOT
ATOM      1  C   UNL     1       2.533  -4.517   7.902  1.00  0.00     0.000 C 
ENDROOT
BRANCH   1   2
ATOM      2  C   UNL     1       3.722  -5.483   8.001  1.00  0.00     0.000 C 
BRANCH   2   3
ATOM      3  C   UNL     1       4.449  -5.390   9.351  1.00  0.00     0.000 C 
BRANCH   3   4
ATOM      4  C   UNL     1       5.795  -6.131   9.352  1.00  0.00    -0.000 C 
BRANCH   4   5
ATOM      5  C   UNL     1       6.904  -5.257   9.956  1.00  0.00    -0.000 C 
BRANCH   5   6
ATOM      6  C   UNL     1       8.099  -5.053   9.005  1.00  0.00    -0.000 C 
BRANCH   6   7
ATOM      7  C   UNL     1       9.256  -4.210   9.573  1.00  0.00    -0.000 C 
BRANCH   7   8
ATOM      8  C   UNL     1       8.853  -2.753   9.859  1.00  0.00    -0.000 C 
BRANCH   8   9
ATOM      9  C   UNL     1       8.105  -2.096   8.684  1.00  0.00    -0.000 C 
BRANCH   9  10
ATOM     10  C   UNL     1       8.330  -0.581   8.530  1.00  0.00    -0.000 C 
BRANCH  10  11
ATOM     11  C   UNL     1       7.757   0.232   9.699  1.00  0.00    -0.003 C 
ATOM     12  C   UNL     1       8.722   1.337  10.125  1.00  0.00     0.004 C 
ENDBRANCH  10  11
ENDBRANCH   9  10
ENDBRANCH   8   9
ENDBRANCH   7   8
ENDBRANCH   6   7
ENDBRANCH   5   6
ENDBRANCH   4   5
ENDBRANCH   3   4
ENDBRANCH   2   3
ENDBRANCH   1   2
BRANCH   1  13
ATOM     13  C   UNL     1       1.247  -5.263   7.520  1.00  0.00     0.000 C 
BRANCH  13  14
ATOM     14  C   UNL     1       1.149  -6.657   8.166  1.00  0.00     0.000 C 
BRANCH  14  15
ATOM     15  C   UNL     1       1.601  -7.802   7.235  1.00  0.00     0.000 C 
BRANCH  15  16
ATOM     16  C   UNL     1       2.122  -9.018   8.020  1.00  0.00     0.000 C 
BRANCH  16  17
ATOM     17  C   UNL     1       3.320  -8.672   8.918  1.00  0.00     0.000 C 
BRANCH  17  18
ATOM     18  C   UNL     1       4.168  -9.906   9.273  1.00  0.00     0.000 C 
BRANCH  18  19
ATOM     19  C   UNL     1       5.330 -10.125   8.293  1.00  0.00     0.000 C 
BRANCH  19  20
ATOM     20  C   UNL     1       5.809  -8.811   7.649  1.00  0.00     0.006 C 
BRANCH  20  21
ATOM     21  C   UNL     1       6.055  -8.962   6.141  1.00  0.00     0.053 C 
BRANCH  21  22
ATOM     22  C   UNL     1       6.453  -7.664   5.510  1.00  0.00     0.041 C 
ATOM     23  O   UNL     1       6.435  -6.598   6.183  1.00  0.00    -0.550 OA
ATOM     24  O   UNL     1       6.819  -7.625   4.169  1.00  0.00    -0.550 OA
ENDBRANCH  21  22
ENDBRANCH  20  21
ENDBRANCH  19  20
ENDBRANCH  18  19
ENDBRANCH  17  18
ENDBRANCH  16  17
ENDBRANCH  15  16
ENDBRANCH  14  15
ENDBRANCH  13  14
ENDBRANCH   1  13
TORSDOF 20
ENDMDL
MODEL 7
REMARK VINA RESULT:    -0.726      1.155      2.138
REMARK INTER + INTRA:          -3.526
REMARK INTER:                  -4.458
REMARK INTRA:                   0.933
REMARK UNBOUND:                -1.950
REMARK SMILES CCCCCCCCCCCCCCCCCCCCCC(=O)[O-]
REMARK SMILES IDX 12 1 11 2 10 3 9 4 8 5 7 6 6 7 5 8 4 9 3 10 2 11 1 12 13 13
REMARK SMILES IDX 14 14 15 15 16 16 17 17 18 18 19 19 20 20 21 21 22 22 23 23
REMARK SMILES IDX 24 24
REMARK H PARENT
REMARK Flexibility Score: inf
ROOT
ATOM      1  C   UNL     1       5.888  -6.404   6.663  1.00  0.00     0.000 C 
ENDROOT
BRANCH   1   2
ATOM      2  C   UNL     1       5.791  -7.842   7.193  1.00  0.00     0.000 C 
BRANCH   2   3
ATOM      3  C   UNL     1       5.754  -8.886   6.065  1.00  0.00     0.000 C 
BRANCH   3   4
ATOM      4  C   UNL     1       4.701  -9.978   6.303  1.00  0.00    -0.000 C 
BRANCH   4   5
ATOM      5  C   UNL     1       4.179  -9.934   7.747  1.00  0.00    -0.000 C 
BRANCH   5   6
ATOM      6  C   UNL     1       5.306  -9.949   8.798  1.00  0.00    -0.000 C 
BRANCH   6   7
ATOM      7  C   UNL     1       5.100  -9.004   9.996  1.00  0.00    -0.000 C 
BRANCH   7   8
ATOM      8  C   UNL     1       3.804  -8.181   9.898  1.00  0.00    -0.000 C 
BRANCH   8   9
ATOM      9  C   UNL     1       4.057  -6.662   9.895  1.00  0.00    -0.000 C 
BRANCH   9  10
ATOM     10  C   UNL     1       2.909  -5.808   9.325  1.00  0.00    -0.000 C 
BRANCH  10  11
ATOM     11  C   UNL     1       2.652  -6.069   7.834  1.00  0.00    -0.003 C 
ATOM     12  C   UNL     1       1.158  -6.229   7.556  1.00  0.00     0.004 C 
ENDBRANCH  10  11
ENDBRANCH   9  10
ENDBRANCH   8   9
ENDBRANCH   7   8
ENDBRANCH   6   7
ENDBRANCH   5   6
ENDBRANCH   4   5
ENDBRANCH   3   4
ENDBRANCH   2   3
ENDBRANCH   1   2
BRANCH   1  13
ATOM     13  C   UNL     1       7.345  -5.924   6.635  1.00  0.00     0.000 C 
BRANCH  13  14
ATOM     14  C   UNL     1       7.957  -5.783   8.041  1.00  0.00     0.000 C 
BRANCH  14  15
ATOM     15  C   UNL     1       9.140  -4.794   8.103  1.00  0.00     0.000 C 
BRANCH  15  16
ATOM     16  C   UNL     1       9.600  -4.528   9.547  1.00  0.00     0.000 C 
BRANCH  16  17
ATOM     17  C   UNL     1       9.143  -3.157  10.069  1.00  0.00     0.000 C 
BRANCH  17  18
ATOM     18  C   UNL     1       8.507  -2.288   8.970  1.00  0.00     0.000 C 
BRANCH  18  19
ATOM     19  C   UNL     1       8.573  -0.788   9.292  1.00  0.00     0.000 C 
BRANCH  19  20
ATOM     20  C   UNL     1       7.213  -0.224   9.740  1.00  0.00     0.006 C 
BRANCH  20  21
ATOM     21  C   UNL     1       7.265   1.291   9.978  1.00  0.00     0.053 C 
BRANCH  21  22
ATOM     22  C   UNL     1       8.650   1.834   9.802  1.00  0.00     0.041 C 
ATOM     23  O   UNL     1       8.823   2.996   9.345  1.00  0.00    -0.550 OA
ATOM     24  O   UNL     1       9.752   1.047  10.117  1.00  0.00    -0.550 OA
ENDBRANCH  21  22
ENDBRANCH  20  21
ENDBRANCH  19  20
ENDBRANCH  18  19
ENDBRANCH  17  18
ENDBRANCH  16  17
ENDBRANCH  15  16
ENDBRANCH  14  15
ENDBRANCH  13  14
ENDBRANCH   1  13
TORSDOF 20
ENDMDL
MODEL 8
REMARK VINA RESULT:    -0.514      3.450      7.181
REMARK INTER + INTRA:          -3.065
REMARK INTER:                  -2.962
REMARK INTRA:                  -0.104
REMARK UNBOUND:                -1.950
REMARK SMILES CCCCCCCCCCCCCCCCCCCCCC(=O)[O-]
REMARK SMILES IDX 12 1 11 2 10 3 9 4 8 5 7 6 6 7 5 8 4 9 3 10 2 11 1 12 13 13
REMARK SMILES IDX 14 14 15 15 16 16 17 17 18 18 19 19 20 20 21 21 22 22 23 23
REMARK SMILES IDX 24 24
REMARK H PARENT
REMARK Flexibility Score: inf
ROOT
ATOM      1  C   UNL     1       5.886  -5.212   9.940  1.00  0.00     0.000 C 
ENDROOT
BRANCH   1   2
ATOM      2  C   UNL     1       7.403  -5.437  10.023  1.00  0.00     0.000 C 
BRANCH   2   3
ATOM      3  C   UNL     1       8.207  -4.153   9.766  1.00  0.00     0.000 C 
BRANCH   3   4
ATOM      4  C   UNL     1       9.627  -4.435   9.254  1.00  0.00    -0.000 C 
BRANCH   4   5
ATOM      5  C   UNL     1       9.597  -4.956   7.808  1.00  0.00    -0.000 C 
BRANCH   5   6
ATOM      6  C   UNL     1       8.201  -4.867   7.162  1.00  0.00    -0.000 C 
BRANCH   6   7
ATOM      7  C   UNL     1       7.473  -6.213   6.983  1.00  0.00    -0.000 C 
BRANCH   7   8
ATOM      8  C   UNL     1       6.744  -6.327   5.633  1.00  0.00    -0.000 C 
BRANCH   8   9
ATOM      9  C   UNL     1       6.674  -7.774   5.112  1.00  0.00    -0.000 C 
BRANCH   9  10
ATOM     10  C   UNL     1       6.084  -8.799   6.098  1.00  0.00    -0.000 C 
BRANCH  10  11
ATOM     11  C   UNL     1       5.700 -10.125   5.427  1.00  0.00    -0.003 C 
ATOM     12  C   UNL     1       5.697  -9.988   3.905  1.00  0.00     0.004 C 
ENDBRANCH  10  11
ENDBRANCH   9  10
ENDBRANCH   8   9
ENDBRANCH   7   8
ENDBRANCH   6   7
ENDBRANCH   5   6
ENDBRANCH   4   5
ENDBRANCH   3   4
ENDBRANCH   2   3
ENDBRANCH   1   2
BRANCH   1  13
ATOM     13  C   UNL     1       5.123  -6.530  10.125  1.00  0.00     0.000 C 
BRANCH  13  14
ATOM     14  C   UNL     1       5.949  -7.764   9.718  1.00  0.00     0.000 C 
BRANCH  14  15
ATOM     15  C   UNL     1       5.112  -9.054   9.595  1.00  0.00     0.000 C 
BRANCH  15  16
ATOM     16  C   UNL     1       4.043  -8.951   8.494  1.00  0.00     0.000 C 
BRANCH  16  17
ATOM     17  C   UNL     1       3.232  -7.648   8.578  1.00  0.00     0.000 C 
BRANCH  17  18
ATOM     18  C   UNL     1       3.343  -6.800   7.300  1.00  0.00     0.000 C 
BRANCH  18  19
ATOM     19  C   UNL     1       3.142  -5.300   7.568  1.00  0.00     0.000 C 
BRANCH  19  20
ATOM     20  C   UNL     1       1.754  -4.991   8.156  1.00  0.00     0.006 C 
BRANCH  20  21
ATOM     21  C   UNL     1       0.686  -5.980   7.669  1.00  0.00     0.053 C 
BRANCH  21  22
ATOM     22  C   UNL     1      -0.431  -5.285   6.953  1.00  0.00     0.041 C 
ATOM     23  O   UNL     1      -0.505  -4.027   6.961  1.00  0.00    -0.550 OA
ATOM     24  O   UNL     1      -1.407  -6.028   6.298  1.00  0.00    -0.550 OA
ENDBRANCH  21  22
ENDBRANCH  20  21
ENDBRANCH  19  20
ENDBRANCH  18  19
ENDBRANCH  17  18
ENDBRANCH  16  17
ENDBRANCH  15  16
ENDBRANCH  14  15
ENDBRANCH  13  14
ENDBRANCH   1  13
TORSDOF 20
ENDMDL
