MODEL 1
REMARK VINA RESULT:    -2.960      0.000      0.000
REMARK INTER + INTRA:          -8.484
REMARK INTER:                  -5.729
REMARK INTRA:                  -2.756
REMARK UNBOUND:                -2.756
REMARK SMILES CCCCCCCCCCCCCCCCCC(=O)[O-]
REMARK SMILES IDX 10 1 11 2 12 3 13 4 14 5 15 6 16 7 17 8 18 9 19 10 20 11
REMARK SMILES IDX 9 12 8 13 7 14 6 15 5 16 4 17 3 18 2 19 1 20
REMARK H PARENT
REMARK Flexibility Score: inf
ROOT
ATOM      1  C   UNL     1     147.310 165.756 151.967  1.00  0.00     0.000 C 
ENDROOT
BRANCH   1   2
ATOM      2  C   UNL     1     146.132 164.953 151.386  1.00  0.00     0.000 C 
BRANCH   2   3
ATOM      3  C   UNL     1     146.561 163.593 150.811  1.00  0.00     0.000 C 
BRANCH   3   4
ATOM      4  C   UNL     1     146.191 162.423 151.735  1.00  0.00     0.000 C 
BRANCH   4   5
ATOM      5  C   UNL     1     147.398 161.528 152.064  1.00  0.00     0.000 C 
BRANCH   5   6
ATOM      6  C   UNL     1     148.745 162.215 151.780  1.00  0.00     0.000 C 
BRANCH   6   7
ATOM      7  C   UNL     1     149.989 161.413 152.214  1.00  0.00     0.006 C 
BRANCH   7   8
ATOM      8  C   UNL     1     149.700 160.270 153.200  1.00  0.00     0.053 C 
BRANCH   8   9
ATOM      9  C   UNL     1     150.764 159.217 153.167  1.00  0.00     0.041 C 
ATOM     10  O   UNL     1     151.051 158.574 154.210  1.00  0.00    -0.550 OA
ATOM     11  O   UNL     1     151.417 158.923 151.976  1.00  0.00    -0.550 OA
ENDBRANCH   8   9
ENDBRANCH   7   8
ENDBRANCH   6   7
ENDBRANCH   5   6
ENDBRANCH   4   5
ENDBRANCH   3   4
ENDBRANCH   2   3
ENDBRANCH   1   2
BRANCH   1  12
ATOM     12  C   UNL     1     147.129 166.207 153.429  1.00  0.00     0.000 C 
BRANCH  12  13
ATOM     13  C   UNL     1     146.078 165.418 154.231  1.00  0.00    -0.000 C 
BRANCH  13  14
ATOM     14  C   UNL     1     146.634 164.765 155.514  1.00  0.00    -0.000 C 
BRANCH  14  15
ATOM     15  C   UNL     1     146.798 163.243 155.378  1.00  0.00    -0.000 C 
BRANCH  15  16
ATOM     16  C   UNL     1     148.277 162.841 155.437  1.00  0.00    -0.000 C 
BRANCH  16  17
ATOM     17  C   UNL     1     149.179 164.078 155.557  1.00  0.00    -0.000 C 
BRANCH  17  18
ATOM     18  C   UNL     1     150.570 163.860 154.941  1.00  0.00    -0.000 C 
BRANCH  18  19
ATOM     19  C   UNL     1     151.589 163.329 155.958  1.00  0.00    -0.003 C 
ATOM     20  C   UNL     1     151.599 161.803 155.980  1.00  0.00     0.004 C 
ENDBRANCH  18  19
ENDBRANCH  17  18
ENDBRANCH  16  17
ENDBRANCH  15  16
ENDBRANCH  14  15
ENDBRANCH  13  14
ENDBRANCH  12  13
ENDBRANCH   1  12
TORSDOF 16
ENDMDL
MODEL 2
REMARK VINA RESULT:    -2.896      2.064      4.791
REMARK INTER + INTRA:          -8.361
REMARK INTER:                  -6.312
REMARK INTRA:                  -2.049
REMARK UNBOUND:                -2.756
REMARK SMILES CCCCCCCCCCCCCCCCCC(=O)[O-]
REMARK SMILES IDX 10 1 11 2 12 3 13 4 14 5 15 6 16 7 17 8 18 9 19 10 20 11
REMARK SMILES IDX 9 12 8 13 7 14 6 15 5 16 4 17 3 18 2 19 1 20
REMARK H PARENT
REMARK Flexibility Score: inf
ROOT
ATOM      1  C   UNL     1     145.970 165.085 151.795  1.00  0.00     0.000 C 
ENDROOT
BRANCH   1   2
ATOM      2  C   UNL     1     147.141 165.862 152.424  1.00  0.00     0.000 C 
BRANCH   2   3
ATOM      3  C   UNL     1     147.482 165.382 153.846  1.00  0.00     0.000 C 
BRANCH   3   4
ATOM      4  C   UNL     1     146.515 165.942 154.901  1.00  0.00     0.000 C 
BRANCH   4   5
ATOM      5  C   UNL     1     146.185 164.917 155.999  1.00  0.00     0.000 C 
BRANCH   5   6
ATOM      6  C   UNL     1     145.902 163.511 155.439  1.00  0.00     0.000 C 
BRANCH   6   7
ATOM      7  C   UNL     1     146.643 162.364 156.155  1.00  0.00     0.006 C 
BRANCH   7   8
ATOM      8  C   UNL     1     147.883 161.843 155.412  1.00  0.00     0.053 C 
BRANCH   8   9
ATOM      9  C   UNL     1     148.169 160.409 155.734  1.00  0.00     0.041 C 
ATOM     10  O   UNL     1     149.273 159.895 155.410  1.00  0.00    -0.550 OA
ATOM     11  O   UNL     1     147.230 159.648 156.419  1.00  0.00    -0.550 OA
ENDBRANCH   8   9
ENDBRANCH   7   8
ENDBRANCH   6   7
ENDBRANCH   5   6
ENDBRANCH   4   5
ENDBRANCH   3   4
ENDBRANCH   2   3
ENDBRANCH   1   2
BRANCH   1  12
ATOM     12  C   UNL     1     146.364 163.767 151.103  1.00  0.00     0.000 C 
BRANCH  12  13
ATOM     13  C   UNL     1     145.961 162.486 151.857  1.00  0.00    -0.000 C 
BRANCH  13  14
ATOM     14  C   UNL     1     147.030 161.373 151.811  1.00  0.00    -0.000 C 
BRANCH  14  15
ATOM     15  C   UNL     1     148.457 161.930 151.706  1.00  0.00    -0.000 C 
BRANCH  15  16
ATOM     16  C   UNL     1     149.496 160.852 152.040  1.00  0.00    -0.000 C 
BRANCH  16  17
ATOM     17  C   UNL     1     150.245 160.401 150.777  1.00  0.00    -0.000 C 
BRANCH  17  18
ATOM     18  C   UNL     1     150.643 161.578 149.872  1.00  0.00    -0.000 C 
BRANCH  18  19
ATOM     19  C   UNL     1     151.520 161.143 148.690  1.00  0.00    -0.003 C 
ATOM     20  C   UNL     1     151.833 159.651 148.758  1.00  0.00     0.004 C 
ENDBRANCH  18  19
ENDBRANCH  17  18
ENDBRANCH  16  17
ENDBRANCH  15  16
ENDBRANCH  14  15
ENDBRANCH  13  14
ENDBRANCH  12  13
ENDBRANCH   1  12
TORSDOF 16
ENDMDL
MODEL 3
REMARK VINA RESULT:    -2.874      3.408      4.479
REMARK INTER + INTRA:          -8.318
REMARK INTER:                  -5.513
REMARK INTRA:                  -2.805
REMARK UNBOUND:                -2.756
REMARK SMILES CCCCCCCCCCCCCCCCCC(=O)[O-]
REMARK SMILES IDX 10 1 11 2 12 3 13 4 14 5 15 6 16 7 17 8 18 9 19 10 20 11
REMARK SMILES IDX 9 12 8 13 7 14 6 15 5 16 4 17 3 18 2 19 1 20
REMARK H PARENT
REMARK Flexibility Score: inf
ROOT
ATOM      1  C   UNL     1     145.875 163.782 152.249  1.00  0.00     0.000 C 
ENDROOT
BRANCH   1   2
ATOM      2  C   UNL     1     146.246 162.505 151.472  1.00  0.00     0.000 C 
BRANCH   2   3
ATOM      3  C   UNL     1     147.025 161.490 152.326  1.00  0.00     0.000 C 
BRANCH   3   4
ATOM      4  C   UNL     1     148.494 161.366 151.894  1.00  0.00     0.000 C 
BRANCH   4   5
ATOM      5  C   UNL     1     149.326 162.603 152.272  1.00  0.00     0.000 C 
BRANCH   5   6
ATOM      6  C   UNL     1     150.302 163.029 151.162  1.00  0.00     0.000 C 
BRANCH   6   7
ATOM      7  C   UNL     1     149.876 164.277 150.364  1.00  0.00     0.006 C 
BRANCH   7   8
ATOM      8  C   UNL     1     148.772 164.024 149.325  1.00  0.00     0.053 C 
BRANCH   8   9
ATOM      9  C   UNL     1     148.579 165.197 148.414  1.00  0.00     0.041 C 
ATOM     10  O   UNL     1     148.195 165.021 147.228  1.00  0.00    -0.550 OA
ATOM     11  O   UNL     1     148.792 166.487 148.884  1.00  0.00    -0.550 OA
ENDBRANCH   8   9
ENDBRANCH   7   8
ENDBRANCH   6   7
ENDBRANCH   5   6
ENDBRANCH   4   5
ENDBRANCH   3   4
ENDBRANCH   2   3
ENDBRANCH   1   2
BRANCH   1  12
ATOM     12  C   UNL     1     145.891 165.076 151.413  1.00  0.00     0.000 C 
BRANCH  12  13
ATOM     13  C   UNL     1     146.921 166.130 151.859  1.00  0.00    -0.000 C 
BRANCH  13  14
ATOM     14  C   UNL     1     147.669 165.761 153.159  1.00  0.00    -0.000 C 
BRANCH  14  15
ATOM     15  C   UNL     1     146.942 166.258 154.418  1.00  0.00    -0.000 C 
BRANCH  15  16
ATOM     16  C   UNL     1     147.423 165.505 155.665  1.00  0.00    -0.000 C 
BRANCH  16  17
ATOM     17  C   UNL     1     146.747 164.129 155.771  1.00  0.00    -0.000 C 
BRANCH  17  18
ATOM     18  C   UNL     1     147.742 162.968 155.620  1.00  0.00    -0.000 C 
BRANCH  18  19
ATOM     19  C   UNL     1     147.201 161.650 156.192  1.00  0.00    -0.003 C 
ATOM     20  C   UNL     1     148.107 160.478 155.822  1.00  0.00     0.004 C 
ENDBRANCH  18  19
ENDBRANCH  17  18
ENDBRANCH  16  17
ENDBRANCH  15  16
ENDBRANCH  14  15
ENDBRANCH  13  14
ENDBRANCH  12  13
ENDBRANCH   1  12
TORSDOF 16
ENDMDL
MODEL 4
REMARK VINA RESULT:    -2.865      2.161      3.692
REMARK INTER + INTRA:          -8.301
REMARK INTER:                  -5.224
REMARK INTRA:                  -3.077
REMARK UNBOUND:                -2.756
REMARK SMILES CCCCCCCCCCCCCCCCCC(=O)[O-]
REMARK SMILES IDX 10 1 11 2 12 3 13 4 14 5 15 6 16 7 17 8 18 9 19 10 20 11
REMARK SMILES IDX 9 12 8 13 7 14 6 15 5 16 4 17 3 18 2 19 1 20
REMARK H PARENT
REMARK Flexibility Score: inf
ROOT
ATOM      1  C   UNL     1     146.187 165.072 151.849  1.00  0.00     0.000 C 
ENDROOT
BRANCH   1   2
ATOM      2  C   UNL     1     146.552 163.657 151.362  1.00  0.00     0.000 C 
BRANCH   2   3
ATOM      3  C   UNL     1     147.020 162.735 152.501  1.00  0.00     0.000 C 
BRANCH   3   4
ATOM      4  C   UNL     1     147.338 161.314 152.011  1.00  0.00     0.000 C 
BRANCH   4   5
ATOM      5  C   UNL     1     148.818 161.141 151.627  1.00  0.00     0.000 C 
BRANCH   5   6
ATOM      6  C   UNL     1     149.754 161.126 152.848  1.00  0.00     0.000 C 
BRANCH   6   7
ATOM      7  C   UNL     1     149.262 160.276 154.036  1.00  0.00     0.006 C 
BRANCH   7   8
ATOM      8  C   UNL     1     149.027 161.066 155.333  1.00  0.00     0.053 C 
BRANCH   8   9
ATOM      9  C   UNL     1     147.762 160.653 156.021  1.00  0.00     0.041 C 
ATOM     10  O   UNL     1     147.580 159.449 156.342  1.00  0.00    -0.550 OA
ATOM     11  O   UNL     1     146.799 161.603 156.336  1.00  0.00    -0.550 OA
ENDBRANCH   8   9
ENDBRANCH   7   8
ENDBRANCH   6   7
ENDBRANCH   5   6
ENDBRANCH   4   5
ENDBRANCH   3   4
ENDBRANCH   2   3
ENDBRANCH   1   2
BRANCH   1  12
ATOM     12  C   UNL     1     146.984 166.211 151.185  1.00  0.00     0.000 C 
BRANCH  12  13
ATOM     13  C   UNL     1     148.398 165.829 150.711  1.00  0.00    -0.000 C 
BRANCH  13  14
ATOM     14  C   UNL     1     149.497 166.070 151.768  1.00  0.00    -0.000 C 
BRANCH  14  15
ATOM     15  C   UNL     1     150.271 164.789 152.117  1.00  0.00    -0.000 C 
BRANCH  15  16
ATOM     16  C   UNL     1     150.154 164.464 153.611  1.00  0.00    -0.000 C 
BRANCH  16  17
ATOM     17  C   UNL     1     149.081 165.335 154.281  1.00  0.00    -0.000 C 
BRANCH  17  18
ATOM     18  C   UNL     1     148.372 164.616 155.440  1.00  0.00    -0.000 C 
BRANCH  18  19
ATOM     19  C   UNL     1     146.885 164.981 155.540  1.00  0.00    -0.003 C 
ATOM     20  C   UNL     1     146.668 166.473 155.300  1.00  0.00     0.004 C 
ENDBRANCH  18  19
ENDBRANCH  17  18
ENDBRANCH  16  17
ENDBRANCH  15  16
ENDBRANCH  14  15
ENDBRANCH  13  14
ENDBRANCH  12  13
ENDBRANCH   1  12
TORSDOF 16
ENDMDL
MODEL 5
REMARK VINA RESULT:    -2.853      1.297      3.885
REMARK INTER + INTRA:          -8.277
REMARK INTER:                  -5.250
REMARK INTRA:                  -3.027
REMARK UNBOUND:                -2.756
REMARK SMILES CCCCCCCCCCCCCCCCCC(=O)[O-]
REMARK SMILES IDX 10 1 11 2 12 3 13 4 14 5 15 6 16 7 17 8 18 9 19 10 20 11
REMARK SMILES IDX 9 12 8 13 7 14 6 15 5 16 4 17 3 18 2 19 1 20
REMARK H PARENT
REMARK Flexibility Score: inf
ROOT
ATOM      1  C   UNL     1     147.665 161.606 151.897  1.00  0.00     0.000 C 
ENDROOT
BRANCH   1   2
ATOM      2  C   UNL     1     148.414 162.709 151.126  1.00  0.00     0.000 C 
BRANCH   2   3
ATOM      3  C   UNL     1     149.899 162.806 151.513  1.00  0.00     0.000 C 
BRANCH   3   4
ATOM      4  C   UNL     1     150.207 164.058 152.350  1.00  0.00     0.000 C 
BRANCH   4   5
ATOM      5  C   UNL     1     151.234 163.785 153.462  1.00  0.00     0.000 C 
BRANCH   5   6
ATOM      6  C   UNL     1     150.579 163.525 154.830  1.00  0.00     0.000 C 
BRANCH   6   7
ATOM      7  C   UNL     1     150.750 162.092 155.372  1.00  0.00     0.006 C 
BRANCH   7   8
ATOM      8  C   UNL     1     151.394 161.107 154.382  1.00  0.00     0.053 C 
BRANCH   8   9
ATOM      9  C   UNL     1     150.514 159.925 154.113  1.00  0.00     0.041 C 
ATOM     10  O   UNL     1     150.345 159.517 152.935  1.00  0.00    -0.550 OA
ATOM     11  O   UNL     1     149.907 159.255 155.168  1.00  0.00    -0.550 OA
ENDBRANCH   8   9
ENDBRANCH   7   8
ENDBRANCH   6   7
ENDBRANCH   5   6
ENDBRANCH   4   5
ENDBRANCH   3   4
ENDBRANCH   2   3
ENDBRANCH   1   2
BRANCH   1  12
ATOM     12  C   UNL     1     146.783 162.110 153.055  1.00  0.00     0.000 C 
BRANCH  12  13
ATOM     13  C   UNL     1     147.293 161.761 154.465  1.00  0.00    -0.000 C 
BRANCH  13  14
ATOM     14  C   UNL     1     146.550 162.501 155.598  1.00  0.00    -0.000 C 
BRANCH  14  15
ATOM     15  C   UNL     1     147.164 163.875 155.907  1.00  0.00    -0.000 C 
BRANCH  15  16
ATOM     16  C   UNL     1     146.087 164.967 155.936  1.00  0.00    -0.000 C 
BRANCH  16  17
ATOM     17  C   UNL     1     146.567 166.233 155.211  1.00  0.00    -0.000 C 
BRANCH  17  18
ATOM     18  C   UNL     1     147.442 165.918 153.988  1.00  0.00    -0.000 C 
BRANCH  18  19
ATOM     19  C   UNL     1     146.620 165.746 152.703  1.00  0.00    -0.003 C 
ATOM     20  C   UNL     1     147.357 166.325 151.498  1.00  0.00     0.004 C 
ENDBRANCH  18  19
ENDBRANCH  17  18
ENDBRANCH  16  17
ENDBRANCH  15  16
ENDBRANCH  14  15
ENDBRANCH  13  14
ENDBRANCH  12  13
ENDBRANCH   1  12
TORSDOF 16
ENDMDL
MODEL 6
REMARK VINA RESULT:    -2.818      2.046      4.281
REMARK INTER + INTRA:          -8.210
REMARK INTER:                  -5.719
REMARK INTRA:                  -2.491
REMARK UNBOUND:                -2.756
REMARK SMILES CCCCCCCCCCCCCCCCCC(=O)[O-]
REMARK SMILES IDX 10 1 11 2 12 3 13 4 14 5 15 6 16 7 17 8 18 9 19 10 20 11
REMARK SMILES IDX 9 12 8 13 7 14 6 15 5 16 4 17 3 18 2 19 1 20
REMARK H PARENT
REMARK Flexibility Score: inf
ROOT
ATOM      1  C   UNL     1     147.848 166.150 152.478  1.00  0.00     0.000 C 
ENDROOT
BRANCH   1   2
ATOM      2  C   UNL     1     147.031 165.988 153.773  1.00  0.00     0.000 C 
BRANCH   2   3
ATOM      3  C   UNL     1     147.239 164.620 154.444  1.00  0.00     0.000 C 
BRANCH   3   4
ATOM      4  C   UNL     1     148.724 164.305 154.687  1.00  0.00     0.000 C 
BRANCH   4   5
ATOM      5  C   UNL     1     148.929 162.971 155.423  1.00  0.00     0.000 C 
BRANCH   5   6
ATOM      6  C   UNL     1     147.628 162.162 155.569  1.00  0.00     0.000 C 
BRANCH   6   7
ATOM      7  C   UNL     1     147.798 160.632 155.475  1.00  0.00     0.006 C 
BRANCH   7   8
ATOM      8  C   UNL     1     147.398 159.866 156.746  1.00  0.00     0.053 C 
BRANCH   8   9
ATOM      9  C   UNL     1     148.579 159.239 157.419  1.00  0.00     0.041 C 
ATOM     10  O   UNL     1     148.429 158.212 158.134  1.00  0.00    -0.550 OA
ATOM     11  O   UNL     1     149.850 159.767 157.232  1.00  0.00    -0.550 OA
ENDBRANCH   8   9
ENDBRANCH   7   8
ENDBRANCH   6   7
ENDBRANCH   5   6
ENDBRANCH   4   5
ENDBRANCH   3   4
ENDBRANCH   2   3
ENDBRANCH   1   2
BRANCH   1  12
ATOM     12  C   UNL     1     147.007 166.274 151.193  1.00  0.00     0.000 C 
BRANCH  12  13
ATOM     13  C   UNL     1     146.119 165.058 150.872  1.00  0.00    -0.000 C 
BRANCH  13  14
ATOM     14  C   UNL     1     146.896 163.728 150.770  1.00  0.00    -0.000 C 
BRANCH  14  15
ATOM     15  C   UNL     1     146.133 162.550 151.395  1.00  0.00    -0.000 C 
BRANCH  15  16
ATOM     16  C   UNL     1     147.102 161.499 151.952  1.00  0.00    -0.000 C 
BRANCH  16  17
ATOM     17  C   UNL     1     148.559 161.963 151.808  1.00  0.00    -0.000 C 
BRANCH  17  18
ATOM     18  C   UNL     1     149.569 160.851 152.128  1.00  0.00    -0.000 C 
BRANCH  18  19
ATOM     19  C   UNL     1     150.207 160.251 150.867  1.00  0.00    -0.003 C 
ATOM     20  C   UNL     1     150.768 161.345 149.963  1.00  0.00     0.004 C 
ENDBRANCH  18  19
ENDBRANCH  17  18
ENDBRANCH  16  17
ENDBRANCH  15  16
ENDBRANCH  14  15
ENDBRANCH  13  14
ENDBRANCH  12  13
ENDBRANCH   1  12
TORSDOF 16
ENDMDL
MODEL 7
REMARK VINA RESULT:    -2.804      1.921      3.589
REMARK INTER + INTRA:          -8.183
REMARK INTER:                  -4.864
REMARK INTRA:                  -3.319
REMARK UNBOUND:                -2.756
REMARK SMILES CCCCCCCCCCCCCCCCCC(=O)[O-]
REMARK SMILES IDX 10 1 11 2 12 3 13 4 14 5 15 6 16 7 17 8 18 9 19 10 20 11
REMARK SMILES IDX 9 12 8 13 7 14 6 15 5 16 4 17 3 18 2 19 1 20
REMARK H PARENT
REMARK Flexibility Score: inf
ROOT
ATOM      1  C   UNL     1     149.190 164.701 150.481  1.00  0.00     0.000 C 
ENDROOT
BRANCH   1   2
ATOM      2  C   UNL     1     150.028 164.470 151.751  1.00  0.00     0.000 C 
BRANCH   2   3
ATOM      3  C   UNL     1     150.416 162.995 151.952  1.00  0.00     0.000 C 
BRANCH   3   4
ATOM      4  C   UNL     1     150.115 162.136 150.714  1.00  0.00     0.000 C 
BRANCH   4   5
ATOM      5  C   UNL     1     150.015 160.638 151.047  1.00  0.00     0.000 C 
BRANCH   5   6
ATOM      6  C   UNL     1     151.016 160.199 152.131  1.00  0.00     0.000 C 
BRANCH   6   7
ATOM      7  C   UNL     1     150.391 159.481 153.343  1.00  0.00     0.006 C 
BRANCH   7   8
ATOM      8  C   UNL     1     150.217 160.364 154.589  1.00  0.00     0.053 C 
BRANCH   8   9
ATOM      9  C   UNL     1     149.494 159.649 155.688  1.00  0.00     0.041 C 
ATOM     10  O   UNL     1     148.261 159.834 155.860  1.00  0.00    -0.550 OA
ATOM     11  O   UNL     1     150.176 158.754 156.503  1.00  0.00    -0.550 OA
ENDBRANCH   8   9
ENDBRANCH   7   8
ENDBRANCH   6   7
ENDBRANCH   5   6
ENDBRANCH   4   5
ENDBRANCH   3   4
ENDBRANCH   2   3
ENDBRANCH   1   2
BRANCH   1  12
ATOM     12  C   UNL     1     147.750 165.185 150.734  1.00  0.00     0.000 C 
BRANCH  12  13
ATOM     13  C   UNL     1     146.646 164.170 150.383  1.00  0.00    -0.000 C 
BRANCH  13  14
ATOM     14  C   UNL     1     146.065 163.431 151.607  1.00  0.00    -0.000 C 
BRANCH  14  15
ATOM     15  C   UNL     1     146.619 162.005 151.752  1.00  0.00    -0.000 C 
BRANCH  15  16
ATOM     16  C   UNL     1     147.093 161.741 153.187  1.00  0.00    -0.000 C 
BRANCH  16  17
ATOM     17  C   UNL     1     146.830 162.958 154.085  1.00  0.00    -0.000 C 
BRANCH  17  18
ATOM     18  C   UNL     1     148.102 163.466 154.782  1.00  0.00    -0.000 C 
BRANCH  18  19
ATOM     19  C   UNL     1     147.957 164.904 155.300  1.00  0.00    -0.003 C 
ATOM     20  C   UNL     1     147.182 165.769 154.310  1.00  0.00     0.004 C 
ENDBRANCH  18  19
ENDBRANCH  17  18
ENDBRANCH  16  17
ENDBRANCH  15  16
ENDBRANCH  14  15
ENDBRANCH  13  14
ENDBRANCH  12  13
ENDBRANCH   1  12
TORSDOF 16
ENDMDL
MODEL 8
REMARK VINA RESULT:    -2.793      2.249      4.510
REMARK INTER + INTRA:          -8.161
REMARK INTER:                  -5.677
REMARK INTRA:                  -2.484
REMARK UNBOUND:                -2.756
REMARK SMILES CCCCCCCCCCCCCCCCCC(=O)[O-]
REMARK SMILES IDX 10 1 11 2 12 3 13 4 14 5 15 6 16 7 17 8 18 9 19 10 20 11
REMARK SMILES IDX 9 12 8 13 7 14 6 15 5 16 4 17 3 18 2 19 1 20
REMARK H PARENT
REMARK Flexibility Score: inf
ROOT
ATOM      1  C   UNL     1     147.869 165.913 153.232  1.00  0.00     0.000 C 
ENDROOT
BRANCH   1   2
ATOM      2  C   UNL     1     146.974 166.192 154.454  1.00  0.00     0.000 C 
BRANCH   2   3
ATOM      3  C   UNL     1     145.965 165.064 154.726  1.00  0.00     0.000 C 
BRANCH   3   4
ATOM      4  C   UNL     1     146.569 163.670 154.500  1.00  0.00     0.000 C 
BRANCH   4   5
ATOM      5  C   UNL     1     147.407 163.191 155.698  1.00  0.00     0.000 C 
BRANCH   5   6
ATOM      6  C   UNL     1     148.819 162.729 155.293  1.00  0.00     0.000 C 
BRANCH   6   7
ATOM      7  C   UNL     1     149.167 161.280 155.688  1.00  0.00     0.006 C 
BRANCH   7   8
ATOM      8  C   UNL     1     147.978 160.308 155.662  1.00  0.00     0.053 C 
BRANCH   8   9
ATOM      9  C   UNL     1     147.688 159.739 157.017  1.00  0.00     0.041 C 
ATOM     10  O   UNL     1     146.578 159.954 157.570  1.00  0.00    -0.550 OA
ATOM     11  O   UNL     1     148.633 158.945 157.656  1.00  0.00    -0.550 OA
ENDBRANCH   8   9
ENDBRANCH   7   8
ENDBRANCH   6   7
ENDBRANCH   5   6
ENDBRANCH   4   5
ENDBRANCH   3   4
ENDBRANCH   2   3
ENDBRANCH   1   2
BRANCH   1  12
ATOM     12  C   UNL     1     147.392 166.558 151.918  1.00  0.00     0.000 C 
BRANCH  12  13
ATOM     13  C   UNL     1     146.285 165.786 151.175  1.00  0.00    -0.000 C 
BRANCH  13  14
ATOM     14  C   UNL     1     146.777 164.491 150.495  1.00  0.00    -0.000 C 
BRANCH  14  15
ATOM     15  C   UNL     1     147.894 164.749 149.472  1.00  0.00    -0.000 C 
BRANCH  15  16
ATOM     16  C   UNL     1     149.045 163.750 149.648  1.00  0.00    -0.000 C 
BRANCH  16  17
ATOM     17  C   UNL     1     149.116 163.243 151.096  1.00  0.00    -0.000 C 
BRANCH  17  18
ATOM     18  C   UNL     1     149.596 161.786 151.191  1.00  0.00    -0.000 C 
BRANCH  18  19
ATOM     19  C   UNL     1     148.664 160.912 152.041  1.00  0.00    -0.003 C 
ATOM     20  C   UNL     1     147.199 161.221 151.745  1.00  0.00     0.004 C 
ENDBRANCH  18  19
ENDBRANCH  17  18
ENDBRANCH  16  17
ENDBRANCH  15  16
ENDBRANCH  14  15
ENDBRANCH  13  14
ENDBRANCH  12  13
ENDBRANCH   1  12
TORSDOF 16
ENDMDL
MODEL 9
REMARK VINA RESULT:    -1.769      2.819      4.601
REMARK INTER + INTRA:          -6.179
REMARK INTER:                  -2.915
REMARK INTRA:                  -3.264
REMARK UNBOUND:                -2.756
REMARK SMILES CCCCCCCCCCCCCCCCCC(=O)[O-]
REMARK SMILES IDX 10 1 11 2 12 3 13 4 14 5 15 6 16 7 17 8 18 9 19 10 20 11
REMARK SMILES IDX 9 12 8 13 7 14 6 15 5 16 4 17 3 18 2 19 1 20
REMARK H PARENT
REMARK Flexibility Score: inf
ROOT
ATOM      1  C   UNL     1     146.599 163.924 151.945  1.00  0.00     0.000 C 
ENDROOT
BRANCH   1   2
ATOM      2  C   UNL     1     145.973 165.133 152.663  1.00  0.00     0.000 C 
BRANCH   2   3
ATOM      3  C   UNL     1     146.993 166.245 152.962  1.00  0.00     0.000 C 
BRANCH   3   4
ATOM      4  C   UNL     1     148.026 166.411 151.837  1.00  0.00     0.000 C 
BRANCH   4   5
ATOM      5  C   UNL     1     149.469 166.207 152.330  1.00  0.00     0.000 C 
BRANCH   5   6
ATOM      6  C   UNL     1     150.346 165.452 151.315  1.00  0.00     0.000 C 
BRANCH   6   7
ATOM      7  C   UNL     1     149.576 164.794 150.153  1.00  0.00     0.006 C 
BRANCH   7   8
ATOM      8  C   UNL     1     150.319 163.634 149.470  1.00  0.00     0.053 C 
BRANCH   8   9
ATOM      9  C   UNL     1     150.070 163.600 147.993  1.00  0.00     0.041 C 
ATOM     10  O   UNL     1     150.829 162.936 147.239  1.00  0.00    -0.550 OA
ATOM     11  O   UNL     1     148.982 164.274 147.454  1.00  0.00    -0.550 OA
ENDBRANCH   8   9
ENDBRANCH   7   8
ENDBRANCH   6   7
ENDBRANCH   5   6
ENDBRANCH   4   5
ENDBRANCH   3   4
ENDBRANCH   2   3
ENDBRANCH   1   2
BRANCH   1  12
ATOM     12  C   UNL     1     145.875 162.585 152.180  1.00  0.00     0.000 C 
BRANCH  12  13
ATOM     13  C   UNL     1     146.757 161.330 152.037  1.00  0.00    -0.000 C 
BRANCH  13  14
ATOM     14  C   UNL     1     148.207 161.633 151.602  1.00  0.00    -0.000 C 
BRANCH  14  15
ATOM     15  C   UNL     1     149.237 161.237 152.670  1.00  0.00    -0.000 C 
BRANCH  15  16
ATOM     16  C   UNL     1     149.854 162.478 153.329  1.00  0.00    -0.000 C 
BRANCH  16  17
ATOM     17  C   UNL     1     149.462 162.565 154.811  1.00  0.00    -0.000 C 
BRANCH  17  18
ATOM     18  C   UNL     1     148.704 163.859 155.149  1.00  0.00    -0.000 C 
BRANCH  18  19
ATOM     19  C   UNL     1     147.295 163.591 155.698  1.00  0.00    -0.003 C 
ATOM     20  C   UNL     1     146.989 162.096 155.719  1.00  0.00     0.004 C 
ENDBRANCH  18  19
ENDBRANCH  17  18
ENDBRANCH  16  17
ENDBRANCH  15  16
ENDBRANCH  14  15
ENDBRANCH  13  14
ENDBRANCH  12  13
ENDBRANCH   1  12
TORSDOF 16
ENDMDL
