MODEL 1
REMARK VINA RESULT:    11.237      0.000      0.000
REMARK INTER + INTRA:          13.308
REMARK INTER:                  12.223
REMARK INTRA:                   1.086
REMARK UNBOUND:                 1.086
REMARK SMILES CC1(C)CC[C@]2(C(=O)[O-])CC[C@@]3(C)C(=CC[C@@H]4[C@@]5(C)CC[C@H](O)C(C)(C)[C@@H]5CC[C@@]43C)[C@H]2C1
REMARK SMILES IDX 6 1 5 2 10 3 32 4 4 5 11 6 14 7 33 8 2 9 12 10 15 11 1 12
REMARK SMILES IDX 3 13 13 14 30 15 16 16 17 17 29 18 31 19 18 20 28 21 27 22
REMARK SMILES IDX 20 23 19 24 24 25 21 26 22 27 25 28 26 29 7 30 8 31 9 32
REMARK SMILES IDX 23 33
REMARK H PARENT 23 34
REMARK Flexibility Score: inf
ROOT
ATOM      1  C   UNL     1     -45.186 -28.136   1.078  1.00  0.00     0.017 C 
ATOM      2  C   UNL     1     -44.933 -27.484   2.488  1.00  0.00     0.014 C 
ATOM      3  C   UNL     1     -43.900 -28.887   0.556  1.00  0.00     0.014 C 
ATOM      4  C   UNL     1     -45.579 -27.045   0.027  1.00  0.00     0.028 C 
ATOM      5  C   UNL     1     -44.779 -25.958   2.447  1.00  0.00     0.007 C 
ATOM      6  C   UNL     1     -43.561 -28.662  -0.944  1.00  0.00     0.013 C 
ATOM      7  C   UNL     1     -45.875 -27.709  -1.321  1.00  0.00    -0.064 C 
ATOM      8  C   UNL     1     -46.604 -26.037   0.597  1.00  0.00     0.015 C 
ATOM      9  C   UNL     1     -46.024 -25.247   1.823  1.00  0.00    -0.035 C 
ATOM     10  C   UNL     1     -44.814 -28.661  -1.901  1.00  0.00    -0.006 C 
ATOM     11  C   UNL     1     -46.956 -27.393  -2.062  1.00  0.00    -0.027 C 
ATOM     12  C   UNL     1     -45.588 -23.835   1.370  1.00  0.00     0.011 C 
ATOM     13  C   UNL     1     -47.124 -25.086   2.895  1.00  0.00     0.011 C 
ATOM     14  C   UNL     1     -45.359 -30.123  -1.885  1.00  0.00     0.017 C 
ATOM     15  C   UNL     1     -44.463 -28.170  -3.397  1.00  0.00    -0.020 C 
ATOM     16  C   UNL     1     -47.122 -27.931  -3.451  1.00  0.00     0.032 C 
ATOM     17  C   UNL     1     -45.788 -27.841  -4.250  1.00  0.00     0.006 C 
ATOM     18  C   UNL     1     -43.591 -29.228  -4.136  1.00  0.00     0.008 C 
ATOM     19  C   UNL     1     -43.608 -26.858  -3.320  1.00  0.00     0.012 C 
ATOM     20  C   UNL     1     -45.853 -28.458  -5.722  1.00  0.00    -0.025 C 
ATOM     21  C   UNL     1     -43.274 -28.878  -5.603  1.00  0.00     0.005 C 
ATOM     22  C   UNL     1     -44.448 -28.212  -6.388  1.00  0.00     0.003 C 
ATOM     23  C   UNL     1     -46.940 -27.671  -6.530  1.00  0.00     0.010 C 
ATOM     24  C   UNL     1     -46.229 -29.977  -5.722  1.00  0.00     0.012 C 
ATOM     25  C   UNL     1     -44.368 -28.394  -7.959  1.00  0.00    -0.006 C 
ATOM     26  C   UNL     1     -46.884 -27.884  -8.048  1.00  0.00     0.033 C 
ATOM     27  C   UNL     1     -45.503 -27.544  -8.616  1.00  0.00     0.120 C 
ATOM     28  C   UNL     1     -43.009 -27.835  -8.458  1.00  0.00     0.014 C 
ATOM     29  C   UNL     1     -44.457 -29.871  -8.438  1.00  0.00     0.014 C 
ENDROOT
BRANCH   1  30
ATOM     30  C   UNL     1     -46.303 -29.164   1.280  1.00  0.00     0.048 C 
ATOM     31  O   UNL     1     -46.993 -29.140   2.335  1.00  0.00    -0.550 OA
ATOM     32  O   UNL     1     -46.610 -30.115   0.312  1.00  0.00    -0.550 OA
ENDBRANCH   1  30
BRANCH  27  33
ATOM     33  O   UNL     1     -45.537 -27.735 -10.011  1.00  0.00    -0.393 OA
ATOM     34  H   UNL     1     -45.364 -26.855 -10.437  1.00  0.00     0.210 HD
ENDBRANCH  27  33
TORSDOF 2
ENDMDL
MODEL 2
REMARK VINA RESULT:    13.368      1.446      1.762
REMARK INTER + INTRA:          15.626
REMARK INTER:                  15.620
REMARK INTRA:                   0.006
REMARK UNBOUND:                 1.086
REMARK SMILES CC1(C)CC[C@]2(C(=O)[O-])CC[C@@]3(C)C(=CC[C@@H]4[C@@]5(C)CC[C@H](O)C(C)(C)[C@@H]5CC[C@@]43C)[C@H]2C1
REMARK SMILES IDX 6 1 5 2 10 3 32 4 4 5 11 6 14 7 33 8 2 9 12 10 15 11 1 12
REMARK SMILES IDX 3 13 13 14 30 15 16 16 17 17 29 18 31 19 18 20 28 21 27 22
REMARK SMILES IDX 20 23 19 24 24 25 21 26 22 27 25 28 26 29 7 30 8 31 9 32
REMARK SMILES IDX 23 33
REMARK H PARENT 23 34
REMARK Flexibility Score: inf
ROOT
ATOM      1  C   UNL     1     -43.778 -27.478   0.557  1.00  0.00     0.017 C 
ATOM      2  C   UNL     1     -43.775 -26.720   1.936  1.00  0.00     0.014 C 
ATOM      3  C   UNL     1     -42.523 -27.085  -0.315  1.00  0.00     0.014 C 
ATOM      4  C   UNL     1     -45.070 -27.134  -0.259  1.00  0.00     0.028 C 
ATOM      5  C   UNL     1     -44.805 -25.587   2.024  1.00  0.00     0.007 C 
ATOM      6  C   UNL     1     -42.812 -26.828  -1.820  1.00  0.00     0.013 C 
ATOM      7  C   UNL     1     -45.079 -27.925  -1.571  1.00  0.00    -0.064 C 
ATOM      8  C   UNL     1     -46.336 -27.157   0.628  1.00  0.00     0.015 C 
ATOM      9  C   UNL     1     -46.265 -26.084   1.771  1.00  0.00    -0.035 C 
ATOM     10  C   UNL     1     -43.832 -27.839  -2.469  1.00  0.00    -0.006 C 
ATOM     11  C   UNL     1     -46.171 -28.578  -2.015  1.00  0.00    -0.027 C 
ATOM     12  C   UNL     1     -47.125 -24.859   1.386  1.00  0.00     0.011 C 
ATOM     13  C   UNL     1     -46.845 -26.683   3.072  1.00  0.00     0.011 C 
ATOM     14  C   UNL     1     -43.105 -29.220  -2.488  1.00  0.00     0.017 C 
ATOM     15  C   UNL     1     -44.308 -27.394  -3.945  1.00  0.00    -0.020 C 
ATOM     16  C   UNL     1     -46.198 -29.193  -3.382  1.00  0.00     0.032 C 
ATOM     17  C   UNL     1     -45.591 -28.227  -4.442  1.00  0.00     0.006 C 
ATOM     18  C   UNL     1     -43.141 -27.532  -4.967  1.00  0.00     0.008 C 
ATOM     19  C   UNL     1     -44.705 -25.877  -3.921  1.00  0.00     0.012 C 
ATOM     20  C   UNL     1     -45.515 -28.829  -5.920  1.00  0.00    -0.025 C 
ATOM     21  C   UNL     1     -43.527 -27.203  -6.422  1.00  0.00     0.005 C 
ATOM     22  C   UNL     1     -44.947 -27.694  -6.852  1.00  0.00     0.003 C 
ATOM     23  C   UNL     1     -46.972 -29.176  -6.378  1.00  0.00     0.010 C 
ATOM     24  C   UNL     1     -44.641 -30.125  -5.998  1.00  0.00     0.012 C 
ATOM     25  C   UNL     1     -45.119 -27.906  -8.412  1.00  0.00    -0.006 C 
ATOM     26  C   UNL     1     -47.125 -29.422  -7.885  1.00  0.00     0.033 C 
ATOM     27  C   UNL     1     -46.619 -28.233  -8.706  1.00  0.00     0.120 C 
ATOM     28  C   UNL     1     -44.772 -26.579  -9.138  1.00  0.00     0.014 C 
ATOM     29  C   UNL     1     -44.201 -29.008  -9.013  1.00  0.00     0.014 C 
ENDROOT
BRANCH   1  30
ATOM     30  C   UNL     1     -43.694 -28.970   0.891  1.00  0.00     0.048 C 
ATOM     31  O   UNL     1     -42.625 -29.600   0.676  1.00  0.00    -0.550 OA
ATOM     32  O   UNL     1     -44.761 -29.655   1.464  1.00  0.00    -0.550 OA
ENDBRANCH   1  30
BRANCH  27  33
ATOM     33  O   UNL     1     -46.818 -28.518 -10.071  1.00  0.00    -0.393 OA
ATOM     34  H   UNL     1     -46.153 -29.207 -10.331  1.00  0.00     0.210 HD
ENDBRANCH  27  33
TORSDOF 2
ENDMDL
