MODEL 1
REMARK VINA RESULT:    -3.907      0.000      0.000
REMARK INTER + INTRA:          -7.871
REMARK INTER:                  -6.191
REMARK INTRA:                  -1.680
REMARK UNBOUND:                -1.680
REMARK SMILES CCCCCCCCCCCC(=O)[O-]
REMARK SMILES IDX 7 1 8 2 9 3 10 4 11 5 12 6 13 7 14 8 6 9 5 10 4 11 3 12 2 13
REMARK SMILES IDX 1 14
REMARK H PARENT
REMARK Flexibility Score: inf
ROOT
ATOM      1  C   UNL     1      -4.705   5.450  19.619  1.00  0.00     0.000 C 
ENDROOT
BRANCH   1   2
ATOM      2  C   UNL     1      -3.984   4.099  19.760  1.00  0.00     0.000 C 
BRANCH   2   3
ATOM      3  C   UNL     1      -4.294   3.401  21.095  1.00  0.00     0.000 C 
BRANCH   3   4
ATOM      4  C   UNL     1      -5.183   4.256  22.014  1.00  0.00     0.006 C 
BRANCH   4   5
ATOM      5  C   UNL     1      -4.723   4.225  23.478  1.00  0.00     0.053 C 
BRANCH   5   6
ATOM      6  C   UNL     1      -4.874   2.848  24.044  1.00  0.00     0.041 C 
ATOM      7  O   UNL     1      -6.020   2.357  24.217  1.00  0.00    -0.550 OA
ATOM      8  O   UNL     1      -3.751   2.127  24.427  1.00  0.00    -0.550 OA
ENDBRANCH   5   6
ENDBRANCH   4   5
ENDBRANCH   3   4
ENDBRANCH   2   3
ENDBRANCH   1   2
BRANCH   1   9
ATOM      9  C   UNL     1      -3.829   6.523  18.956  1.00  0.00     0.000 C 
BRANCH   9  10
ATOM     10  C   UNL     1      -2.595   6.831  19.814  1.00  0.00    -0.000 C 
BRANCH  10  11
ATOM     11  C   UNL     1      -3.002   7.273  21.228  1.00  0.00    -0.000 C 
BRANCH  11  12
ATOM     12  C   UNL     1      -2.126   6.644  22.321  1.00  0.00    -0.000 C 
BRANCH  12  13
ATOM     13  C   UNL     1      -1.180   5.566  21.773  1.00  0.00    -0.003 C 
ATOM     14  C   UNL     1      -0.878   4.511  22.834  1.00  0.00     0.004 C 
ENDBRANCH  12  13
ENDBRANCH  11  12
ENDBRANCH  10  11
ENDBRANCH   9  10
ENDBRANCH   1   9
TORSDOF 10
ENDMDL
MODEL 2
REMARK VINA RESULT:    -3.894      7.840     10.336
REMARK INTER + INTRA:          -7.850
REMARK INTER:                  -6.411
REMARK INTRA:                  -1.440
REMARK UNBOUND:                -1.680
REMARK SMILES CCCCCCCCCCCC(=O)[O-]
REMARK SMILES IDX 7 1 8 2 9 3 10 4 11 5 12 6 13 7 14 8 6 9 5 10 4 11 3 12 2 13
REMARK SMILES IDX 1 14
REMARK H PARENT
REMARK Flexibility Score: inf
ROOT
ATOM      1  C   UNL     1       1.445   5.634  32.067  1.00  0.00     0.000 C 
ENDROOT
BRANCH   1   2
ATOM      2  C   UNL     1       2.418   5.108  31.000  1.00  0.00     0.000 C 
BRANCH   2   3
ATOM      3  C   UNL     1       1.807   3.984  30.146  1.00  0.00     0.000 C 
BRANCH   3   4
ATOM      4  C   UNL     1       2.362   3.964  28.712  1.00  0.00     0.006 C 
BRANCH   4   5
ATOM      5  C   UNL     1       3.270   5.163  28.412  1.00  0.00     0.053 C 
BRANCH   5   6
ATOM      6  C   UNL     1       3.763   5.104  27.001  1.00  0.00     0.041 C 
ATOM      7  O   UNL     1       3.858   3.997  26.408  1.00  0.00    -0.550 OA
ATOM      8  O   UNL     1       4.166   6.266  26.355  1.00  0.00    -0.550 OA
ENDBRANCH   5   6
ENDBRANCH   4   5
ENDBRANCH   3   4
ENDBRANCH   2   3
ENDBRANCH   1   2
BRANCH   1   9
ATOM      9  C   UNL     1       1.323   7.165  32.055  1.00  0.00     0.000 C 
BRANCH   9  10
ATOM     10  C   UNL     1       1.215   7.696  30.621  1.00  0.00    -0.000 C 
BRANCH  10  11
ATOM     11  C   UNL     1      -0.239   7.651  30.124  1.00  0.00    -0.000 C 
BRANCH  11  12
ATOM     12  C   UNL     1      -0.427   6.705  28.928  1.00  0.00    -0.000 C 
BRANCH  12  13
ATOM     13  C   UNL     1      -1.488   5.625  29.190  1.00  0.00    -0.003 C 
ATOM     14  C   UNL     1      -1.497   4.584  28.074  1.00  0.00     0.004 C 
ENDBRANCH  12  13
ENDBRANCH  11  12
ENDBRANCH  10  11
ENDBRANCH   9  10
ENDBRANCH   1   9
TORSDOF 10
ENDMDL
MODEL 3
REMARK VINA RESULT:    -3.824      2.665      4.557
REMARK INTER + INTRA:          -7.740
REMARK INTER:                  -6.174
REMARK INTRA:                  -1.566
REMARK UNBOUND:                -1.680
REMARK SMILES CCCCCCCCCCCC(=O)[O-]
REMARK SMILES IDX 7 1 8 2 9 3 10 4 11 5 12 6 13 7 14 8 6 9 5 10 4 11 3 12 2 13
REMARK SMILES IDX 1 14
REMARK H PARENT
REMARK Flexibility Score: inf
ROOT
ATOM      1  C   UNL     1      -7.090   4.082  20.735  1.00  0.00     0.000 C 
ENDROOT
BRANCH   1   2
ATOM      2  C   UNL     1      -5.723   4.679  20.364  1.00  0.00     0.000 C 
BRANCH   2   3
ATOM      3  C   UNL     1      -4.597   3.631  20.380  1.00  0.00     0.000 C 
BRANCH   3   4
ATOM      4  C   UNL     1      -3.400   4.066  21.242  1.00  0.00     0.006 C 
BRANCH   4   5
ATOM      5  C   UNL     1      -3.453   5.550  21.624  1.00  0.00     0.053 C 
BRANCH   5   6
ATOM      6  C   UNL     1      -2.114   6.188  21.431  1.00  0.00     0.041 C 
ATOM      7  O   UNL     1      -1.062   5.524  21.629  1.00  0.00    -0.550 OA
ATOM      8  O   UNL     1      -2.025   7.529  21.081  1.00  0.00    -0.550 OA
ENDBRANCH   5   6
ENDBRANCH   4   5
ENDBRANCH   3   4
ENDBRANCH   2   3
ENDBRANCH   1   2
BRANCH   1   9
ATOM      9  C   UNL     1      -7.142   3.573  22.183  1.00  0.00     0.000 C 
BRANCH   9  10
ATOM     10  C   UNL     1      -6.716   4.670  23.166  1.00  0.00    -0.000 C 
BRANCH  10  11
ATOM     11  C   UNL     1      -5.858   4.091  24.301  1.00  0.00    -0.000 C 
BRANCH  11  12
ATOM     12  C   UNL     1      -5.418   2.644  24.033  1.00  0.00    -0.000 C 
BRANCH  12  13
ATOM     13  C   UNL     1      -3.952   2.392  24.415  1.00  0.00    -0.003 C 
ATOM     14  C   UNL     1      -3.315   3.647  25.005  1.00  0.00     0.004 C 
ENDBRANCH  12  13
ENDBRANCH  11  12
ENDBRANCH  10  11
ENDBRANCH   9  10
ENDBRANCH   1   9
TORSDOF 10
ENDMDL
MODEL 4
REMARK VINA RESULT:    -3.798      7.778     10.434
REMARK INTER + INTRA:          -7.699
REMARK INTER:                  -6.400
REMARK INTRA:                  -1.299
REMARK UNBOUND:                -1.680
REMARK SMILES CCCCCCCCCCCC(=O)[O-]
REMARK SMILES IDX 7 1 8 2 9 3 10 4 11 5 12 6 13 7 14 8 6 9 5 10 4 11 3 12 2 13
REMARK SMILES IDX 1 14
REMARK H PARENT
REMARK Flexibility Score: inf
ROOT
ATOM      1  C   UNL     1       1.821   4.485  28.952  1.00  0.00     0.000 C 
ENDROOT
BRANCH   1   2
ATOM      2  C   UNL     1       2.333   3.341  28.060  1.00  0.00     0.000 C 
BRANCH   2   3
ATOM      3  C   UNL     1       3.747   3.605  27.515  1.00  0.00     0.000 C 
BRANCH   3   4
ATOM      4  C   UNL     1       3.902   5.024  26.943  1.00  0.00     0.006 C 
BRANCH   4   5
ATOM      5  C   UNL     1       3.647   5.086  25.432  1.00  0.00     0.053 C 
BRANCH   5   6
ATOM      6  C   UNL     1       2.238   5.506  25.157  1.00  0.00     0.041 C 
ATOM      7  O   UNL     1       1.905   6.715  25.264  1.00  0.00    -0.550 OA
ATOM      8  O   UNL     1       1.279   4.555  24.832  1.00  0.00    -0.550 OA
ENDBRANCH   5   6
ENDBRANCH   4   5
ENDBRANCH   3   4
ENDBRANCH   2   3
ENDBRANCH   1   2
BRANCH   1   9
ATOM      9  C   UNL     1       1.805   4.114  30.442  1.00  0.00     0.000 C 
BRANCH   9  10
ATOM     10  C   UNL     1       2.800   4.973  31.232  1.00  0.00    -0.000 C 
BRANCH  10  11
ATOM     11  C   UNL     1       3.294   6.160  30.390  1.00  0.00    -0.000 C 
BRANCH  11  12
ATOM     12  C   UNL     1       4.820   6.327  30.439  1.00  0.00    -0.000 C 
BRANCH  12  13
ATOM     13  C   UNL     1       5.562   4.982  30.459  1.00  0.00    -0.003 C 
ATOM     14  C   UNL     1       6.919   5.114  31.144  1.00  0.00     0.004 C 
ENDBRANCH  12  13
ENDBRANCH  11  12
ENDBRANCH  10  11
ENDBRANCH   9  10
ENDBRANCH   1   9
TORSDOF 10
ENDMDL
MODEL 5
REMARK VINA RESULT:    -3.790      7.196     10.001
REMARK INTER + INTRA:          -7.685
REMARK INTER:                  -6.555
REMARK INTRA:                  -1.130
REMARK UNBOUND:                -1.680
REMARK SMILES CCCCCCCCCCCC(=O)[O-]
REMARK SMILES IDX 7 1 8 2 9 3 10 4 11 5 12 6 13 7 14 8 6 9 5 10 4 11 3 12 2 13
REMARK SMILES IDX 1 14
REMARK H PARENT
REMARK Flexibility Score: inf
ROOT
ATOM      1  C   UNL     1       3.948   4.766  30.864  1.00  0.00     0.000 C 
ENDROOT
BRANCH   1   2
ATOM      2  C   UNL     1       4.589   4.553  29.483  1.00  0.00     0.000 C 
BRANCH   2   3
ATOM      3  C   UNL     1       3.651   4.948  28.330  1.00  0.00     0.000 C 
BRANCH   3   4
ATOM      4  C   UNL     1       3.411   3.793  27.344  1.00  0.00     0.006 C 
BRANCH   4   5
ATOM      5  C   UNL     1       1.951   3.700  26.885  1.00  0.00     0.053 C 
BRANCH   5   6
ATOM      6  C   UNL     1       1.639   4.792  25.912  1.00  0.00     0.041 C 
ATOM      7  O   UNL     1       0.761   5.653  26.185  1.00  0.00    -0.550 OA
ATOM      8  O   UNL     1       2.280   4.832  24.680  1.00  0.00    -0.550 OA
ENDBRANCH   5   6
ENDBRANCH   4   5
ENDBRANCH   3   4
ENDBRANCH   2   3
ENDBRANCH   1   2
BRANCH   1   9
ATOM      9  C   UNL     1       2.434   4.513  30.860  1.00  0.00     0.000 C 
BRANCH   9  10
ATOM     10  C   UNL     1       1.699   5.567  31.698  1.00  0.00    -0.000 C 
BRANCH  10  11
ATOM     11  C   UNL     1       0.577   6.232  30.886  1.00  0.00    -0.000 C 
BRANCH  11  12
ATOM     12  C   UNL     1       0.167   5.409  29.655  1.00  0.00    -0.000 C 
BRANCH  12  13
ATOM     13  C   UNL     1      -1.221   5.793  29.122  1.00  0.00    -0.003 C 
ATOM     14  C   UNL     1      -1.850   4.638  28.348  1.00  0.00     0.004 C 
ENDBRANCH  12  13
ENDBRANCH  11  12
ENDBRANCH  10  11
ENDBRANCH   9  10
ENDBRANCH   1   9
TORSDOF 10
ENDMDL
MODEL 6
REMARK VINA RESULT:    -3.769      7.120      9.341
REMARK INTER + INTRA:          -7.652
REMARK INTER:                  -6.107
REMARK INTRA:                  -1.545
REMARK UNBOUND:                -1.680
REMARK SMILES CCCCCCCCCCCC(=O)[O-]
REMARK SMILES IDX 7 1 8 2 9 3 10 4 11 5 12 6 13 7 14 8 6 9 5 10 4 11 3 12 2 13
REMARK SMILES IDX 1 14
REMARK H PARENT
REMARK Flexibility Score: inf
ROOT
ATOM      1  C   UNL     1       0.115   7.403  30.866  1.00  0.00     0.000 C 
ENDROOT
BRANCH   1   2
ATOM      2  C   UNL     1       0.568   7.657  29.419  1.00  0.00     0.000 C 
BRANCH   2   3
ATOM      3  C   UNL     1      -0.160   6.757  28.406  1.00  0.00     0.000 C 
BRANCH   3   4
ATOM      4  C   UNL     1      -1.329   5.985  29.038  1.00  0.00     0.006 C 
BRANCH   4   5
ATOM      5  C   UNL     1      -1.464   4.559  28.488  1.00  0.00     0.053 C 
BRANCH   5   6
ATOM      6  C   UNL     1      -2.185   4.571  27.177  1.00  0.00     0.041 C 
ATOM      7  O   UNL     1      -1.557   4.362  26.106  1.00  0.00    -0.550 OA
ATOM      8  O   UNL     1      -3.542   4.863  27.133  1.00  0.00    -0.550 OA
ENDBRANCH   5   6
ENDBRANCH   4   5
ENDBRANCH   3   4
ENDBRANCH   2   3
ENDBRANCH   1   2
BRANCH   1   9
ATOM      9  C   UNL     1       1.269   6.968  31.781  1.00  0.00     0.000 C 
BRANCH   9  10
ATOM     10  C   UNL     1       1.233   5.454  32.027  1.00  0.00    -0.000 C 
BRANCH  10  11
ATOM     11  C   UNL     1       2.347   4.742  31.243  1.00  0.00    -0.000 C 
BRANCH  11  12
ATOM     12  C   UNL     1       1.823   4.024  29.989  1.00  0.00    -0.000 C 
BRANCH  12  13
ATOM     13  C   UNL     1       2.833   4.043  28.832  1.00  0.00    -0.003 C 
ATOM     14  C   UNL     1       3.408   5.442  28.629  1.00  0.00     0.004 C 
ENDBRANCH  12  13
ENDBRANCH  11  12
ENDBRANCH  10  11
ENDBRANCH   9  10
ENDBRANCH   1   9
TORSDOF 10
ENDMDL
MODEL 7
REMARK VINA RESULT:    -3.686      7.689     10.197
REMARK INTER + INTRA:          -7.521
REMARK INTER:                  -5.930
REMARK INTRA:                  -1.592
REMARK UNBOUND:                -1.680
REMARK SMILES CCCCCCCCCCCC(=O)[O-]
REMARK SMILES IDX 7 1 8 2 9 3 10 4 11 5 12 6 13 7 14 8 6 9 5 10 4 11 3 12 2 13
REMARK SMILES IDX 1 14
REMARK H PARENT
REMARK Flexibility Score: inf
ROOT
ATOM      1  C   UNL     1       4.055   5.231  29.530  1.00  0.00     0.000 C 
ENDROOT
BRANCH   1   2
ATOM      2  C   UNL     1       4.470   6.709  29.448  1.00  0.00     0.000 C 
BRANCH   2   3
ATOM      3  C   UNL     1       3.753   7.461  28.313  1.00  0.00     0.000 C 
BRANCH   3   4
ATOM      4  C   UNL     1       3.992   6.818  26.937  1.00  0.00     0.006 C 
BRANCH   4   5
ATOM      5  C   UNL     1       2.687   6.524  26.186  1.00  0.00     0.053 C 
BRANCH   5   6
ATOM      6  C   UNL     1       2.714   5.143  25.613  1.00  0.00     0.041 C 
ATOM      7  O   UNL     1       1.739   4.717  24.940  1.00  0.00    -0.550 OA
ATOM      8  O   UNL     1       3.794   4.306  25.863  1.00  0.00    -0.550 OA
ENDBRANCH   5   6
ENDBRANCH   4   5
ENDBRANCH   3   4
ENDBRANCH   2   3
ENDBRANCH   1   2
BRANCH   1   9
ATOM      9  C   UNL     1       3.326   4.891  30.838  1.00  0.00     0.000 C 
BRANCH   9  10
ATOM     10  C   UNL     1       2.035   4.112  30.560  1.00  0.00    -0.000 C 
BRANCH  10  11
ATOM     11  C   UNL     1       1.742   4.048  29.053  1.00  0.00    -0.000 C 
BRANCH  11  12
ATOM     12  C   UNL     1       0.421   4.736  28.677  1.00  0.00    -0.000 C 
BRANCH  12  13
ATOM     13  C   UNL     1      -0.021   5.778  29.715  1.00  0.00    -0.003 C 
ATOM     14  C   UNL     1       0.207   7.197  29.200  1.00  0.00     0.004 C 
ENDBRANCH  12  13
ENDBRANCH  11  12
ENDBRANCH  10  11
ENDBRANCH   9  10
ENDBRANCH   1   9
TORSDOF 10
ENDMDL
MODEL 8
REMARK VINA RESULT:    -3.676      8.773     10.633
REMARK INTER + INTRA:          -7.505
REMARK INTER:                  -6.349
REMARK INTRA:                  -1.155
REMARK UNBOUND:                -1.680
REMARK SMILES CCCCCCCCCCCC(=O)[O-]
REMARK SMILES IDX 7 1 8 2 9 3 10 4 11 5 12 6 13 7 14 8 6 9 5 10 4 11 3 12 2 13
REMARK SMILES IDX 1 14
REMARK H PARENT
REMARK Flexibility Score: inf
ROOT
ATOM      1  C   UNL     1       4.761   5.480  29.639  1.00  0.00     0.000 C 
ENDROOT
BRANCH   1   2
ATOM      2  C   UNL     1       4.010   4.924  30.859  1.00  0.00     0.000 C 
BRANCH   2   3
ATOM      3  C   UNL     1       2.574   4.488  30.521  1.00  0.00     0.000 C 
BRANCH   3   4
ATOM      4  C   UNL     1       1.569   4.862  31.623  1.00  0.00     0.006 C 
BRANCH   4   5
ATOM      5  C   UNL     1       1.579   6.361  31.950  1.00  0.00     0.053 C 
BRANCH   5   6
ATOM      6  C   UNL     1       0.909   7.137  30.860  1.00  0.00     0.041 C 
ATOM      7  O   UNL     1      -0.262   6.845  30.502  1.00  0.00    -0.550 OA
ATOM      8  O   UNL     1       1.596   8.151  30.205  1.00  0.00    -0.550 OA
ENDBRANCH   5   6
ENDBRANCH   4   5
ENDBRANCH   3   4
ENDBRANCH   2   3
ENDBRANCH   1   2
BRANCH   1   9
ATOM      9  C   UNL     1       4.851   7.013  29.645  1.00  0.00     0.000 C 
BRANCH   9  10
ATOM     10  C   UNL     1       4.523   7.588  28.262  1.00  0.00    -0.000 C 
BRANCH  10  11
ATOM     11  C   UNL     1       3.673   6.604  27.443  1.00  0.00    -0.000 C 
BRANCH  11  12
ATOM     12  C   UNL     1       4.214   6.396  26.020  1.00  0.00    -0.000 C 
BRANCH  12  13
ATOM     13  C   UNL     1       3.874   5.009  25.455  1.00  0.00    -0.003 C 
ATOM     14  C   UNL     1       3.658   3.998  26.578  1.00  0.00     0.004 C 
ENDBRANCH  12  13
ENDBRANCH  11  12
ENDBRANCH  10  11
ENDBRANCH   9  10
ENDBRANCH   1   9
TORSDOF 10
ENDMDL
MODEL 9
REMARK VINA RESULT:    -3.675      7.617     10.132
REMARK INTER + INTRA:          -7.503
REMARK INTER:                  -6.029
REMARK INTRA:                  -1.474
REMARK UNBOUND:                -1.680
REMARK SMILES CCCCCCCCCCCC(=O)[O-]
REMARK SMILES IDX 7 1 8 2 9 3 10 4 11 5 12 6 13 7 14 8 6 9 5 10 4 11 3 12 2 13
REMARK SMILES IDX 1 14
REMARK H PARENT
REMARK Flexibility Score: inf
ROOT
ATOM      1  C   UNL     1       4.396   7.701  28.386  1.00  0.00     0.000 C 
ENDROOT
BRANCH   1   2
ATOM      2  C   UNL     1       3.480   6.901  27.444  1.00  0.00     0.000 C 
BRANCH   2   3
ATOM      3  C   UNL     1       4.207   6.430  26.173  1.00  0.00     0.000 C 
BRANCH   3   4
ATOM      4  C   UNL     1       3.842   4.988  25.785  1.00  0.00     0.006 C 
BRANCH   4   5
ATOM      5  C   UNL     1       3.107   4.241  26.906  1.00  0.00     0.053 C 
BRANCH   5   6
ATOM      6  C   UNL     1       1.745   3.824  26.450  1.00  0.00     0.041 C 
ATOM      7  O   UNL     1       1.214   2.780  26.911  1.00  0.00    -0.550 OA
ATOM      8  O   UNL     1       1.081   4.561  25.477  1.00  0.00    -0.550 OA
ENDBRANCH   5   6
ENDBRANCH   4   5
ENDBRANCH   3   4
ENDBRANCH   2   3
ENDBRANCH   1   2
BRANCH   1   9
ATOM      9  C   UNL     1       4.442   7.116  29.805  1.00  0.00     0.000 C 
BRANCH   9  10
ATOM     10  C   UNL     1       5.024   5.697  29.795  1.00  0.00    -0.000 C 
BRANCH  10  11
ATOM     11  C   UNL     1       4.205   4.760  30.697  1.00  0.00    -0.000 C 
BRANCH  11  12
ATOM     12  C   UNL     1       2.834   5.344  31.070  1.00  0.00    -0.000 C 
BRANCH  12  13
ATOM     13  C   UNL     1       1.667   4.518  30.508  1.00  0.00    -0.003 C 
ATOM     14  C   UNL     1       0.693   5.401  29.734  1.00  0.00     0.004 C 
ENDBRANCH  12  13
ENDBRANCH  11  12
ENDBRANCH  10  11
ENDBRANCH   9  10
ENDBRANCH   1   9
TORSDOF 10
ENDMDL
