MODEL 1
REMARK VINA RESULT:    34.607      0.000      0.000
REMARK INTER + INTRA:          41.510
REMARK INTER:                  41.688
REMARK INTRA:                  -0.178
REMARK UNBOUND:                -0.178
REMARK SMILES O=c1c(O)c(-c2ccc(O)c(O)c2)oc2cc(O)cc(O)c12
REMARK SMILES IDX 5 1 3 2 2 3 1 4 22 5 20 6 19 7 17 8 16 9 15 10 14 11 6 12
REMARK SMILES IDX 7 13 8 14 9 15 13 16 11 17 10 18 12 20 4 22 21 24 18 26
REMARK H PARENT 10 19 12 21 4 23 21 25 18 27
REMARK Flexibility Score: inf
ROOT
ATOM      1  C   UNL     1      -0.743  10.442  10.568  1.00  0.00     0.180 A 
ATOM      2  C   UNL     1      -0.975   9.283  11.328  1.00  0.00     0.208 A 
ATOM      3  C   UNL     1      -1.271   8.082  10.665  1.00  0.00     0.238 A 
ATOM      4  O   UNL     1      -1.426   7.036  11.347  1.00  0.00    -0.285 OA
ATOM      5  C   UNL     1      -1.347   8.058   9.251  1.00  0.00     0.111 A 
ATOM      6  C   UNL     1      -1.679   6.906   8.477  1.00  0.00     0.134 A 
ATOM      7  C   UNL     1      -1.596   6.965   7.080  1.00  0.00     0.093 A 
ATOM      8  C   UNL     1      -1.258   8.150   6.428  1.00  0.00     0.123 A 
ATOM      9  C   UNL     1      -0.989   9.299   7.174  1.00  0.00     0.094 A 
ATOM     10  C   UNL     1      -1.028   9.262   8.570  1.00  0.00     0.146 A 
ATOM     11  O   UNL     1      -0.756  10.373   9.242  1.00  0.00    -0.452 OA
ENDROOT
BRANCH   1  12
ATOM     12  C   UNL     1      -0.448  11.751  11.197  1.00  0.00     0.025 A 
ATOM     13  C   UNL     1      -1.336  12.832  11.082  1.00  0.00     0.016 A 
ATOM     14  C   UNL     1      -1.026  14.064  11.663  1.00  0.00     0.051 A 
ATOM     15  C   UNL     1       0.177  14.245  12.355  1.00  0.00     0.157 A 
ATOM     16  C   UNL     1       0.768  11.936  11.872  1.00  0.00     0.062 A 
ATOM     17  C   UNL     1       1.087  13.168  12.457  1.00  0.00     0.158 A 
BRANCH  15  18
ATOM     18  O   UNL     1       0.424  15.500  12.915  1.00  0.00    -0.504 OA
ATOM     19  H   UNL     1       1.344  15.905  13.008  1.00  0.00     0.293 HD
ENDBRANCH  15  18
BRANCH  17  20
ATOM     20  O   UNL     1       2.310  13.276  13.124  1.00  0.00    -0.504 OA
ATOM     21  H   UNL     1       3.178  13.530  12.675  1.00  0.00     0.293 HD
ENDBRANCH  17  20
ENDBRANCH   1  12
BRANCH   2  22
ATOM     22  O   UNL     1      -0.875   9.324  12.721  1.00  0.00    -0.502 OA
ATOM     23  H   UNL     1      -1.019  10.174  13.252  1.00  0.00     0.293 HD
ENDBRANCH   2  22
BRANCH   6  24
ATOM     24  O   UNL     1      -2.120   5.697   9.024  1.00  0.00    -0.507 OA
ATOM     25  H   UNL     1      -1.552   5.080   9.583  1.00  0.00     0.293 HD
ENDBRANCH   6  24
BRANCH   8  26
ATOM     26  O   UNL     1      -1.201   8.178   5.037  1.00  0.00    -0.508 OA
ATOM     27  H   UNL     1      -0.331   8.030   4.538  1.00  0.00     0.293 HD
ENDBRANCH   8  26
TORSDOF 6
ENDMDL
