MODEL 1
REMARK VINA RESULT:     3.371      0.000      0.000
REMARK INTER + INTRA:           3.744
REMARK INTER:                   3.963
REMARK INTRA:                  -0.218
REMARK UNBOUND:                -0.218
REMARK SMILES O=c1c(O)c(-c2ccc(O)cc2)oc2cc(O)cc(O)c12
REMARK SMILES IDX 5 1 3 2 2 3 1 4 21 5 19 6 18 7 16 8 15 9 14 10 13 11 6 12
REMARK SMILES IDX 7 13 8 14 9 15 12 16 11 17 10 18 4 20 20 22 17 24
REMARK H PARENT 10 19 4 21 20 23 17 25
REMARK Flexibility Score: inf
ROOT
ATOM      1  C   UNL     1     156.810 162.759 155.765  1.00  0.00     0.180 A 
ATOM      2  C   UNL     1     156.451 163.655 156.789  1.00  0.00     0.208 A 
ATOM      3  C   UNL     1     155.370 163.336 157.626  1.00  0.00     0.238 A 
ATOM      4  O   UNL     1     155.089 164.115 158.573  1.00  0.00    -0.285 OA
ATOM      5  C   UNL     1     154.651 162.134 157.419  1.00  0.00     0.111 A 
ATOM      6  C   UNL     1     153.514 161.729 158.181  1.00  0.00     0.134 A 
ATOM      7  C   UNL     1     152.959 160.460 157.975  1.00  0.00     0.093 A 
ATOM      8  C   UNL     1     153.460 159.607 156.991  1.00  0.00     0.123 A 
ATOM      9  C   UNL     1     154.534 160.016 156.201  1.00  0.00     0.094 A 
ATOM     10  C   UNL     1     155.131 161.262 156.407  1.00  0.00     0.146 A 
ATOM     11  O   UNL     1     156.157 161.609 155.640  1.00  0.00    -0.452 OA
ENDROOT
BRANCH   1  12
ATOM     12  C   UNL     1     157.922 163.037 154.829  1.00  0.00     0.021 A 
ATOM     13  C   UNL     1     159.249 162.891 155.268  1.00  0.00     0.016 A 
ATOM     14  C   UNL     1     160.314 163.127 154.393  1.00  0.00     0.047 A 
ATOM     15  C   UNL     1     160.068 163.495 153.067  1.00  0.00     0.115 A 
ATOM     16  C   UNL     1     157.681 163.389 153.488  1.00  0.00     0.016 A 
ATOM     17  C   UNL     1     158.748 163.623 152.616  1.00  0.00     0.047 A 
BRANCH  15  18
ATOM     18  O   UNL     1     161.139 163.728 152.207  1.00  0.00    -0.508 OA
ATOM     19  H   UNL     1     161.026 163.697 151.201  1.00  0.00     0.293 HD
ENDBRANCH  15  18
ENDBRANCH   1  12
BRANCH   2  20
ATOM     20  O   UNL     1     157.189 164.824 156.989  1.00  0.00    -0.502 OA
ATOM     21  H   UNL     1     157.154 165.606 156.345  1.00  0.00     0.293 HD
ENDBRANCH   2  20
BRANCH   6  22
ATOM     22  O   UNL     1     152.877 162.542 159.125  1.00  0.00    -0.507 OA
ATOM     23  H   UNL     1     152.133 163.189 158.917  1.00  0.00     0.293 HD
ENDBRANCH   6  22
BRANCH   8  24
ATOM     24  O   UNL     1     152.875 158.357 156.804  1.00  0.00    -0.508 OA
ATOM     25  H   UNL     1     152.038 158.082 157.306  1.00  0.00     0.293 HD
ENDBRANCH   8  24
TORSDOF 5
ENDMDL
MODEL 2
REMARK VINA RESULT:     3.941     11.411     12.516
REMARK INTER + INTRA:           4.413
REMARK INTER:                   4.649
REMARK INTRA:                  -0.236
REMARK UNBOUND:                -0.218
REMARK SMILES O=c1c(O)c(-c2ccc(O)cc2)oc2cc(O)cc(O)c12
REMARK SMILES IDX 5 1 3 2 2 3 1 4 21 5 19 6 18 7 16 8 15 9 14 10 13 11 6 12
REMARK SMILES IDX 7 13 8 14 9 15 12 16 11 17 10 18 4 20 20 22 17 24
REMARK H PARENT 10 19 4 21 20 23 17 25
REMARK Flexibility Score: inf
ROOT
ATOM      1  C   UNL     1     167.334 164.447 152.407  1.00  0.00     0.180 A 
ATOM      2  C   UNL     1     167.166 163.386 153.315  1.00  0.00     0.208 A 
ATOM      3  C   UNL     1     167.147 163.665 154.691  1.00  0.00     0.238 A 
ATOM      4  O   UNL     1     166.942 162.719 155.496  1.00  0.00    -0.285 OA
ATOM      5  C   UNL     1     167.311 164.997 155.142  1.00  0.00     0.111 A 
ATOM      6  C   UNL     1     167.348 165.389 156.514  1.00  0.00     0.134 A 
ATOM      7  C   UNL     1     167.384 166.749 156.844  1.00  0.00     0.093 A 
ATOM      8  C   UNL     1     167.451 167.729 155.853  1.00  0.00     0.123 A 
ATOM      9  C   UNL     1     167.475 167.354 154.509  1.00  0.00     0.094 A 
ATOM     10  C   UNL     1     167.403 166.006 154.149  1.00  0.00     0.146 A 
ATOM     11  O   UNL     1     167.419 165.692 152.859  1.00  0.00    -0.452 OA
ENDROOT
BRANCH   1  12
ATOM     12  C   UNL     1     167.390 164.229 150.944  1.00  0.00     0.021 A 
ATOM     13  C   UNL     1     168.551 163.684 150.370  1.00  0.00     0.016 A 
ATOM     14  C   UNL     1     168.617 163.448 148.992  1.00  0.00     0.047 A 
ATOM     15  C   UNL     1     167.520 163.738 148.175  1.00  0.00     0.115 A 
ATOM     16  C   UNL     1     166.282 164.500 150.118  1.00  0.00     0.016 A 
ATOM     17  C   UNL     1     166.351 164.263 148.743  1.00  0.00     0.047 A 
BRANCH  15  18
ATOM     18  O   UNL     1     167.599 163.499 146.805  1.00  0.00    -0.508 OA
ATOM     19  H   UNL     1     166.880 162.981 146.316  1.00  0.00     0.293 HD
ENDBRANCH  15  18
ENDBRANCH   1  12
BRANCH   2  20
ATOM     20  O   UNL     1     166.984 162.083 152.847  1.00  0.00    -0.502 OA
ATOM     21  H   UNL     1     167.429 161.740 152.004  1.00  0.00     0.293 HD
ENDBRANCH   2  20
BRANCH   6  22
ATOM     22  O   UNL     1     167.379 164.487 157.583  1.00  0.00    -0.507 OA
ATOM     23  H   UNL     1     167.396 163.483 157.487  1.00  0.00     0.293 HD
ENDBRANCH   6  22
BRANCH   8  24
ATOM     24  O   UNL     1     167.501 169.072 156.217  1.00  0.00    -0.508 OA
ATOM     25  H   UNL     1     166.870 169.457 156.911  1.00  0.00     0.293 HD
ENDBRANCH   8  24
TORSDOF 5
ENDMDL
MODEL 3
REMARK VINA RESULT:     3.985     11.303     13.483
REMARK INTER + INTRA:           4.465
REMARK INTER:                   4.557
REMARK INTRA:                  -0.092
REMARK UNBOUND:                -0.218
REMARK SMILES O=c1c(O)c(-c2ccc(O)cc2)oc2cc(O)cc(O)c12
REMARK SMILES IDX 5 1 3 2 2 3 1 4 21 5 19 6 18 7 16 8 15 9 14 10 13 11 6 12
REMARK SMILES IDX 7 13 8 14 9 15 12 16 11 17 10 18 4 20 20 22 17 24
REMARK H PARENT 10 19 4 21 20 23 17 25
REMARK Flexibility Score: inf
ROOT
ATOM      1  C   UNL     1     167.455 163.948 152.069  1.00  0.00     0.180 A 
ATOM      2  C   UNL     1     168.513 163.353 151.358  1.00  0.00     0.208 A 
ATOM      3  C   UNL     1     168.525 163.440 149.956  1.00  0.00     0.238 A 
ATOM      4  O   UNL     1     169.502 162.953 149.330  1.00  0.00    -0.285 OA
ATOM      5  C   UNL     1     167.472 164.105 149.283  1.00  0.00     0.111 A 
ATOM      6  C   UNL     1     167.362 164.217 147.864  1.00  0.00     0.134 A 
ATOM      7  C   UNL     1     166.347 165.009 147.311  1.00  0.00     0.093 A 
ATOM      8  C   UNL     1     165.402 165.638 148.121  1.00  0.00     0.123 A 
ATOM      9  C   UNL     1     165.466 165.486 149.506  1.00  0.00     0.094 A 
ATOM     10  C   UNL     1     166.487 164.733 150.089  1.00  0.00     0.146 A 
ATOM     11  O   UNL     1     166.518 164.621 151.412  1.00  0.00    -0.452 OA
ENDROOT
BRANCH   1  12
ATOM     12  C   UNL     1     167.361 163.878 153.544  1.00  0.00     0.021 A 
ATOM     13  C   UNL     1     167.264 162.624 154.172  1.00  0.00     0.016 A 
ATOM     14  C   UNL     1     167.197 162.533 155.566  1.00  0.00     0.047 A 
ATOM     15  C   UNL     1     167.242 163.690 156.350  1.00  0.00     0.115 A 
ATOM     16  C   UNL     1     167.426 165.037 154.340  1.00  0.00     0.016 A 
ATOM     17  C   UNL     1     167.359 164.942 155.733  1.00  0.00     0.047 A 
BRANCH  15  18
ATOM     18  O   UNL     1     167.174 163.585 157.738  1.00  0.00    -0.508 OA
ATOM     19  H   UNL     1     166.850 162.739 158.189  1.00  0.00     0.293 HD
ENDBRANCH  15  18
ENDBRANCH   1  12
BRANCH   2  20
ATOM     20  O   UNL     1     169.553 162.721 152.044  1.00  0.00    -0.502 OA
ATOM     21  H   UNL     1     169.493 161.760 152.358  1.00  0.00     0.293 HD
ENDBRANCH   2  20
BRANCH   6  22
ATOM     22  O   UNL     1     168.198 163.554 146.961  1.00  0.00    -0.507 OA
ATOM     23  H   UNL     1     169.003 163.967 146.514  1.00  0.00     0.293 HD
ENDBRANCH   6  22
BRANCH   8  24
ATOM     24  O   UNL     1     164.398 166.406 147.536  1.00  0.00    -0.508 OA
ATOM     25  H   UNL     1     163.710 166.895 148.096  1.00  0.00     0.293 HD
ENDBRANCH   8  24
TORSDOF 5
ENDMDL
MODEL 4
REMARK VINA RESULT:     4.876     11.096     11.588
REMARK INTER + INTRA:           5.513
REMARK INTER:                   5.788
REMARK INTRA:                  -0.275
REMARK UNBOUND:                -0.218
REMARK SMILES O=c1c(O)c(-c2ccc(O)cc2)oc2cc(O)cc(O)c12
REMARK SMILES IDX 5 1 3 2 2 3 1 4 21 5 19 6 18 7 16 8 15 9 14 10 13 11 6 12
REMARK SMILES IDX 7 13 8 14 9 15 12 16 11 17 10 18 4 20 20 22 17 24
REMARK H PARENT 10 19 4 21 20 23 17 25
REMARK Flexibility Score: inf
ROOT
ATOM      1  C   UNL     1     167.382 163.732 153.666  1.00  0.00     0.180 A 
ATOM      2  C   UNL     1     167.409 164.921 154.417  1.00  0.00     0.208 A 
ATOM      3  C   UNL     1     167.323 164.846 155.817  1.00  0.00     0.238 A 
ATOM      4  O   UNL     1     167.403 165.909 156.485  1.00  0.00    -0.285 OA
ATOM      5  C   UNL     1     167.196 163.584 156.447  1.00  0.00     0.111 A 
ATOM      6  C   UNL     1     167.061 163.392 157.855  1.00  0.00     0.134 A 
ATOM      7  C   UNL     1     167.073 162.094 158.379  1.00  0.00     0.093 A 
ATOM      8  C   UNL     1     167.150 160.980 157.543  1.00  0.00     0.123 A 
ATOM      9  C   UNL     1     167.222 161.155 156.161  1.00  0.00     0.094 A 
ATOM     10  C   UNL     1     167.249 162.438 155.610  1.00  0.00     0.146 A 
ATOM     11  O   UNL     1     167.329 162.562 154.291  1.00  0.00    -0.452 OA
ENDROOT
BRANCH   1  12
ATOM     12  C   UNL     1     167.443 163.734 152.187  1.00  0.00     0.021 A 
ATOM     13  C   UNL     1     168.647 163.402 151.544  1.00  0.00     0.016 A 
ATOM     14  C   UNL     1     168.721 163.375 150.148  1.00  0.00     0.047 A 
ATOM     15  C   UNL     1     167.590 163.662 149.378  1.00  0.00     0.115 A 
ATOM     16  C   UNL     1     166.303 164.002 151.406  1.00  0.00     0.016 A 
ATOM     17  C   UNL     1     166.380 163.974 150.011  1.00  0.00     0.047 A 
BRANCH  15  18
ATOM     18  O   UNL     1     167.678 163.631 147.987  1.00  0.00    -0.508 OA
ATOM     19  H   UNL     1     168.227 164.312 147.477  1.00  0.00     0.293 HD
ENDBRANCH  15  18
ENDBRANCH   1  12
BRANCH   2  20
ATOM     20  O   UNL     1     167.557 166.154 153.775  1.00  0.00    -0.502 OA
ATOM     21  H   UNL     1     166.907 166.919 153.910  1.00  0.00     0.293 HD
ENDBRANCH   2  20
BRANCH   6  22
ATOM     22  O   UNL     1     166.885 164.434 158.771  1.00  0.00    -0.507 OA
ATOM     23  H   UNL     1     166.218 165.182 158.668  1.00  0.00     0.293 HD
ENDBRANCH   6  22
BRANCH   8  24
ATOM     24  O   UNL     1     167.144 159.703 158.098  1.00  0.00    -0.508 OA
ATOM     25  H   UNL     1     167.202 159.560 159.100  1.00  0.00     0.293 HD
ENDBRANCH   8  24
TORSDOF 5
ENDMDL
MODEL 5
REMARK VINA RESULT:     5.455     15.241     19.290
REMARK INTER + INTRA:           6.193
REMARK INTER:                   5.862
REMARK INTRA:                   0.331
REMARK UNBOUND:                -0.218
REMARK SMILES O=c1c(O)c(-c2ccc(O)cc2)oc2cc(O)cc(O)c12
REMARK SMILES IDX 5 1 3 2 2 3 1 4 21 5 19 6 18 7 16 8 15 9 14 10 13 11 6 12
REMARK SMILES IDX 7 13 8 14 9 15 12 16 11 17 10 18 4 20 20 22 17 24
REMARK H PARENT 10 19 4 21 20 23 17 25
REMARK Flexibility Score: inf
ROOT
ATOM      1  C   UNL     1     167.583 175.802 155.414  1.00  0.00     0.180 A 
ATOM      2  C   UNL     1     167.859 176.046 154.057  1.00  0.00     0.208 A 
ATOM      3  C   UNL     1     169.180 176.322 153.669  1.00  0.00     0.238 A 
ATOM      4  O   UNL     1     169.428 176.485 152.446  1.00  0.00    -0.285 OA
ATOM      5  C   UNL     1     170.205 176.367 154.644  1.00  0.00     0.111 A 
ATOM      6  C   UNL     1     171.571 176.677 154.369  1.00  0.00     0.134 A 
ATOM      7  C   UNL     1     172.524 176.565 155.389  1.00  0.00     0.093 A 
ATOM      8  C   UNL     1     172.151 176.218 156.688  1.00  0.00     0.123 A 
ATOM      9  C   UNL     1     170.810 175.970 156.981  1.00  0.00     0.094 A 
ATOM     10  C   UNL     1     169.842 176.038 155.976  1.00  0.00     0.146 A 
ATOM     11  O   UNL     1     168.578 175.786 156.294  1.00  0.00    -0.452 OA
ENDROOT
BRANCH   1  12
ATOM     12  C   UNL     1     166.213 175.528 155.902  1.00  0.00     0.021 A 
ATOM     13  C   UNL     1     166.036 174.849 157.120  1.00  0.00     0.016 A 
ATOM     14  C   UNL     1     164.750 174.600 157.611  1.00  0.00     0.047 A 
ATOM     15  C   UNL     1     163.628 175.040 156.903  1.00  0.00     0.115 A 
ATOM     16  C   UNL     1     165.080 175.986 155.204  1.00  0.00     0.016 A 
ATOM     17  C   UNL     1     163.797 175.736 155.699  1.00  0.00     0.047 A 
BRANCH  15  18
ATOM     18  O   UNL     1     162.353 174.785 157.403  1.00  0.00    -0.508 OA
ATOM     19  H   UNL     1     161.712 175.536 157.626  1.00  0.00     0.293 HD
ENDBRANCH  15  18
ENDBRANCH   1  12
BRANCH   2  20
ATOM     20  O   UNL     1     166.835 175.975 153.108  1.00  0.00    -0.502 OA
ATOM     21  H   UNL     1     167.003 175.706 152.146  1.00  0.00     0.293 HD
ENDBRANCH   2  20
BRANCH   6  22
ATOM     22  O   UNL     1     172.036 177.123 153.128  1.00  0.00    -0.507 OA
ATOM     23  H   UNL     1     172.113 178.092 152.858  1.00  0.00     0.293 HD
ENDBRANCH   6  22
BRANCH   8  24
ATOM     24  O   UNL     1     173.123 176.130 157.681  1.00  0.00    -0.508 OA
ATOM     25  H   UNL     1     172.880 175.931 158.645  1.00  0.00     0.293 HD
ENDBRANCH   8  24
TORSDOF 5
ENDMDL
