MODEL 1
REMARK VINA RESULT:    -4.712      0.000      0.000
REMARK INTER + INTRA:         -11.459
REMARK INTER:                  -9.119
REMARK INTRA:                  -2.340
REMARK UNBOUND:                -2.340
REMARK SMILES CCCCCCCCCCCCCCCCCC(=O)[O-]
REMARK SMILES IDX 10 1 11 2 12 3 13 4 14 5 15 6 16 7 17 8 18 9 19 10 20 11
REMARK SMILES IDX 9 12 8 13 7 14 6 15 5 16 4 17 3 18 2 19 1 20
REMARK H PARENT
REMARK Flexibility Score: inf
ROOT
ATOM      1  C   UNL     1     -24.768 -63.969   3.674  1.00  0.00     0.000 C 
ENDROOT
BRANCH   1   2
ATOM      2  C   UNL     1     -25.435 -62.645   3.267  1.00  0.00     0.000 C 
BRANCH   2   3
ATOM      3  C   UNL     1     -24.543 -61.801   2.342  1.00  0.00     0.000 C 
BRANCH   3   4
ATOM      4  C   UNL     1     -23.348 -62.590   1.783  1.00  0.00     0.000 C 
BRANCH   4   5
ATOM      5  C   UNL     1     -22.159 -61.700   1.360  1.00  0.00     0.000 C 
BRANCH   5   6
ATOM      6  C   UNL     1     -22.540 -60.209   1.309  1.00  0.00     0.000 C 
BRANCH   6   7
ATOM      7  C   UNL     1     -21.876 -59.460   0.136  1.00  0.00     0.006 C 
BRANCH   7   8
ATOM      8  C   UNL     1     -22.495 -59.779  -1.236  1.00  0.00     0.053 C 
BRANCH   8   9
ATOM      9  C   UNL     1     -23.789 -59.060  -1.469  1.00  0.00     0.041 C 
ATOM     10  O   UNL     1     -24.779 -59.671  -1.954  1.00  0.00    -0.550 OA
ATOM     11  O   UNL     1     -23.898 -57.708  -1.165  1.00  0.00    -0.550 OA
ENDBRANCH   8   9
ENDBRANCH   7   8
ENDBRANCH   6   7
ENDBRANCH   5   6
ENDBRANCH   4   5
ENDBRANCH   3   4
ENDBRANCH   2   3
ENDBRANCH   1   2
BRANCH   1  12
ATOM     12  C   UNL     1     -24.976 -64.301   5.162  1.00  0.00     0.000 C 
BRANCH  12  13
ATOM     13  C   UNL     1     -23.997 -63.532   6.075  1.00  0.00    -0.000 C 
BRANCH  13  14
ATOM     14  C   UNL     1     -22.664 -63.172   5.388  1.00  0.00    -0.000 C 
BRANCH  14  15
ATOM     15  C   UNL     1     -22.246 -61.698   5.521  1.00  0.00    -0.000 C 
BRANCH  15  16
ATOM     16  C   UNL     1     -23.415 -60.705   5.680  1.00  0.00    -0.000 C 
BRANCH  16  17
ATOM     17  C   UNL     1     -23.274 -59.435   4.811  1.00  0.00    -0.000 C 
BRANCH  17  18
ATOM     18  C   UNL     1     -22.658 -58.260   5.592  1.00  0.00    -0.000 C 
BRANCH  18  19
ATOM     19  C   UNL     1     -22.352 -57.054   4.694  1.00  0.00    -0.003 C 
ATOM     20  C   UNL     1     -22.864 -57.236   3.265  1.00  0.00     0.004 C 
ENDBRANCH  18  19
ENDBRANCH  17  18
ENDBRANCH  16  17
ENDBRANCH  15  16
ENDBRANCH  14  15
ENDBRANCH  13  14
ENDBRANCH  12  13
ENDBRANCH   1  12
TORSDOF 16
ENDMDL
MODEL 2
REMARK VINA RESULT:    -4.665      1.135      2.419
REMARK INTER + INTRA:         -11.368
REMARK INTER:                  -8.936
REMARK INTRA:                  -2.432
REMARK UNBOUND:                -2.340
REMARK SMILES CCCCCCCCCCCCCCCCCC(=O)[O-]
REMARK SMILES IDX 10 1 11 2 12 3 13 4 14 5 15 6 16 7 17 8 18 9 19 10 20 11
REMARK SMILES IDX 9 12 8 13 7 14 6 15 5 16 4 17 3 18 2 19 1 20
REMARK H PARENT
REMARK Flexibility Score: inf
ROOT
ATOM      1  C   UNL     1     -24.597 -62.117   2.439  1.00  0.00     0.000 C 
ENDROOT
BRANCH   1   2
ATOM      2  C   UNL     1     -23.482 -63.114   2.088  1.00  0.00     0.000 C 
BRANCH   2   3
ATOM      3  C   UNL     1     -22.167 -62.412   1.712  1.00  0.00     0.000 C 
BRANCH   3   4
ATOM      4  C   UNL     1     -22.207 -61.782   0.310  1.00  0.00     0.000 C 
BRANCH   4   5
ATOM      5  C   UNL     1     -21.904 -60.268   0.300  1.00  0.00     0.000 C 
BRANCH   5   6
ATOM      6  C   UNL     1     -22.356 -59.595  -1.008  1.00  0.00     0.000 C 
BRANCH   6   7
ATOM      7  C   UNL     1     -23.846 -59.836  -1.323  1.00  0.00     0.006 C 
BRANCH   7   8
ATOM      8  C   UNL     1     -24.805 -59.289  -0.251  1.00  0.00     0.053 C 
BRANCH   8   9
ATOM      9  C   UNL     1     -25.399 -57.965  -0.627  1.00  0.00     0.041 C 
ATOM     10  O   UNL     1     -24.665 -56.947  -0.742  1.00  0.00    -0.550 OA
ATOM     11  O   UNL     1     -26.769 -57.851  -0.836  1.00  0.00    -0.550 OA
ENDBRANCH   8   9
ENDBRANCH   7   8
ENDBRANCH   6   7
ENDBRANCH   5   6
ENDBRANCH   4   5
ENDBRANCH   3   4
ENDBRANCH   2   3
ENDBRANCH   1   2
BRANCH   1  12
ATOM     12  C   UNL     1     -25.561 -62.662   3.508  1.00  0.00     0.000 C 
BRANCH  12  13
ATOM     13  C   UNL     1     -25.301 -64.151   3.825  1.00  0.00    -0.000 C 
BRANCH  13  14
ATOM     14  C   UNL     1     -24.846 -64.403   5.276  1.00  0.00    -0.000 C 
BRANCH  14  15
ATOM     15  C   UNL     1     -24.300 -63.165   6.007  1.00  0.00    -0.000 C 
BRANCH  15  16
ATOM     16  C   UNL     1     -22.770 -62.990   5.932  1.00  0.00    -0.000 C 
BRANCH  16  17
ATOM     17  C   UNL     1     -22.324 -61.551   5.591  1.00  0.00    -0.000 C 
BRANCH  17  18
ATOM     18  C   UNL     1     -23.407 -60.510   5.928  1.00  0.00    -0.000 C 
BRANCH  18  19
ATOM     19  C   UNL     1     -23.117 -59.137   5.306  1.00  0.00    -0.003 C 
ATOM     20  C   UNL     1     -23.147 -59.163   3.777  1.00  0.00     0.004 C 
ENDBRANCH  18  19
ENDBRANCH  17  18
ENDBRANCH  16  17
ENDBRANCH  15  16
ENDBRANCH  14  15
ENDBRANCH  13  14
ENDBRANCH  12  13
ENDBRANCH   1  12
TORSDOF 16
ENDMDL
MODEL 3
REMARK VINA RESULT:    -4.647      1.579      3.329
REMARK INTER + INTRA:         -11.335
REMARK INTER:                  -8.398
REMARK INTRA:                  -2.937
REMARK UNBOUND:                -2.340
REMARK SMILES CCCCCCCCCCCCCCCCCC(=O)[O-]
REMARK SMILES IDX 10 1 11 2 12 3 13 4 14 5 15 6 16 7 17 8 18 9 19 10 20 11
REMARK SMILES IDX 9 12 8 13 7 14 6 15 5 16 4 17 3 18 2 19 1 20
REMARK H PARENT
REMARK Flexibility Score: inf
ROOT
ATOM      1  C   UNL     1     -23.508 -61.496   1.583  1.00  0.00     0.000 C 
ENDROOT
BRANCH   1   2
ATOM      2  C   UNL     1     -22.606 -60.253   1.616  1.00  0.00     0.000 C 
BRANCH   2   3
ATOM      3  C   UNL     1     -23.081 -59.212   2.643  1.00  0.00     0.000 C 
BRANCH   3   4
ATOM      4  C   UNL     1     -23.029 -57.774   2.103  1.00  0.00     0.000 C 
BRANCH   4   5
ATOM      5  C   UNL     1     -23.952 -57.533   0.889  1.00  0.00     0.000 C 
BRANCH   5   6
ATOM      6  C   UNL     1     -25.402 -57.966   1.168  1.00  0.00     0.000 C 
BRANCH   6   7
ATOM      7  C   UNL     1     -25.994 -58.840   0.044  1.00  0.00     0.006 C 
BRANCH   7   8
ATOM      8  C   UNL     1     -24.972 -59.245  -1.033  1.00  0.00     0.053 C 
BRANCH   8   9
ATOM      9  C   UNL     1     -25.318 -58.710  -2.390  1.00  0.00     0.041 C 
ATOM     10  O   UNL     1     -24.938 -57.559  -2.736  1.00  0.00    -0.550 OA
ATOM     11  O   UNL     1     -26.074 -59.477  -3.268  1.00  0.00    -0.550 OA
ENDBRANCH   8   9
ENDBRANCH   7   8
ENDBRANCH   6   7
ENDBRANCH   5   6
ENDBRANCH   4   5
ENDBRANCH   3   4
ENDBRANCH   2   3
ENDBRANCH   1   2
BRANCH   1  12
ATOM     12  C   UNL     1     -24.749 -61.349   2.482  1.00  0.00     0.000 C 
BRANCH  12  13
ATOM     13  C   UNL     1     -25.161 -62.686   3.135  1.00  0.00    -0.000 C 
BRANCH  13  14
ATOM     14  C   UNL     1     -23.970 -63.615   3.444  1.00  0.00    -0.000 C 
BRANCH  14  15
ATOM     15  C   UNL     1     -23.412 -63.498   4.873  1.00  0.00    -0.000 C 
BRANCH  15  16
ATOM     16  C   UNL     1     -22.168 -62.597   5.010  1.00  0.00    -0.000 C 
BRANCH  16  17
ATOM     17  C   UNL     1     -22.435 -61.281   5.773  1.00  0.00    -0.000 C 
BRANCH  17  18
ATOM     18  C   UNL     1     -23.911 -61.134   6.185  1.00  0.00    -0.000 C 
BRANCH  18  19
ATOM     19  C   UNL     1     -24.431 -59.700   6.013  1.00  0.00    -0.003 C 
ATOM     20  C   UNL     1     -23.341 -58.648   6.225  1.00  0.00     0.004 C 
ENDBRANCH  18  19
ENDBRANCH  17  18
ENDBRANCH  16  17
ENDBRANCH  15  16
ENDBRANCH  14  15
ENDBRANCH  13  14
ENDBRANCH  12  13
ENDBRANCH   1  12
TORSDOF 16
ENDMDL
MODEL 4
REMARK VINA RESULT:    -4.644      1.512      4.534
REMARK INTER + INTRA:         -11.329
REMARK INTER:                  -8.485
REMARK INTRA:                  -2.844
REMARK UNBOUND:                -2.340
REMARK SMILES CCCCCCCCCCCCCCCCCC(=O)[O-]
REMARK SMILES IDX 10 1 11 2 12 3 13 4 14 5 15 6 16 7 17 8 18 9 19 10 20 11
REMARK SMILES IDX 9 12 8 13 7 14 6 15 5 16 4 17 3 18 2 19 1 20
REMARK H PARENT
REMARK Flexibility Score: inf
ROOT
ATOM      1  C   UNL     1     -22.140 -58.741   0.259  1.00  0.00     0.000 C 
ENDROOT
BRANCH   1   2
ATOM      2  C   UNL     1     -21.972 -60.258   0.435  1.00  0.00     0.000 C 
BRANCH   2   3
ATOM      3  C   UNL     1     -22.634 -60.775   1.723  1.00  0.00     0.000 C 
BRANCH   3   4
ATOM      4  C   UNL     1     -24.096 -61.201   1.513  1.00  0.00     0.000 C 
BRANCH   4   5
ATOM      5  C   UNL     1     -25.106 -60.386   2.350  1.00  0.00     0.000 C 
BRANCH   5   6
ATOM      6  C   UNL     1     -26.082 -59.588   1.466  1.00  0.00     0.000 C 
BRANCH   6   7
ATOM      7  C   UNL     1     -25.691 -59.605  -0.026  1.00  0.00     0.006 C 
BRANCH   7   8
ATOM      8  C   UNL     1     -25.755 -58.223  -0.701  1.00  0.00     0.053 C 
BRANCH   8   9
ATOM      9  C   UNL     1     -25.242 -58.243  -2.110  1.00  0.00     0.041 C 
ATOM     10  O   UNL     1     -24.508 -57.310  -2.533  1.00  0.00    -0.550 OA
ATOM     11  O   UNL     1     -25.588 -59.286  -2.961  1.00  0.00    -0.550 OA
ENDBRANCH   8   9
ENDBRANCH   7   8
ENDBRANCH   6   7
ENDBRANCH   5   6
ENDBRANCH   4   5
ENDBRANCH   3   4
ENDBRANCH   2   3
ENDBRANCH   1   2
BRANCH   1  12
ATOM     12  C   UNL     1     -22.005 -57.975   1.588  1.00  0.00     0.000 C 
BRANCH  12  13
ATOM     13  C   UNL     1     -23.289 -57.196   1.946  1.00  0.00    -0.000 C 
BRANCH  13  14
ATOM     14  C   UNL     1     -23.593 -57.167   3.458  1.00  0.00    -0.000 C 
BRANCH  14  15
ATOM     15  C   UNL     1     -22.601 -57.953   4.332  1.00  0.00    -0.000 C 
BRANCH  15  16
ATOM     16  C   UNL     1     -23.183 -58.480   5.658  1.00  0.00    -0.000 C 
BRANCH  16  17
ATOM     17  C   UNL     1     -23.638 -59.955   5.596  1.00  0.00    -0.000 C 
BRANCH  17  18
ATOM     18  C   UNL     1     -22.457 -60.935   5.707  1.00  0.00    -0.000 C 
BRANCH  18  19
ATOM     19  C   UNL     1     -22.714 -62.254   4.965  1.00  0.00    -0.003 C 
ATOM     20  C   UNL     1     -22.509 -63.481   5.853  1.00  0.00     0.004 C 
ENDBRANCH  18  19
ENDBRANCH  17  18
ENDBRANCH  16  17
ENDBRANCH  15  16
ENDBRANCH  14  15
ENDBRANCH  13  14
ENDBRANCH  12  13
ENDBRANCH   1  12
TORSDOF 16
ENDMDL
MODEL 5
REMARK VINA RESULT:    -4.591      2.443      4.713
REMARK INTER + INTRA:         -11.225
REMARK INTER:                  -8.618
REMARK INTRA:                  -2.607
REMARK UNBOUND:                -2.340
REMARK SMILES CCCCCCCCCCCCCCCCCC(=O)[O-]
REMARK SMILES IDX 10 1 11 2 12 3 13 4 14 5 15 6 16 7 17 8 18 9 19 10 20 11
REMARK SMILES IDX 9 12 8 13 7 14 6 15 5 16 4 17 3 18 2 19 1 20
REMARK H PARENT
REMARK Flexibility Score: inf
ROOT
ATOM      1  C   UNL     1     -22.360 -62.218   1.842  1.00  0.00     0.000 C 
ENDROOT
BRANCH   1   2
ATOM      2  C   UNL     1     -21.979 -62.224   0.353  1.00  0.00     0.000 C 
BRANCH   2   3
ATOM      3  C   UNL     1     -21.875 -60.805  -0.230  1.00  0.00     0.000 C 
BRANCH   3   4
ATOM      4  C   UNL     1     -22.782 -59.796   0.492  1.00  0.00     0.000 C 
BRANCH   4   5
ATOM      5  C   UNL     1     -22.090 -58.451   0.804  1.00  0.00     0.000 C 
BRANCH   5   6
ATOM      6  C   UNL     1     -22.618 -57.814   2.102  1.00  0.00     0.000 C 
BRANCH   6   7
ATOM      7  C   UNL     1     -23.254 -58.842   3.059  1.00  0.00     0.006 C 
BRANCH   7   8
ATOM      8  C   UNL     1     -24.611 -58.400   3.634  1.00  0.00     0.053 C 
BRANCH   8   9
ATOM      9  C   UNL     1     -24.474 -57.357   4.704  1.00  0.00     0.041 C 
ATOM     10  O   UNL     1     -24.143 -57.686   5.874  1.00  0.00    -0.550 OA
ATOM     11  O   UNL     1     -24.728 -56.023   4.411  1.00  0.00    -0.550 OA
ENDBRANCH   8   9
ENDBRANCH   7   8
ENDBRANCH   6   7
ENDBRANCH   5   6
ENDBRANCH   4   5
ENDBRANCH   3   4
ENDBRANCH   2   3
ENDBRANCH   1   2
BRANCH   1  12
ATOM     12  C   UNL     1     -23.622 -63.050   2.132  1.00  0.00     0.000 C 
BRANCH  12  13
ATOM     13  C   UNL     1     -24.708 -62.231   2.863  1.00  0.00    -0.000 C 
BRANCH  13  14
ATOM     14  C   UNL     1     -25.706 -63.097   3.656  1.00  0.00    -0.000 C 
BRANCH  14  15
ATOM     15  C   UNL     1     -25.213 -64.516   3.984  1.00  0.00    -0.000 C 
BRANCH  15  16
ATOM     16  C   UNL     1     -24.572 -64.673   5.378  1.00  0.00    -0.000 C 
BRANCH  16  17
ATOM     17  C   UNL     1     -23.047 -64.913   5.339  1.00  0.00    -0.000 C 
BRANCH  17  18
ATOM     18  C   UNL     1     -22.248 -63.611   5.529  1.00  0.00    -0.000 C 
BRANCH  18  19
ATOM     19  C   UNL     1     -23.069 -62.512   6.219  1.00  0.00    -0.003 C 
ATOM     20  C   UNL     1     -22.629 -61.105   5.814  1.00  0.00     0.004 C 
ENDBRANCH  18  19
ENDBRANCH  17  18
ENDBRANCH  16  17
ENDBRANCH  15  16
ENDBRANCH  14  15
ENDBRANCH  13  14
ENDBRANCH  12  13
ENDBRANCH   1  12
TORSDOF 16
ENDMDL
MODEL 6
REMARK VINA RESULT:    -4.580      1.624      3.156
REMARK INTER + INTRA:         -11.205
REMARK INTER:                  -8.687
REMARK INTRA:                  -2.518
REMARK UNBOUND:                -2.340
REMARK SMILES CCCCCCCCCCCCCCCCCC(=O)[O-]
REMARK SMILES IDX 10 1 11 2 12 3 13 4 14 5 15 6 16 7 17 8 18 9 19 10 20 11
REMARK SMILES IDX 9 12 8 13 7 14 6 15 5 16 4 17 3 18 2 19 1 20
REMARK H PARENT
REMARK Flexibility Score: inf
ROOT
ATOM      1  C   UNL     1     -24.632 -62.706   2.846  1.00  0.00     0.000 C 
ENDROOT
BRANCH   1   2
ATOM      2  C   UNL     1     -23.164 -62.254   2.868  1.00  0.00     0.000 C 
BRANCH   2   3
ATOM      3  C   UNL     1     -22.396 -62.697   1.612  1.00  0.00     0.000 C 
BRANCH   3   4
ATOM      4  C   UNL     1     -22.581 -61.732   0.429  1.00  0.00     0.000 C 
BRANCH   4   5
ATOM      5  C   UNL     1     -22.135 -60.285   0.733  1.00  0.00     0.000 C 
BRANCH   5   6
ATOM      6  C   UNL     1     -22.666 -59.284  -0.309  1.00  0.00     0.000 C 
BRANCH   6   7
ATOM      7  C   UNL     1     -23.760 -59.884  -1.214  1.00  0.00     0.006 C 
BRANCH   7   8
ATOM      8  C   UNL     1     -25.066 -59.070  -1.235  1.00  0.00     0.053 C 
BRANCH   8   9
ATOM      9  C   UNL     1     -25.294 -58.374  -2.543  1.00  0.00     0.041 C 
ATOM     10  O   UNL     1     -24.901 -57.188  -2.710  1.00  0.00    -0.550 OA
ATOM     11  O   UNL     1     -25.956 -59.030  -3.574  1.00  0.00    -0.550 OA
ENDBRANCH   8   9
ENDBRANCH   7   8
ENDBRANCH   6   7
ENDBRANCH   5   6
ENDBRANCH   4   5
ENDBRANCH   3   4
ENDBRANCH   2   3
ENDBRANCH   1   2
BRANCH   1  12
ATOM     12  C   UNL     1     -25.598 -61.595   3.297  1.00  0.00     0.000 C 
BRANCH  12  13
ATOM     13  C   UNL     1     -24.939 -60.200   3.268  1.00  0.00    -0.000 C 
BRANCH  13  14
ATOM     14  C   UNL     1     -25.649 -59.200   2.334  1.00  0.00    -0.000 C 
BRANCH  14  15
ATOM     15  C   UNL     1     -24.995 -57.810   2.257  1.00  0.00    -0.000 C 
BRANCH  15  16
ATOM     16  C   UNL     1     -23.586 -57.722   2.877  1.00  0.00    -0.000 C 
BRANCH  16  17
ATOM     17  C   UNL     1     -23.523 -56.864   4.161  1.00  0.00    -0.000 C 
BRANCH  17  18
ATOM     18  C   UNL     1     -22.532 -57.431   5.192  1.00  0.00    -0.000 C 
BRANCH  18  19
ATOM     19  C   UNL     1     -23.146 -58.550   6.046  1.00  0.00    -0.003 C 
ATOM     20  C   UNL     1     -22.534 -59.920   5.753  1.00  0.00     0.004 C 
ENDBRANCH  18  19
ENDBRANCH  17  18
ENDBRANCH  16  17
ENDBRANCH  15  16
ENDBRANCH  14  15
ENDBRANCH  13  14
ENDBRANCH  12  13
ENDBRANCH   1  12
TORSDOF 16
ENDMDL
MODEL 7
REMARK VINA RESULT:    -4.486      1.744      3.016
REMARK INTER + INTRA:         -11.022
REMARK INTER:                  -9.048
REMARK INTRA:                  -1.975
REMARK UNBOUND:                -2.340
REMARK SMILES CCCCCCCCCCCCCCCCCC(=O)[O-]
REMARK SMILES IDX 10 1 11 2 12 3 13 4 14 5 15 6 16 7 17 8 18 9 19 10 20 11
REMARK SMILES IDX 9 12 8 13 7 14 6 15 5 16 4 17 3 18 2 19 1 20
REMARK H PARENT
REMARK Flexibility Score: inf
ROOT
ATOM      1  C   UNL     1     -22.972 -63.019   1.923  1.00  0.00     0.000 C 
ENDROOT
BRANCH   1   2
ATOM      2  C   UNL     1     -21.907 -62.422   0.991  1.00  0.00     0.000 C 
BRANCH   2   3
ATOM      3  C   UNL     1     -22.189 -60.950   0.647  1.00  0.00     0.000 C 
BRANCH   3   4
ATOM      4  C   UNL     1     -22.142 -60.672  -0.865  1.00  0.00     0.000 C 
BRANCH   4   5
ATOM      5  C   UNL     1     -22.539 -59.228  -1.243  1.00  0.00     0.000 C 
BRANCH   5   6
ATOM      6  C   UNL     1     -23.456 -58.584  -0.188  1.00  0.00     0.000 C 
BRANCH   6   7
ATOM      7  C   UNL     1     -24.954 -58.756  -0.509  1.00  0.00     0.006 C 
BRANCH   7   8
ATOM      8  C   UNL     1     -25.244 -59.026  -1.996  1.00  0.00     0.053 C 
BRANCH   8   9
ATOM      9  C   UNL     1     -25.679 -57.796  -2.734  1.00  0.00     0.041 C 
ATOM     10  O   UNL     1     -24.844 -56.895  -3.018  1.00  0.00    -0.550 OA
ATOM     11  O   UNL     1     -27.012 -57.637  -3.096  1.00  0.00    -0.550 OA
ENDBRANCH   8   9
ENDBRANCH   7   8
ENDBRANCH   6   7
ENDBRANCH   5   6
ENDBRANCH   4   5
ENDBRANCH   3   4
ENDBRANCH   2   3
ENDBRANCH   1   2
BRANCH   1  12
ATOM     12  C   UNL     1     -24.139 -62.050   2.184  1.00  0.00     0.000 C 
BRANCH  12  13
ATOM     13  C   UNL     1     -25.124 -62.591   3.242  1.00  0.00    -0.000 C 
BRANCH  13  14
ATOM     14  C   UNL     1     -26.152 -61.546   3.721  1.00  0.00    -0.000 C 
BRANCH  14  15
ATOM     15  C   UNL     1     -25.551 -60.195   4.146  1.00  0.00    -0.000 C 
BRANCH  15  16
ATOM     16  C   UNL     1     -24.435 -60.287   5.205  1.00  0.00    -0.000 C 
BRANCH  16  17
ATOM     17  C   UNL     1     -23.160 -59.496   4.835  1.00  0.00    -0.000 C 
BRANCH  17  18
ATOM     18  C   UNL     1     -23.283 -58.799   3.469  1.00  0.00    -0.000 C 
BRANCH  18  19
ATOM     19  C   UNL     1     -22.937 -57.305   3.537  1.00  0.00    -0.003 C 
ATOM     20  C   UNL     1     -22.363 -56.893   4.893  1.00  0.00     0.004 C 
ENDBRANCH  18  19
ENDBRANCH  17  18
ENDBRANCH  16  17
ENDBRANCH  15  16
ENDBRANCH  14  15
ENDBRANCH  13  14
ENDBRANCH  12  13
ENDBRANCH   1  12
TORSDOF 16
ENDMDL
MODEL 8
REMARK VINA RESULT:    -4.470      1.968      5.100
REMARK INTER + INTRA:         -10.991
REMARK INTER:                  -8.674
REMARK INTRA:                  -2.318
REMARK UNBOUND:                -2.340
REMARK SMILES CCCCCCCCCCCCCCCCCC(=O)[O-]
REMARK SMILES IDX 10 1 11 2 12 3 13 4 14 5 15 6 16 7 17 8 18 9 19 10 20 11
REMARK SMILES IDX 9 12 8 13 7 14 6 15 5 16 4 17 3 18 2 19 1 20
REMARK H PARENT
REMARK Flexibility Score: inf
ROOT
ATOM      1  C   UNL     1     -25.312 -62.406   3.226  1.00  0.00     0.000 C 
ENDROOT
BRANCH   1   2
ATOM      2  C   UNL     1     -26.228 -62.843   4.380  1.00  0.00     0.000 C 
BRANCH   2   3
ATOM      3  C   UNL     1     -25.481 -63.673   5.437  1.00  0.00     0.000 C 
BRANCH   3   4
ATOM      4  C   UNL     1     -24.664 -62.806   6.409  1.00  0.00     0.000 C 
BRANCH   4   5
ATOM      5  C   UNL     1     -23.137 -62.942   6.227  1.00  0.00     0.000 C 
BRANCH   5   6
ATOM      6  C   UNL     1     -22.491 -61.631   5.742  1.00  0.00     0.000 C 
BRANCH   6   7
ATOM      7  C   UNL     1     -23.456 -60.429   5.803  1.00  0.00     0.006 C 
BRANCH   7   8
ATOM      8  C   UNL     1     -22.788 -59.080   5.482  1.00  0.00     0.053 C 
BRANCH   8   9
ATOM      9  C   UNL     1     -23.406 -58.396   4.299  1.00  0.00     0.041 C 
ATOM     10  O   UNL     1     -24.489 -58.819   3.813  1.00  0.00    -0.550 OA
ATOM     11  O   UNL     1     -22.776 -57.299   3.723  1.00  0.00    -0.550 OA
ENDBRANCH   8   9
ENDBRANCH   7   8
ENDBRANCH   6   7
ENDBRANCH   5   6
ENDBRANCH   4   5
ENDBRANCH   3   4
ENDBRANCH   2   3
ENDBRANCH   1   2
BRANCH   1  12
ATOM     12  C   UNL     1     -24.314 -63.504   2.817  1.00  0.00     0.000 C 
BRANCH  12  13
ATOM     13  C   UNL     1     -23.051 -62.925   2.144  1.00  0.00    -0.000 C 
BRANCH  13  14
ATOM     14  C   UNL     1     -23.139 -61.412   1.861  1.00  0.00    -0.000 C 
BRANCH  14  15
ATOM     15  C   UNL     1     -22.015 -60.854   0.972  1.00  0.00    -0.000 C 
BRANCH  15  16
ATOM     16  C   UNL     1     -22.271 -60.965  -0.544  1.00  0.00    -0.000 C 
BRANCH  16  17
ATOM     17  C   UNL     1     -22.165 -59.619  -1.293  1.00  0.00    -0.000 C 
BRANCH  17  18
ATOM     18  C   UNL     1     -23.368 -58.701  -1.015  1.00  0.00    -0.000 C 
BRANCH  18  19
ATOM     19  C   UNL     1     -24.707 -59.359  -1.376  1.00  0.00    -0.003 C 
ATOM     20  C   UNL     1     -25.657 -59.460  -0.182  1.00  0.00     0.004 C 
ENDBRANCH  18  19
ENDBRANCH  17  18
ENDBRANCH  16  17
ENDBRANCH  15  16
ENDBRANCH  14  15
ENDBRANCH  13  14
ENDBRANCH  12  13
ENDBRANCH   1  12
TORSDOF 16
ENDMDL
MODEL 9
REMARK VINA RESULT:    -4.446      1.360      2.545
REMARK INTER + INTRA:         -10.945
REMARK INTER:                  -8.718
REMARK INTRA:                  -2.227
REMARK UNBOUND:                -2.340
REMARK SMILES CCCCCCCCCCCCCCCCCC(=O)[O-]
REMARK SMILES IDX 10 1 11 2 12 3 13 4 14 5 15 6 16 7 17 8 18 9 19 10 20 11
REMARK SMILES IDX 9 12 8 13 7 14 6 15 5 16 4 17 3 18 2 19 1 20
REMARK H PARENT
REMARK Flexibility Score: inf
ROOT
ATOM      1  C   UNL     1     -25.163 -61.126   4.062  1.00  0.00     0.000 C 
ENDROOT
BRANCH   1   2
ATOM      2  C   UNL     1     -25.134 -62.072   2.852  1.00  0.00     0.000 C 
BRANCH   2   3
ATOM      3  C   UNL     1     -23.765 -62.747   2.668  1.00  0.00     0.000 C 
BRANCH   3   4
ATOM      4  C   UNL     1     -22.675 -61.768   2.204  1.00  0.00     0.000 C 
BRANCH   4   5
ATOM      5  C   UNL     1     -22.292 -61.924   0.716  1.00  0.00     0.000 C 
BRANCH   5   6
ATOM      6  C   UNL     1     -21.930 -60.577   0.065  1.00  0.00     0.000 C 
BRANCH   6   7
ATOM      7  C   UNL     1     -22.808 -60.246  -1.158  1.00  0.00     0.006 C 
BRANCH   7   8
ATOM      8  C   UNL     1     -24.231 -59.786  -0.795  1.00  0.00     0.053 C 
BRANCH   8   9
ATOM      9  C   UNL     1     -24.850 -58.927  -1.856  1.00  0.00     0.041 C 
ATOM     10  O   UNL     1     -24.484 -57.729  -1.999  1.00  0.00    -0.550 OA
ATOM     11  O   UNL     1     -25.845 -59.444  -2.677  1.00  0.00    -0.550 OA
ENDBRANCH   8   9
ENDBRANCH   7   8
ENDBRANCH   6   7
ENDBRANCH   5   6
ENDBRANCH   4   5
ENDBRANCH   3   4
ENDBRANCH   2   3
ENDBRANCH   1   2
BRANCH   1  12
ATOM     12  C   UNL     1     -24.512 -61.747   5.311  1.00  0.00     0.000 C 
BRANCH  12  13
ATOM     13  C   UNL     1     -23.851 -60.685   6.216  1.00  0.00    -0.000 C 
BRANCH  13  14
ATOM     14  C   UNL     1     -22.783 -59.838   5.496  1.00  0.00    -0.000 C 
BRANCH  14  15
ATOM     15  C   UNL     1     -23.032 -58.320   5.527  1.00  0.00    -0.000 C 
BRANCH  15  16
ATOM     16  C   UNL     1     -22.653 -57.575   4.231  1.00  0.00    -0.000 C 
BRANCH  16  17
ATOM     17  C   UNL     1     -23.157 -58.267   2.946  1.00  0.00    -0.000 C 
BRANCH  17  18
ATOM     18  C   UNL     1     -22.994 -57.376   1.702  1.00  0.00    -0.000 C 
BRANCH  18  19
ATOM     19  C   UNL     1     -24.278 -56.610   1.355  1.00  0.00    -0.003 C 
ATOM     20  C   UNL     1     -24.292 -55.191   1.924  1.00  0.00     0.004 C 
ENDBRANCH  18  19
ENDBRANCH  17  18
ENDBRANCH  16  17
ENDBRANCH  15  16
ENDBRANCH  14  15
ENDBRANCH  13  14
ENDBRANCH  12  13
ENDBRANCH   1  12
TORSDOF 16
ENDMDL
