MODEL 1
REMARK VINA RESULT:    -3.015      0.000      0.000
REMARK INTER + INTRA:          -6.332
REMARK INTER:                  -4.778
REMARK INTRA:                  -1.554
REMARK UNBOUND:                -1.554
REMARK SMILES CCCCCCCCCCCC(=O)[O-]
REMARK SMILES IDX 7 1 8 2 9 3 10 4 11 5 12 6 13 7 14 8 6 9 5 10 4 11 3 12 2 13
REMARK SMILES IDX 1 14
REMARK H PARENT
REMARK Flexibility Score: inf
ROOT
ATOM      1  C   UNL     1       5.355  11.572   1.234  1.00  0.00     0.000 C 
ENDROOT
BRANCH   1   2
ATOM      2  C   UNL     1       6.482  10.952   0.387  1.00  0.00     0.000 C 
BRANCH   2   3
ATOM      3  C   UNL     1       7.491  10.162   1.235  1.00  0.00     0.000 C 
BRANCH   3   4
ATOM      4  C   UNL     1       7.719   8.738   0.706  1.00  0.00     0.006 C 
BRANCH   4   5
ATOM      5  C   UNL     1       6.588   8.315  -0.236  1.00  0.00     0.053 C 
BRANCH   5   6
ATOM      6  C   UNL     1       6.676   6.852  -0.536  1.00  0.00     0.041 C 
ATOM      7  O   UNL     1       6.467   6.006   0.373  1.00  0.00    -0.550 OA
ATOM      8  O   UNL     1       7.035   6.422  -1.807  1.00  0.00    -0.550 OA
ENDBRANCH   5   6
ENDBRANCH   4   5
ENDBRANCH   3   4
ENDBRANCH   2   3
ENDBRANCH   1   2
BRANCH   1   9
ATOM      9  C   UNL     1       4.020  10.829   1.075  1.00  0.00     0.000 C 
BRANCH   9  10
ATOM     10  C   UNL     1       3.515  10.230   2.396  1.00  0.00    -0.000 C 
BRANCH  10  11
ATOM     11  C   UNL     1       3.023   8.791   2.196  1.00  0.00    -0.000 C 
BRANCH  11  12
ATOM     12  C   UNL     1       4.159   7.785   2.426  1.00  0.00    -0.000 C 
BRANCH  12  13
ATOM     13  C   UNL     1       5.124   8.225   3.537  1.00  0.00    -0.003 C 
ATOM     14  C   UNL     1       6.270   7.237   3.750  1.00  0.00     0.004 C 
ENDBRANCH  12  13
ENDBRANCH  11  12
ENDBRANCH  10  11
ENDBRANCH   9  10
ENDBRANCH   1   9
TORSDOF 10
ENDMDL
MODEL 2
REMARK VINA RESULT:    -3.011      2.280      3.878
REMARK INTER + INTRA:          -6.325
REMARK INTER:                  -4.835
REMARK INTRA:                  -1.489
REMARK UNBOUND:                -1.554
REMARK SMILES CCCCCCCCCCCC(=O)[O-]
REMARK SMILES IDX 7 1 8 2 9 3 10 4 11 5 12 6 13 7 14 8 6 9 5 10 4 11 3 12 2 13
REMARK SMILES IDX 1 14
REMARK H PARENT
REMARK Flexibility Score: inf
ROOT
ATOM      1  C   UNL     1       3.066   9.559   3.178  1.00  0.00     0.000 C 
ENDROOT
BRANCH   1   2
ATOM      2  C   UNL     1       3.661  10.661   2.282  1.00  0.00     0.000 C 
BRANCH   2   3
ATOM      3  C   UNL     1       3.979  10.161   0.864  1.00  0.00     0.000 C 
BRANCH   3   4
ATOM      4  C   UNL     1       5.340  10.658   0.354  1.00  0.00     0.006 C 
BRANCH   4   5
ATOM      5  C   UNL     1       6.281  10.974   1.521  1.00  0.00     0.053 C 
BRANCH   5   6
ATOM      6  C   UNL     1       7.694  11.076   1.041  1.00  0.00     0.041 C 
ATOM      7  O   UNL     1       8.136  12.171   0.602  1.00  0.00    -0.550 OA
ATOM      8  O   UNL     1       8.510   9.952   1.034  1.00  0.00    -0.550 OA
ENDBRANCH   5   6
ENDBRANCH   4   5
ENDBRANCH   3   4
ENDBRANCH   2   3
ENDBRANCH   1   2
BRANCH   1   9
ATOM      9  C   UNL     1       3.788   8.214   3.016  1.00  0.00     0.000 C 
BRANCH   9  10
ATOM     10  C   UNL     1       5.076   8.129   3.849  1.00  0.00    -0.000 C 
BRANCH  10  11
ATOM     11  C   UNL     1       6.252   7.639   2.996  1.00  0.00    -0.000 C 
BRANCH  11  12
ATOM     12  C   UNL     1       5.754   6.928   1.730  1.00  0.00    -0.000 C 
BRANCH  12  13
ATOM     13  C   UNL     1       6.646   7.201   0.509  1.00  0.00    -0.003 C 
ATOM     14  C   UNL     1       6.330   6.281  -0.671  1.00  0.00     0.004 C 
ENDBRANCH  12  13
ENDBRANCH  11  12
ENDBRANCH  10  11
ENDBRANCH   9  10
ENDBRANCH   1   9
TORSDOF 10
ENDMDL
MODEL 3
REMARK VINA RESULT:    -3.006      1.124      3.089
REMARK INTER + INTRA:          -6.317
REMARK INTER:                  -4.834
REMARK INTRA:                  -1.483
REMARK UNBOUND:                -1.554
REMARK SMILES CCCCCCCCCCCC(=O)[O-]
REMARK SMILES IDX 7 1 8 2 9 3 10 4 11 5 12 6 13 7 14 8 6 9 5 10 4 11 3 12 2 13
REMARK SMILES IDX 1 14
REMARK H PARENT
REMARK Flexibility Score: inf
ROOT
ATOM      1  C   UNL     1       3.682   8.284   2.848  1.00  0.00     0.000 C 
ENDROOT
BRANCH   1   2
ATOM      2  C   UNL     1       4.860   8.220   3.837  1.00  0.00     0.000 C 
BRANCH   2   3
ATOM      3  C   UNL     1       6.144   7.675   3.193  1.00  0.00     0.000 C 
BRANCH   3   4
ATOM      4  C   UNL     1       5.883   6.991   1.842  1.00  0.00     0.006 C 
BRANCH   4   5
ATOM      5  C   UNL     1       6.588   7.737   0.705  1.00  0.00     0.053 C 
BRANCH   5   6
ATOM      6  C   UNL     1       7.058   6.775  -0.340  1.00  0.00     0.041 C 
ATOM      7  O   UNL     1       6.251   5.957  -0.857  1.00  0.00    -0.550 OA
ATOM      8  O   UNL     1       8.396   6.748  -0.709  1.00  0.00    -0.550 OA
ENDBRANCH   5   6
ENDBRANCH   4   5
ENDBRANCH   3   4
ENDBRANCH   2   3
ENDBRANCH   1   2
BRANCH   1   9
ATOM      9  C   UNL     1       3.228   9.723   2.563  1.00  0.00     0.000 C 
BRANCH   9  10
ATOM     10  C   UNL     1       3.253  10.067   1.066  1.00  0.00    -0.000 C 
BRANCH  10  11
ATOM     11  C   UNL     1       4.576  10.739   0.679  1.00  0.00    -0.000 C 
BRANCH  11  12
ATOM     12  C   UNL     1       5.135  11.566   1.845  1.00  0.00    -0.000 C 
BRANCH  12  13
ATOM     13  C   UNL     1       6.609  11.248   2.143  1.00  0.00    -0.003 C 
ATOM     14  C   UNL     1       7.494  11.334   0.900  1.00  0.00     0.004 C 
ENDBRANCH  12  13
ENDBRANCH  11  12
ENDBRANCH  10  11
ENDBRANCH   9  10
ENDBRANCH   1   9
TORSDOF 10
ENDMDL
MODEL 4
REMARK VINA RESULT:    -2.980      1.461      3.907
REMARK INTER + INTRA:          -6.276
REMARK INTER:                  -4.769
REMARK INTRA:                  -1.507
REMARK UNBOUND:                -1.554
REMARK SMILES CCCCCCCCCCCC(=O)[O-]
REMARK SMILES IDX 7 1 8 2 9 3 10 4 11 5 12 6 13 7 14 8 6 9 5 10 4 11 3 12 2 13
REMARK SMILES IDX 1 14
REMARK H PARENT
REMARK Flexibility Score: inf
ROOT
ATOM      1  C   UNL     1       4.274  11.107   1.074  1.00  0.00     0.000 C 
ENDROOT
BRANCH   1   2
ATOM      2  C   UNL     1       3.520   9.764   1.064  1.00  0.00     0.000 C 
BRANCH   2   3
ATOM      3  C   UNL     1       3.534   9.070   2.435  1.00  0.00     0.000 C 
BRANCH   3   4
ATOM      4  C   UNL     1       4.362   7.776   2.434  1.00  0.00     0.006 C 
BRANCH   4   5
ATOM      5  C   UNL     1       5.390   7.783   3.569  1.00  0.00     0.053 C 
BRANCH   5   6
ATOM      6  C   UNL     1       6.176   6.509   3.572  1.00  0.00     0.041 C 
ATOM      7  O   UNL     1       6.923   6.229   4.546  1.00  0.00    -0.550 OA
ATOM      8  O   UNL     1       6.120   5.656   2.478  1.00  0.00    -0.550 OA
ENDBRANCH   5   6
ENDBRANCH   4   5
ENDBRANCH   3   4
ENDBRANCH   2   3
ENDBRANCH   1   2
BRANCH   1   9
ATOM      9  C   UNL     1       5.725  10.965   1.556  1.00  0.00     0.000 C 
BRANCH   9  10
ATOM     10  C   UNL     1       6.648  10.361   0.487  1.00  0.00    -0.000 C 
BRANCH  10  11
ATOM     11  C   UNL     1       7.730   9.482   1.126  1.00  0.00    -0.000 C 
BRANCH  11  12
ATOM     12  C   UNL     1       7.744   8.082   0.498  1.00  0.00    -0.000 C 
BRANCH  12  13
ATOM     13  C   UNL     1       6.518   7.820  -0.390  1.00  0.00    -0.003 C 
ATOM     14  C   UNL     1       6.473   6.391  -0.929  1.00  0.00     0.004 C 
ENDBRANCH  12  13
ENDBRANCH  11  12
ENDBRANCH  10  11
ENDBRANCH   9  10
ENDBRANCH   1   9
TORSDOF 10
ENDMDL
MODEL 5
REMARK VINA RESULT:    -2.955      2.376      3.528
REMARK INTER + INTRA:          -6.237
REMARK INTER:                  -4.939
REMARK INTRA:                  -1.298
REMARK UNBOUND:                -1.554
REMARK SMILES CCCCCCCCCCCC(=O)[O-]
REMARK SMILES IDX 7 1 8 2 9 3 10 4 11 5 12 6 13 7 14 8 6 9 5 10 4 11 3 12 2 13
REMARK SMILES IDX 1 14
REMARK H PARENT
REMARK Flexibility Score: inf
ROOT
ATOM      1  C   UNL     1       7.261   7.971   0.480  1.00  0.00     0.000 C 
ENDROOT
BRANCH   1   2
ATOM      2  C   UNL     1       8.142   9.160   0.907  1.00  0.00     0.000 C 
BRANCH   2   3
ATOM      3  C   UNL     1       7.315  10.388   1.320  1.00  0.00     0.000 C 
BRANCH   3   4
ATOM      4  C   UNL     1       7.823  11.687   0.676  1.00  0.00     0.006 C 
BRANCH   4   5
ATOM      5  C   UNL     1       6.741  12.321  -0.204  1.00  0.00     0.053 C 
BRANCH   5   6
ATOM      6  C   UNL     1       6.966  11.975  -1.642  1.00  0.00     0.041 C 
ATOM      7  O   UNL     1       7.959  12.443  -2.258  1.00  0.00    -0.550 OA
ATOM      8  O   UNL     1       6.052  11.175  -2.316  1.00  0.00    -0.550 OA
ENDBRANCH   5   6
ENDBRANCH   4   5
ENDBRANCH   3   4
ENDBRANCH   2   3
ENDBRANCH   1   2
BRANCH   1   9
ATOM      9  C   UNL     1       5.922   8.416  -0.125  1.00  0.00     0.000 C 
BRANCH   9  10
ATOM     10  C   UNL     1       4.713   7.795   0.592  1.00  0.00    -0.000 C 
BRANCH  10  11
ATOM     11  C   UNL     1       4.180   8.731   1.684  1.00  0.00    -0.000 C 
BRANCH  11  12
ATOM     12  C   UNL     1       4.195   8.041   3.055  1.00  0.00    -0.000 C 
BRANCH  12  13
ATOM     13  C   UNL     1       5.560   8.140   3.752  1.00  0.00    -0.003 C 
ATOM     14  C   UNL     1       6.288   6.798   3.819  1.00  0.00     0.004 C 
ENDBRANCH  12  13
ENDBRANCH  11  12
ENDBRANCH  10  11
ENDBRANCH   9  10
ENDBRANCH   1   9
TORSDOF 10
ENDMDL
MODEL 6
REMARK VINA RESULT:    -2.929      2.181      4.096
REMARK INTER + INTRA:          -6.195
REMARK INTER:                  -4.531
REMARK INTRA:                  -1.664
REMARK UNBOUND:                -1.554
REMARK SMILES CCCCCCCCCCCC(=O)[O-]
REMARK SMILES IDX 7 1 8 2 9 3 10 4 11 5 12 6 13 7 14 8 6 9 5 10 4 11 3 12 2 13
REMARK SMILES IDX 1 14
REMARK H PARENT
REMARK Flexibility Score: inf
ROOT
ATOM      1  C   UNL     1       7.501  10.246   0.799  1.00  0.00     0.000 C 
ENDROOT
BRANCH   1   2
ATOM      2  C   UNL     1       7.851   8.755   0.960  1.00  0.00     0.000 C 
BRANCH   2   3
ATOM      3  C   UNL     1       7.084   7.859  -0.025  1.00  0.00     0.000 C 
BRANCH   3   4
ATOM      4  C   UNL     1       5.717   7.417   0.519  1.00  0.00     0.006 C 
BRANCH   4   5
ATOM      5  C   UNL     1       5.804   7.080   2.010  1.00  0.00     0.053 C 
BRANCH   5   6
ATOM      6  C   UNL     1       4.671   7.711   2.757  1.00  0.00     0.041 C 
ATOM      7  O   UNL     1       3.546   7.845   2.206  1.00  0.00    -0.550 OA
ATOM      8  O   UNL     1       4.871   8.197   4.043  1.00  0.00    -0.550 OA
ENDBRANCH   5   6
ENDBRANCH   4   5
ENDBRANCH   3   4
ENDBRANCH   2   3
ENDBRANCH   1   2
BRANCH   1   9
ATOM      9  C   UNL     1       6.739  10.808   2.008  1.00  0.00     0.000 C 
BRANCH   9  10
ATOM     10  C   UNL     1       5.263  11.100   1.694  1.00  0.00    -0.000 C 
BRANCH  10  11
ATOM     11  C   UNL     1       5.075  11.451   0.213  1.00  0.00    -0.000 C 
BRANCH  11  12
ATOM     12  C   UNL     1       4.043  10.525  -0.445  1.00  0.00    -0.000 C 
BRANCH  12  13
ATOM     13  C   UNL     1       4.188  10.468  -1.974  1.00  0.00    -0.003 C 
ATOM     14  C   UNL     1       5.646  10.401  -2.427  1.00  0.00     0.004 C 
ENDBRANCH  12  13
ENDBRANCH  11  12
ENDBRANCH  10  11
ENDBRANCH   9  10
ENDBRANCH   1   9
TORSDOF 10
ENDMDL
MODEL 7
REMARK VINA RESULT:    -2.904      2.382      4.353
REMARK INTER + INTRA:          -6.155
REMARK INTER:                  -4.559
REMARK INTRA:                  -1.596
REMARK UNBOUND:                -1.554
REMARK SMILES CCCCCCCCCCCC(=O)[O-]
REMARK SMILES IDX 7 1 8 2 9 3 10 4 11 5 12 6 13 7 14 8 6 9 5 10 4 11 3 12 2 13
REMARK SMILES IDX 1 14
REMARK H PARENT
REMARK Flexibility Score: inf
ROOT
ATOM      1  C   UNL     1       4.023   8.660   2.616  1.00  0.00     0.000 C 
ENDROOT
BRANCH   1   2
ATOM      2  C   UNL     1       3.280   7.752   1.619  1.00  0.00     0.000 C 
BRANCH   2   3
ATOM      3  C   UNL     1       3.231   8.345   0.202  1.00  0.00     0.000 C 
BRANCH   3   4
ATOM      4  C   UNL     1       3.588   9.839   0.175  1.00  0.00     0.006 C 
BRANCH   4   5
ATOM      5  C   UNL     1       4.637  10.132  -0.902  1.00  0.00     0.053 C 
BRANCH   5   6
ATOM      6  C   UNL     1       5.641  11.121  -0.399  1.00  0.00     0.041 C 
ATOM      7  O   UNL     1       5.391  11.813   0.623  1.00  0.00    -0.550 OA
ATOM      8  O   UNL     1       6.832  11.314  -1.087  1.00  0.00    -0.550 OA
ENDBRANCH   5   6
ENDBRANCH   4   5
ENDBRANCH   3   4
ENDBRANCH   2   3
ENDBRANCH   1   2
BRANCH   1   9
ATOM      9  C   UNL     1       5.017   7.884   3.493  1.00  0.00     0.000 C 
BRANCH   9  10
ATOM     10  C   UNL     1       6.244   7.396   2.708  1.00  0.00    -0.000 C 
BRANCH  10  11
ATOM     11  C   UNL     1       6.870   8.539   1.900  1.00  0.00    -0.000 C 
BRANCH  11  12
ATOM     12  C   UNL     1       7.361   8.041   0.533  1.00  0.00    -0.000 C 
BRANCH  12  13
ATOM     13  C   UNL     1       6.595   6.802   0.045  1.00  0.00    -0.003 C 
ATOM     14  C   UNL     1       6.997   6.376  -1.367  1.00  0.00     0.004 C 
ENDBRANCH  12  13
ENDBRANCH  11  12
ENDBRANCH  10  11
ENDBRANCH   9  10
ENDBRANCH   1   9
TORSDOF 10
ENDMDL
MODEL 8
REMARK VINA RESULT:    -2.859      2.233      3.620
REMARK INTER + INTRA:          -6.084
REMARK INTER:                  -4.447
REMARK INTRA:                  -1.636
REMARK UNBOUND:                -1.554
REMARK SMILES CCCCCCCCCCCC(=O)[O-]
REMARK SMILES IDX 7 1 8 2 9 3 10 4 11 5 12 6 13 7 14 8 6 9 5 10 4 11 3 12 2 13
REMARK SMILES IDX 1 14
REMARK H PARENT
REMARK Flexibility Score: inf
ROOT
ATOM      1  C   UNL     1       7.705  10.245   0.802  1.00  0.00     0.000 C 
ENDROOT
BRANCH   1   2
ATOM      2  C   UNL     1       6.671  10.985   1.671  1.00  0.00     0.000 C 
BRANCH   2   3
ATOM      3  C   UNL     1       5.654  11.777   0.834  1.00  0.00     0.000 C 
BRANCH   3   4
ATOM      4  C   UNL     1       4.246  11.166   0.882  1.00  0.00     0.006 C 
BRANCH   4   5
ATOM      5  C   UNL     1       4.103  10.037  -0.144  1.00  0.00     0.053 C 
BRANCH   5   6
ATOM      6  C   UNL     1       4.528  10.505  -1.500  1.00  0.00     0.041 C 
ATOM      7  O   UNL     1       5.525   9.985  -2.066  1.00  0.00    -0.550 OA
ATOM      8  O   UNL     1       3.852  11.550  -2.119  1.00  0.00    -0.550 OA
ENDBRANCH   5   6
ENDBRANCH   4   5
ENDBRANCH   3   4
ENDBRANCH   2   3
ENDBRANCH   1   2
BRANCH   1   9
ATOM      9  C   UNL     1       7.886   8.779   1.221  1.00  0.00     0.000 C 
BRANCH   9  10
ATOM     10  C   UNL     1       6.908   7.834   0.507  1.00  0.00    -0.000 C 
BRANCH  10  11
ATOM     11  C   UNL     1       5.870   7.274   1.487  1.00  0.00    -0.000 C 
BRANCH  11  12
ATOM     12  C   UNL     1       6.334   7.449   2.939  1.00  0.00    -0.000 C 
BRANCH  12  13
ATOM     13  C   UNL     1       5.319   8.221   3.796  1.00  0.00    -0.003 C 
ATOM     14  C   UNL     1       3.918   8.230   3.186  1.00  0.00     0.004 C 
ENDBRANCH  12  13
ENDBRANCH  11  12
ENDBRANCH  10  11
ENDBRANCH   9  10
ENDBRANCH   1   9
TORSDOF 10
ENDMDL
MODEL 9
REMARK VINA RESULT:    -2.832      1.428      2.275
REMARK INTER + INTRA:          -6.042
REMARK INTER:                  -4.781
REMARK INTRA:                  -1.261
REMARK UNBOUND:                -1.554
REMARK SMILES CCCCCCCCCCCC(=O)[O-]
REMARK SMILES IDX 7 1 8 2 9 3 10 4 11 5 12 6 13 7 14 8 6 9 5 10 4 11 3 12 2 13
REMARK SMILES IDX 1 14
REMARK H PARENT
REMARK Flexibility Score: inf
ROOT
ATOM      1  C   UNL     1       3.718  10.416   1.754  1.00  0.00     0.000 C 
ENDROOT
BRANCH   1   2
ATOM      2  C   UNL     1       4.762  11.306   1.053  1.00  0.00     0.000 C 
BRANCH   2   3
ATOM      3  C   UNL     1       5.970  11.616   1.950  1.00  0.00     0.000 C 
BRANCH   3   4
ATOM      4  C   UNL     1       7.298  11.149   1.334  1.00  0.00     0.006 C 
BRANCH   4   5
ATOM      5  C   UNL     1       7.058  10.086   0.257  1.00  0.00     0.053 C 
BRANCH   5   6
ATOM      6  C   UNL     1       7.883   8.868   0.531  1.00  0.00     0.041 C 
ATOM      7  O   UNL     1       8.992   8.973   1.119  1.00  0.00    -0.550 OA
ATOM      8  O   UNL     1       7.451   7.623   0.094  1.00  0.00    -0.550 OA
ENDBRANCH   5   6
ENDBRANCH   4   5
ENDBRANCH   3   4
ENDBRANCH   2   3
ENDBRANCH   1   2
BRANCH   1   9
ATOM      9  C   UNL     1       3.542   9.057   1.061  1.00  0.00     0.000 C 
BRANCH   9  10
ATOM     10  C   UNL     1       4.317   7.930   1.761  1.00  0.00    -0.000 C 
BRANCH  10  11
ATOM     11  C   UNL     1       4.216   8.058   3.286  1.00  0.00    -0.000 C 
BRANCH  11  12
ATOM     12  C   UNL     1       5.571   8.442   3.896  1.00  0.00    -0.000 C 
BRANCH  12  13
ATOM     13  C   UNL     1       6.674   7.419   3.580  1.00  0.00    -0.003 C 
ATOM     14  C   UNL     1       6.322   6.008   4.049  1.00  0.00     0.004 C 
ENDBRANCH  12  13
ENDBRANCH  11  12
ENDBRANCH  10  11
ENDBRANCH   9  10
ENDBRANCH   1   9
TORSDOF 10
ENDMDL
