MODEL 1
REMARK VINA RESULT:    -4.938      0.000      0.000
REMARK INTER + INTRA:         -10.831
REMARK INTER:                  -9.267
REMARK INTRA:                  -1.563
REMARK UNBOUND:                -1.563
REMARK SMILES CCCCCCCCC=CCCCCCCCC(=O)[O-]
REMARK SMILES IDX 10 1 9 2 11 3 12 4 13 5 14 6 15 7 16 8 17 9 18 10 19 11
REMARK SMILES IDX 20 12 8 13 7 14 6 15 5 16 4 17 3 18 2 19 1 20
REMARK H PARENT
REMARK Flexibility Score: inf
ROOT
ATOM      1  C   UNL     1      28.597  -4.571   1.261  1.00  0.00    -0.031 C 
ATOM      2  C   UNL     1      27.899  -5.712   1.414  1.00  0.00    -0.031 C 
ENDROOT
BRANCH   1   3
ATOM      3  C   UNL     1      29.963  -4.459   0.623  1.00  0.00     0.027 C 
BRANCH   3   4
ATOM      4  C   UNL     1      30.914  -3.600   1.470  1.00  0.00     0.004 C 
BRANCH   4   5
ATOM      5  C   UNL     1      30.332  -2.213   1.780  1.00  0.00     0.000 C 
BRANCH   5   6
ATOM      6  C   UNL     1      31.394  -1.119   1.593  1.00  0.00     0.000 C 
BRANCH   6   7
ATOM      7  C   UNL     1      31.771  -0.893   0.117  1.00  0.00     0.000 C 
BRANCH   7   8
ATOM      8  C   UNL     1      30.577  -0.738  -0.847  1.00  0.00     0.006 C 
BRANCH   8   9
ATOM      9  C   UNL     1      30.878  -1.126  -2.303  1.00  0.00     0.053 C 
BRANCH   9  10
ATOM     10  C   UNL     1      30.917   0.069  -3.205  1.00  0.00     0.041 C 
ATOM     11  O   UNL     1      29.961   0.299  -3.993  1.00  0.00    -0.550 OA
ATOM     12  O   UNL     1      32.022   0.910  -3.201  1.00  0.00    -0.550 OA
ENDBRANCH   9  10
ENDBRANCH   8   9
ENDBRANCH   7   8
ENDBRANCH   6   7
ENDBRANCH   5   6
ENDBRANCH   4   5
ENDBRANCH   3   4
ENDBRANCH   1   3
BRANCH   2  13
ATOM     13  C   UNL     1      28.341  -7.075   0.943  1.00  0.00     0.027 C 
BRANCH  13  14
ATOM     14  C   UNL     1      27.353  -7.672  -0.067  1.00  0.00     0.004 C 
BRANCH  14  15
ATOM     15  C   UNL     1      27.295  -6.826  -1.344  1.00  0.00     0.000 C 
BRANCH  15  16
ATOM     16  C   UNL     1      28.465  -7.164  -2.281  1.00  0.00     0.000 C 
BRANCH  16  17
ATOM     17  C   UNL     1      29.254  -5.921  -2.730  1.00  0.00    -0.000 C 
BRANCH  17  18
ATOM     18  C   UNL     1      29.979  -6.062  -4.081  1.00  0.00    -0.000 C 
BRANCH  18  19
ATOM     19  C   UNL     1      29.685  -4.901  -5.042  1.00  0.00    -0.003 C 
ATOM     20  C   UNL     1      29.884  -5.325  -6.493  1.00  0.00     0.004 C 
ENDBRANCH  18  19
ENDBRANCH  17  18
ENDBRANCH  16  17
ENDBRANCH  15  16
ENDBRANCH  14  15
ENDBRANCH  13  14
ENDBRANCH   2  13
TORSDOF 15
ENDMDL
MODEL 2
REMARK VINA RESULT:    -4.854     12.001     16.148
REMARK INTER + INTRA:         -10.673
REMARK INTER:                  -8.253
REMARK INTRA:                  -2.420
REMARK UNBOUND:                -1.563
REMARK SMILES CCCCCCCCC=CCCCCCCCC(=O)[O-]
REMARK SMILES IDX 10 1 9 2 11 3 12 4 13 5 14 6 15 7 16 8 17 9 18 10 19 11
REMARK SMILES IDX 20 12 8 13 7 14 6 15 5 16 4 17 3 18 2 19 1 20
REMARK H PARENT
REMARK Flexibility Score: inf
ROOT
ATOM      1  C   UNL     1      21.968  -2.136 -17.193  1.00  0.00    -0.031 C 
ATOM      2  C   UNL     1      22.318  -0.854 -16.974  1.00  0.00    -0.031 C 
ENDROOT
BRANCH   1   3
ATOM      3  C   UNL     1      21.083  -2.968 -16.294  1.00  0.00     0.027 C 
BRANCH   3   4
ATOM      4  C   UNL     1      21.910  -3.862 -15.356  1.00  0.00     0.004 C 
BRANCH   4   5
ATOM      5  C   UNL     1      23.375  -3.981 -15.801  1.00  0.00     0.000 C 
BRANCH   5   6
ATOM      6  C   UNL     1      24.328  -3.643 -14.645  1.00  0.00     0.000 C 
BRANCH   6   7
ATOM      7  C   UNL     1      25.704  -3.147 -15.126  1.00  0.00     0.000 C 
BRANCH   7   8
ATOM      8  C   UNL     1      25.822  -2.915 -16.646  1.00  0.00     0.006 C 
BRANCH   8   9
ATOM      9  C   UNL     1      27.063  -3.547 -17.295  1.00  0.00     0.053 C 
BRANCH   9  10
ATOM     10  C   UNL     1      27.265  -4.965 -16.857  1.00  0.00     0.041 C 
ATOM     11  O   UNL     1      28.200  -5.256 -16.065  1.00  0.00    -0.550 OA
ATOM     12  O   UNL     1      26.442  -5.969 -17.348  1.00  0.00    -0.550 OA
ENDBRANCH   9  10
ENDBRANCH   8   9
ENDBRANCH   7   8
ENDBRANCH   6   7
ENDBRANCH   5   6
ENDBRANCH   4   5
ENDBRANCH   3   4
ENDBRANCH   1   3
BRANCH   2  13
ATOM     13  C   UNL     1      21.858  -0.012 -15.811  1.00  0.00     0.027 C 
BRANCH  13  14
ATOM     14  C   UNL     1      22.767  -0.193 -14.588  1.00  0.00     0.004 C 
BRANCH  14  15
ATOM     15  C   UNL     1      24.228   0.111 -14.940  1.00  0.00     0.000 C 
BRANCH  15  16
ATOM     16  C   UNL     1      24.948   0.783 -13.761  1.00  0.00     0.000 C 
BRANCH  16  17
ATOM     17  C   UNL     1      24.107   0.797 -12.472  1.00  0.00    -0.000 C 
BRANCH  17  18
ATOM     18  C   UNL     1      24.918   0.761 -11.164  1.00  0.00    -0.000 C 
BRANCH  18  19
ATOM     19  C   UNL     1      24.780  -0.571 -10.412  1.00  0.00    -0.003 C 
ATOM     20  C   UNL     1      24.156  -1.642 -11.300  1.00  0.00     0.004 C 
ENDBRANCH  18  19
ENDBRANCH  17  18
ENDBRANCH  16  17
ENDBRANCH  15  16
ENDBRANCH  14  15
ENDBRANCH  13  14
ENDBRANCH   2  13
TORSDOF 15
ENDMDL
MODEL 3
REMARK VINA RESULT:    -4.818     12.410     15.968
REMARK INTER + INTRA:         -10.605
REMARK INTER:                  -8.130
REMARK INTRA:                  -2.476
REMARK UNBOUND:                -1.563
REMARK SMILES CCCCCCCCC=CCCCCCCCC(=O)[O-]
REMARK SMILES IDX 10 1 9 2 11 3 12 4 13 5 14 6 15 7 16 8 17 9 18 10 19 11
REMARK SMILES IDX 20 12 8 13 7 14 6 15 5 16 4 17 3 18 2 19 1 20
REMARK H PARENT
REMARK Flexibility Score: inf
ROOT
ATOM      1  C   UNL     1      21.155  -2.123 -16.175  1.00  0.00    -0.031 C 
ATOM      2  C   UNL     1      21.539  -3.389 -15.925  1.00  0.00    -0.031 C 
ENDROOT
BRANCH   1   3
ATOM      3  C   UNL     1      22.039  -0.902 -16.063  1.00  0.00     0.027 C 
BRANCH   3   4
ATOM      4  C   UNL     1      23.024  -0.807 -17.238  1.00  0.00     0.004 C 
BRANCH   4   5
ATOM      5  C   UNL     1      24.239   0.075 -16.916  1.00  0.00     0.000 C 
BRANCH   5   6
ATOM      6  C   UNL     1      25.546  -0.721 -17.054  1.00  0.00     0.000 C 
BRANCH   6   7
ATOM      7  C   UNL     1      25.323  -2.160 -17.559  1.00  0.00     0.000 C 
BRANCH   7   8
ATOM      8  C   UNL     1      26.563  -3.074 -17.496  1.00  0.00     0.006 C 
BRANCH   8   9
ATOM      9  C   UNL     1      26.417  -4.286 -16.563  1.00  0.00     0.053 C 
BRANCH   9  10
ATOM     10  C   UNL     1      27.744  -4.862 -16.178  1.00  0.00     0.041 C 
ATOM     11  O   UNL     1      27.864  -5.518 -15.109  1.00  0.00    -0.550 OA
ATOM     12  O   UNL     1      28.857  -4.647 -16.981  1.00  0.00    -0.550 OA
ENDBRANCH   9  10
ENDBRANCH   8   9
ENDBRANCH   7   8
ENDBRANCH   6   7
ENDBRANCH   5   6
ENDBRANCH   4   5
ENDBRANCH   3   4
ENDBRANCH   1   3
BRANCH   2  13
ATOM     13  C   UNL     1      22.929  -3.816 -15.525  1.00  0.00     0.027 C 
BRANCH  13  14
ATOM     14  C   UNL     1      22.962  -4.357 -14.090  1.00  0.00     0.004 C 
BRANCH  14  15
ATOM     15  C   UNL     1      24.117  -3.735 -13.296  1.00  0.00     0.000 C 
BRANCH  15  16
ATOM     16  C   UNL     1      24.592  -2.428 -13.948  1.00  0.00     0.000 C 
BRANCH  16  17
ATOM     17  C   UNL     1      24.910  -1.325 -12.922  1.00  0.00    -0.000 C 
BRANCH  17  18
ATOM     18  C   UNL     1      24.202   0.019 -13.169  1.00  0.00    -0.000 C 
BRANCH  18  19
ATOM     19  C   UNL     1      24.419   1.028 -12.032  1.00  0.00    -0.003 C 
ATOM     20  C   UNL     1      25.206   0.402 -10.885  1.00  0.00     0.004 C 
ENDBRANCH  18  19
ENDBRANCH  17  18
ENDBRANCH  16  17
ENDBRANCH  15  16
ENDBRANCH  14  15
ENDBRANCH  13  14
ENDBRANCH   2  13
TORSDOF 15
ENDMDL
MODEL 4
REMARK VINA RESULT:    -4.760     12.033     15.279
REMARK INTER + INTRA:         -10.498
REMARK INTER:                  -8.392
REMARK INTRA:                  -2.106
REMARK UNBOUND:                -1.563
REMARK SMILES CCCCCCCCC=CCCCCCCCC(=O)[O-]
REMARK SMILES IDX 10 1 9 2 11 3 12 4 13 5 14 6 15 7 16 8 17 9 18 10 19 11
REMARK SMILES IDX 20 12 8 13 7 14 6 15 5 16 4 17 3 18 2 19 1 20
REMARK H PARENT
REMARK Flexibility Score: inf
ROOT
ATOM      1  C   UNL     1      24.766  -0.706 -10.573  1.00  0.00    -0.031 C 
ATOM      2  C   UNL     1      24.913   0.517 -11.117  1.00  0.00    -0.031 C 
ENDROOT
BRANCH   1   3
ATOM      3  C   UNL     1      23.767  -1.749 -11.021  1.00  0.00     0.027 C 
BRANCH   3   4
ATOM      4  C   UNL     1      24.304  -2.576 -12.199  1.00  0.00     0.004 C 
BRANCH   4   5
ATOM      5  C   UNL     1      23.750  -4.008 -12.211  1.00  0.00     0.000 C 
BRANCH   5   6
ATOM      6  C   UNL     1      23.332  -4.422 -13.630  1.00  0.00     0.000 C 
BRANCH   6   7
ATOM      7  C   UNL     1      23.867  -3.470 -14.716  1.00  0.00     0.000 C 
BRANCH   7   8
ATOM      8  C   UNL     1      24.644  -4.153 -15.860  1.00  0.00     0.006 C 
BRANCH   8   9
ATOM      9  C   UNL     1      26.158  -3.890 -15.850  1.00  0.00     0.053 C 
BRANCH   9  10
ATOM     10  C   UNL     1      26.943  -5.117 -16.197  1.00  0.00     0.041 C 
ATOM     11  O   UNL     1      26.680  -5.761 -17.247  1.00  0.00    -0.550 OA
ATOM     12  O   UNL     1      27.942  -5.570 -15.345  1.00  0.00    -0.550 OA
ENDBRANCH   9  10
ENDBRANCH   8   9
ENDBRANCH   7   8
ENDBRANCH   6   7
ENDBRANCH   5   6
ENDBRANCH   4   5
ENDBRANCH   3   4
ENDBRANCH   1   3
BRANCH   2  13
ATOM     13  C   UNL     1      24.132   1.048 -12.293  1.00  0.00     0.027 C 
BRANCH  13  14
ATOM     14  C   UNL     1      24.935   0.947 -13.596  1.00  0.00     0.004 C 
BRANCH  14  15
ATOM     15  C   UNL     1      24.229   0.035 -14.607  1.00  0.00     0.000 C 
BRANCH  15  16
ATOM     16  C   UNL     1      22.709   0.039 -14.382  1.00  0.00     0.000 C 
BRANCH  16  17
ATOM     17  C   UNL     1      21.908   0.163 -15.692  1.00  0.00    -0.000 C 
BRANCH  17  18
ATOM     18  C   UNL     1      22.322  -0.819 -16.803  1.00  0.00    -0.000 C 
BRANCH  18  19
ATOM     19  C   UNL     1      21.416  -2.057 -16.874  1.00  0.00    -0.003 C 
ATOM     20  C   UNL     1      20.023  -1.752 -16.332  1.00  0.00     0.004 C 
ENDBRANCH  18  19
ENDBRANCH  17  18
ENDBRANCH  16  17
ENDBRANCH  15  16
ENDBRANCH  14  15
ENDBRANCH  13  14
ENDBRANCH   2  13
TORSDOF 15
ENDMDL
MODEL 5
REMARK VINA RESULT:    -4.644     12.534     15.845
REMARK INTER + INTRA:         -10.280
REMARK INTER:                  -7.837
REMARK INTRA:                  -2.444
REMARK UNBOUND:                -1.563
REMARK SMILES CCCCCCCCC=CCCCCCCCC(=O)[O-]
REMARK SMILES IDX 10 1 9 2 11 3 12 4 13 5 14 6 15 7 16 8 17 9 18 10 19 11
REMARK SMILES IDX 20 12 8 13 7 14 6 15 5 16 4 17 3 18 2 19 1 20
REMARK H PARENT
REMARK Flexibility Score: inf
ROOT
ATOM      1  C   UNL     1      21.582  -3.322 -15.897  1.00  0.00    -0.031 C 
ATOM      2  C   UNL     1      22.626  -3.857 -15.235  1.00  0.00    -0.031 C 
ENDROOT
BRANCH   1   3
ATOM      3  C   UNL     1      21.619  -2.801 -17.316  1.00  0.00     0.027 C 
BRANCH   3   4
ATOM      4  C   UNL     1      22.278  -1.415 -17.393  1.00  0.00     0.004 C 
BRANCH   4   5
ATOM      5  C   UNL     1      21.321  -0.288 -16.978  1.00  0.00     0.000 C 
BRANCH   5   6
ATOM      6  C   UNL     1      21.530   0.093 -15.505  1.00  0.00     0.000 C 
BRANCH   6   7
ATOM      7  C   UNL     1      23.007   0.034 -15.072  1.00  0.00     0.000 C 
BRANCH   7   8
ATOM      8  C   UNL     1      23.244   0.053 -13.548  1.00  0.00     0.006 C 
BRANCH   8   9
ATOM      9  C   UNL     1      24.723   0.079 -13.133  1.00  0.00     0.053 C 
BRANCH   9  10
ATOM     10  C   UNL     1      24.896  -0.136 -11.661  1.00  0.00     0.041 C 
ATOM     11  O   UNL     1      24.572  -1.237 -11.139  1.00  0.00    -0.550 OA
ATOM     12  O   UNL     1      25.383   0.888 -10.859  1.00  0.00    -0.550 OA
ENDBRANCH   9  10
ENDBRANCH   8   9
ENDBRANCH   7   8
ENDBRANCH   6   7
ENDBRANCH   5   6
ENDBRANCH   4   5
ENDBRANCH   3   4
ENDBRANCH   1   3
BRANCH   2  13
ATOM     13  C   UNL     1      24.006  -4.064 -15.805  1.00  0.00     0.027 C 
BRANCH  13  14
ATOM     14  C   UNL     1      25.016  -3.071 -15.214  1.00  0.00     0.004 C 
BRANCH  14  15
ATOM     15  C   UNL     1      25.621  -2.186 -16.310  1.00  0.00     0.000 C 
BRANCH  15  16
ATOM     16  C   UNL     1      25.894  -2.999 -17.585  1.00  0.00     0.000 C 
BRANCH  16  17
ATOM     17  C   UNL     1      27.389  -3.308 -17.791  1.00  0.00    -0.000 C 
BRANCH  17  18
ATOM     18  C   UNL     1      27.731  -4.801 -17.940  1.00  0.00    -0.000 C 
BRANCH  18  19
ATOM     19  C   UNL     1      27.179  -5.658 -16.791  1.00  0.00    -0.003 C 
ATOM     20  C   UNL     1      27.837  -5.290 -15.465  1.00  0.00     0.004 C 
ENDBRANCH  18  19
ENDBRANCH  17  18
ENDBRANCH  16  17
ENDBRANCH  15  16
ENDBRANCH  14  15
ENDBRANCH  13  14
ENDBRANCH   2  13
TORSDOF 15
ENDMDL
MODEL 6
REMARK VINA RESULT:    -4.612     11.977     14.968
REMARK INTER + INTRA:         -10.220
REMARK INTER:                  -7.917
REMARK INTRA:                  -2.303
REMARK UNBOUND:                -1.563
REMARK SMILES CCCCCCCCC=CCCCCCCCC(=O)[O-]
REMARK SMILES IDX 10 1 9 2 11 3 12 4 13 5 14 6 15 7 16 8 17 9 18 10 19 11
REMARK SMILES IDX 20 12 8 13 7 14 6 15 5 16 4 17 3 18 2 19 1 20
REMARK H PARENT
REMARK Flexibility Score: inf
ROOT
ATOM      1  C   UNL     1      23.711  -2.330 -11.030  1.00  0.00    -0.031 C 
ATOM      2  C   UNL     1      24.173  -1.247 -10.376  1.00  0.00    -0.031 C 
ENDROOT
BRANCH   1   3
ATOM      3  C   UNL     1      24.160  -2.781 -12.401  1.00  0.00     0.027 C 
BRANCH   3   4
ATOM      4  C   UNL     1      23.794  -4.251 -12.660  1.00  0.00     0.004 C 
BRANCH   4   5
ATOM      5  C   UNL     1      23.057  -4.445 -13.993  1.00  0.00     0.000 C 
BRANCH   5   6
ATOM      6  C   UNL     1      23.634  -3.523 -15.078  1.00  0.00     0.000 C 
BRANCH   6   7
ATOM      7  C   UNL     1      24.330  -4.294 -16.215  1.00  0.00     0.000 C 
BRANCH   7   8
ATOM      8  C   UNL     1      25.579  -3.606 -16.803  1.00  0.00     0.006 C 
BRANCH   8   9
ATOM      9  C   UNL     1      26.794  -3.576 -15.862  1.00  0.00     0.053 C 
BRANCH   9  10
ATOM     10  C   UNL     1      27.707  -4.742 -16.087  1.00  0.00     0.041 C 
ATOM     11  O   UNL     1      27.592  -5.781 -15.383  1.00  0.00    -0.550 OA
ATOM     12  O   UNL     1      28.705  -4.671 -17.050  1.00  0.00    -0.550 OA
ENDBRANCH   9  10
ENDBRANCH   8   9
ENDBRANCH   7   8
ENDBRANCH   6   7
ENDBRANCH   5   6
ENDBRANCH   4   5
ENDBRANCH   3   4
ENDBRANCH   1   3
BRANCH   2  13
ATOM     13  C   UNL     1      25.244  -0.314 -10.881  1.00  0.00     0.027 C 
BRANCH  13  14
ATOM     14  C   UNL     1      24.697   1.101 -11.111  1.00  0.00     0.004 C 
BRANCH  14  15
ATOM     15  C   UNL     1      24.118   1.243 -12.524  1.00  0.00     0.000 C 
BRANCH  15  16
ATOM     16  C   UNL     1      25.115   0.743 -13.580  1.00  0.00     0.000 C 
BRANCH  16  17
ATOM     17  C   UNL     1      24.439  -0.037 -14.722  1.00  0.00    -0.000 C 
BRANCH  17  18
ATOM     18  C   UNL     1      22.901  -0.061 -14.673  1.00  0.00    -0.000 C 
BRANCH  18  19
ATOM     19  C   UNL     1      22.256   0.121 -16.055  1.00  0.00    -0.003 C 
ATOM     20  C   UNL     1      23.105  -0.523 -17.147  1.00  0.00     0.004 C 
ENDBRANCH  18  19
ENDBRANCH  17  18
ENDBRANCH  16  17
ENDBRANCH  15  16
ENDBRANCH  14  15
ENDBRANCH  13  14
ENDBRANCH   2  13
TORSDOF 15
ENDMDL
MODEL 7
REMARK VINA RESULT:    -4.587     12.086     14.505
REMARK INTER + INTRA:         -10.171
REMARK INTER:                  -8.061
REMARK INTRA:                  -2.110
REMARK UNBOUND:                -1.563
REMARK SMILES CCCCCCCCC=CCCCCCCCC(=O)[O-]
REMARK SMILES IDX 10 1 9 2 11 3 12 4 13 5 14 6 15 7 16 8 17 9 18 10 19 11
REMARK SMILES IDX 20 12 8 13 7 14 6 15 5 16 4 17 3 18 2 19 1 20
REMARK H PARENT
REMARK Flexibility Score: inf
ROOT
ATOM      1  C   UNL     1      23.609  -3.265 -11.050  1.00  0.00    -0.031 C 
ATOM      2  C   UNL     1      23.902  -4.098 -12.067  1.00  0.00    -0.031 C 
ENDROOT
BRANCH   1   3
ATOM      3  C   UNL     1      23.532  -1.759 -11.148  1.00  0.00     0.027 C 
BRANCH   3   4
ATOM      4  C   UNL     1      24.625  -1.081 -10.308  1.00  0.00     0.004 C 
BRANCH   4   5
ATOM      5  C   UNL     1      25.396  -0.014 -11.099  1.00  0.00     0.000 C 
BRANCH   5   6
ATOM      6  C   UNL     1      25.469  -0.384 -12.588  1.00  0.00     0.000 C 
BRANCH   6   7
ATOM      7  C   UNL     1      24.739   0.625 -13.495  1.00  0.00     0.000 C 
BRANCH   7   8
ATOM      8  C   UNL     1      23.900  -0.002 -14.627  1.00  0.00     0.006 C 
BRANCH   8   9
ATOM      9  C   UNL     1      22.385  -0.007 -14.370  1.00  0.00     0.053 C 
BRANCH   9  10
ATOM     10  C   UNL     1      21.602  -0.210 -15.631  1.00  0.00     0.041 C 
ATOM     11  O   UNL     1      21.178   0.783 -16.280  1.00  0.00    -0.550 OA
ATOM     12  O   UNL     1      21.313  -1.494 -16.073  1.00  0.00    -0.550 OA
ENDBRANCH   9  10
ENDBRANCH   8   9
ENDBRANCH   7   8
ENDBRANCH   6   7
ENDBRANCH   5   6
ENDBRANCH   4   5
ENDBRANCH   3   4
ENDBRANCH   1   3
BRANCH   2  13
ATOM     13  C   UNL     1      24.170  -3.677 -13.490  1.00  0.00     0.027 C 
BRANCH  13  14
ATOM     14  C   UNL     1      23.029  -4.097 -14.427  1.00  0.00     0.004 C 
BRANCH  14  15
ATOM     15  C   UNL     1      23.503  -4.138 -15.884  1.00  0.00     0.000 C 
BRANCH  15  16
ATOM     16  C   UNL     1      24.762  -3.279 -16.077  1.00  0.00     0.000 C 
BRANCH  16  17
ATOM     17  C   UNL     1      25.684  -3.806 -17.192  1.00  0.00    -0.000 C 
BRANCH  17  18
ATOM     18  C   UNL     1      26.205  -5.239 -16.983  1.00  0.00    -0.000 C 
BRANCH  18  19
ATOM     19  C   UNL     1      27.553  -5.284 -16.248  1.00  0.00    -0.003 C 
ATOM     20  C   UNL     1      28.642  -4.581 -17.054  1.00  0.00     0.004 C 
ENDBRANCH  18  19
ENDBRANCH  17  18
ENDBRANCH  16  17
ENDBRANCH  15  16
ENDBRANCH  14  15
ENDBRANCH  13  14
ENDBRANCH   2  13
TORSDOF 15
ENDMDL
MODEL 8
REMARK VINA RESULT:    -4.566     12.557     15.395
REMARK INTER + INTRA:         -10.133
REMARK INTER:                  -7.760
REMARK INTRA:                  -2.373
REMARK UNBOUND:                -1.563
REMARK SMILES CCCCCCCCC=CCCCCCCCC(=O)[O-]
REMARK SMILES IDX 10 1 9 2 11 3 12 4 13 5 14 6 15 7 16 8 17 9 18 10 19 11
REMARK SMILES IDX 20 12 8 13 7 14 6 15 5 16 4 17 3 18 2 19 1 20
REMARK H PARENT
REMARK Flexibility Score: inf
ROOT
ATOM      1  C   UNL     1      24.993  -0.285 -12.672  1.00  0.00    -0.031 C 
ATOM      2  C   UNL     1      24.976  -1.335 -11.829  1.00  0.00    -0.031 C 
ENDROOT
BRANCH   1   3
ATOM      3  C   UNL     1      23.780   0.313 -13.349  1.00  0.00     0.027 C 
BRANCH   3   4
ATOM      4  C   UNL     1      23.617  -0.213 -14.783  1.00  0.00     0.004 C 
BRANCH   4   5
ATOM      5  C   UNL     1      24.905  -0.848 -15.325  1.00  0.00     0.000 C 
BRANCH   5   6
ATOM      6  C   UNL     1      24.872  -0.931 -16.858  1.00  0.00     0.000 C 
BRANCH   6   7
ATOM      7  C   UNL     1      25.122  -2.356 -17.389  1.00  0.00     0.000 C 
BRANCH   7   8
ATOM      8  C   UNL     1      26.472  -2.979 -16.978  1.00  0.00     0.006 C 
BRANCH   8   9
ATOM      9  C   UNL     1      26.356  -4.316 -16.229  1.00  0.00     0.053 C 
BRANCH   9  10
ATOM     10  C   UNL     1      27.695  -4.939 -15.981  1.00  0.00     0.041 C 
ATOM     11  O   UNL     1      27.887  -5.639 -14.952  1.00  0.00    -0.550 OA
ATOM     12  O   UNL     1      28.741  -4.719 -16.868  1.00  0.00    -0.550 OA
ENDBRANCH   9  10
ENDBRANCH   8   9
ENDBRANCH   7   8
ENDBRANCH   6   7
ENDBRANCH   5   6
ENDBRANCH   4   5
ENDBRANCH   3   4
ENDBRANCH   1   3
BRANCH   2  13
ATOM     13  C   UNL     1      23.740  -2.076 -11.383  1.00  0.00     0.027 C 
BRANCH  13  14
ATOM     14  C   UNL     1      23.789  -3.554 -11.795  1.00  0.00     0.004 C 
BRANCH  14  15
ATOM     15  C   UNL     1      24.110  -3.697 -13.287  1.00  0.00     0.000 C 
BRANCH  15  16
ATOM     16  C   UNL     1      23.001  -4.472 -14.016  1.00  0.00     0.000 C 
BRANCH  16  17
ATOM     17  C   UNL     1      22.822  -4.031 -15.480  1.00  0.00    -0.000 C 
BRANCH  17  18
ATOM     18  C   UNL     1      21.579  -3.165 -15.752  1.00  0.00    -0.000 C 
BRANCH  18  19
ATOM     19  C   UNL     1      21.542  -2.604 -17.181  1.00  0.00    -0.003 C 
ATOM     20  C   UNL     1      20.240  -2.976 -17.884  1.00  0.00     0.004 C 
ENDBRANCH  18  19
ENDBRANCH  17  18
ENDBRANCH  16  17
ENDBRANCH  15  16
ENDBRANCH  14  15
ENDBRANCH  13  14
ENDBRANCH   2  13
TORSDOF 15
ENDMDL
MODEL 9
REMARK VINA RESULT:    -4.492     12.230     15.774
REMARK INTER + INTRA:          -9.994
REMARK INTER:                  -7.320
REMARK INTRA:                  -2.674
REMARK UNBOUND:                -1.563
REMARK SMILES CCCCCCCCC=CCCCCCCCC(=O)[O-]
REMARK SMILES IDX 10 1 9 2 11 3 12 4 13 5 14 6 15 7 16 8 17 9 18 10 19 11
REMARK SMILES IDX 20 12 8 13 7 14 6 15 5 16 4 17 3 18 2 19 1 20
REMARK H PARENT
REMARK Flexibility Score: inf
ROOT
ATOM      1  C   UNL     1      21.855  -1.176 -15.681  1.00  0.00    -0.031 C 
ATOM      2  C   UNL     1      22.560  -0.218 -16.312  1.00  0.00    -0.031 C 
ENDROOT
BRANCH   1   3
ATOM      3  C   UNL     1      21.687  -2.599 -16.161  1.00  0.00     0.027 C 
BRANCH   3   4
ATOM      4  C   UNL     1      23.001  -3.389 -16.061  1.00  0.00     0.004 C 
BRANCH   4   5
ATOM      5  C   UNL     1      23.033  -4.322 -14.842  1.00  0.00     0.000 C 
BRANCH   5   6
ATOM      6  C   UNL     1      23.877  -3.716 -13.710  1.00  0.00     0.000 C 
BRANCH   6   7
ATOM      7  C   UNL     1      24.910  -2.691 -14.214  1.00  0.00     0.000 C 
BRANCH   7   8
ATOM      8  C   UNL     1      24.854  -1.312 -13.525  1.00  0.00     0.006 C 
BRANCH   8   9
ATOM      9  C   UNL     1      24.510  -1.361 -12.028  1.00  0.00     0.053 C 
BRANCH   9  10
ATOM     10  C   UNL     1      24.923  -0.109 -11.317  1.00  0.00     0.041 C 
ATOM     11  O   UNL     1      25.777  -0.159 -10.391  1.00  0.00    -0.550 OA
ATOM     12  O   UNL     1      24.343   1.107 -11.651  1.00  0.00    -0.550 OA
ENDBRANCH   9  10
ENDBRANCH   8   9
ENDBRANCH   7   8
ENDBRANCH   6   7
ENDBRANCH   5   6
ENDBRANCH   4   5
ENDBRANCH   3   4
ENDBRANCH   1   3
BRANCH   2  13
ATOM     13  C   UNL     1      23.336  -0.406 -17.591  1.00  0.00     0.027 C 
BRANCH  13  14
ATOM     14  C   UNL     1      24.682   0.329 -17.548  1.00  0.00     0.004 C 
BRANCH  14  15
ATOM     15  C   UNL     1      25.824  -0.637 -17.211  1.00  0.00     0.000 C 
BRANCH  15  16
ATOM     16  C   UNL     1      25.643  -1.978 -17.939  1.00  0.00     0.000 C 
BRANCH  16  17
ATOM     17  C   UNL     1      26.567  -3.085 -17.397  1.00  0.00    -0.000 C 
BRANCH  17  18
ATOM     18  C   UNL     1      26.056  -4.521 -17.610  1.00  0.00    -0.000 C 
BRANCH  18  19
ATOM     19  C   UNL     1      26.846  -5.562 -16.803  1.00  0.00    -0.003 C 
ATOM     20  C   UNL     1      27.513  -4.926 -15.588  1.00  0.00     0.004 C 
ENDBRANCH  18  19
ENDBRANCH  17  18
ENDBRANCH  16  17
ENDBRANCH  15  16
ENDBRANCH  14  15
ENDBRANCH  13  14
ENDBRANCH   2  13
TORSDOF 15
ENDMDL
