MODEL 1
REMARK VINA RESULT:    -6.044      0.000      0.000
REMARK INTER + INTRA:         -21.274
REMARK INTER:                 -15.938
REMARK INTRA:                  -5.336
REMARK UNBOUND:                -5.336
REMARK SMILES CCCCCCCCCCCCCCCCCCCCCCCCCCCCCC(=O)[O-]
REMARK SMILES IDX 16 1 17 2 18 3 19 4 20 5 21 6 22 7 23 8 24 9 25 10 26 11
REMARK SMILES IDX 27 12 28 13 29 14 30 15 31 16 32 17 15 18 14 19 13 20 12 21
REMARK SMILES IDX 11 22 10 23 9 24 8 25 7 26 6 27 5 28 4 29 3 30 2 31 1 32
REMARK H PARENT
REMARK Flexibility Score: inf
ROOT
ATOM      1  C   UNL     1     105.412  24.244 199.007  1.00  0.00     0.000 C 
ENDROOT
BRANCH   1   2
ATOM      2  C   UNL     1     104.485  24.197 197.779  1.00  0.00     0.000 C 
BRANCH   2   3
ATOM      3  C   UNL     1     104.465  25.485 196.932  1.00  0.00     0.000 C 
BRANCH   3   4
ATOM      4  C   UNL     1     105.053  25.301 195.515  1.00  0.00     0.000 C 
BRANCH   4   5
ATOM      5  C   UNL     1     105.140  23.817 195.113  1.00  0.00     0.000 C 
BRANCH   5   6
ATOM      6  C   UNL     1     104.238  23.481 193.905  1.00  0.00     0.000 C 
BRANCH   6   7
ATOM      7  C   UNL     1     104.238  21.991 193.524  1.00  0.00     0.000 C 
BRANCH   7   8
ATOM      8  C   UNL     1     105.453  21.594 192.669  1.00  0.00     0.000 C 
BRANCH   8   9
ATOM      9  C   UNL     1     106.544  20.884 193.499  1.00  0.00     0.000 C 
BRANCH   9  10
ATOM     10  C   UNL     1     107.950  20.986 192.884  1.00  0.00     0.000 C 
BRANCH  10  11
ATOM     11  C   UNL     1     109.069  20.694 193.895  1.00  0.00     0.000 C 
BRANCH  11  12
ATOM     12  C   UNL     1     108.488  20.337 195.267  1.00  0.00     0.000 C 
BRANCH  12  13
ATOM     13  C   UNL     1     109.559  19.708 196.171  1.00  0.00     0.006 C 
BRANCH  13  14
ATOM     14  C   UNL     1     110.973  20.185 195.818  1.00  0.00     0.053 C 
BRANCH  14  15
ATOM     15  C   UNL     1     111.485  21.188 196.805  1.00  0.00     0.041 C 
ATOM     16  O   UNL     1     112.700  21.189 197.137  1.00  0.00    -0.550 OA
ATOM     17  O   UNL     1     110.626  22.146 197.333  1.00  0.00    -0.550 OA
ENDBRANCH  14  15
ENDBRANCH  13  14
ENDBRANCH  12  13
ENDBRANCH  11  12
ENDBRANCH  10  11
ENDBRANCH   9  10
ENDBRANCH   8   9
ENDBRANCH   7   8
ENDBRANCH   6   7
ENDBRANCH   5   6
ENDBRANCH   4   5
ENDBRANCH   3   4
ENDBRANCH   2   3
ENDBRANCH   1   2
BRANCH   1  18
ATOM     18  C   UNL     1     104.998  23.249 200.106  1.00  0.00     0.000 C 
BRANCH  18  19
ATOM     19  C   UNL     1     103.513  22.848 200.024  1.00  0.00     0.000 C 
BRANCH  19  20
ATOM     20  C   UNL     1     102.595  23.492 201.079  1.00  0.00     0.000 C 
BRANCH  20  21
ATOM     21  C   UNL     1     101.218  23.888 200.519  1.00  0.00     0.000 C 
BRANCH  21  22
ATOM     22  C   UNL     1     101.094  23.631 199.007  1.00  0.00     0.000 C 
BRANCH  22  23
ATOM     23  C   UNL     1      99.767  22.993 198.552  1.00  0.00     0.000 C 
BRANCH  23  24
ATOM     24  C   UNL     1      99.553  22.926 197.029  1.00  0.00    -0.000 C 
BRANCH  24  25
ATOM     25  C   UNL     1     100.855  23.128 196.234  1.00  0.00    -0.000 C 
BRANCH  25  26
ATOM     26  C   UNL     1     101.148  21.972 195.259  1.00  0.00    -0.000 C 
BRANCH  26  27
ATOM     27  C   UNL     1     101.709  20.694 195.907  1.00  0.00    -0.000 C 
BRANCH  27  28
ATOM     28  C   UNL     1     102.792  20.976 196.960  1.00  0.00    -0.000 C 
BRANCH  28  29
ATOM     29  C   UNL     1     104.051  20.136 196.697  1.00  0.00    -0.000 C 
BRANCH  29  30
ATOM     30  C   UNL     1     105.321  20.746 197.317  1.00  0.00    -0.000 C 
BRANCH  30  31
ATOM     31  C   UNL     1     106.180  19.763 198.131  1.00  0.00    -0.003 C 
ATOM     32  C   UNL     1     107.181  20.463 199.047  1.00  0.00     0.004 C 
ENDBRANCH  30  31
ENDBRANCH  29  30
ENDBRANCH  28  29
ENDBRANCH  27  28
ENDBRANCH  26  27
ENDBRANCH  25  26
ENDBRANCH  24  25
ENDBRANCH  23  24
ENDBRANCH  22  23
ENDBRANCH  21  22
ENDBRANCH  20  21
ENDBRANCH  19  20
ENDBRANCH  18  19
ENDBRANCH   1  18
TORSDOF 28
ENDMDL
MODEL 2
REMARK VINA RESULT:    -5.996      3.478      7.479
REMARK INTER + INTRA:         -21.146
REMARK INTER:                 -16.419
REMARK INTRA:                  -4.727
REMARK UNBOUND:                -5.336
REMARK SMILES CCCCCCCCCCCCCCCCCCCCCCCCCCCCCC(=O)[O-]
REMARK SMILES IDX 16 1 17 2 18 3 19 4 20 5 21 6 22 7 23 8 24 9 25 10 26 11
REMARK SMILES IDX 27 12 28 13 29 14 30 15 31 16 32 17 15 18 14 19 13 20 12 21
REMARK SMILES IDX 11 22 10 23 9 24 8 25 7 26 6 27 5 28 4 29 3 30 2 31 1 32
REMARK H PARENT
REMARK Flexibility Score: inf
ROOT
ATOM      1  C   UNL     1     103.297  23.092 193.268  1.00  0.00     0.000 C 
ENDROOT
BRANCH   1   2
ATOM      2  C   UNL     1     104.421  22.040 193.279  1.00  0.00     0.000 C 
BRANCH   2   3
ATOM      3  C   UNL     1     105.479  22.233 194.383  1.00  0.00     0.000 C 
BRANCH   3   4
ATOM      4  C   UNL     1     104.990  23.103 195.562  1.00  0.00     0.000 C 
BRANCH   4   5
ATOM      5  C   UNL     1     105.754  24.437 195.653  1.00  0.00     0.000 C 
BRANCH   5   6
ATOM      6  C   UNL     1     105.357  25.258 196.899  1.00  0.00     0.000 C 
BRANCH   6   7
ATOM      7  C   UNL     1     104.536  24.466 197.930  1.00  0.00     0.000 C 
BRANCH   7   8
ATOM      8  C   UNL     1     105.382  23.970 199.114  1.00  0.00     0.000 C 
BRANCH   8   9
ATOM      9  C   UNL     1     104.552  23.144 200.120  1.00  0.00     0.000 C 
BRANCH   9  10
ATOM     10  C   UNL     1     103.113  22.869 199.652  1.00  0.00     0.000 C 
BRANCH  10  11
ATOM     11  C   UNL     1     102.063  23.182 200.728  1.00  0.00     0.000 C 
BRANCH  11  12
ATOM     12  C   UNL     1     101.097  24.272 200.252  1.00  0.00     0.000 C 
BRANCH  12  13
ATOM     13  C   UNL     1      99.807  23.658 199.689  1.00  0.00     0.006 C 
BRANCH  13  14
ATOM     14  C   UNL     1      99.999  23.096 198.274  1.00  0.00     0.053 C 
BRANCH  14  15
ATOM     15  C   UNL     1      98.730  22.518 197.728  1.00  0.00     0.041 C 
ATOM     16  O   UNL     1      98.521  21.277 197.788  1.00  0.00    -0.550 OA
ATOM     17  O   UNL     1      97.761  23.354 197.185  1.00  0.00    -0.550 OA
ENDBRANCH  14  15
ENDBRANCH  13  14
ENDBRANCH  12  13
ENDBRANCH  11  12
ENDBRANCH  10  11
ENDBRANCH   9  10
ENDBRANCH   8   9
ENDBRANCH   7   8
ENDBRANCH   6   7
ENDBRANCH   5   6
ENDBRANCH   4   5
ENDBRANCH   3   4
ENDBRANCH   2   3
ENDBRANCH   1   2
BRANCH   1  18
ATOM     18  C   UNL     1     101.900  22.474 193.456  1.00  0.00     0.000 C 
BRANCH  18  19
ATOM     19  C   UNL     1     101.464  22.412 194.931  1.00  0.00     0.000 C 
BRANCH  19  20
ATOM     20  C   UNL     1     101.232  20.997 195.493  1.00  0.00     0.000 C 
BRANCH  20  21
ATOM     21  C   UNL     1     102.230  20.618 196.600  1.00  0.00     0.000 C 
BRANCH  21  22
ATOM     22  C   UNL     1     101.910  19.261 197.252  1.00  0.00     0.000 C 
BRANCH  22  23
ATOM     23  C   UNL     1     103.093  18.276 197.343  1.00  0.00     0.000 C 
BRANCH  23  24
ATOM     24  C   UNL     1     104.406  18.758 196.702  1.00  0.00    -0.000 C 
BRANCH  24  25
ATOM     25  C   UNL     1     105.526  18.984 197.733  1.00  0.00    -0.000 C 
BRANCH  25  26
ATOM     26  C   UNL     1     105.904  20.469 197.892  1.00  0.00    -0.000 C 
BRANCH  26  27
ATOM     27  C   UNL     1     107.378  20.737 198.242  1.00  0.00    -0.000 C 
BRANCH  27  28
ATOM     28  C   UNL     1     108.139  21.473 197.128  1.00  0.00    -0.000 C 
BRANCH  28  29
ATOM     29  C   UNL     1     108.435  20.534 195.949  1.00  0.00    -0.000 C 
BRANCH  29  30
ATOM     30  C   UNL     1     109.768  19.779 196.102  1.00  0.00    -0.000 C 
BRANCH  30  31
ATOM     31  C   UNL     1     110.950  20.389 195.328  1.00  0.00    -0.003 C 
ATOM     32  C   UNL     1     110.682  20.509 193.829  1.00  0.00     0.004 C 
ENDBRANCH  30  31
ENDBRANCH  29  30
ENDBRANCH  28  29
ENDBRANCH  27  28
ENDBRANCH  26  27
ENDBRANCH  25  26
ENDBRANCH  24  25
ENDBRANCH  23  24
ENDBRANCH  22  23
ENDBRANCH  21  22
ENDBRANCH  20  21
ENDBRANCH  19  20
ENDBRANCH  18  19
ENDBRANCH   1  18
TORSDOF 28
ENDMDL
MODEL 3
REMARK VINA RESULT:    -5.966      2.823      6.817
REMARK INTER + INTRA:         -21.068
REMARK INTER:                 -16.154
REMARK INTRA:                  -4.914
REMARK UNBOUND:                -5.336
REMARK SMILES CCCCCCCCCCCCCCCCCCCCCCCCCCCCCC(=O)[O-]
REMARK SMILES IDX 16 1 17 2 18 3 19 4 20 5 21 6 22 7 23 8 24 9 25 10 26 11
REMARK SMILES IDX 27 12 28 13 29 14 30 15 31 16 32 17 15 18 14 19 13 20 12 21
REMARK SMILES IDX 11 22 10 23 9 24 8 25 7 26 6 27 5 28 4 29 3 30 2 31 1 32
REMARK H PARENT
REMARK Flexibility Score: inf
ROOT
ATOM      1  C   UNL     1     102.946  25.200 197.457  1.00  0.00     0.000 C 
ENDROOT
BRANCH   1   2
ATOM      2  C   UNL     1     102.036  23.992 197.173  1.00  0.00     0.000 C 
BRANCH   2   3
ATOM      3  C   UNL     1     101.321  23.414 198.411  1.00  0.00     0.000 C 
BRANCH   3   4
ATOM      4  C   UNL     1     102.205  22.461 199.246  1.00  0.00     0.000 C 
BRANCH   4   5
ATOM      5  C   UNL     1     102.779  23.152 200.497  1.00  0.00     0.000 C 
BRANCH   5   6
ATOM      6  C   UNL     1     104.317  23.278 200.445  1.00  0.00     0.000 C 
BRANCH   6   7
ATOM      7  C   UNL     1     104.956  22.600 199.222  1.00  0.00     0.000 C 
BRANCH   7   8
ATOM      8  C   UNL     1     106.443  22.268 199.432  1.00  0.00     0.000 C 
BRANCH   8   9
ATOM      9  C   UNL     1     106.823  20.891 198.845  1.00  0.00     0.000 C 
BRANCH   9  10
ATOM     10  C   UNL     1     105.942  20.464 197.660  1.00  0.00     0.000 C 
BRANCH  10  11
ATOM     11  C   UNL     1     105.699  18.948 197.611  1.00  0.00     0.000 C 
BRANCH  11  12
ATOM     12  C   UNL     1     104.344  18.630 196.969  1.00  0.00     0.000 C 
BRANCH  12  13
ATOM     13  C   UNL     1     103.327  19.746 197.247  1.00  0.00     0.006 C 
BRANCH  13  14
ATOM     14  C   UNL     1     101.878  19.247 197.163  1.00  0.00     0.053 C 
BRANCH  14  15
ATOM     15  C   UNL     1     101.000  20.211 196.427  1.00  0.00     0.041 C 
ATOM     16  O   UNL     1      99.797  20.362 196.770  1.00  0.00    -0.550 OA
ATOM     17  O   UNL     1     101.519  20.968 195.383  1.00  0.00    -0.550 OA
ENDBRANCH  14  15
ENDBRANCH  13  14
ENDBRANCH  12  13
ENDBRANCH  11  12
ENDBRANCH  10  11
ENDBRANCH   9  10
ENDBRANCH   8   9
ENDBRANCH   7   8
ENDBRANCH   6   7
ENDBRANCH   5   6
ENDBRANCH   4   5
ENDBRANCH   3   4
ENDBRANCH   2   3
ENDBRANCH   1   2
BRANCH   1  18
ATOM     18  C   UNL     1     103.913  25.504 196.299  1.00  0.00     0.000 C 
BRANCH  18  19
ATOM     19  C   UNL     1     105.366  25.099 196.607  1.00  0.00     0.000 C 
BRANCH  19  20
ATOM     20  C   UNL     1     106.046  24.216 195.544  1.00  0.00     0.000 C 
BRANCH  20  21
ATOM     21  C   UNL     1     105.349  22.857 195.355  1.00  0.00     0.000 C 
BRANCH  21  22
ATOM     22  C   UNL     1     104.544  22.778 194.046  1.00  0.00     0.000 C 
BRANCH  22  23
ATOM     23  C   UNL     1     105.056  21.751 193.016  1.00  0.00     0.000 C 
BRANCH  23  24
ATOM     24  C   UNL     1     106.175  20.818 193.513  1.00  0.00    -0.000 C 
BRANCH  24  25
ATOM     25  C   UNL     1     107.516  21.062 192.799  1.00  0.00    -0.000 C 
BRANCH  25  26
ATOM     26  C   UNL     1     108.733  20.818 193.710  1.00  0.00    -0.000 C 
BRANCH  26  27
ATOM     27  C   UNL     1     108.400  20.483 195.175  1.00  0.00    -0.000 C 
BRANCH  27  28
ATOM     28  C   UNL     1     109.626  20.038 195.986  1.00  0.00    -0.000 C 
BRANCH  28  29
ATOM     29  C   UNL     1     110.895  20.049 195.120  1.00  0.00    -0.000 C 
BRANCH  29  30
ATOM     30  C   UNL     1     111.967  21.026 195.637  1.00  0.00    -0.000 C 
BRANCH  30  31
ATOM     31  C   UNL     1     111.705  21.587 197.046  1.00  0.00    -0.003 C 
ATOM     32  C   UNL     1     112.848  21.311 198.020  1.00  0.00     0.004 C 
ENDBRANCH  30  31
ENDBRANCH  29  30
ENDBRANCH  28  29
ENDBRANCH  27  28
ENDBRANCH  26  27
ENDBRANCH  25  26
ENDBRANCH  24  25
ENDBRANCH  23  24
ENDBRANCH  22  23
ENDBRANCH  21  22
ENDBRANCH  20  21
ENDBRANCH  19  20
ENDBRANCH  18  19
ENDBRANCH   1  18
TORSDOF 28
ENDMDL
MODEL 4
REMARK VINA RESULT:    -5.954      1.265      5.346
REMARK INTER + INTRA:         -21.035
REMARK INTER:                 -16.503
REMARK INTRA:                  -4.532
REMARK UNBOUND:                -5.336
REMARK SMILES CCCCCCCCCCCCCCCCCCCCCCCCCCCCCC(=O)[O-]
REMARK SMILES IDX 16 1 17 2 18 3 19 4 20 5 21 6 22 7 23 8 24 9 25 10 26 11
REMARK SMILES IDX 27 12 28 13 29 14 30 15 31 16 32 17 15 18 14 19 13 20 12 21
REMARK SMILES IDX 11 22 10 23 9 24 8 25 7 26 6 27 5 28 4 29 3 30 2 31 1 32
REMARK H PARENT
REMARK Flexibility Score: inf
ROOT
ATOM      1  C   UNL     1     101.553  22.595 195.110  1.00  0.00     0.000 C 
ENDROOT
BRANCH   1   2
ATOM      2  C   UNL     1     101.291  21.188 195.678  1.00  0.00     0.000 C 
BRANCH   2   3
ATOM      3  C   UNL     1     102.345  20.689 196.686  1.00  0.00     0.000 C 
BRANCH   3   4
ATOM      4  C   UNL     1     102.037  19.288 197.258  1.00  0.00     0.000 C 
BRANCH   4   5
ATOM      5  C   UNL     1     103.317  18.463 197.488  1.00  0.00     0.000 C 
BRANCH   5   6
ATOM      6  C   UNL     1     104.533  19.040 196.729  1.00  0.00     0.000 C 
BRANCH   6   7
ATOM      7  C   UNL     1     105.846  18.988 197.529  1.00  0.00     0.000 C 
BRANCH   7   8
ATOM      8  C   UNL     1     106.239  20.352 198.119  1.00  0.00     0.000 C 
BRANCH   8   9
ATOM      9  C   UNL     1     107.679  20.760 197.738  1.00  0.00     0.000 C 
BRANCH   9  10
ATOM     10  C   UNL     1     107.910  20.861 196.222  1.00  0.00     0.000 C 
BRANCH  10  11
ATOM     11  C   UNL     1     108.946  19.851 195.705  1.00  0.00     0.000 C 
BRANCH  11  12
ATOM     12  C   UNL     1     110.054  20.557 194.917  1.00  0.00     0.000 C 
BRANCH  12  13
ATOM     13  C   UNL     1     111.442  20.167 195.448  1.00  0.00     0.006 C 
BRANCH  13  14
ATOM     14  C   UNL     1     112.272  21.390 195.860  1.00  0.00     0.053 C 
BRANCH  14  15
ATOM     15  C   UNL     1     112.171  21.661 197.330  1.00  0.00     0.041 C 
ATOM     16  O   UNL     1     113.170  21.487 198.077  1.00  0.00    -0.550 OA
ATOM     17  O   UNL     1     110.983  22.142 197.869  1.00  0.00    -0.550 OA
ENDBRANCH  14  15
ENDBRANCH  13  14
ENDBRANCH  12  13
ENDBRANCH  11  12
ENDBRANCH  10  11
ENDBRANCH   9  10
ENDBRANCH   8   9
ENDBRANCH   7   8
ENDBRANCH   6   7
ENDBRANCH   5   6
ENDBRANCH   4   5
ENDBRANCH   3   4
ENDBRANCH   2   3
ENDBRANCH   1   2
BRANCH   1  18
ATOM     18  C   UNL     1     101.907  22.577 193.612  1.00  0.00     0.000 C 
BRANCH  18  19
ATOM     19  C   UNL     1     103.424  22.518 193.354  1.00  0.00     0.000 C 
BRANCH  19  20
ATOM     20  C   UNL     1     104.261  23.583 194.087  1.00  0.00     0.000 C 
BRANCH  20  21
ATOM     21  C   UNL     1     105.328  22.977 195.015  1.00  0.00     0.000 C 
BRANCH  21  22
ATOM     22  C   UNL     1     105.650  23.879 196.220  1.00  0.00     0.000 C 
BRANCH  22  23
ATOM     23  C   UNL     1     104.500  24.793 196.688  1.00  0.00     0.000 C 
BRANCH  23  24
ATOM     24  C   UNL     1     103.555  24.183 197.739  1.00  0.00    -0.000 C 
BRANCH  24  25
ATOM     25  C   UNL     1     104.272  23.211 198.692  1.00  0.00    -0.000 C 
BRANCH  25  26
ATOM     26  C   UNL     1     103.721  23.266 200.130  1.00  0.00    -0.000 C 
BRANCH  26  27
ATOM     27  C   UNL     1     102.280  22.753 200.301  1.00  0.00    -0.000 C 
BRANCH  27  28
ATOM     28  C   UNL     1     101.320  23.820 200.848  1.00  0.00    -0.000 C 
BRANCH  28  29
ATOM     29  C   UNL     1     100.102  23.990 199.927  1.00  0.00    -0.000 C 
BRANCH  29  30
ATOM     30  C   UNL     1     100.152  23.075 198.690  1.00  0.00    -0.000 C 
BRANCH  30  31
ATOM     31  C   UNL     1      98.783  22.755 198.066  1.00  0.00    -0.003 C 
ATOM     32  C   UNL     1      97.635  23.517 198.724  1.00  0.00     0.004 C 
ENDBRANCH  30  31
ENDBRANCH  29  30
ENDBRANCH  28  29
ENDBRANCH  27  28
ENDBRANCH  26  27
ENDBRANCH  25  26
ENDBRANCH  24  25
ENDBRANCH  23  24
ENDBRANCH  22  23
ENDBRANCH  21  22
ENDBRANCH  20  21
ENDBRANCH  19  20
ENDBRANCH  18  19
ENDBRANCH   1  18
TORSDOF 28
ENDMDL
MODEL 5
REMARK VINA RESULT:    -5.889      3.020      7.136
REMARK INTER + INTRA:         -20.864
REMARK INTER:                 -16.092
REMARK INTRA:                  -4.773
REMARK UNBOUND:                -5.336
REMARK SMILES CCCCCCCCCCCCCCCCCCCCCCCCCCCCCC(=O)[O-]
REMARK SMILES IDX 16 1 17 2 18 3 19 4 20 5 21 6 22 7 23 8 24 9 25 10 26 11
REMARK SMILES IDX 27 12 28 13 29 14 30 15 31 16 32 17 15 18 14 19 13 20 12 21
REMARK SMILES IDX 11 22 10 23 9 24 8 25 7 26 6 27 5 28 4 29 3 30 2 31 1 32
REMARK H PARENT
REMARK Flexibility Score: inf
ROOT
ATOM      1  C   UNL     1     106.049  22.961 199.778  1.00  0.00     0.000 C 
ENDROOT
BRANCH   1   2
ATOM      2  C   UNL     1     107.164  21.915 199.595  1.00  0.00     0.000 C 
BRANCH   2   3
ATOM      3  C   UNL     1     107.515  21.592 198.129  1.00  0.00     0.000 C 
BRANCH   3   4
ATOM      4  C   UNL     1     107.392  20.092 197.782  1.00  0.00     0.000 C 
BRANCH   4   5
ATOM      5  C   UNL     1     106.002  19.528 198.132  1.00  0.00     0.000 C 
BRANCH   5   6
ATOM      6  C   UNL     1     105.627  18.306 197.266  1.00  0.00     0.000 C 
BRANCH   6   7
ATOM      7  C   UNL     1     104.111  18.083 197.128  1.00  0.00     0.000 C 
BRANCH   7   8
ATOM      8  C   UNL     1     103.327  19.398 196.980  1.00  0.00     0.000 C 
BRANCH   8   9
ATOM      9  C   UNL     1     101.812  19.202 197.209  1.00  0.00     0.000 C 
BRANCH   9  10
ATOM     10  C   UNL     1     100.950  20.328 196.616  1.00  0.00     0.000 C 
BRANCH  10  11
ATOM     11  C   UNL     1     101.755  21.302 195.743  1.00  0.00     0.000 C 
BRANCH  11  12
ATOM     12  C   UNL     1     101.508  22.753 196.170  1.00  0.00     0.000 C 
BRANCH  12  13
ATOM     13  C   UNL     1     100.804  22.815 197.533  1.00  0.00     0.006 C 
BRANCH  13  14
ATOM     14  C   UNL     1     101.524  23.744 198.519  1.00  0.00     0.053 C 
BRANCH  14  15
ATOM     15  C   UNL     1     100.799  23.840 199.825  1.00  0.00     0.041 C 
ATOM     16  O   UNL     1      99.556  24.048 199.847  1.00  0.00    -0.550 OA
ATOM     17  O   UNL     1     101.489  23.663 201.019  1.00  0.00    -0.550 OA
ENDBRANCH  14  15
ENDBRANCH  13  14
ENDBRANCH  12  13
ENDBRANCH  11  12
ENDBRANCH  10  11
ENDBRANCH   9  10
ENDBRANCH   8   9
ENDBRANCH   7   8
ENDBRANCH   6   7
ENDBRANCH   5   6
ENDBRANCH   4   5
ENDBRANCH   3   4
ENDBRANCH   2   3
ENDBRANCH   1   2
BRANCH   1  18
ATOM     18  C   UNL     1     105.074  23.009 198.587  1.00  0.00     0.000 C 
BRANCH  18  19
ATOM     19  C   UNL     1     105.035  24.387 197.899  1.00  0.00     0.000 C 
BRANCH  19  20
ATOM     20  C   UNL     1     105.753  24.467 196.540  1.00  0.00     0.000 C 
BRANCH  20  21
ATOM     21  C   UNL     1     104.797  24.309 195.344  1.00  0.00     0.000 C 
BRANCH  21  22
ATOM     22  C   UNL     1     105.154  23.107 194.451  1.00  0.00     0.000 C 
BRANCH  22  23
ATOM     23  C   UNL     1     105.344  21.768 195.190  1.00  0.00     0.000 C 
BRANCH  23  24
ATOM     24  C   UNL     1     106.041  20.659 194.382  1.00  0.00    -0.000 C 
BRANCH  24  25
ATOM     25  C   UNL     1     106.411  21.103 192.956  1.00  0.00    -0.000 C 
BRANCH  25  26
ATOM     26  C   UNL     1     107.925  21.031 192.679  1.00  0.00    -0.000 C 
BRANCH  26  27
ATOM     27  C   UNL     1     108.812  20.851 193.924  1.00  0.00    -0.000 C 
BRANCH  27  28
ATOM     28  C   UNL     1     110.281  20.560 193.581  1.00  0.00    -0.000 C 
BRANCH  28  29
ATOM     29  C   UNL     1     111.019  19.956 194.785  1.00  0.00    -0.000 C 
BRANCH  29  30
ATOM     30  C   UNL     1     111.795  21.006 195.602  1.00  0.00    -0.000 C 
BRANCH  30  31
ATOM     31  C   UNL     1     111.036  21.573 196.814  1.00  0.00    -0.003 C 
ATOM     32  C   UNL     1     111.963  22.163 197.875  1.00  0.00     0.004 C 
ENDBRANCH  30  31
ENDBRANCH  29  30
ENDBRANCH  28  29
ENDBRANCH  27  28
ENDBRANCH  26  27
ENDBRANCH  25  26
ENDBRANCH  24  25
ENDBRANCH  23  24
ENDBRANCH  22  23
ENDBRANCH  21  22
ENDBRANCH  20  21
ENDBRANCH  19  20
ENDBRANCH  18  19
ENDBRANCH   1  18
TORSDOF 28
ENDMDL
MODEL 6
REMARK VINA RESULT:    -5.883      2.465      7.603
REMARK INTER + INTRA:         -20.850
REMARK INTER:                 -15.815
REMARK INTRA:                  -5.035
REMARK UNBOUND:                -5.336
REMARK SMILES CCCCCCCCCCCCCCCCCCCCCCCCCCCCCC(=O)[O-]
REMARK SMILES IDX 16 1 17 2 18 3 19 4 20 5 21 6 22 7 23 8 24 9 25 10 26 11
REMARK SMILES IDX 27 12 28 13 29 14 30 15 31 16 32 17 15 18 14 19 13 20 12 21
REMARK SMILES IDX 11 22 10 23 9 24 8 25 7 26 6 27 5 28 4 29 3 30 2 31 1 32
REMARK H PARENT
REMARK Flexibility Score: inf
ROOT
ATOM      1  C   UNL     1     104.216  24.260 195.095  1.00  0.00     0.000 C 
ENDROOT
BRANCH   1   2
ATOM      2  C   UNL     1     105.287  25.355 195.244  1.00  0.00     0.000 C 
BRANCH   2   3
ATOM      3  C   UNL     1     105.499  25.863 196.684  1.00  0.00     0.000 C 
BRANCH   3   4
ATOM      4  C   UNL     1     104.574  25.186 197.719  1.00  0.00     0.000 C 
BRANCH   4   5
ATOM      5  C   UNL     1     105.315  24.121 198.548  1.00  0.00     0.000 C 
BRANCH   5   6
ATOM      6  C   UNL     1     104.385  22.969 198.992  1.00  0.00     0.000 C 
BRANCH   6   7
ATOM      7  C   UNL     1     103.810  23.145 200.407  1.00  0.00     0.000 C 
BRANCH   7   8
ATOM      8  C   UNL     1     102.283  22.973 200.455  1.00  0.00     0.000 C 
BRANCH   8   9
ATOM      9  C   UNL     1     101.555  23.957 199.512  1.00  0.00     0.000 C 
BRANCH   9  10
ATOM     10  C   UNL     1     100.715  23.262 198.428  1.00  0.00     0.000 C 
BRANCH  10  11
ATOM     11  C   UNL     1     101.384  23.285 197.046  1.00  0.00     0.000 C 
BRANCH  11  12
ATOM     12  C   UNL     1     100.946  22.081 196.205  1.00  0.00     0.000 C 
BRANCH  12  13
ATOM     13  C   UNL     1     101.158  20.767 196.970  1.00  0.00     0.006 C 
BRANCH  13  14
ATOM     14  C   UNL     1     102.621  20.306 196.941  1.00  0.00     0.053 C 
BRANCH  14  15
ATOM     15  C   UNL     1     102.741  18.823 197.111  1.00  0.00     0.041 C 
ATOM     16  O   UNL     1     101.727  18.134 197.402  1.00  0.00    -0.550 OA
ATOM     17  O   UNL     1     103.966  18.197 196.912  1.00  0.00    -0.550 OA
ENDBRANCH  14  15
ENDBRANCH  13  14
ENDBRANCH  12  13
ENDBRANCH  11  12
ENDBRANCH  10  11
ENDBRANCH   9  10
ENDBRANCH   8   9
ENDBRANCH   7   8
ENDBRANCH   6   7
ENDBRANCH   5   6
ENDBRANCH   4   5
ENDBRANCH   3   4
ENDBRANCH   2   3
ENDBRANCH   1   2
BRANCH   1  18
ATOM     18  C   UNL     1     104.727  23.024 194.331  1.00  0.00     0.000 C 
BRANCH  18  19
ATOM     19  C   UNL     1     105.622  22.114 195.193  1.00  0.00     0.000 C 
BRANCH  19  20
ATOM     20  C   UNL     1     106.060  20.797 194.527  1.00  0.00     0.000 C 
BRANCH  20  21
ATOM     21  C   UNL     1     106.283  20.933 193.011  1.00  0.00     0.000 C 
BRANCH  21  22
ATOM     22  C   UNL     1     107.773  20.988 192.630  1.00  0.00     0.000 C 
BRANCH  22  23
ATOM     23  C   UNL     1     108.760  20.711 193.782  1.00  0.00     0.000 C 
BRANCH  23  24
ATOM     24  C   UNL     1     110.246  20.666 193.384  1.00  0.00    -0.000 C 
BRANCH  24  25
ATOM     25  C   UNL     1     111.126  19.974 194.439  1.00  0.00    -0.000 C 
BRANCH  25  26
ATOM     26  C   UNL     1     111.526  20.912 195.594  1.00  0.00    -0.000 C 
BRANCH  26  27
ATOM     27  C   UNL     1     110.755  20.701 196.909  1.00  0.00    -0.000 C 
BRANCH  27  28
ATOM     28  C   UNL     1     110.045  21.971 197.402  1.00  0.00    -0.000 C 
BRANCH  28  29
ATOM     29  C   UNL     1     108.525  21.865 197.207  1.00  0.00    -0.000 C 
BRANCH  29  30
ATOM     30  C   UNL     1     107.792  21.359 198.463  1.00  0.00    -0.000 C 
BRANCH  30  31
ATOM     31  C   UNL     1     106.739  20.266 198.202  1.00  0.00    -0.003 C 
ATOM     32  C   UNL     1     107.357  18.921 197.828  1.00  0.00     0.004 C 
ENDBRANCH  30  31
ENDBRANCH  29  30
ENDBRANCH  28  29
ENDBRANCH  27  28
ENDBRANCH  26  27
ENDBRANCH  25  26
ENDBRANCH  24  25
ENDBRANCH  23  24
ENDBRANCH  22  23
ENDBRANCH  21  22
ENDBRANCH  20  21
ENDBRANCH  19  20
ENDBRANCH  18  19
ENDBRANCH   1  18
TORSDOF 28
ENDMDL
MODEL 7
REMARK VINA RESULT:    -5.876      2.302      5.966
REMARK INTER + INTRA:         -20.829
REMARK INTER:                 -15.840
REMARK INTRA:                  -4.990
REMARK UNBOUND:                -5.336
REMARK SMILES CCCCCCCCCCCCCCCCCCCCCCCCCCCCCC(=O)[O-]
REMARK SMILES IDX 16 1 17 2 18 3 19 4 20 5 21 6 22 7 23 8 24 9 25 10 26 11
REMARK SMILES IDX 27 12 28 13 29 14 30 15 31 16 32 17 15 18 14 19 13 20 12 21
REMARK SMILES IDX 11 22 10 23 9 24 8 25 7 26 6 27 5 28 4 29 3 30 2 31 1 32
REMARK H PARENT
REMARK Flexibility Score: inf
ROOT
ATOM      1  C   UNL     1     105.183  22.010 193.283  1.00  0.00     0.000 C 
ENDROOT
BRANCH   1   2
ATOM      2  C   UNL     1     106.088  20.768 193.203  1.00  0.00     0.000 C 
BRANCH   2   3
ATOM      3  C   UNL     1     107.556  21.059 192.831  1.00  0.00     0.000 C 
BRANCH   3   4
ATOM      4  C   UNL     1     108.563  20.650 193.929  1.00  0.00     0.000 C 
BRANCH   4   5
ATOM      5  C   UNL     1     110.015  20.666 193.418  1.00  0.00     0.000 C 
BRANCH   5   6
ATOM      6  C   UNL     1     111.031  20.283 194.516  1.00  0.00     0.000 C 
BRANCH   6   7
ATOM      7  C   UNL     1     110.417  20.188 195.924  1.00  0.00     0.000 C 
BRANCH   7   8
ATOM      8  C   UNL     1     110.792  21.380 196.819  1.00  0.00     0.000 C 
BRANCH   8   9
ATOM      9  C   UNL     1     109.548  22.086 197.401  1.00  0.00     0.000 C 
BRANCH   9  10
ATOM     10  C   UNL     1     108.259  21.256 197.286  1.00  0.00     0.000 C 
BRANCH  10  11
ATOM     11  C   UNL     1     107.622  20.947 198.649  1.00  0.00     0.000 C 
BRANCH  11  12
ATOM     12  C   UNL     1     106.433  19.993 198.495  1.00  0.00     0.000 C 
BRANCH  12  13
ATOM     13  C   UNL     1     106.061  19.810 197.016  1.00  0.00     0.006 C 
BRANCH  13  14
ATOM     14  C   UNL     1     104.544  19.847 196.788  1.00  0.00     0.053 C 
BRANCH  14  15
ATOM     15  C   UNL     1     103.901  18.533 197.106  1.00  0.00     0.041 C 
ATOM     16  O   UNL     1     102.654  18.462 197.277  1.00  0.00    -0.550 OA
ATOM     17  O   UNL     1     104.673  17.379 197.177  1.00  0.00    -0.550 OA
ENDBRANCH  14  15
ENDBRANCH  13  14
ENDBRANCH  12  13
ENDBRANCH  11  12
ENDBRANCH  10  11
ENDBRANCH   9  10
ENDBRANCH   8   9
ENDBRANCH   7   8
ENDBRANCH   6   7
ENDBRANCH   5   6
ENDBRANCH   4   5
ENDBRANCH   3   4
ENDBRANCH   2   3
ENDBRANCH   1   2
BRANCH   1  18
ATOM     18  C   UNL     1     105.272  22.728 194.642  1.00  0.00     0.000 C 
BRANCH  18  19
ATOM     19  C   UNL     1     104.236  23.856 194.794  1.00  0.00     0.000 C 
BRANCH  19  20
ATOM     20  C   UNL     1     104.774  25.172 195.387  1.00  0.00     0.000 C 
BRANCH  20  21
ATOM     21  C   UNL     1     104.280  25.433 196.820  1.00  0.00     0.000 C 
BRANCH  21  22
ATOM     22  C   UNL     1     105.381  25.228 197.876  1.00  0.00     0.000 C 
BRANCH  22  23
ATOM     23  C   UNL     1     105.490  23.800 198.449  1.00  0.00     0.000 C 
BRANCH  23  24
ATOM     24  C   UNL     1     104.150  23.092 198.720  1.00  0.00    -0.000 C 
BRANCH  24  25
ATOM     25  C   UNL     1     103.731  23.154 200.199  1.00  0.00    -0.000 C 
BRANCH  25  26
ATOM     26  C   UNL     1     102.202  23.163 200.389  1.00  0.00    -0.000 C 
BRANCH  26  27
ATOM     27  C   UNL     1     101.411  23.914 199.304  1.00  0.00    -0.000 C 
BRANCH  27  28
ATOM     28  C   UNL     1     100.295  23.066 198.675  1.00  0.00    -0.000 C 
BRANCH  28  29
ATOM     29  C   UNL     1     100.875  22.006 197.726  1.00  0.00    -0.000 C 
BRANCH  29  30
ATOM     30  C   UNL     1     101.153  22.554 196.314  1.00  0.00    -0.000 C 
BRANCH  30  31
ATOM     31  C   UNL     1     101.406  21.479 195.241  1.00  0.00    -0.003 C 
ATOM     32  C   UNL     1     101.413  22.043 193.822  1.00  0.00     0.004 C 
ENDBRANCH  30  31
ENDBRANCH  29  30
ENDBRANCH  28  29
ENDBRANCH  27  28
ENDBRANCH  26  27
ENDBRANCH  25  26
ENDBRANCH  24  25
ENDBRANCH  23  24
ENDBRANCH  22  23
ENDBRANCH  21  22
ENDBRANCH  20  21
ENDBRANCH  19  20
ENDBRANCH  18  19
ENDBRANCH   1  18
TORSDOF 28
ENDMDL
MODEL 8
REMARK VINA RESULT:    -5.869      1.308      5.361
REMARK INTER + INTRA:         -20.812
REMARK INTER:                 -16.277
REMARK INTRA:                  -4.535
REMARK UNBOUND:                -5.336
REMARK SMILES CCCCCCCCCCCCCCCCCCCCCCCCCCCCCC(=O)[O-]
REMARK SMILES IDX 16 1 17 2 18 3 19 4 20 5 21 6 22 7 23 8 24 9 25 10 26 11
REMARK SMILES IDX 27 12 28 13 29 14 30 15 31 16 32 17 15 18 14 19 13 20 12 21
REMARK SMILES IDX 11 22 10 23 9 24 8 25 7 26 6 27 5 28 4 29 3 30 2 31 1 32
REMARK H PARENT
REMARK Flexibility Score: inf
ROOT
ATOM      1  C   UNL     1     103.137  23.110 193.338  1.00  0.00     0.000 C 
ENDROOT
BRANCH   1   2
ATOM      2  C   UNL     1     101.785  22.399 193.525  1.00  0.00     0.000 C 
BRANCH   2   3
ATOM      3  C   UNL     1     101.298  22.306 194.985  1.00  0.00     0.000 C 
BRANCH   3   4
ATOM      4  C   UNL     1     101.469  20.902 195.605  1.00  0.00     0.000 C 
BRANCH   4   5
ATOM      5  C   UNL     1     102.544  20.884 196.707  1.00  0.00     0.000 C 
BRANCH   5   6
ATOM      6  C   UNL     1     102.541  19.565 197.510  1.00  0.00     0.000 C 
BRANCH   6   7
ATOM      7  C   UNL     1     103.703  18.620 197.160  1.00  0.00     0.000 C 
BRANCH   7   8
ATOM      8  C   UNL     1     105.012  19.370 196.865  1.00  0.00     0.000 C 
BRANCH   8   9
ATOM      9  C   UNL     1     106.100  19.083 197.923  1.00  0.00     0.000 C 
BRANCH   9  10
ATOM     10  C   UNL     1     106.781  20.351 198.464  1.00  0.00     0.000 C 
BRANCH  10  11
ATOM     11  C   UNL     1     107.266  21.292 197.351  1.00  0.00     0.000 C 
BRANCH  11  12
ATOM     12  C   UNL     1     108.734  21.021 197.005  1.00  0.00     0.000 C 
BRANCH  12  13
ATOM     13  C   UNL     1     108.858  19.885 195.978  1.00  0.00     0.006 C 
BRANCH  13  14
ATOM     14  C   UNL     1     110.319  19.506 195.703  1.00  0.00     0.053 C 
BRANCH  14  15
ATOM     15  C   UNL     1     111.035  20.573 194.934  1.00  0.00     0.041 C 
ATOM     16  O   UNL     1     111.923  21.270 195.494  1.00  0.00    -0.550 OA
ATOM     17  O   UNL     1     110.748  20.774 193.589  1.00  0.00    -0.550 OA
ENDBRANCH  14  15
ENDBRANCH  13  14
ENDBRANCH  12  13
ENDBRANCH  11  12
ENDBRANCH  10  11
ENDBRANCH   9  10
ENDBRANCH   8   9
ENDBRANCH   7   8
ENDBRANCH   6   7
ENDBRANCH   5   6
ENDBRANCH   4   5
ENDBRANCH   3   4
ENDBRANCH   2   3
ENDBRANCH   1   2
BRANCH   1  18
ATOM     18  C   UNL     1     104.300  22.130 193.099  1.00  0.00     0.000 C 
BRANCH  18  19
ATOM     19  C   UNL     1     105.377  22.197 194.197  1.00  0.00     0.000 C 
BRANCH  19  20
ATOM     20  C   UNL     1     104.975  22.962 195.471  1.00  0.00     0.000 C 
BRANCH  20  21
ATOM     21  C   UNL     1     105.670  24.329 195.598  1.00  0.00     0.000 C 
BRANCH  21  22
ATOM     22  C   UNL     1     104.884  25.317 196.477  1.00  0.00     0.000 C 
BRANCH  22  23
ATOM     23  C   UNL     1     104.314  24.731 197.784  1.00  0.00     0.000 C 
BRANCH  23  24
ATOM     24  C   UNL     1     105.346  24.079 198.722  1.00  0.00    -0.000 C 
BRANCH  24  25
ATOM     25  C   UNL     1     104.695  23.241 199.836  1.00  0.00    -0.000 C 
BRANCH  25  26
ATOM     26  C   UNL     1     103.181  23.043 199.630  1.00  0.00    -0.000 C 
BRANCH  26  27
ATOM     27  C   UNL     1     102.294  23.489 200.805  1.00  0.00    -0.000 C 
BRANCH  27  28
ATOM     28  C   UNL     1     100.818  23.662 200.416  1.00  0.00    -0.000 C 
BRANCH  28  29
ATOM     29  C   UNL     1     100.649  23.691 198.889  1.00  0.00    -0.000 C 
BRANCH  29  30
ATOM     30  C   UNL     1      99.802  22.521 198.356  1.00  0.00    -0.000 C 
BRANCH  30  31
ATOM     31  C   UNL     1      98.409  22.916 197.833  1.00  0.00    -0.003 C 
ATOM     32  C   UNL     1      97.556  23.621 198.885  1.00  0.00     0.004 C 
ENDBRANCH  30  31
ENDBRANCH  29  30
ENDBRANCH  28  29
ENDBRANCH  27  28
ENDBRANCH  26  27
ENDBRANCH  25  26
ENDBRANCH  24  25
ENDBRANCH  23  24
ENDBRANCH  22  23
ENDBRANCH  21  22
ENDBRANCH  20  21
ENDBRANCH  19  20
ENDBRANCH  18  19
ENDBRANCH   1  18
TORSDOF 28
ENDMDL
MODEL 9
REMARK VINA RESULT:    -5.867      1.483      4.053
REMARK INTER + INTRA:         -20.806
REMARK INTER:                 -15.853
REMARK INTRA:                  -4.953
REMARK UNBOUND:                -5.336
REMARK SMILES CCCCCCCCCCCCCCCCCCCCCCCCCCCCCC(=O)[O-]
REMARK SMILES IDX 16 1 17 2 18 3 19 4 20 5 21 6 22 7 23 8 24 9 25 10 26 11
REMARK SMILES IDX 27 12 28 13 29 14 30 15 31 16 32 17 15 18 14 19 13 20 12 21
REMARK SMILES IDX 11 22 10 23 9 24 8 25 7 26 6 27 5 28 4 29 3 30 2 31 1 32
REMARK H PARENT
REMARK Flexibility Score: inf
ROOT
ATOM      1  C   UNL     1     101.673  24.369 198.639  1.00  0.00     0.000 C 
ENDROOT
BRANCH   1   2
ATOM      2  C   UNL     1     101.904  23.241 199.660  1.00  0.00     0.000 C 
BRANCH   2   3
ATOM      3  C   UNL     1     103.297  22.583 199.596  1.00  0.00     0.000 C 
BRANCH   3   4
ATOM      4  C   UNL     1     104.337  23.246 200.526  1.00  0.00     0.000 C 
BRANCH   4   5
ATOM      5  C   UNL     1     105.747  23.247 199.909  1.00  0.00     0.000 C 
BRANCH   5   6
ATOM      6  C   UNL     1     105.870  22.269 198.719  1.00  0.00     0.000 C 
BRANCH   6   7
ATOM      7  C   UNL     1     106.991  21.229 198.883  1.00  0.00     0.000 C 
BRANCH   7   8
ATOM      8  C   UNL     1     108.027  21.285 197.748  1.00  0.00     0.000 C 
BRANCH   8   9
ATOM      9  C   UNL     1     107.696  20.300 196.606  1.00  0.00     0.000 C 
BRANCH   9  10
ATOM     10  C   UNL     1     108.720  20.320 195.459  1.00  0.00     0.000 C 
BRANCH  10  11
ATOM     11  C   UNL     1     110.128  19.901 195.908  1.00  0.00     0.000 C 
BRANCH  11  12
ATOM     12  C   UNL     1     111.202  20.586 195.056  1.00  0.00     0.000 C 
BRANCH  12  13
ATOM     13  C   UNL     1     112.222  21.320 195.940  1.00  0.00     0.006 C 
BRANCH  13  14
ATOM     14  C   UNL     1     111.556  22.050 197.114  1.00  0.00     0.053 C 
BRANCH  14  15
ATOM     15  C   UNL     1     112.463  22.134 198.303  1.00  0.00     0.041 C 
ATOM     16  O   UNL     1     112.544  23.204 198.963  1.00  0.00    -0.550 OA
ATOM     17  O   UNL     1     113.191  21.020 198.703  1.00  0.00    -0.550 OA
ENDBRANCH  14  15
ENDBRANCH  13  14
ENDBRANCH  12  13
ENDBRANCH  11  12
ENDBRANCH  10  11
ENDBRANCH   9  10
ENDBRANCH   8   9
ENDBRANCH   7   8
ENDBRANCH   6   7
ENDBRANCH   5   6
ENDBRANCH   4   5
ENDBRANCH   3   4
ENDBRANCH   2   3
ENDBRANCH   1   2
BRANCH   1  18
ATOM     18  C   UNL     1     102.425  24.139 197.315  1.00  0.00     0.000 C 
BRANCH  18  19
ATOM     19  C   UNL     1     103.232  25.370 196.862  1.00  0.00     0.000 C 
BRANCH  19  20
ATOM     20  C   UNL     1     104.653  25.479 197.444  1.00  0.00     0.000 C 
BRANCH  20  21
ATOM     21  C   UNL     1     105.754  25.294 196.385  1.00  0.00     0.000 C 
BRANCH  21  22
ATOM     22  C   UNL     1     105.249  24.575 195.122  1.00  0.00     0.000 C 
BRANCH  22  23
ATOM     23  C   UNL     1     105.416  23.042 195.123  1.00  0.00     0.000 C 
BRANCH  23  24
ATOM     24  C   UNL     1     104.681  22.297 193.994  1.00  0.00    -0.000 C 
BRANCH  24  25
ATOM     25  C   UNL     1     103.400  23.017 193.538  1.00  0.00    -0.000 C 
BRANCH  25  26
ATOM     26  C   UNL     1     102.139  22.142 193.673  1.00  0.00    -0.000 C 
BRANCH  26  27
ATOM     27  C   UNL     1     101.601  21.983 195.105  1.00  0.00    -0.000 C 
BRANCH  27  28
ATOM     28  C   UNL     1     101.053  20.577 195.391  1.00  0.00    -0.000 C 
BRANCH  28  29
ATOM     29  C   UNL     1     101.583  20.039 196.729  1.00  0.00    -0.000 C 
BRANCH  29  30
ATOM     30  C   UNL     1     103.000  20.543 197.059  1.00  0.00    -0.000 C 
BRANCH  30  31
ATOM     31  C   UNL     1     104.142  19.680 196.494  1.00  0.00    -0.003 C 
ATOM     32  C   UNL     1     104.371  18.398 197.290  1.00  0.00     0.004 C 
ENDBRANCH  30  31
ENDBRANCH  29  30
ENDBRANCH  28  29
ENDBRANCH  27  28
ENDBRANCH  26  27
ENDBRANCH  25  26
ENDBRANCH  24  25
ENDBRANCH  23  24
ENDBRANCH  22  23
ENDBRANCH  21  22
ENDBRANCH  20  21
ENDBRANCH  19  20
ENDBRANCH  18  19
ENDBRANCH   1  18
TORSDOF 28
ENDMDL
