MODEL 1
REMARK VINA RESULT:    -3.951      0.000      0.000
REMARK INTER + INTRA:          -7.481
REMARK INTER:                  -6.261
REMARK INTRA:                  -1.220
REMARK UNBOUND:                -1.220
REMARK SMILES CCCCCCCCCCCC(=O)[O-]
REMARK SMILES IDX 7 1 8 2 9 3 10 4 11 5 12 6 13 7 14 8 6 9 5 10 4 11 3 12 2 13
REMARK SMILES IDX 1 14
REMARK H PARENT
REMARK Flexibility Score: inf
ROOT
ATOM      1  C   UNL     1       8.767   2.655  50.929  1.00  0.00     0.000 C 
ENDROOT
BRANCH   1   2
ATOM      2  C   UNL     1      10.256   2.511  50.579  1.00  0.00     0.000 C 
BRANCH   2   3
ATOM      3  C   UNL     1      11.164   2.556  51.817  1.00  0.00     0.000 C 
BRANCH   3   4
ATOM      4  C   UNL     1      11.941   3.876  51.935  1.00  0.00     0.006 C 
BRANCH   4   5
ATOM      5  C   UNL     1      11.829   4.694  50.645  1.00  0.00     0.053 C 
BRANCH   5   6
ATOM      6  C   UNL     1      11.970   6.155  50.937  1.00  0.00     0.041 C 
ATOM      7  O   UNL     1      12.803   6.850  50.300  1.00  0.00    -0.550 OA
ATOM      8  O   UNL     1      11.215   6.738  51.948  1.00  0.00    -0.550 OA
ENDBRANCH   5   6
ENDBRANCH   4   5
ENDBRANCH   3   4
ENDBRANCH   2   3
ENDBRANCH   1   2
BRANCH   1   9
ATOM      9  C   UNL     1       8.208   3.988  50.419  1.00  0.00     0.000 C 
BRANCH   9  10
ATOM     10  C   UNL     1       8.155   5.029  51.547  1.00  0.00    -0.000 C 
BRANCH  10  11
ATOM     11  C   UNL     1       8.190   4.394  52.947  1.00  0.00    -0.000 C 
BRANCH  11  12
ATOM     12  C   UNL     1       8.890   5.242  54.026  1.00  0.00    -0.000 C 
BRANCH  12  13
ATOM     13  C   UNL     1       8.164   5.241  55.387  1.00  0.00    -0.003 C 
ATOM     14  C   UNL     1       6.778   4.600  55.311  1.00  0.00     0.004 C 
ENDBRANCH  12  13
ENDBRANCH  11  12
ENDBRANCH  10  11
ENDBRANCH   9  10
ENDBRANCH   1   9
TORSDOF 10
ENDMDL
MODEL 2
REMARK VINA RESULT:    -3.710      2.265      4.750
REMARK INTER + INTRA:          -7.099
REMARK INTER:                  -5.693
REMARK INTRA:                  -1.405
REMARK UNBOUND:                -1.220
REMARK SMILES CCCCCCCCCCCC(=O)[O-]
REMARK SMILES IDX 7 1 8 2 9 3 10 4 11 5 12 6 13 7 14 8 6 9 5 10 4 11 3 12 2 13
REMARK SMILES IDX 1 14
REMARK H PARENT
REMARK Flexibility Score: inf
ROOT
ATOM      1  C   UNL     1       8.646   2.684  50.709  1.00  0.00     0.000 C 
ENDROOT
BRANCH   1   2
ATOM      2  C   UNL     1       8.055   4.074  50.430  1.00  0.00     0.000 C 
BRANCH   2   3
ATOM      3  C   UNL     1       7.691   4.834  51.715  1.00  0.00     0.000 C 
BRANCH   3   4
ATOM      4  C   UNL     1       7.838   3.969  52.976  1.00  0.00     0.006 C 
BRANCH   4   5
ATOM      5  C   UNL     1       6.828   4.387  54.048  1.00  0.00     0.053 C 
BRANCH   5   6
ATOM      6  C   UNL     1       7.534   4.781  55.308  1.00  0.00     0.041 C 
ATOM      7  O   UNL     1       8.541   5.535  55.260  1.00  0.00    -0.550 OA
ATOM      8  O   UNL     1       7.109   4.276  56.531  1.00  0.00    -0.550 OA
ENDBRANCH   5   6
ENDBRANCH   4   5
ENDBRANCH   3   4
ENDBRANCH   2   3
ENDBRANCH   1   2
BRANCH   1   9
ATOM      9  C   UNL     1      10.151   2.658  50.415  1.00  0.00     0.000 C 
BRANCH   9  10
ATOM     10  C   UNL     1      10.961   2.512  51.712  1.00  0.00    -0.000 C 
BRANCH  10  11
ATOM     11  C   UNL     1      11.930   3.683  51.944  1.00  0.00    -0.000 C 
BRANCH  11  12
ATOM     12  C   UNL     1      11.908   4.769  50.851  1.00  0.00    -0.000 C 
BRANCH  12  13
ATOM     13  C   UNL     1      11.124   6.038  51.249  1.00  0.00    -0.003 C 
ATOM     14  C   UNL     1      10.954   6.169  52.763  1.00  0.00     0.004 C 
ENDBRANCH  12  13
ENDBRANCH  11  12
ENDBRANCH  10  11
ENDBRANCH   9  10
ENDBRANCH   1   9
TORSDOF 10
ENDMDL
MODEL 3
REMARK VINA RESULT:    -3.698      2.465      3.707
REMARK INTER + INTRA:          -7.080
REMARK INTER:                  -5.731
REMARK INTRA:                  -1.350
REMARK UNBOUND:                -1.220
REMARK SMILES CCCCCCCCCCCC(=O)[O-]
REMARK SMILES IDX 7 1 8 2 9 3 10 4 11 5 12 6 13 7 14 8 6 9 5 10 4 11 3 12 2 13
REMARK SMILES IDX 1 14
REMARK H PARENT
REMARK Flexibility Score: inf
ROOT
ATOM      1  C   UNL     1       6.805   4.145  53.342  1.00  0.00     0.000 C 
ENDROOT
BRANCH   1   2
ATOM      2  C   UNL     1       8.295   3.975  53.010  1.00  0.00     0.000 C 
BRANCH   2   3
ATOM      3  C   UNL     1       9.064   5.305  53.033  1.00  0.00     0.000 C 
BRANCH   3   4
ATOM      4  C   UNL     1       9.791   5.592  51.711  1.00  0.00     0.006 C 
BRANCH   4   5
ATOM      5  C   UNL     1      10.241   4.291  51.040  1.00  0.00     0.053 C 
BRANCH   5   6
ATOM      6  C   UNL     1      11.634   3.939  51.460  1.00  0.00     0.041 C 
ATOM      7  O   UNL     1      12.575   4.754  51.278  1.00  0.00    -0.550 OA
ATOM      8  O   UNL     1      11.900   2.690  52.007  1.00  0.00    -0.550 OA
ENDBRANCH   5   6
ENDBRANCH   4   5
ENDBRANCH   3   4
ENDBRANCH   2   3
ENDBRANCH   1   2
BRANCH   1   9
ATOM      9  C   UNL     1       5.927   3.413  52.320  1.00  0.00     0.000 C 
BRANCH   9  10
ATOM     10  C   UNL     1       6.583   3.415  50.932  1.00  0.00    -0.000 C 
BRANCH  10  11
ATOM     11  C   UNL     1       5.932   4.417  49.965  1.00  0.00    -0.000 C 
BRANCH  11  12
ATOM     12  C   UNL     1       6.422   5.870  50.110  1.00  0.00    -0.000 C 
BRANCH  12  13
ATOM     13  C   UNL     1       5.283   6.901  50.251  1.00  0.00    -0.003 C 
ATOM     14  C   UNL     1       4.058   6.326  50.963  1.00  0.00     0.004 C 
ENDBRANCH  12  13
ENDBRANCH  11  12
ENDBRANCH  10  11
ENDBRANCH   9  10
ENDBRANCH   1   9
TORSDOF 10
ENDMDL
MODEL 4
REMARK VINA RESULT:    -3.681      3.421      5.746
REMARK INTER + INTRA:          -7.052
REMARK INTER:                  -6.095
REMARK INTRA:                  -0.957
REMARK UNBOUND:                -1.220
REMARK SMILES CCCCCCCCCCCC(=O)[O-]
REMARK SMILES IDX 7 1 8 2 9 3 10 4 11 5 12 6 13 7 14 8 6 9 5 10 4 11 3 12 2 13
REMARK SMILES IDX 1 14
REMARK H PARENT
REMARK Flexibility Score: inf
ROOT
ATOM      1  C   UNL     1       8.939   5.073  53.363  1.00  0.00     0.000 C 
ENDROOT
BRANCH   1   2
ATOM      2  C   UNL     1       7.724   4.210  52.986  1.00  0.00     0.000 C 
BRANCH   2   3
ATOM      3  C   UNL     1       7.449   4.201  51.474  1.00  0.00     0.000 C 
BRANCH   3   4
ATOM      4  C   UNL     1       6.398   5.240  51.056  1.00  0.00     0.006 C 
BRANCH   4   5
ATOM      5  C   UNL     1       5.036   4.921  51.680  1.00  0.00     0.053 C 
BRANCH   5   6
ATOM      6  C   UNL     1       3.986   5.845  51.148  1.00  0.00     0.041 C 
ATOM      7  O   UNL     1       2.851   5.401  50.834  1.00  0.00    -0.550 OA
ATOM      8  O   UNL     1       4.277   7.190  50.952  1.00  0.00    -0.550 OA
ENDBRANCH   5   6
ENDBRANCH   4   5
ENDBRANCH   3   4
ENDBRANCH   2   3
ENDBRANCH   1   2
BRANCH   1   9
ATOM      9  C   UNL     1       9.570   5.707  52.118  1.00  0.00     0.000 C 
BRANCH   9  10
ATOM     10  C   UNL     1      11.091   5.842  52.282  1.00  0.00    -0.000 C 
BRANCH  10  11
ATOM     11  C   UNL     1      11.871   4.759  51.518  1.00  0.00    -0.000 C 
BRANCH  11  12
ATOM     12  C   UNL     1      11.034   3.943  50.514  1.00  0.00    -0.000 C 
BRANCH  12  13
ATOM     13  C   UNL     1      10.746   2.498  50.974  1.00  0.00    -0.003 C 
ATOM     14  C   UNL     1      11.513   2.123  52.241  1.00  0.00     0.004 C 
ENDBRANCH  12  13
ENDBRANCH  11  12
ENDBRANCH  10  11
ENDBRANCH   9  10
ENDBRANCH   1   9
TORSDOF 10
ENDMDL
MODEL 5
REMARK VINA RESULT:    -3.673      2.382      3.676
REMARK INTER + INTRA:          -7.041
REMARK INTER:                  -5.915
REMARK INTRA:                  -1.126
REMARK UNBOUND:                -1.220
REMARK SMILES CCCCCCCCCCCC(=O)[O-]
REMARK SMILES IDX 7 1 8 2 9 3 10 4 11 5 12 6 13 7 14 8 6 9 5 10 4 11 3 12 2 13
REMARK SMILES IDX 1 14
REMARK H PARENT
REMARK Flexibility Score: inf
ROOT
ATOM      1  C   UNL     1       8.082   4.378  52.982  1.00  0.00     0.000 C 
ENDROOT
BRANCH   1   2
ATOM      2  C   UNL     1       8.531   3.562  51.760  1.00  0.00     0.000 C 
BRANCH   2   3
ATOM      3  C   UNL     1       8.713   4.426  50.503  1.00  0.00     0.000 C 
BRANCH   3   4
ATOM      4  C   UNL     1       8.784   5.927  50.822  1.00  0.00     0.006 C 
BRANCH   4   5
ATOM      5  C   UNL     1      10.194   6.473  50.579  1.00  0.00     0.053 C 
BRANCH   5   6
ATOM      6  C   UNL     1      11.131   5.993  51.642  1.00  0.00     0.041 C 
ATOM      7  O   UNL     1      11.027   6.424  52.821  1.00  0.00    -0.550 OA
ATOM      8  O   UNL     1      12.151   5.105  51.322  1.00  0.00    -0.550 OA
ENDBRANCH   5   6
ENDBRANCH   4   5
ENDBRANCH   3   4
ENDBRANCH   2   3
ENDBRANCH   1   2
BRANCH   1   9
ATOM      9  C   UNL     1       6.590   4.170  53.264  1.00  0.00     0.000 C 
BRANCH   9  10
ATOM     10  C   UNL     1       5.977   3.173  52.270  1.00  0.00    -0.000 C 
BRANCH  10  11
ATOM     11  C   UNL     1       5.047   3.845  51.246  1.00  0.00    -0.000 C 
BRANCH  11  12
ATOM     12  C   UNL     1       4.696   5.313  51.557  1.00  0.00    -0.000 C 
BRANCH  12  13
ATOM     13  C   UNL     1       5.174   6.309  50.480  1.00  0.00    -0.003 C 
ATOM     14  C   UNL     1       4.351   7.598  50.468  1.00  0.00     0.004 C 
ENDBRANCH  12  13
ENDBRANCH  11  12
ENDBRANCH  10  11
ENDBRANCH   9  10
ENDBRANCH   1   9
TORSDOF 10
ENDMDL
MODEL 6
REMARK VINA RESULT:    -3.535      3.357      5.629
REMARK INTER + INTRA:          -6.822
REMARK INTER:                  -5.598
REMARK INTRA:                  -1.224
REMARK UNBOUND:                -1.220
REMARK SMILES CCCCCCCCCCCC(=O)[O-]
REMARK SMILES IDX 7 1 8 2 9 3 10 4 11 5 12 6 13 7 14 8 6 9 5 10 4 11 3 12 2 13
REMARK SMILES IDX 1 14
REMARK H PARENT
REMARK Flexibility Score: inf
ROOT
ATOM      1  C   UNL     1       8.849   3.715  52.787  1.00  0.00     0.000 C 
ENDROOT
BRANCH   1   2
ATOM      2  C   UNL     1       7.947   4.894  52.388  1.00  0.00     0.000 C 
BRANCH   2   3
ATOM      3  C   UNL     1       7.838   5.067  50.865  1.00  0.00     0.000 C 
BRANCH   3   4
ATOM      4  C   UNL     1       6.552   5.792  50.442  1.00  0.00     0.006 C 
BRANCH   4   5
ATOM      5  C   UNL     1       5.317   5.108  51.038  1.00  0.00     0.053 C 
BRANCH   5   6
ATOM      6  C   UNL     1       4.118   5.995  50.918  1.00  0.00     0.041 C 
ATOM      7  O   UNL     1       2.963   5.496  50.874  1.00  0.00    -0.550 OA
ATOM      8  O   UNL     1       4.278   7.371  50.805  1.00  0.00    -0.550 OA
ENDBRANCH   5   6
ENDBRANCH   4   5
ENDBRANCH   3   4
ENDBRANCH   2   3
ENDBRANCH   1   2
BRANCH   1   9
ATOM      9  C   UNL     1       9.586   3.149  51.568  1.00  0.00     0.000 C 
BRANCH   9  10
ATOM     10  C   UNL     1      11.044   2.813  51.914  1.00  0.00    -0.000 C 
BRANCH  10  11
ATOM     11  C   UNL     1      11.985   4.021  51.768  1.00  0.00    -0.000 C 
BRANCH  11  12
ATOM     12  C   UNL     1      11.750   4.877  50.508  1.00  0.00    -0.000 C 
BRANCH  12  13
ATOM     13  C   UNL     1      11.306   6.323  50.812  1.00  0.00    -0.003 C 
ATOM     14  C   UNL     1      11.180   6.594  52.311  1.00  0.00     0.004 C 
ENDBRANCH  12  13
ENDBRANCH  11  12
ENDBRANCH  10  11
ENDBRANCH   9  10
ENDBRANCH   1   9
TORSDOF 10
ENDMDL
MODEL 7
REMARK VINA RESULT:    -3.498      2.830      5.014
REMARK INTER + INTRA:          -6.762
REMARK INTER:                  -5.624
REMARK INTRA:                  -1.138
REMARK UNBOUND:                -1.220
REMARK SMILES CCCCCCCCCCCC(=O)[O-]
REMARK SMILES IDX 7 1 8 2 9 3 10 4 11 5 12 6 13 7 14 8 6 9 5 10 4 11 3 12 2 13
REMARK SMILES IDX 1 14
REMARK H PARENT
REMARK Flexibility Score: inf
ROOT
ATOM      1  C   UNL     1      11.290   5.158  50.828  1.00  0.00     0.000 C 
ENDROOT
BRANCH   1   2
ATOM      2  C   UNL     1      10.287   6.047  51.579  1.00  0.00     0.000 C 
BRANCH   2   3
ATOM      3  C   UNL     1      10.208   5.719  53.078  1.00  0.00     0.000 C 
BRANCH   3   4
ATOM      4  C   UNL     1       8.835   5.171  53.493  1.00  0.00     0.006 C 
BRANCH   4   5
ATOM      5  C   UNL     1       8.547   5.474  54.967  1.00  0.00     0.053 C 
BRANCH   5   6
ATOM      6  C   UNL     1       7.367   4.687  55.443  1.00  0.00     0.041 C 
ATOM      7  O   UNL     1       6.421   4.424  54.654  1.00  0.00    -0.550 OA
ATOM      8  O   UNL     1       7.288   4.286  56.771  1.00  0.00    -0.550 OA
ENDBRANCH   5   6
ENDBRANCH   4   5
ENDBRANCH   3   4
ENDBRANCH   2   3
ENDBRANCH   1   2
BRANCH   1   9
ATOM      9  C   UNL     1      11.846   4.062  51.745  1.00  0.00     0.000 C 
BRANCH   9  10
ATOM     10  C   UNL     1      11.138   2.723  51.491  1.00  0.00    -0.000 C 
BRANCH  10  11
ATOM     11  C   UNL     1      10.431   2.671  50.127  1.00  0.00    -0.000 C 
BRANCH  11  12
ATOM     12  C   UNL     1       8.996   2.111  50.162  1.00  0.00    -0.000 C 
BRANCH  12  13
ATOM     13  C   UNL     1       7.930   3.152  50.562  1.00  0.00    -0.003 C 
ATOM     14  C   UNL     1       6.928   2.604  51.579  1.00  0.00     0.004 C 
ENDBRANCH  12  13
ENDBRANCH  11  12
ENDBRANCH  10  11
ENDBRANCH   9  10
ENDBRANCH   1   9
TORSDOF 10
ENDMDL
MODEL 8
REMARK VINA RESULT:    -3.438      3.590      4.457
REMARK INTER + INTRA:          -6.668
REMARK INTER:                  -6.002
REMARK INTRA:                  -0.665
REMARK UNBOUND:                -1.220
REMARK SMILES CCCCCCCCCCCC(=O)[O-]
REMARK SMILES IDX 7 1 8 2 9 3 10 4 11 5 12 6 13 7 14 8 6 9 5 10 4 11 3 12 2 13
REMARK SMILES IDX 1 14
REMARK H PARENT
REMARK Flexibility Score: inf
ROOT
ATOM      1  C   UNL     1       7.397   3.601  52.354  1.00  0.00     0.000 C 
ENDROOT
BRANCH   1   2
ATOM      2  C   UNL     1       7.969   4.431  53.513  1.00  0.00     0.000 C 
BRANCH   2   3
ATOM      3  C   UNL     1       9.223   5.224  53.113  1.00  0.00     0.000 C 
BRANCH   3   4
ATOM      4  C   UNL     1       9.275   5.531  51.609  1.00  0.00     0.006 C 
BRANCH   4   5
ATOM      5  C   UNL     1      10.708   5.427  51.079  1.00  0.00     0.053 C 
BRANCH   5   6
ATOM      6  C   UNL     1      11.157   4.000  51.056  1.00  0.00     0.041 C 
ATOM      7  O   UNL     1      12.015   3.593  51.883  1.00  0.00    -0.550 OA
ATOM      8  O   UNL     1      10.664   3.131  50.091  1.00  0.00    -0.550 OA
ENDBRANCH   5   6
ENDBRANCH   4   5
ENDBRANCH   3   4
ENDBRANCH   2   3
ENDBRANCH   1   2
BRANCH   1   9
ATOM      9  C   UNL     1       5.882   3.802  52.229  1.00  0.00     0.000 C 
BRANCH   9  10
ATOM     10  C   UNL     1       5.554   4.842  51.147  1.00  0.00    -0.000 C 
BRANCH  10  11
ATOM     11  C   UNL     1       4.346   5.721  51.512  1.00  0.00    -0.000 C 
BRANCH  11  12
ATOM     12  C   UNL     1       3.180   5.670  50.507  1.00  0.00    -0.000 C 
BRANCH  12  13
ATOM     13  C   UNL     1       2.250   4.452  50.693  1.00  0.00    -0.003 C 
ATOM     14  C   UNL     1       0.771   4.826  50.601  1.00  0.00     0.004 C 
ENDBRANCH  12  13
ENDBRANCH  11  12
ENDBRANCH  10  11
ENDBRANCH   9  10
ENDBRANCH   1   9
TORSDOF 10
ENDMDL
MODEL 9
REMARK VINA RESULT:    -3.397      3.752      5.928
REMARK INTER + INTRA:          -6.603
REMARK INTER:                  -5.641
REMARK INTRA:                  -0.962
REMARK UNBOUND:                -1.220
REMARK SMILES CCCCCCCCCCCC(=O)[O-]
REMARK SMILES IDX 7 1 8 2 9 3 10 4 11 5 12 6 13 7 14 8 6 9 5 10 4 11 3 12 2 13
REMARK SMILES IDX 1 14
REMARK H PARENT
REMARK Flexibility Score: inf
ROOT
ATOM      1  C   UNL     1       8.192   4.491  53.128  1.00  0.00     0.000 C 
ENDROOT
BRANCH   1   2
ATOM      2  C   UNL     1       6.702   4.181  53.336  1.00  0.00     0.000 C 
BRANCH   2   3
ATOM      3  C   UNL     1       6.176   3.114  52.364  1.00  0.00     0.000 C 
BRANCH   3   4
ATOM      4  C   UNL     1       5.124   3.666  51.390  1.00  0.00     0.006 C 
BRANCH   4   5
ATOM      5  C   UNL     1       5.030   5.191  51.493  1.00  0.00     0.053 C 
BRANCH   5   6
ATOM      6  C   UNL     1       3.717   5.672  50.962  1.00  0.00     0.041 C 
ATOM      7  O   UNL     1       3.592   6.860  50.564  1.00  0.00    -0.550 OA
ATOM      8  O   UNL     1       2.617   4.823  50.950  1.00  0.00    -0.550 OA
ENDBRANCH   5   6
ENDBRANCH   4   5
ENDBRANCH   3   4
ENDBRANCH   2   3
ENDBRANCH   1   2
BRANCH   1   9
ATOM      9  C   UNL     1       8.801   3.571  52.064  1.00  0.00     0.000 C 
BRANCH   9  10
ATOM     10  C   UNL     1       8.924   4.296  50.716  1.00  0.00    -0.000 C 
BRANCH  10  11
ATOM     11  C   UNL     1       8.849   5.825  50.852  1.00  0.00    -0.000 C 
BRANCH  11  12
ATOM     12  C   UNL     1      10.148   6.573  50.490  1.00  0.00    -0.000 C 
BRANCH  12  13
ATOM     13  C   UNL     1      11.339   6.232  51.409  1.00  0.00    -0.003 C 
ATOM     14  C   UNL     1      12.447   5.476  50.675  1.00  0.00     0.004 C 
ENDBRANCH  12  13
ENDBRANCH  11  12
ENDBRANCH  10  11
ENDBRANCH   9  10
ENDBRANCH   1   9
TORSDOF 10
ENDMDL
