MODEL 1
REMARK VINA RESULT:    -2.611      0.000      0.000
REMARK INTER + INTRA:          -4.633
REMARK INTER:                  -4.138
REMARK INTRA:                  -0.495
REMARK UNBOUND:                -0.495
REMARK SMILES CCCCCCCCCCCC(=O)[O-]
REMARK SMILES IDX 7 1 8 2 9 3 10 4 11 5 12 6 13 7 14 8 6 9 5 10 4 11 3 12 2 13
REMARK SMILES IDX 1 14
REMARK H PARENT
REMARK Flexibility Score: inf
ROOT
ATOM      1  C   UNL     1      27.102   8.686  -0.607  1.00  0.00     0.000 C 
ENDROOT
BRANCH   1   2
ATOM      2  C   UNL     1      26.720   7.463  -1.462  1.00  0.00     0.000 C 
BRANCH   2   3
ATOM      3  C   UNL     1      27.161   6.131  -0.832  1.00  0.00     0.000 C 
BRANCH   3   4
ATOM      4  C   UNL     1      25.992   5.134  -0.684  1.00  0.00     0.006 C 
BRANCH   4   5
ATOM      5  C   UNL     1      25.944   4.078  -1.799  1.00  0.00     0.053 C 
BRANCH   5   6
ATOM      6  C   UNL     1      24.609   4.024  -2.474  1.00  0.00     0.041 C 
ATOM      7  O   UNL     1      24.109   5.065  -2.977  1.00  0.00    -0.550 OA
ATOM      8  O   UNL     1      23.928   2.817  -2.572  1.00  0.00    -0.550 OA
ENDBRANCH   5   6
ENDBRANCH   4   5
ENDBRANCH   3   4
ENDBRANCH   2   3
ENDBRANCH   1   2
BRANCH   1   9
ATOM      9  C   UNL     1      28.370   9.429  -1.066  1.00  0.00     0.000 C 
BRANCH   9  10
ATOM     10  C   UNL     1      28.780   9.081  -2.505  1.00  0.00    -0.000 C 
BRANCH  10  11
ATOM     11  C   UNL     1      28.339  10.182  -3.481  1.00  0.00    -0.000 C 
BRANCH  11  12
ATOM     12  C   UNL     1      28.873  11.574  -3.095  1.00  0.00    -0.000 C 
BRANCH  12  13
ATOM     13  C   UNL     1      28.353  12.729  -3.969  1.00  0.00    -0.003 C 
ATOM     14  C   UNL     1      28.783  14.105  -3.461  1.00  0.00     0.004 C 
ENDBRANCH  12  13
ENDBRANCH  11  12
ENDBRANCH  10  11
ENDBRANCH   9  10
ENDBRANCH   1   9
TORSDOF 10
ENDMDL
MODEL 2
REMARK VINA RESULT:    -2.458      6.126     11.334
REMARK INTER + INTRA:          -4.390
REMARK INTER:                  -3.956
REMARK INTRA:                  -0.434
REMARK UNBOUND:                -0.495
REMARK SMILES CCCCCCCCCCCC(=O)[O-]
REMARK SMILES IDX 7 1 8 2 9 3 10 4 11 5 12 6 13 7 14 8 6 9 5 10 4 11 3 12 2 13
REMARK SMILES IDX 1 14
REMARK H PARENT
REMARK Flexibility Score: inf
ROOT
ATOM      1  C   UNL     1      24.360  -1.597  -3.333  1.00  0.00     0.000 C 
ENDROOT
BRANCH   1   2
ATOM      2  C   UNL     1      23.395  -0.899  -2.356  1.00  0.00     0.000 C 
BRANCH   2   3
ATOM      3  C   UNL     1      22.872   0.444  -2.889  1.00  0.00     0.000 C 
BRANCH   3   4
ATOM      4  C   UNL     1      23.965   1.533  -2.917  1.00  0.00     0.006 C 
BRANCH   4   5
ATOM      5  C   UNL     1      23.437   2.939  -2.593  1.00  0.00     0.053 C 
BRANCH   5   6
ATOM      6  C   UNL     1      24.540   3.934  -2.415  1.00  0.00     0.041 C 
ATOM      7  O   UNL     1      24.423   5.101  -2.874  1.00  0.00    -0.550 OA
ATOM      8  O   UNL     1      25.689   3.581  -1.718  1.00  0.00    -0.550 OA
ENDBRANCH   5   6
ENDBRANCH   4   5
ENDBRANCH   3   4
ENDBRANCH   2   3
ENDBRANCH   1   2
BRANCH   1   9
ATOM      9  C   UNL     1      25.507  -2.379  -2.665  1.00  0.00     0.000 C 
BRANCH   9  10
ATOM     10  C   UNL     1      25.908  -3.638  -3.449  1.00  0.00    -0.000 C 
BRANCH  10  11
ATOM     11  C   UNL     1      27.427  -3.857  -3.391  1.00  0.00    -0.000 C 
BRANCH  11  12
ATOM     12  C   UNL     1      27.813  -5.242  -2.838  1.00  0.00    -0.000 C 
BRANCH  12  13
ATOM     13  C   UNL     1      27.219  -5.573  -1.457  1.00  0.00    -0.003 C 
ATOM     14  C   UNL     1      27.655  -4.594  -0.367  1.00  0.00     0.004 C 
ENDBRANCH  12  13
ENDBRANCH  11  12
ENDBRANCH  10  11
ENDBRANCH   9  10
ENDBRANCH   1   9
TORSDOF 10
ENDMDL
MODEL 3
REMARK VINA RESULT:    -2.276      6.195      9.698
REMARK INTER + INTRA:          -4.101
REMARK INTER:                  -3.751
REMARK INTRA:                  -0.350
REMARK UNBOUND:                -0.495
REMARK SMILES CCCCCCCCCCCC(=O)[O-]
REMARK SMILES IDX 7 1 8 2 9 3 10 4 11 5 12 6 13 7 14 8 6 9 5 10 4 11 3 12 2 13
REMARK SMILES IDX 1 14
REMARK H PARENT
REMARK Flexibility Score: inf
ROOT
ATOM      1  C   UNL     1      23.447  -1.208  -2.332  1.00  0.00     0.000 C 
ENDROOT
BRANCH   1   2
ATOM      2  C   UNL     1      24.546  -1.589  -3.343  1.00  0.00     0.000 C 
BRANCH   2   3
ATOM      3  C   UNL     1      25.663  -2.442  -2.720  1.00  0.00     0.000 C 
BRANCH   3   4
ATOM      4  C   UNL     1      26.065  -3.632  -3.616  1.00  0.00     0.006 C 
BRANCH   4   5
ATOM      5  C   UNL     1      26.136  -4.969  -2.863  1.00  0.00     0.053 C 
BRANCH   5   6
ATOM      6  C   UNL     1      27.473  -5.195  -2.230  1.00  0.00     0.041 C 
ATOM      7  O   UNL     1      28.380  -5.800  -2.859  1.00  0.00    -0.550 OA
ATOM      8  O   UNL     1      27.727  -4.713  -0.952  1.00  0.00    -0.550 OA
ENDBRANCH   5   6
ENDBRANCH   4   5
ENDBRANCH   3   4
ENDBRANCH   2   3
ENDBRANCH   1   2
BRANCH   1   9
ATOM      9  C   UNL     1      22.794   0.166  -2.570  1.00  0.00     0.000 C 
BRANCH   9  10
ATOM     10  C   UNL     1      23.811   1.256  -2.940  1.00  0.00    -0.000 C 
BRANCH  10  11
ATOM     11  C   UNL     1      23.221   2.655  -2.711  1.00  0.00    -0.000 C 
BRANCH  11  12
ATOM     12  C   UNL     1      24.285   3.768  -2.740  1.00  0.00    -0.000 C 
BRANCH  12  13
ATOM     13  C   UNL     1      25.292   3.728  -1.576  1.00  0.00    -0.003 C 
ATOM     14  C   UNL     1      25.935   5.086  -1.295  1.00  0.00     0.004 C 
ENDBRANCH  12  13
ENDBRANCH  11  12
ENDBRANCH  10  11
ENDBRANCH   9  10
ENDBRANCH   1   9
TORSDOF 10
ENDMDL
MODEL 4
REMARK VINA RESULT:    -2.185      1.299      2.103
REMARK INTER + INTRA:          -3.958
REMARK INTER:                  -3.428
REMARK INTRA:                  -0.530
REMARK UNBOUND:                -0.495
REMARK SMILES CCCCCCCCCCCC(=O)[O-]
REMARK SMILES IDX 7 1 8 2 9 3 10 4 11 5 12 6 13 7 14 8 6 9 5 10 4 11 3 12 2 13
REMARK SMILES IDX 1 14
REMARK H PARENT
REMARK Flexibility Score: inf
ROOT
ATOM      1  C   UNL     1      27.037   8.602  -0.372  1.00  0.00     0.000 C 
ENDROOT
BRANCH   1   2
ATOM      2  C   UNL     1      27.607   7.296  -0.958  1.00  0.00     0.000 C 
BRANCH   2   3
ATOM      3  C   UNL     1      26.532   6.416  -1.616  1.00  0.00     0.000 C 
BRANCH   3   4
ATOM      4  C   UNL     1      26.076   5.260  -0.701  1.00  0.00     0.006 C 
BRANCH   4   5
ATOM      5  C   UNL     1      25.863   3.935  -1.449  1.00  0.00     0.053 C 
BRANCH   5   6
ATOM      6  C   UNL     1      24.691   3.987  -2.378  1.00  0.00     0.041 C 
ATOM      7  O   UNL     1      24.155   2.923  -2.784  1.00  0.00    -0.550 OA
ATOM      8  O   UNL     1      24.172   5.213  -2.774  1.00  0.00    -0.550 OA
ENDBRANCH   5   6
ENDBRANCH   4   5
ENDBRANCH   3   4
ENDBRANCH   2   3
ENDBRANCH   1   2
BRANCH   1   9
ATOM      9  C   UNL     1      28.088   9.675  -0.034  1.00  0.00     0.000 C 
BRANCH   9  10
ATOM     10  C   UNL     1      29.056   9.951  -1.193  1.00  0.00    -0.000 C 
BRANCH  10  11
ATOM     11  C   UNL     1      28.463  10.977  -2.169  1.00  0.00    -0.000 C 
BRANCH  11  12
ATOM     12  C   UNL     1      28.786  10.661  -3.642  1.00  0.00    -0.000 C 
BRANCH  12  13
ATOM     13  C   UNL     1      28.370   9.253  -4.105  1.00  0.00    -0.003 C 
ATOM     14  C   UNL     1      26.855   9.052  -4.125  1.00  0.00     0.004 C 
ENDBRANCH  12  13
ENDBRANCH  11  12
ENDBRANCH  10  11
ENDBRANCH   9  10
ENDBRANCH   1   9
TORSDOF 10
ENDMDL
MODEL 5
REMARK VINA RESULT:    -1.824      3.590      8.661
REMARK INTER + INTRA:          -3.385
REMARK INTER:                  -3.050
REMARK INTRA:                  -0.336
REMARK UNBOUND:                -0.495
REMARK SMILES CCCCCCCCCCCC(=O)[O-]
REMARK SMILES IDX 7 1 8 2 9 3 10 4 11 5 12 6 13 7 14 8 6 9 5 10 4 11 3 12 2 13
REMARK SMILES IDX 1 14
REMARK H PARENT
REMARK Flexibility Score: inf
ROOT
ATOM      1  C   UNL     1      25.562   4.034  -1.255  1.00  0.00     0.000 C 
ENDROOT
BRANCH   1   2
ATOM      2  C   UNL     1      26.525   5.139  -0.782  1.00  0.00     0.000 C 
BRANCH   2   3
ATOM      3  C   UNL     1      26.276   6.488  -1.475  1.00  0.00     0.000 C 
BRANCH   3   4
ATOM      4  C   UNL     1      27.324   7.552  -1.088  1.00  0.00     0.006 C 
BRANCH   4   5
ATOM      5  C   UNL     1      27.553   8.611  -2.178  1.00  0.00     0.053 C 
BRANCH   5   6
ATOM      6  C   UNL     1      28.270   9.817  -1.658  1.00  0.00     0.041 C 
ATOM      7  O   UNL     1      28.434  10.825  -2.395  1.00  0.00    -0.550 OA
ATOM      8  O   UNL     1      28.735   9.839  -0.350  1.00  0.00    -0.550 OA
ENDBRANCH   5   6
ENDBRANCH   4   5
ENDBRANCH   3   4
ENDBRANCH   2   3
ENDBRANCH   1   2
BRANCH   1   9
ATOM      9  C   UNL     1      24.666   4.420  -2.447  1.00  0.00     0.000 C 
BRANCH   9  10
ATOM     10  C   UNL     1      23.529   3.417  -2.690  1.00  0.00    -0.000 C 
BRANCH  10  11
ATOM     11  C   UNL     1      24.063   1.977  -2.706  1.00  0.00    -0.000 C 
BRANCH  11  12
ATOM     12  C   UNL     1      22.966   0.933  -2.987  1.00  0.00    -0.000 C 
BRANCH  12  13
ATOM     13  C   UNL     1      23.382  -0.526  -2.726  1.00  0.00    -0.003 C 
ATOM     14  C   UNL     1      22.681  -1.141  -1.515  1.00  0.00     0.004 C 
ENDBRANCH  12  13
ENDBRANCH  11  12
ENDBRANCH  10  11
ENDBRANCH   9  10
ENDBRANCH   1   9
TORSDOF 10
ENDMDL
MODEL 6
REMARK VINA RESULT:    -1.816      3.320      7.084
REMARK INTER + INTRA:          -3.372
REMARK INTER:                  -2.702
REMARK INTRA:                  -0.670
REMARK UNBOUND:                -0.495
REMARK SMILES CCCCCCCCCCCC(=O)[O-]
REMARK SMILES IDX 7 1 8 2 9 3 10 4 11 5 12 6 13 7 14 8 6 9 5 10 4 11 3 12 2 13
REMARK SMILES IDX 1 14
REMARK H PARENT
REMARK Flexibility Score: inf
ROOT
ATOM      1  C   UNL     1      26.289   6.812  -1.601  1.00  0.00     0.000 C 
ENDROOT
BRANCH   1   2
ATOM      2  C   UNL     1      26.935   8.182  -1.879  1.00  0.00     0.000 C 
BRANCH   2   3
ATOM      3  C   UNL     1      27.716   8.731  -0.674  1.00  0.00     0.000 C 
BRANCH   3   4
ATOM      4  C   UNL     1      28.472  10.036  -1.007  1.00  0.00     0.006 C 
BRANCH   4   5
ATOM      5  C   UNL     1      29.017  10.079  -2.443  1.00  0.00     0.053 C 
BRANCH   5   6
ATOM      6  C   UNL     1      28.541  11.281  -3.196  1.00  0.00     0.041 C 
ATOM      7  O   UNL     1      27.643  11.167  -4.071  1.00  0.00    -0.550 OA
ATOM      8  O   UNL     1      29.071  12.533  -2.913  1.00  0.00    -0.550 OA
ENDBRANCH   5   6
ENDBRANCH   4   5
ENDBRANCH   3   4
ENDBRANCH   2   3
ENDBRANCH   1   2
BRANCH   1   9
ATOM      9  C   UNL     1      27.115   5.875  -0.701  1.00  0.00     0.000 C 
BRANCH   9  10
ATOM     10  C   UNL     1      26.871   4.388  -1.001  1.00  0.00    -0.000 C 
BRANCH  10  11
ATOM     11  C   UNL     1      25.373   4.056  -0.941  1.00  0.00    -0.000 C 
BRANCH  11  12
ATOM     12  C   UNL     1      24.806   3.593  -2.296  1.00  0.00    -0.000 C 
BRANCH  12  13
ATOM     13  C   UNL     1      23.513   4.305  -2.732  1.00  0.00    -0.003 C 
ATOM     14  C   UNL     1      23.756   5.409  -3.761  1.00  0.00     0.004 C 
ENDBRANCH  12  13
ENDBRANCH  11  12
ENDBRANCH  10  11
ENDBRANCH   9  10
ENDBRANCH   1   9
TORSDOF 10
ENDMDL
MODEL 7
REMARK VINA RESULT:    -1.749      2.566      4.601
REMARK INTER + INTRA:          -3.266
REMARK INTER:                  -2.968
REMARK INTRA:                  -0.298
REMARK UNBOUND:                -0.495
REMARK SMILES CCCCCCCCCCCC(=O)[O-]
REMARK SMILES IDX 7 1 8 2 9 3 10 4 11 5 12 6 13 7 14 8 6 9 5 10 4 11 3 12 2 13
REMARK SMILES IDX 1 14
REMARK H PARENT
REMARK Flexibility Score: inf
ROOT
ATOM      1  C   UNL     1      25.584   3.929  -1.781  1.00  0.00     0.000 C 
ENDROOT
BRANCH   1   2
ATOM      2  C   UNL     1      24.366   4.297  -2.649  1.00  0.00     0.000 C 
BRANCH   2   3
ATOM      3  C   UNL     1      23.301   3.189  -2.687  1.00  0.00     0.000 C 
BRANCH   3   4
ATOM      4  C   UNL     1      23.920   1.775  -2.683  1.00  0.00     0.006 C 
BRANCH   4   5
ATOM      5  C   UNL     1      22.922   0.669  -3.059  1.00  0.00     0.053 C 
BRANCH   5   6
ATOM      6  C   UNL     1      23.341  -0.673  -2.546  1.00  0.00     0.041 C 
ATOM      7  O   UNL     1      24.258  -1.315  -3.122  1.00  0.00    -0.550 OA
ATOM      8  O   UNL     1      22.735  -1.204  -1.414  1.00  0.00    -0.550 OA
ENDBRANCH   5   6
ENDBRANCH   4   5
ENDBRANCH   3   4
ENDBRANCH   2   3
ENDBRANCH   1   2
BRANCH   1   9
ATOM      9  C   UNL     1      26.054   5.035  -0.818  1.00  0.00     0.000 C 
BRANCH   9  10
ATOM     10  C   UNL     1      26.188   6.404  -1.501  1.00  0.00    -0.000 C 
BRANCH  10  11
ATOM     11  C   UNL     1      27.392   7.178  -0.944  1.00  0.00    -0.000 C 
BRANCH  11  12
ATOM     12  C   UNL     1      27.795   8.375  -1.824  1.00  0.00    -0.000 C 
BRANCH  12  13
ATOM     13  C   UNL     1      28.126   9.664  -1.050  1.00  0.00    -0.003 C 
ATOM     14  C   UNL     1      28.823  10.717  -1.910  1.00  0.00     0.004 C 
ENDBRANCH  12  13
ENDBRANCH  11  12
ENDBRANCH  10  11
ENDBRANCH   9  10
ENDBRANCH   1   9
TORSDOF 10
ENDMDL
MODEL 8
REMARK VINA RESULT:    -1.592      4.141      9.461
REMARK INTER + INTRA:          -3.018
REMARK INTER:                  -2.698
REMARK INTRA:                  -0.320
REMARK UNBOUND:                -0.495
REMARK SMILES CCCCCCCCCCCC(=O)[O-]
REMARK SMILES IDX 7 1 8 2 9 3 10 4 11 5 12 6 13 7 14 8 6 9 5 10 4 11 3 12 2 13
REMARK SMILES IDX 1 14
REMARK H PARENT
REMARK Flexibility Score: inf
ROOT
ATOM      1  C   UNL     1      23.573   3.046  -2.644  1.00  0.00     0.000 C 
ENDROOT
BRANCH   1   2
ATOM      2  C   UNL     1      24.650   4.130  -2.451  1.00  0.00     0.000 C 
BRANCH   2   3
ATOM      3  C   UNL     1      25.409   3.991  -1.122  1.00  0.00     0.000 C 
BRANCH   3   4
ATOM      4  C   UNL     1      26.631   4.929  -1.040  1.00  0.00     0.006 C 
BRANCH   4   5
ATOM      5  C   UNL     1      26.306   6.390  -1.388  1.00  0.00     0.053 C 
BRANCH   5   6
ATOM      6  C   UNL     1      27.347   7.340  -0.885  1.00  0.00     0.041 C 
ATOM      7  O   UNL     1      27.062   8.551  -0.693  1.00  0.00    -0.550 OA
ATOM      8  O   UNL     1      28.628   6.882  -0.602  1.00  0.00    -0.550 OA
ENDBRANCH   5   6
ENDBRANCH   4   5
ENDBRANCH   3   4
ENDBRANCH   2   3
ENDBRANCH   1   2
BRANCH   1   9
ATOM      9  C   UNL     1      24.107   1.603  -2.703  1.00  0.00     0.000 C 
BRANCH   9  10
ATOM     10  C   UNL     1      22.999   0.563  -2.925  1.00  0.00    -0.000 C 
BRANCH  10  11
ATOM     11  C   UNL     1      23.422  -0.812  -2.386  1.00  0.00    -0.000 C 
BRANCH  11  12
ATOM     12  C   UNL     1      24.382  -1.557  -3.332  1.00  0.00    -0.000 C 
BRANCH  12  13
ATOM     13  C   UNL     1      25.502  -2.344  -2.626  1.00  0.00    -0.003 C 
ATOM     14  C   UNL     1      25.957  -3.572  -3.413  1.00  0.00     0.004 C 
ENDBRANCH  12  13
ENDBRANCH  11  12
ENDBRANCH  10  11
ENDBRANCH   9  10
ENDBRANCH   1   9
TORSDOF 10
ENDMDL
MODEL 9
REMARK VINA RESULT:    -1.531      1.231      2.104
REMARK INTER + INTRA:          -2.921
REMARK INTER:                  -2.305
REMARK INTRA:                  -0.615
REMARK UNBOUND:                -0.495
REMARK SMILES CCCCCCCCCCCC(=O)[O-]
REMARK SMILES IDX 7 1 8 2 9 3 10 4 11 5 12 6 13 7 14 8 6 9 5 10 4 11 3 12 2 13
REMARK SMILES IDX 1 14
REMARK H PARENT
REMARK Flexibility Score: inf
ROOT
ATOM      1  C   UNL     1      29.123   6.482  -0.423  1.00  0.00     0.000 C 
ENDROOT
BRANCH   1   2
ATOM      2  C   UNL     1      28.080   5.472   0.092  1.00  0.00     0.000 C 
BRANCH   2   3
ATOM      3  C   UNL     1      28.184   4.101  -0.595  1.00  0.00     0.000 C 
BRANCH   3   4
ATOM      4  C   UNL     1      26.816   3.586  -1.093  1.00  0.00     0.006 C 
BRANCH   4   5
ATOM      5  C   UNL     1      25.863   4.708  -1.533  1.00  0.00     0.053 C 
BRANCH   5   6
ATOM      6  C   UNL     1      24.726   4.196  -2.359  1.00  0.00     0.041 C 
ATOM      7  O   UNL     1      24.480   2.961  -2.406  1.00  0.00    -0.550 OA
ATOM      8  O   UNL     1      23.919   5.084  -3.058  1.00  0.00    -0.550 OA
ENDBRANCH   5   6
ENDBRANCH   4   5
ENDBRANCH   3   4
ENDBRANCH   2   3
ENDBRANCH   1   2
BRANCH   1   9
ATOM      9  C   UNL     1      28.663   7.952  -0.417  1.00  0.00     0.000 C 
BRANCH   9  10
ATOM     10  C   UNL     1      27.735   8.292  -1.592  1.00  0.00    -0.000 C 
BRANCH  10  11
ATOM     11  C   UNL     1      28.547   8.675  -2.838  1.00  0.00    -0.000 C 
BRANCH  11  12
ATOM     12  C   UNL     1      27.709   9.417  -3.896  1.00  0.00    -0.000 C 
BRANCH  12  13
ATOM     13  C   UNL     1      27.832  10.951  -3.857  1.00  0.00    -0.003 C 
ATOM     14  C   UNL     1      28.888  11.442  -2.867  1.00  0.00     0.004 C 
ENDBRANCH  12  13
ENDBRANCH  11  12
ENDBRANCH  10  11
ENDBRANCH   9  10
ENDBRANCH   1   9
TORSDOF 10
ENDMDL
