MODEL 1
REMARK VINA RESULT:    -1.685      0.000      0.000
REMARK INTER + INTRA:          -8.016
REMARK INTER:                  -3.654
REMARK INTRA:                  -4.361
REMARK UNBOUND:                -4.361
REMARK SMILES CCCCCCCCCCCCCCCCCCCCCC(=O)[O-]
REMARK SMILES IDX 12 1 11 2 10 3 9 4 8 5 7 6 6 7 5 8 4 9 3 10 2 11 1 12 13 13
REMARK SMILES IDX 14 14 15 15 16 16 17 17 18 18 19 19 20 20 21 21 22 22 23 23
REMARK SMILES IDX 24 24
REMARK H PARENT
REMARK Flexibility Score: inf
ROOT
ATOM      1  C   UNL     1      24.994   9.077  13.875  1.00  0.00     0.000 C 
ENDROOT
BRANCH   1   2
ATOM      2  C   UNL     1      25.843   8.915  12.597  1.00  0.00     0.000 C 
BRANCH   2   3
ATOM      3  C   UNL     1      27.343   9.231  12.763  1.00  0.00     0.000 C 
BRANCH   3   4
ATOM      4  C   UNL     1      28.083   9.568  11.455  1.00  0.00    -0.000 C 
BRANCH   4   5
ATOM      5  C   UNL     1      27.172   9.786  10.233  1.00  0.00    -0.000 C 
BRANCH   5   6
ATOM      6  C   UNL     1      26.881  11.271   9.928  1.00  0.00    -0.000 C 
BRANCH   6   7
ATOM      7  C   UNL     1      28.123  12.165  10.099  1.00  0.00    -0.000 C 
BRANCH   7   8
ATOM      8  C   UNL     1      27.869  13.382  11.007  1.00  0.00    -0.000 C 
BRANCH   8   9
ATOM      9  C   UNL     1      27.082  13.084  12.297  1.00  0.00    -0.000 C 
BRANCH   9  10
ATOM     10  C   UNL     1      27.992  12.749  13.492  1.00  0.00    -0.000 C 
BRANCH  10  11
ATOM     11  C   UNL     1      27.268  12.892  14.840  1.00  0.00    -0.003 C 
ATOM     12  C   UNL     1      27.208  11.581  15.624  1.00  0.00     0.004 C 
ENDBRANCH  10  11
ENDBRANCH   9  10
ENDBRANCH   8   9
ENDBRANCH   7   8
ENDBRANCH   6   7
ENDBRANCH   5   6
ENDBRANCH   4   5
ENDBRANCH   3   4
ENDBRANCH   2   3
ENDBRANCH   1   2
BRANCH   1  13
ATOM     13  C   UNL     1      23.528   8.621  13.755  1.00  0.00     0.000 C 
BRANCH  13  14
ATOM     14  C   UNL     1      23.217   7.959  12.402  1.00  0.00     0.000 C 
BRANCH  14  15
ATOM     15  C   UNL     1      21.950   8.524  11.735  1.00  0.00     0.000 C 
BRANCH  15  16
ATOM     16  C   UNL     1      22.111   8.932  10.259  1.00  0.00     0.000 C 
BRANCH  16  17
ATOM     17  C   UNL     1      23.311   9.860  10.018  1.00  0.00     0.000 C 
BRANCH  17  18
ATOM     18  C   UNL     1      22.965  11.310  10.386  1.00  0.00     0.000 C 
BRANCH  18  19
ATOM     19  C   UNL     1      23.765  11.829  11.594  1.00  0.00     0.000 C 
BRANCH  19  20
ATOM     20  C   UNL     1      22.925  12.114  12.856  1.00  0.00     0.006 C 
BRANCH  20  21
ATOM     21  C   UNL     1      23.725  12.674  14.042  1.00  0.00     0.053 C 
BRANCH  21  22
ATOM     22  C   UNL     1      23.219  12.156  15.354  1.00  0.00     0.041 C 
ATOM     23  O   UNL     1      22.194  11.425  15.393  1.00  0.00    -0.550 OA
ATOM     24  O   UNL     1      23.901  12.449  16.528  1.00  0.00    -0.550 OA
ENDBRANCH  21  22
ENDBRANCH  20  21
ENDBRANCH  19  20
ENDBRANCH  18  19
ENDBRANCH  17  18
ENDBRANCH  16  17
ENDBRANCH  15  16
ENDBRANCH  14  15
ENDBRANCH  13  14
ENDBRANCH   1  13
TORSDOF 20
ENDMDL
MODEL 2
REMARK VINA RESULT:    -1.647      2.130      4.072
REMARK INTER + INTRA:          -7.933
REMARK INTER:                  -3.680
REMARK INTRA:                  -4.253
REMARK UNBOUND:                -4.361
REMARK SMILES CCCCCCCCCCCCCCCCCCCCCC(=O)[O-]
REMARK SMILES IDX 12 1 11 2 10 3 9 4 8 5 7 6 6 7 5 8 4 9 3 10 2 11 1 12 13 13
REMARK SMILES IDX 14 14 15 15 16 16 17 17 18 18 19 19 20 20 21 21 22 22 23 23
REMARK SMILES IDX 24 24
REMARK H PARENT
REMARK Flexibility Score: inf
ROOT
ATOM      1  C   UNL     1      24.380  11.181  13.053  1.00  0.00     0.000 C 
ENDROOT
BRANCH   1   2
ATOM      2  C   UNL     1      23.924  12.004  11.830  1.00  0.00     0.000 C 
BRANCH   2   3
ATOM      3  C   UNL     1      25.019  12.274  10.778  1.00  0.00     0.000 C 
BRANCH   3   4
ATOM      4  C   UNL     1      25.490  11.032   9.999  1.00  0.00    -0.000 C 
BRANCH   4   5
ATOM      5  C   UNL     1      27.003  10.756  10.071  1.00  0.00    -0.000 C 
BRANCH   5   6
ATOM      6  C   UNL     1      27.359   9.385  10.684  1.00  0.00    -0.000 C 
BRANCH   6   7
ATOM      7  C   UNL     1      28.403   9.493  11.812  1.00  0.00    -0.000 C 
BRANCH   7   8
ATOM      8  C   UNL     1      27.844  10.150  13.087  1.00  0.00    -0.000 C 
BRANCH   8   9
ATOM      9  C   UNL     1      28.904  10.723  14.047  1.00  0.00    -0.000 C 
BRANCH   9  10
ATOM     10  C   UNL     1      28.875  12.259  14.126  1.00  0.00    -0.000 C 
BRANCH  10  11
ATOM     11  C   UNL     1      27.710  12.866  13.328  1.00  0.00    -0.003 C 
ATOM     12  C   UNL     1      28.178  13.746  12.170  1.00  0.00     0.004 C 
ENDBRANCH  10  11
ENDBRANCH   9  10
ENDBRANCH   8   9
ENDBRANCH   7   8
ENDBRANCH   6   7
ENDBRANCH   5   6
ENDBRANCH   4   5
ENDBRANCH   3   4
ENDBRANCH   2   3
ENDBRANCH   1   2
BRANCH   1  13
ATOM     13  C   UNL     1      23.644   9.845  13.259  1.00  0.00     0.000 C 
BRANCH  13  14
ATOM     14  C   UNL     1      24.416   8.643  12.689  1.00  0.00     0.000 C 
BRANCH  14  15
ATOM     15  C   UNL     1      24.646   7.531  13.728  1.00  0.00     0.000 C 
BRANCH  15  16
ATOM     16  C   UNL     1      26.058   7.485  14.340  1.00  0.00     0.000 C 
BRANCH  16  17
ATOM     17  C   UNL     1      26.048   7.446  15.875  1.00  0.00     0.000 C 
BRANCH  17  18
ATOM     18  C   UNL     1      24.951   8.358  16.440  1.00  0.00     0.000 C 
BRANCH  18  19
ATOM     19  C   UNL     1      25.513   9.594  17.166  1.00  0.00     0.000 C 
BRANCH  19  20
ATOM     20  C   UNL     1      25.961  10.744  16.242  1.00  0.00     0.006 C 
BRANCH  20  21
ATOM     21  C   UNL     1      25.553  12.145  16.723  1.00  0.00     0.053 C 
BRANCH  21  22
ATOM     22  C   UNL     1      26.718  12.909  17.273  1.00  0.00     0.041 C 
ATOM     23  O   UNL     1      27.316  12.499  18.302  1.00  0.00    -0.550 OA
ATOM     24  O   UNL     1      27.167  14.055  16.628  1.00  0.00    -0.550 OA
ENDBRANCH  21  22
ENDBRANCH  20  21
ENDBRANCH  19  20
ENDBRANCH  18  19
ENDBRANCH  17  18
ENDBRANCH  16  17
ENDBRANCH  15  16
ENDBRANCH  14  15
ENDBRANCH  13  14
ENDBRANCH   1  13
TORSDOF 20
ENDMDL
MODEL 3
REMARK VINA RESULT:    -1.637      1.805      5.081
REMARK INTER + INTRA:          -7.912
REMARK INTER:                  -3.716
REMARK INTRA:                  -4.196
REMARK UNBOUND:                -4.361
REMARK SMILES CCCCCCCCCCCCCCCCCCCCCC(=O)[O-]
REMARK SMILES IDX 12 1 11 2 10 3 9 4 8 5 7 6 6 7 5 8 4 9 3 10 2 11 1 12 13 13
REMARK SMILES IDX 14 14 15 15 16 16 17 17 18 18 19 19 20 20 21 21 22 22 23 23
REMARK SMILES IDX 24 24
REMARK H PARENT
REMARK Flexibility Score: inf
ROOT
ATOM      1  C   UNL     1      26.295   8.749  12.787  1.00  0.00     0.000 C 
ENDROOT
BRANCH   1   2
ATOM      2  C   UNL     1      25.475   9.541  13.826  1.00  0.00     0.000 C 
BRANCH   2   3
ATOM      3  C   UNL     1      24.248   8.799  14.395  1.00  0.00     0.000 C 
BRANCH   3   4
ATOM      4  C   UNL     1      22.944   9.618  14.409  1.00  0.00    -0.000 C 
BRANCH   4   5
ATOM      5  C   UNL     1      21.855   9.120  13.440  1.00  0.00    -0.000 C 
BRANCH   5   6
ATOM      6  C   UNL     1      22.387   8.190  12.328  1.00  0.00    -0.000 C 
BRANCH   6   7
ATOM      7  C   UNL     1      22.270   8.818  10.927  1.00  0.00    -0.000 C 
BRANCH   7   8
ATOM      8  C   UNL     1      23.512   9.637  10.529  1.00  0.00    -0.000 C 
BRANCH   8   9
ATOM      9  C   UNL     1      23.281  11.155  10.397  1.00  0.00    -0.000 C 
BRANCH   9  10
ATOM     10  C   UNL     1      23.904  11.960  11.549  1.00  0.00    -0.000 C 
BRANCH  10  11
ATOM     11  C   UNL     1      22.888  12.886  12.236  1.00  0.00    -0.003 C 
ATOM     12  C   UNL     1      23.232  13.166  13.699  1.00  0.00     0.004 C 
ENDBRANCH  10  11
ENDBRANCH   9  10
ENDBRANCH   8   9
ENDBRANCH   7   8
ENDBRANCH   6   7
ENDBRANCH   5   6
ENDBRANCH   4   5
ENDBRANCH   3   4
ENDBRANCH   2   3
ENDBRANCH   1   2
BRANCH   1  13
ATOM     13  C   UNL     1      27.473   9.514  12.156  1.00  0.00     0.000 C 
BRANCH  13  14
ATOM     14  C   UNL     1      27.495   9.418  10.622  1.00  0.00     0.000 C 
BRANCH  14  15
ATOM     15  C   UNL     1      26.974  10.692   9.933  1.00  0.00     0.000 C 
BRANCH  15  16
ATOM     16  C   UNL     1      27.938  11.892   9.957  1.00  0.00     0.000 C 
BRANCH  16  17
ATOM     17  C   UNL     1      27.360  13.115  10.686  1.00  0.00     0.000 C 
BRANCH  17  18
ATOM     18  C   UNL     1      27.958  13.248  12.093  1.00  0.00     0.000 C 
BRANCH  18  19
ATOM     19  C   UNL     1      26.941  12.945  13.208  1.00  0.00     0.000 C 
BRANCH  19  20
ATOM     20  C   UNL     1      27.405  13.319  14.631  1.00  0.00     0.006 C 
BRANCH  20  21
ATOM     21  C   UNL     1      26.910  12.371  15.733  1.00  0.00     0.053 C 
BRANCH  21  22
ATOM     22  C   UNL     1      27.996  11.456  16.214  1.00  0.00     0.041 C 
ATOM     23  O   UNL     1      28.365  11.489  17.417  1.00  0.00    -0.550 OA
ATOM     24  O   UNL     1      28.574  10.543  15.341  1.00  0.00    -0.550 OA
ENDBRANCH  21  22
ENDBRANCH  20  21
ENDBRANCH  19  20
ENDBRANCH  18  19
ENDBRANCH  17  18
ENDBRANCH  16  17
ENDBRANCH  15  16
ENDBRANCH  14  15
ENDBRANCH  13  14
ENDBRANCH   1  13
TORSDOF 20
ENDMDL
MODEL 4
REMARK VINA RESULT:    -1.621      2.279      5.106
REMARK INTER + INTRA:          -7.878
REMARK INTER:                  -4.088
REMARK INTRA:                  -3.790
REMARK UNBOUND:                -4.361
REMARK SMILES CCCCCCCCCCCCCCCCCCCCCC(=O)[O-]
REMARK SMILES IDX 12 1 11 2 10 3 9 4 8 5 7 6 6 7 5 8 4 9 3 10 2 11 1 12 13 13
REMARK SMILES IDX 14 14 15 15 16 16 17 17 18 18 19 19 20 20 21 21 22 22 23 23
REMARK SMILES IDX 24 24
REMARK H PARENT
REMARK Flexibility Score: inf
ROOT
ATOM      1  C   UNL     1      26.402  13.558  12.294  1.00  0.00     0.000 C 
ENDROOT
BRANCH   1   2
ATOM      2  C   UNL     1      25.078  12.957  12.810  1.00  0.00     0.000 C 
BRANCH   2   3
ATOM      3  C   UNL     1      25.199  12.111  14.093  1.00  0.00     0.000 C 
BRANCH   3   4
ATOM      4  C   UNL     1      24.922  12.874  15.401  1.00  0.00    -0.000 C 
BRANCH   4   5
ATOM      5  C   UNL     1      26.065  12.833  16.432  1.00  0.00    -0.000 C 
BRANCH   5   6
ATOM      6  C   UNL     1      27.264  13.737  16.072  1.00  0.00    -0.000 C 
BRANCH   6   7
ATOM      7  C   UNL     1      28.603  12.978  16.087  1.00  0.00    -0.000 C 
BRANCH   7   8
ATOM      8  C   UNL     1      29.125  12.650  14.676  1.00  0.00    -0.000 C 
BRANCH   8   9
ATOM      9  C   UNL     1      29.024  11.168  14.268  1.00  0.00    -0.000 C 
BRANCH   9  10
ATOM     10  C   UNL     1      28.510  10.266  15.403  1.00  0.00    -0.000 C 
BRANCH  10  11
ATOM     11  C   UNL     1      27.280   9.444  14.989  1.00  0.00    -0.003 C 
ATOM     12  C   UNL     1      26.455   8.967  16.184  1.00  0.00     0.004 C 
ENDBRANCH  10  11
ENDBRANCH   9  10
ENDBRANCH   8   9
ENDBRANCH   7   8
ENDBRANCH   6   7
ENDBRANCH   5   6
ENDBRANCH   4   5
ENDBRANCH   3   4
ENDBRANCH   2   3
ENDBRANCH   1   2
BRANCH   1  13
ATOM     13  C   UNL     1      26.633  13.439  10.776  1.00  0.00     0.000 C 
BRANCH  13  14
ATOM     14  C   UNL     1      28.004  12.836  10.426  1.00  0.00     0.000 C 
BRANCH  14  15
ATOM     15  C   UNL     1      27.920  11.355  10.013  1.00  0.00     0.000 C 
BRANCH  15  16
ATOM     16  C   UNL     1      27.975  10.345  11.173  1.00  0.00     0.000 C 
BRANCH  16  17
ATOM     17  C   UNL     1      27.020   9.158  10.985  1.00  0.00     0.000 C 
BRANCH  17  18
ATOM     18  C   UNL     1      25.631   9.475  11.556  1.00  0.00     0.000 C 
BRANCH  18  19
ATOM     19  C   UNL     1      24.712  10.179  10.542  1.00  0.00     0.000 C 
BRANCH  19  20
ATOM     20  C   UNL     1      23.219   9.808  10.650  1.00  0.00     0.006 C 
BRANCH  20  21
ATOM     21  C   UNL     1      22.794   9.260  12.021  1.00  0.00     0.053 C 
BRANCH  21  22
ATOM     22  C   UNL     1      22.222   7.879  11.919  1.00  0.00     0.041 C 
ATOM     23  O   UNL     1      21.357   7.615  11.043  1.00  0.00    -0.550 OA
ATOM     24  O   UNL     1      22.671   6.876  12.767  1.00  0.00    -0.550 OA
ENDBRANCH  21  22
ENDBRANCH  20  21
ENDBRANCH  19  20
ENDBRANCH  18  19
ENDBRANCH  17  18
ENDBRANCH  16  17
ENDBRANCH  15  16
ENDBRANCH  14  15
ENDBRANCH  13  14
ENDBRANCH   1  13
TORSDOF 20
ENDMDL
MODEL 5
REMARK VINA RESULT:    -1.610      2.138      5.475
REMARK INTER + INTRA:          -7.854
REMARK INTER:                  -3.585
REMARK INTRA:                  -4.268
REMARK UNBOUND:                -4.361
REMARK SMILES CCCCCCCCCCCCCCCCCCCCCC(=O)[O-]
REMARK SMILES IDX 12 1 11 2 10 3 9 4 8 5 7 6 6 7 5 8 4 9 3 10 2 11 1 12 13 13
REMARK SMILES IDX 14 14 15 15 16 16 17 17 18 18 19 19 20 20 21 21 22 22 23 23
REMARK SMILES IDX 24 24
REMARK H PARENT
REMARK Flexibility Score: inf
ROOT
ATOM      1  C   UNL     1      25.289  11.858  10.186  1.00  0.00     0.000 C 
ENDROOT
BRANCH   1   2
ATOM      2  C   UNL     1      24.448  12.132  11.449  1.00  0.00     0.000 C 
BRANCH   2   3
ATOM      3  C   UNL     1      23.614  10.937  11.954  1.00  0.00     0.000 C 
BRANCH   3   4
ATOM      4  C   UNL     1      24.210   9.553  11.640  1.00  0.00    -0.000 C 
BRANCH   4   5
ATOM      5  C   UNL     1      23.597   8.387  12.438  1.00  0.00    -0.000 C 
BRANCH   5   6
ATOM      6  C   UNL     1      24.627   7.581  13.259  1.00  0.00    -0.000 C 
BRANCH   6   7
ATOM      7  C   UNL     1      24.271   7.517  14.755  1.00  0.00    -0.000 C 
BRANCH   7   8
ATOM      8  C   UNL     1      25.081   8.510  15.609  1.00  0.00    -0.000 C 
BRANCH   8   9
ATOM      9  C   UNL     1      24.239   9.491  16.447  1.00  0.00    -0.000 C 
BRANCH   9  10
ATOM     10  C   UNL     1      23.253  10.313  15.600  1.00  0.00    -0.000 C 
BRANCH  10  11
ATOM     11  C   UNL     1      23.583  11.814  15.607  1.00  0.00    -0.003 C 
ATOM     12  C   UNL     1      22.457  12.673  15.031  1.00  0.00     0.004 C 
ENDBRANCH  10  11
ENDBRANCH   9  10
ENDBRANCH   8   9
ENDBRANCH   7   8
ENDBRANCH   6   7
ENDBRANCH   5   6
ENDBRANCH   4   5
ENDBRANCH   3   4
ENDBRANCH   2   3
ENDBRANCH   1   2
BRANCH   1  13
ATOM     13  C   UNL     1      26.617  12.631  10.098  1.00  0.00     0.000 C 
BRANCH  13  14
ATOM     14  C   UNL     1      27.846  11.707  10.060  1.00  0.00     0.000 C 
BRANCH  14  15
ATOM     15  C   UNL     1      27.473  10.219   9.938  1.00  0.00     0.000 C 
BRANCH  15  16
ATOM     16  C   UNL     1      27.888   9.338  11.130  1.00  0.00     0.000 C 
BRANCH  16  17
ATOM     17  C   UNL     1      28.362  10.151  12.344  1.00  0.00     0.000 C 
BRANCH  17  18
ATOM     18  C   UNL     1      27.322  10.112  13.471  1.00  0.00     0.000 C 
BRANCH  18  19
ATOM     19  C   UNL     1      27.022  11.503  14.059  1.00  0.00     0.000 C 
BRANCH  19  20
ATOM     20  C   UNL     1      27.238  11.627  15.581  1.00  0.00     0.006 C 
BRANCH  20  21
ATOM     21  C   UNL     1      28.207  10.592  16.175  1.00  0.00     0.053 C 
BRANCH  21  22
ATOM     22  C   UNL     1      28.047  10.464  17.659  1.00  0.00     0.041 C 
ATOM     23  O   UNL     1      27.406   9.495  18.146  1.00  0.00    -0.550 OA
ATOM     24  O   UNL     1      28.638  11.393  18.506  1.00  0.00    -0.550 OA
ENDBRANCH  21  22
ENDBRANCH  20  21
ENDBRANCH  19  20
ENDBRANCH  18  19
ENDBRANCH  17  18
ENDBRANCH  16  17
ENDBRANCH  15  16
ENDBRANCH  14  15
ENDBRANCH  13  14
ENDBRANCH   1  13
TORSDOF 20
ENDMDL
MODEL 6
REMARK VINA RESULT:    -1.606      2.382      5.568
REMARK INTER + INTRA:          -7.844
REMARK INTER:                  -3.487
REMARK INTRA:                  -4.357
REMARK UNBOUND:                -4.361
REMARK SMILES CCCCCCCCCCCCCCCCCCCCCC(=O)[O-]
REMARK SMILES IDX 12 1 11 2 10 3 9 4 8 5 7 6 6 7 5 8 4 9 3 10 2 11 1 12 13 13
REMARK SMILES IDX 14 14 15 15 16 16 17 17 18 18 19 19 20 20 21 21 22 22 23 23
REMARK SMILES IDX 24 24
REMARK H PARENT
REMARK Flexibility Score: inf
ROOT
ATOM      1  C   UNL     1      24.495  11.157  10.209  1.00  0.00     0.000 C 
ENDROOT
BRANCH   1   2
ATOM      2  C   UNL     1      23.388  10.104   9.994  1.00  0.00     0.000 C 
BRANCH   2   3
ATOM      3  C   UNL     1      22.004  10.484  10.559  1.00  0.00     0.000 C 
BRANCH   3   4
ATOM      4  C   UNL     1      21.412   9.472  11.557  1.00  0.00    -0.000 C 
BRANCH   4   5
ATOM      5  C   UNL     1      22.203   8.158  11.695  1.00  0.00    -0.000 C 
BRANCH   5   6
ATOM      6  C   UNL     1      22.830   7.949  13.090  1.00  0.00    -0.000 C 
BRANCH   6   7
ATOM      7  C   UNL     1      22.468   9.076  14.076  1.00  0.00    -0.000 C 
BRANCH   7   8
ATOM      8  C   UNL     1      23.687   9.912  14.507  1.00  0.00    -0.000 C 
BRANCH   8   9
ATOM      9  C   UNL     1      23.830  11.274  13.801  1.00  0.00    -0.000 C 
BRANCH   9  10
ATOM     10  C   UNL     1      23.577  12.467  14.738  1.00  0.00    -0.000 C 
BRANCH  10  11
ATOM     11  C   UNL     1      23.210  13.748  13.973  1.00  0.00    -0.003 C 
ATOM     12  C   UNL     1      22.375  13.475  12.723  1.00  0.00     0.004 C 
ENDBRANCH  10  11
ENDBRANCH   9  10
ENDBRANCH   8   9
ENDBRANCH   7   8
ENDBRANCH   6   7
ENDBRANCH   5   6
ENDBRANCH   4   5
ENDBRANCH   3   4
ENDBRANCH   2   3
ENDBRANCH   1   2
BRANCH   1  13
ATOM     13  C   UNL     1      25.863  10.597  10.640  1.00  0.00     0.000 C 
BRANCH  13  14
ATOM     14  C   UNL     1      25.751   9.260  11.393  1.00  0.00     0.000 C 
BRANCH  14  15
ATOM     15  C   UNL     1      27.009   8.928  12.216  1.00  0.00     0.000 C 
BRANCH  15  16
ATOM     16  C   UNL     1      28.193   9.893  12.024  1.00  0.00     0.000 C 
BRANCH  16  17
ATOM     17  C   UNL     1      28.580  10.634  13.312  1.00  0.00     0.000 C 
BRANCH  17  18
ATOM     18  C   UNL     1      27.335  10.994  14.133  1.00  0.00     0.000 C 
BRANCH  18  19
ATOM     19  C   UNL     1      27.371  12.434  14.678  1.00  0.00     0.000 C 
BRANCH  19  20
ATOM     20  C   UNL     1      27.686  13.519  13.629  1.00  0.00     0.006 C 
BRANCH  20  21
ATOM     21  C   UNL     1      26.605  13.701  12.553  1.00  0.00     0.053 C 
BRANCH  21  22
ATOM     22  C   UNL     1      27.195  13.827  11.182  1.00  0.00     0.041 C 
ATOM     23  O   UNL     1      28.365  13.419  10.956  1.00  0.00    -0.550 OA
ATOM     24  O   UNL     1      26.441  14.362  10.146  1.00  0.00    -0.550 OA
ENDBRANCH  21  22
ENDBRANCH  20  21
ENDBRANCH  19  20
ENDBRANCH  18  19
ENDBRANCH  17  18
ENDBRANCH  16  17
ENDBRANCH  15  16
ENDBRANCH  14  15
ENDBRANCH  13  14
ENDBRANCH   1  13
TORSDOF 20
ENDMDL
MODEL 7
REMARK VINA RESULT:    -1.603      3.026      5.551
REMARK INTER + INTRA:          -7.839
REMARK INTER:                  -3.676
REMARK INTRA:                  -4.163
REMARK UNBOUND:                -4.361
REMARK SMILES CCCCCCCCCCCCCCCCCCCCCC(=O)[O-]
REMARK SMILES IDX 12 1 11 2 10 3 9 4 8 5 7 6 6 7 5 8 4 9 3 10 2 11 1 12 13 13
REMARK SMILES IDX 14 14 15 15 16 16 17 17 18 18 19 19 20 20 21 21 22 22 23 23
REMARK SMILES IDX 24 24
REMARK H PARENT
REMARK Flexibility Score: inf
ROOT
ATOM      1  C   UNL     1      26.778  11.011  14.559  1.00  0.00     0.000 C 
ENDROOT
BRANCH   1   2
ATOM      2  C   UNL     1      25.437  10.468  15.095  1.00  0.00     0.000 C 
BRANCH   2   3
ATOM      3  C   UNL     1      25.230   8.950  14.923  1.00  0.00     0.000 C 
BRANCH   3   4
ATOM      4  C   UNL     1      25.369   8.126  16.217  1.00  0.00    -0.000 C 
BRANCH   4   5
ATOM      5  C   UNL     1      26.624   7.237  16.288  1.00  0.00    -0.000 C 
BRANCH   5   6
ATOM      6  C   UNL     1      27.463   7.443  17.568  1.00  0.00    -0.000 C 
BRANCH   6   7
ATOM      7  C   UNL     1      28.562   8.506  17.391  1.00  0.00    -0.000 C 
BRANCH   7   8
ATOM      8  C   UNL     1      28.480   9.636  18.434  1.00  0.00    -0.000 C 
BRANCH   8   9
ATOM      9  C   UNL     1      28.210  11.040  17.859  1.00  0.00    -0.000 C 
BRANCH   9  10
ATOM     10  C   UNL     1      26.866  11.629  18.321  1.00  0.00    -0.000 C 
BRANCH  10  11
ATOM     11  C   UNL     1      25.937  10.568  18.930  1.00  0.00    -0.003 C 
ATOM     12  C   UNL     1      24.457  10.868  18.694  1.00  0.00     0.004 C 
ENDBRANCH  10  11
ENDBRANCH   9  10
ENDBRANCH   8   9
ENDBRANCH   7   8
ENDBRANCH   6   7
ENDBRANCH   5   6
ENDBRANCH   4   5
ENDBRANCH   3   4
ENDBRANCH   2   3
ENDBRANCH   1   2
BRANCH   1  13
ATOM     13  C   UNL     1      27.777   9.943  14.080  1.00  0.00     0.000 C 
BRANCH  13  14
ATOM     14  C   UNL     1      28.440  10.303  12.739  1.00  0.00     0.000 C 
BRANCH  14  15
ATOM     15  C   UNL     1      28.050   9.343  11.601  1.00  0.00     0.000 C 
BRANCH  15  16
ATOM     16  C   UNL     1      26.540   9.097  11.437  1.00  0.00     0.000 C 
BRANCH  16  17
ATOM     17  C   UNL     1      25.854  10.136  10.538  1.00  0.00     0.000 C 
BRANCH  17  18
ATOM     18  C   UNL     1      25.073  11.157  11.376  1.00  0.00     0.000 C 
BRANCH  18  19
ATOM     19  C   UNL     1      25.691  12.566  11.335  1.00  0.00     0.000 C 
BRANCH  19  20
ATOM     20  C   UNL     1      26.657  12.819  10.160  1.00  0.00     0.006 C 
BRANCH  20  21
ATOM     21  C   UNL     1      28.092  13.176  10.578  1.00  0.00     0.053 C 
BRANCH  21  22
ATOM     22  C   UNL     1      28.117  14.185  11.686  1.00  0.00     0.041 C 
ATOM     23  O   UNL     1      28.556  13.867  12.822  1.00  0.00    -0.550 OA
ATOM     24  O   UNL     1      27.689  15.486  11.453  1.00  0.00    -0.550 OA
ENDBRANCH  21  22
ENDBRANCH  20  21
ENDBRANCH  19  20
ENDBRANCH  18  19
ENDBRANCH  17  18
ENDBRANCH  16  17
ENDBRANCH  15  16
ENDBRANCH  14  15
ENDBRANCH  13  14
ENDBRANCH   1  13
TORSDOF 20
ENDMDL
MODEL 8
REMARK VINA RESULT:    -1.586     19.653     23.215
REMARK INTER + INTRA:          -7.802
REMARK INTER:                  -3.548
REMARK INTRA:                  -4.254
REMARK UNBOUND:                -4.361
REMARK SMILES CCCCCCCCCCCCCCCCCCCCCC(=O)[O-]
REMARK SMILES IDX 12 1 11 2 10 3 9 4 8 5 7 6 6 7 5 8 4 9 3 10 2 11 1 12 13 13
REMARK SMILES IDX 14 14 15 15 16 16 17 17 18 18 19 19 20 20 21 21 22 22 23 23
REMARK SMILES IDX 24 24
REMARK H PARENT
REMARK Flexibility Score: inf
ROOT
ATOM      1  C   UNL     1      12.371  22.220  28.360  1.00  0.00     0.000 C 
ENDROOT
BRANCH   1   2
ATOM      2  C   UNL     1      12.554  20.689  28.374  1.00  0.00     0.000 C 
BRANCH   2   3
ATOM      3  C   UNL     1      11.919  19.942  27.184  1.00  0.00     0.000 C 
BRANCH   3   4
ATOM      4  C   UNL     1      11.246  20.846  26.136  1.00  0.00    -0.000 C 
BRANCH   4   5
ATOM      5  C   UNL     1      11.696  20.603  24.684  1.00  0.00    -0.000 C 
BRANCH   5   6
ATOM      6  C   UNL     1      11.851  21.895  23.853  1.00  0.00    -0.000 C 
BRANCH   6   7
ATOM      7  C   UNL     1      12.203  23.117  24.720  1.00  0.00    -0.000 C 
BRANCH   7   8
ATOM      8  C   UNL     1      13.320  23.985  24.112  1.00  0.00    -0.000 C 
BRANCH   8   9
ATOM      9  C   UNL     1      14.747  23.637  24.577  1.00  0.00    -0.000 C 
BRANCH   9  10
ATOM     10  C   UNL     1      14.825  23.301  26.076  1.00  0.00    -0.000 C 
BRANCH  10  11
ATOM     11  C   UNL     1      15.451  21.922  26.337  1.00  0.00    -0.003 C 
ATOM     12  C   UNL     1      15.302  20.968  25.152  1.00  0.00     0.004 C 
ENDBRANCH  10  11
ENDBRANCH   9  10
ENDBRANCH   8   9
ENDBRANCH   7   8
ENDBRANCH   6   7
ENDBRANCH   5   6
ENDBRANCH   4   5
ENDBRANCH   3   4
ENDBRANCH   2   3
ENDBRANCH   1   2
BRANCH   1  13
ATOM     13  C   UNL     1      12.656  22.931  29.696  1.00  0.00     0.000 C 
BRANCH  13  14
ATOM     14  C   UNL     1      11.521  23.875  30.125  1.00  0.00     0.000 C 
BRANCH  14  15
ATOM     15  C   UNL     1      10.289  23.789  29.206  1.00  0.00     0.000 C 
BRANCH  15  16
ATOM     16  C   UNL     1       9.922  25.094  28.476  1.00  0.00     0.000 C 
BRANCH  16  17
ATOM     17  C   UNL     1      10.635  25.250  27.125  1.00  0.00     0.000 C 
BRANCH  17  18
ATOM     18  C   UNL     1      11.537  26.491  27.120  1.00  0.00     0.000 C 
BRANCH  18  19
ATOM     19  C   UNL     1      12.978  26.186  27.569  1.00  0.00     0.000 C 
BRANCH  19  20
ATOM     20  C   UNL     1      13.467  26.998  28.786  1.00  0.00     0.006 C 
BRANCH  20  21
ATOM     21  C   UNL     1      14.361  26.215  29.759  1.00  0.00     0.053 C 
BRANCH  21  22
ATOM     22  C   UNL     1      15.659  25.815  29.128  1.00  0.00     0.041 C 
ATOM     23  O   UNL     1      16.398  26.683  28.593  1.00  0.00    -0.550 OA
ATOM     24  O   UNL     1      16.071  24.488  29.163  1.00  0.00    -0.550 OA
ENDBRANCH  21  22
ENDBRANCH  20  21
ENDBRANCH  19  20
ENDBRANCH  18  19
ENDBRANCH  17  18
ENDBRANCH  16  17
ENDBRANCH  15  16
ENDBRANCH  14  15
ENDBRANCH  13  14
ENDBRANCH   1  13
TORSDOF 20
ENDMDL
MODEL 9
REMARK VINA RESULT:    -1.558      2.127      4.935
REMARK INTER + INTRA:          -7.740
REMARK INTER:                  -3.497
REMARK INTRA:                  -4.243
REMARK UNBOUND:                -4.361
REMARK SMILES CCCCCCCCCCCCCCCCCCCCCC(=O)[O-]
REMARK SMILES IDX 12 1 11 2 10 3 9 4 8 5 7 6 6 7 5 8 4 9 3 10 2 11 1 12 13 13
REMARK SMILES IDX 14 14 15 15 16 16 17 17 18 18 19 19 20 20 21 21 22 22 23 23
REMARK SMILES IDX 24 24
REMARK H PARENT
REMARK Flexibility Score: inf
ROOT
ATOM      1  C   UNL     1      24.680  12.367  13.548  1.00  0.00     0.000 C 
ENDROOT
BRANCH   1   2
ATOM      2  C   UNL     1      24.956  11.454  14.761  1.00  0.00     0.000 C 
BRANCH   2   3
ATOM      3  C   UNL     1      24.116  10.162  14.812  1.00  0.00     0.000 C 
BRANCH   3   4
ATOM      4  C   UNL     1      24.914   8.883  15.130  1.00  0.00    -0.000 C 
BRANCH   4   5
ATOM      5  C   UNL     1      26.433   8.993  14.902  1.00  0.00    -0.000 C 
BRANCH   5   6
ATOM      6  C   UNL     1      27.274   8.767  16.177  1.00  0.00    -0.000 C 
BRANCH   6   7
ATOM      7  C   UNL     1      28.228   9.939  16.472  1.00  0.00    -0.000 C 
BRANCH   7   8
ATOM      8  C   UNL     1      27.556  11.079  17.258  1.00  0.00    -0.000 C 
BRANCH   8   9
ATOM      9  C   UNL     1      28.097  12.490  16.957  1.00  0.00    -0.000 C 
BRANCH   9  10
ATOM     10  C   UNL     1      27.086  13.603  17.279  1.00  0.00    -0.000 C 
BRANCH  10  11
ATOM     11  C   UNL     1      27.105  14.733  16.239  1.00  0.00    -0.003 C 
ATOM     12  C   UNL     1      25.705  15.139  15.776  1.00  0.00     0.004 C 
ENDBRANCH  10  11
ENDBRANCH   9  10
ENDBRANCH   8   9
ENDBRANCH   7   8
ENDBRANCH   6   7
ENDBRANCH   5   6
ENDBRANCH   4   5
ENDBRANCH   3   4
ENDBRANCH   2   3
ENDBRANCH   1   2
BRANCH   1  13
ATOM     13  C   UNL     1      25.923  12.782  12.740  1.00  0.00     0.000 C 
BRANCH  13  14
ATOM     14  C   UNL     1      27.240  12.336  13.397  1.00  0.00     0.000 C 
BRANCH  14  15
ATOM     15  C   UNL     1      28.029  11.331  12.537  1.00  0.00     0.000 C 
BRANCH  15  16
ATOM     16  C   UNL     1      27.958  11.569  11.018  1.00  0.00     0.000 C 
BRANCH  16  17
ATOM     17  C   UNL     1      27.360  10.381  10.250  1.00  0.00     0.000 C 
BRANCH  17  18
ATOM     18  C   UNL     1      26.859   9.299  11.217  1.00  0.00     0.000 C 
BRANCH  18  19
ATOM     19  C   UNL     1      25.331   9.324  11.405  1.00  0.00     0.000 C 
BRANCH  19  20
ATOM     20  C   UNL     1      24.567  10.220  10.408  1.00  0.00     0.006 C 
BRANCH  20  21
ATOM     21  C   UNL     1      23.040  10.051  10.439  1.00  0.00     0.053 C 
BRANCH  21  22
ATOM     22  C   UNL     1      22.341  11.341  10.743  1.00  0.00     0.041 C 
ATOM     23  O   UNL     1      21.237  11.335  11.349  1.00  0.00    -0.550 OA
ATOM     24  O   UNL     1      22.925  12.550  10.388  1.00  0.00    -0.550 OA
ENDBRANCH  21  22
ENDBRANCH  20  21
ENDBRANCH  19  20
ENDBRANCH  18  19
ENDBRANCH  17  18
ENDBRANCH  16  17
ENDBRANCH  15  16
ENDBRANCH  14  15
ENDBRANCH  13  14
ENDBRANCH   1  13
TORSDOF 20
ENDMDL
