MODEL 1
REMARK VINA RESULT:    -3.587      0.000      0.000
REMARK INTER + INTRA:          -6.576
REMARK INTER:                  -5.684
REMARK INTRA:                  -0.892
REMARK UNBOUND:                -0.892
REMARK SMILES CCCCCCCCCCCC(=O)[O-]
REMARK SMILES IDX 7 1 8 2 9 3 10 4 11 5 12 6 13 7 14 8 6 9 5 10 4 11 3 12 2 13
REMARK SMILES IDX 1 14
REMARK H PARENT
REMARK Flexibility Score: inf
ROOT
ATOM      1  C   UNL     1     -98.605  70.600  22.278  1.00  0.00     0.000 C 
ENDROOT
BRANCH   1   2
ATOM      2  C   UNL     1     -99.666  69.873  23.126  1.00  0.00     0.000 C 
BRANCH   2   3
ATOM      3  C   UNL     1     -99.177  68.592  23.827  1.00  0.00     0.000 C 
BRANCH   3   4
ATOM      4  C   UNL     1     -99.163  68.715  25.360  1.00  0.00     0.006 C 
BRANCH   4   5
ATOM      5  C   UNL     1    -100.031  69.879  25.857  1.00  0.00     0.053 C 
BRANCH   5   6
ATOM      6  C   UNL     1    -101.151  69.407  26.733  1.00  0.00     0.041 C 
ATOM      7  O   UNL     1    -102.300  69.907  26.614  1.00  0.00    -0.550 OA
ATOM      8  O   UNL     1    -100.919  68.436  27.698  1.00  0.00    -0.550 OA
ENDBRANCH   5   6
ENDBRANCH   4   5
ENDBRANCH   3   4
ENDBRANCH   2   3
ENDBRANCH   1   2
BRANCH   1   9
ATOM      9  C   UNL     1     -98.376  72.052  22.721  1.00  0.00     0.000 C 
BRANCH   9  10
ATOM     10  C   UNL     1     -97.453  72.114  23.947  1.00  0.00    -0.000 C 
BRANCH  10  11
ATOM     11  C   UNL     1     -96.328  73.149  23.791  1.00  0.00    -0.000 C 
BRANCH  11  12
ATOM     12  C   UNL     1     -95.322  72.769  22.694  1.00  0.00    -0.000 C 
BRANCH  12  13
ATOM     13  C   UNL     1     -95.295  73.828  21.586  1.00  0.00    -0.003 C 
ATOM     14  C   UNL     1     -95.663  73.222  20.235  1.00  0.00     0.004 C 
ENDBRANCH  12  13
ENDBRANCH  11  12
ENDBRANCH  10  11
ENDBRANCH   9  10
ENDBRANCH   1   9
TORSDOF 10
ENDMDL
MODEL 2
REMARK VINA RESULT:    -3.495      3.543      6.668
REMARK INTER + INTRA:          -6.430
REMARK INTER:                  -5.470
REMARK INTRA:                  -0.960
REMARK UNBOUND:                -0.892
REMARK SMILES CCCCCCCCCCCC(=O)[O-]
REMARK SMILES IDX 7 1 8 2 9 3 10 4 11 5 12 6 13 7 14 8 6 9 5 10 4 11 3 12 2 13
REMARK SMILES IDX 1 14
REMARK H PARENT
REMARK Flexibility Score: inf
ROOT
ATOM      1  C   UNL     1     -98.692  71.758  23.075  1.00  0.00     0.000 C 
ENDROOT
BRANCH   1   2
ATOM      2  C   UNL     1     -97.635  72.057  24.154  1.00  0.00     0.000 C 
BRANCH   2   3
ATOM      3  C   UNL     1     -96.686  73.226  23.832  1.00  0.00     0.000 C 
BRANCH   3   4
ATOM      4  C   UNL     1     -95.436  72.788  23.049  1.00  0.00     0.006 C 
BRANCH   4   5
ATOM      5  C   UNL     1     -95.277  73.559  21.733  1.00  0.00     0.053 C 
BRANCH   5   6
ATOM      6  C   UNL     1     -96.241  73.087  20.688  1.00  0.00     0.041 C 
ATOM      7  O   UNL     1     -97.212  73.813  20.350  1.00  0.00    -0.550 OA
ATOM      8  O   UNL     1     -96.083  71.834  20.108  1.00  0.00    -0.550 OA
ENDBRANCH   5   6
ENDBRANCH   4   5
ENDBRANCH   3   4
ENDBRANCH   2   3
ENDBRANCH   1   2
BRANCH   1   9
ATOM      9  C   UNL     1     -98.614  70.320  22.542  1.00  0.00     0.000 C 
BRANCH   9  10
ATOM     10  C   UNL     1     -99.746  69.457  23.120  1.00  0.00    -0.000 C 
BRANCH  10  11
ATOM     11  C   UNL     1     -99.238  68.402  24.115  1.00  0.00    -0.000 C 
BRANCH  11  12
ATOM     12  C   UNL     1     -99.158  68.934  25.554  1.00  0.00    -0.000 C 
BRANCH  12  13
ATOM     13  C   UNL     1    -100.493  69.550  25.985  1.00  0.00    -0.003 C 
ATOM     14  C   UNL     1    -101.125  68.756  27.125  1.00  0.00     0.004 C 
ENDBRANCH  12  13
ENDBRANCH  11  12
ENDBRANCH  10  11
ENDBRANCH   9  10
ENDBRANCH   1   9
TORSDOF 10
ENDMDL
MODEL 3
REMARK VINA RESULT:    -3.456      1.981      3.483
REMARK INTER + INTRA:          -6.368
REMARK INTER:                  -5.029
REMARK INTRA:                  -1.339
REMARK UNBOUND:                -0.892
REMARK SMILES CCCCCCCCCCCC(=O)[O-]
REMARK SMILES IDX 7 1 8 2 9 3 10 4 11 5 12 6 13 7 14 8 6 9 5 10 4 11 3 12 2 13
REMARK SMILES IDX 1 14
REMARK H PARENT
REMARK Flexibility Score: inf
ROOT
ATOM      1  C   UNL     1     -99.763  68.858  25.128  1.00  0.00     0.000 C 
ENDROOT
BRANCH   1   2
ATOM      2  C   UNL     1    -100.326  70.250  25.469  1.00  0.00     0.000 C 
BRANCH   2   3
ATOM      3  C   UNL     1     -99.612  70.979  26.622  1.00  0.00     0.000 C 
BRANCH   3   4
ATOM      4  C   UNL     1     -98.416  70.190  27.182  1.00  0.00     0.006 C 
BRANCH   4   5
ATOM      5  C   UNL     1     -98.540  69.944  28.691  1.00  0.00     0.053 C 
BRANCH   5   6
ATOM      6  C   UNL     1     -99.089  68.583  28.992  1.00  0.00     0.041 C 
ATOM      7  O   UNL     1     -98.415  67.764  29.670  1.00  0.00    -0.550 OA
ATOM      8  O   UNL     1    -100.333  68.209  28.499  1.00  0.00    -0.550 OA
ENDBRANCH   5   6
ENDBRANCH   4   5
ENDBRANCH   3   4
ENDBRANCH   2   3
ENDBRANCH   1   2
BRANCH   1   9
ATOM      9  C   UNL     1     -99.062  68.813  23.762  1.00  0.00     0.000 C 
BRANCH   9  10
ATOM     10  C   UNL     1     -99.527  69.972  22.867  1.00  0.00    -0.000 C 
BRANCH  10  11
ATOM     11  C   UNL     1     -98.357  70.712  22.201  1.00  0.00    -0.000 C 
BRANCH  11  12
ATOM     12  C   UNL     1     -97.576  71.595  23.186  1.00  0.00    -0.000 C 
BRANCH  12  13
ATOM     13  C   UNL     1     -98.400  72.820  23.596  1.00  0.00    -0.003 C 
ATOM     14  C   UNL     1     -97.756  73.550  24.771  1.00  0.00     0.004 C 
ENDBRANCH  12  13
ENDBRANCH  11  12
ENDBRANCH  10  11
ENDBRANCH   9  10
ENDBRANCH   1   9
TORSDOF 10
ENDMDL
MODEL 4
REMARK VINA RESULT:    -3.439      3.443      5.996
REMARK INTER + INTRA:          -6.342
REMARK INTER:                  -5.177
REMARK INTRA:                  -1.165
REMARK UNBOUND:                -0.892
REMARK SMILES CCCCCCCCCCCC(=O)[O-]
REMARK SMILES IDX 7 1 8 2 9 3 10 4 11 5 12 6 13 7 14 8 6 9 5 10 4 11 3 12 2 13
REMARK SMILES IDX 1 14
REMARK H PARENT
REMARK Flexibility Score: inf
ROOT
ATOM      1  C   UNL     1     -99.143  68.838  23.674  1.00  0.00     0.000 C 
ENDROOT
BRANCH   1   2
ATOM      2  C   UNL     1    -100.089  69.840  22.987  1.00  0.00     0.000 C 
BRANCH   2   3
ATOM      3  C   UNL     1     -99.410  71.106  22.433  1.00  0.00     0.000 C 
BRANCH   3   4
ATOM      4  C   UNL     1     -97.888  71.118  22.658  1.00  0.00     0.006 C 
BRANCH   4   5
ATOM      5  C   UNL     1     -97.472  72.110  23.752  1.00  0.00     0.053 C 
BRANCH   5   6
ATOM      6  C   UNL     1     -96.193  72.813  23.413  1.00  0.00     0.041 C 
ATOM      7  O   UNL     1     -95.514  72.445  22.419  1.00  0.00    -0.550 OA
ATOM      8  O   UNL     1     -95.737  73.855  24.211  1.00  0.00    -0.550 OA
ENDBRANCH   5   6
ENDBRANCH   4   5
ENDBRANCH   3   4
ENDBRANCH   2   3
ENDBRANCH   1   2
BRANCH   1   9
ATOM      9  C   UNL     1     -99.375  68.738  25.189  1.00  0.00     0.000 C 
BRANCH   9  10
ATOM     10  C   UNL     1    -100.360  69.815  25.667  1.00  0.00    -0.000 C 
BRANCH  10  11
ATOM     11  C   UNL     1     -99.685  70.899  26.522  1.00  0.00    -0.000 C 
BRANCH  11  12
ATOM     12  C   UNL     1     -98.385  70.412  27.178  1.00  0.00    -0.000 C 
BRANCH  12  13
ATOM     13  C   UNL     1     -98.618  70.040  28.646  1.00  0.00    -0.003 C 
ATOM     14  C   UNL     1     -98.455  68.539  28.867  1.00  0.00     0.004 C 
ENDBRANCH  12  13
ENDBRANCH  11  12
ENDBRANCH  10  11
ENDBRANCH   9  10
ENDBRANCH   1   9
TORSDOF 10
ENDMDL
MODEL 5
REMARK VINA RESULT:    -3.433      3.162      4.545
REMARK INTER + INTRA:          -6.332
REMARK INTER:                  -4.998
REMARK INTRA:                  -1.334
REMARK UNBOUND:                -0.892
REMARK SMILES CCCCCCCCCCCC(=O)[O-]
REMARK SMILES IDX 7 1 8 2 9 3 10 4 11 5 12 6 13 7 14 8 6 9 5 10 4 11 3 12 2 13
REMARK SMILES IDX 1 14
REMARK H PARENT
REMARK Flexibility Score: inf
ROOT
ATOM      1  C   UNL     1     -99.023  70.245  25.602  1.00  0.00     0.000 C 
ENDROOT
BRANCH   1   2
ATOM      2  C   UNL     1    -100.344  70.744  26.216  1.00  0.00     0.000 C 
BRANCH   2   3
ATOM      3  C   UNL     1    -101.324  69.638  26.646  1.00  0.00     0.000 C 
BRANCH   3   4
ATOM      4  C   UNL     1    -101.328  69.395  28.165  1.00  0.00     0.006 C 
BRANCH   4   5
ATOM      5  C   UNL     1    -100.322  68.314  28.582  1.00  0.00     0.053 C 
BRANCH   5   6
ATOM      6  C   UNL     1     -99.211  68.875  29.416  1.00  0.00     0.041 C 
ATOM      7  O   UNL     1     -99.252  68.781  30.670  1.00  0.00    -0.550 OA
ATOM      8  O   UNL     1     -98.145  69.527  28.809  1.00  0.00    -0.550 OA
ENDBRANCH   5   6
ENDBRANCH   4   5
ENDBRANCH   3   4
ENDBRANCH   2   3
ENDBRANCH   1   2
BRANCH   1   9
ATOM      9  C   UNL     1     -99.098  68.788  25.122  1.00  0.00     0.000 C 
BRANCH   9  10
ATOM     10  C   UNL     1     -99.289  68.720  23.599  1.00  0.00    -0.000 C 
BRANCH  10  11
ATOM     11  C   UNL     1     -98.804  69.991  22.884  1.00  0.00    -0.000 C 
BRANCH  11  12
ATOM     12  C   UNL     1     -99.929  70.708  22.122  1.00  0.00    -0.000 C 
BRANCH  12  13
ATOM     13  C   UNL     1    -101.278  70.024  22.365  1.00  0.00    -0.003 C 
ATOM     14  C   UNL     1    -102.271  70.979  23.021  1.00  0.00     0.004 C 
ENDBRANCH  12  13
ENDBRANCH  11  12
ENDBRANCH  10  11
ENDBRANCH   9  10
ENDBRANCH   1   9
TORSDOF 10
ENDMDL
MODEL 6
REMARK VINA RESULT:    -3.429      2.122      3.929
REMARK INTER + INTRA:          -6.325
REMARK INTER:                  -4.725
REMARK INTRA:                  -1.600
REMARK UNBOUND:                -0.892
REMARK SMILES CCCCCCCCCCCC(=O)[O-]
REMARK SMILES IDX 7 1 8 2 9 3 10 4 11 5 12 6 13 7 14 8 6 9 5 10 4 11 3 12 2 13
REMARK SMILES IDX 1 14
REMARK H PARENT
REMARK Flexibility Score: inf
ROOT
ATOM      1  C   UNL     1     -98.991  72.554  25.072  1.00  0.00     0.000 C 
ENDROOT
BRANCH   1   2
ATOM      2  C   UNL     1     -99.569  71.626  26.157  1.00  0.00     0.000 C 
BRANCH   2   3
ATOM      3  C   UNL     1     -98.616  70.520  26.646  1.00  0.00     0.000 C 
BRANCH   3   4
ATOM      4  C   UNL     1     -99.112  69.105  26.302  1.00  0.00     0.006 C 
BRANCH   4   5
ATOM      5  C   UNL     1    -100.570  68.883  26.724  1.00  0.00     0.053 C 
BRANCH   5   6
ATOM      6  C   UNL     1    -100.719  68.834  28.214  1.00  0.00     0.041 C 
ATOM      7  O   UNL     1    -100.043  68.016  28.891  1.00  0.00    -0.550 OA
ATOM      8  O   UNL     1    -101.624  69.673  28.852  1.00  0.00    -0.550 OA
ENDBRANCH   5   6
ENDBRANCH   4   5
ENDBRANCH   3   4
ENDBRANCH   2   3
ENDBRANCH   1   2
BRANCH   1   9
ATOM      9  C   UNL     1     -97.909  71.878  24.219  1.00  0.00     0.000 C 
BRANCH   9  10
ATOM     10  C   UNL     1     -98.438  71.559  22.812  1.00  0.00    -0.000 C 
BRANCH  10  11
ATOM     11  C   UNL     1     -98.693  70.058  22.601  1.00  0.00    -0.000 C 
BRANCH  11  12
ATOM     12  C   UNL     1    -100.136  69.650  22.935  1.00  0.00    -0.000 C 
BRANCH  12  13
ATOM     13  C   UNL     1    -101.129  70.724  22.481  1.00  0.00    -0.003 C 
ATOM     14  C   UNL     1    -102.148  71.032  23.574  1.00  0.00     0.004 C 
ENDBRANCH  12  13
ENDBRANCH  11  12
ENDBRANCH  10  11
ENDBRANCH   9  10
ENDBRANCH   1   9
TORSDOF 10
ENDMDL
MODEL 7
REMARK VINA RESULT:    -3.402      3.271      4.643
REMARK INTER + INTRA:          -6.282
REMARK INTER:                  -4.607
REMARK INTRA:                  -1.676
REMARK UNBOUND:                -0.892
REMARK SMILES CCCCCCCCCCCC(=O)[O-]
REMARK SMILES IDX 7 1 8 2 9 3 10 4 11 5 12 6 13 7 14 8 6 9 5 10 4 11 3 12 2 13
REMARK SMILES IDX 1 14
REMARK H PARENT
REMARK Flexibility Score: inf
ROOT
ATOM      1  C   UNL     1    -102.102  70.385  26.970  1.00  0.00     0.000 C 
ENDROOT
BRANCH   1   2
ATOM      2  C   UNL     1    -101.336  69.065  26.763  1.00  0.00     0.000 C 
BRANCH   2   3
ATOM      3  C   UNL     1    -100.360  68.692  27.894  1.00  0.00     0.000 C 
BRANCH   3   4
ATOM      4  C   UNL     1     -98.908  69.105  27.596  1.00  0.00     0.006 C 
BRANCH   4   5
ATOM      5  C   UNL     1     -98.314  69.978  28.709  1.00  0.00     0.053 C 
BRANCH   5   6
ATOM      6  C   UNL     1     -98.759  71.404  28.599  1.00  0.00     0.041 C 
ATOM      7  O   UNL     1     -98.272  72.151  27.710  1.00  0.00    -0.550 OA
ATOM      8  O   UNL     1     -99.689  71.916  29.494  1.00  0.00    -0.550 OA
ENDBRANCH   5   6
ENDBRANCH   4   5
ENDBRANCH   3   4
ENDBRANCH   2   3
ENDBRANCH   1   2
BRANCH   1   9
ATOM      9  C   UNL     1    -101.464  71.571  26.231  1.00  0.00     0.000 C 
BRANCH   9  10
ATOM     10  C   UNL     1    -101.035  71.167  24.812  1.00  0.00    -0.000 C 
BRANCH  10  11
ATOM     11  C   UNL     1     -99.601  71.608  24.479  1.00  0.00    -0.000 C 
BRANCH  11  12
ATOM     12  C   UNL     1     -98.672  70.422  24.176  1.00  0.00    -0.000 C 
BRANCH  12  13
ATOM     13  C   UNL     1     -99.439  69.284  23.495  1.00  0.00    -0.003 C 
ATOM     14  C   UNL     1     -98.996  67.924  24.027  1.00  0.00     0.004 C 
ENDBRANCH  12  13
ENDBRANCH  11  12
ENDBRANCH  10  11
ENDBRANCH   9  10
ENDBRANCH   1   9
TORSDOF 10
ENDMDL
MODEL 8
REMARK VINA RESULT:    -3.383      2.751      4.283
REMARK INTER + INTRA:          -6.252
REMARK INTER:                  -4.968
REMARK INTRA:                  -1.284
REMARK UNBOUND:                -0.892
REMARK SMILES CCCCCCCCCCCC(=O)[O-]
REMARK SMILES IDX 7 1 8 2 9 3 10 4 11 5 12 6 13 7 14 8 6 9 5 10 4 11 3 12 2 13
REMARK SMILES IDX 1 14
REMARK H PARENT
REMARK Flexibility Score: inf
ROOT
ATOM      1  C   UNL     1    -100.252  71.892  26.854  1.00  0.00     0.000 C 
ENDROOT
BRANCH   1   2
ATOM      2  C   UNL     1    -101.336  71.087  26.113  1.00  0.00     0.000 C 
BRANCH   2   3
ATOM      3  C   UNL     1    -101.854  69.846  26.862  1.00  0.00     0.000 C 
BRANCH   3   4
ATOM      4  C   UNL     1    -100.737  68.849  27.217  1.00  0.00     0.006 C 
BRANCH   4   5
ATOM      5  C   UNL     1    -100.467  68.796  28.726  1.00  0.00     0.053 C 
BRANCH   5   6
ATOM      6  C   UNL     1     -99.024  69.043  29.045  1.00  0.00     0.041 C 
ATOM      7  O   UNL     1     -98.174  68.130  28.876  1.00  0.00    -0.550 OA
ATOM      8  O   UNL     1     -98.623  70.271  29.554  1.00  0.00    -0.550 OA
ENDBRANCH   5   6
ENDBRANCH   4   5
ENDBRANCH   3   4
ENDBRANCH   2   3
ENDBRANCH   1   2
BRANCH   1   9
ATOM      9  C   UNL     1     -98.902  71.892  26.122  1.00  0.00     0.000 C 
BRANCH   9  10
ATOM     10  C   UNL     1     -99.099  72.033  24.605  1.00  0.00    -0.000 C 
BRANCH  10  11
ATOM     11  C   UNL     1     -98.184  71.097  23.799  1.00  0.00    -0.000 C 
BRANCH  11  12
ATOM     12  C   UNL     1     -98.936  70.338  22.695  1.00  0.00    -0.000 C 
BRANCH  12  13
ATOM     13  C   UNL     1     -99.865  69.277  23.296  1.00  0.00    -0.003 C 
ATOM     14  C   UNL     1     -99.074  68.226  24.069  1.00  0.00     0.004 C 
ENDBRANCH  12  13
ENDBRANCH  11  12
ENDBRANCH  10  11
ENDBRANCH   9  10
ENDBRANCH   1   9
TORSDOF 10
ENDMDL
MODEL 9
REMARK VINA RESULT:    -3.365      1.713      2.397
REMARK INTER + INTRA:          -6.224
REMARK INTER:                  -5.614
REMARK INTRA:                  -0.610
REMARK UNBOUND:                -0.892
REMARK SMILES CCCCCCCCCCCC(=O)[O-]
REMARK SMILES IDX 7 1 8 2 9 3 10 4 11 5 12 6 13 7 14 8 6 9 5 10 4 11 3 12 2 13
REMARK SMILES IDX 1 14
REMARK H PARENT
REMARK Flexibility Score: inf
ROOT
ATOM      1  C   UNL     1     -99.017  69.124  23.604  1.00  0.00     0.000 C 
ENDROOT
BRANCH   1   2
ATOM      2  C   UNL     1     -99.766  69.302  24.938  1.00  0.00     0.000 C 
BRANCH   2   3
ATOM      3  C   UNL     1     -98.920  69.051  26.200  1.00  0.00     0.000 C 
BRANCH   3   4
ATOM      4  C   UNL     1     -98.765  70.304  27.079  1.00  0.00     0.006 C 
BRANCH   4   5
ATOM      5  C   UNL     1     -98.257  69.965  28.486  1.00  0.00     0.053 C 
BRANCH   5   6
ATOM      6  C   UNL     1     -99.063  68.876  29.125  1.00  0.00     0.041 C 
ATOM      7  O   UNL     1    -100.291  69.044  29.345  1.00  0.00    -0.550 OA
ATOM      8  O   UNL     1     -98.453  67.686  29.502  1.00  0.00    -0.550 OA
ENDBRANCH   5   6
ENDBRANCH   4   5
ENDBRANCH   3   4
ENDBRANCH   2   3
ENDBRANCH   1   2
BRANCH   1   9
ATOM      9  C   UNL     1     -99.282  70.266  22.611  1.00  0.00     0.000 C 
BRANCH   9  10
ATOM     10  C   UNL     1     -98.017  71.113  22.398  1.00  0.00    -0.000 C 
BRANCH  10  11
ATOM     11  C   UNL     1     -97.527  71.781  23.692  1.00  0.00    -0.000 C 
BRANCH  11  12
ATOM     12  C   UNL     1     -96.759  73.086  23.431  1.00  0.00    -0.000 C 
BRANCH  12  13
ATOM     13  C   UNL     1     -95.356  72.797  22.888  1.00  0.00    -0.003 C 
ATOM     14  C   UNL     1     -95.129  73.491  21.548  1.00  0.00     0.004 C 
ENDBRANCH  12  13
ENDBRANCH  11  12
ENDBRANCH  10  11
ENDBRANCH   9  10
ENDBRANCH   1   9
TORSDOF 10
ENDMDL
