MODEL 1
REMARK VINA RESULT:    -0.082      0.000      0.000
REMARK INTER + INTRA:          -0.386
REMARK INTER:                  -0.097
REMARK INTRA:                  -0.289
REMARK UNBOUND:                -0.289
REMARK SMILES O=c1c(O)c(-c2ccc(O)cc2)oc2cc(O)cc(O)c12
REMARK SMILES IDX 5 1 3 2 2 3 1 4 21 5 19 6 18 7 16 8 15 9 14 10 13 11 6 12
REMARK SMILES IDX 7 13 8 14 9 15 12 16 11 17 10 18 4 20 20 22 17 24
REMARK H PARENT 10 19 4 21 20 23 17 25
REMARK Flexibility Score: inf
ROOT
ATOM      1  C   UNL     1     187.206 196.897 200.907  1.00  0.00     0.180 A 
ATOM      2  C   UNL     1     187.202 198.302 200.963  1.00  0.00     0.208 A 
ATOM      3  C   UNL     1     186.878 199.029 199.806  1.00  0.00     0.238 A 
ATOM      4  O   UNL     1     186.930 200.286 199.848  1.00  0.00    -0.285 OA
ATOM      5  C   UNL     1     186.546 198.343 198.613  1.00  0.00     0.111 A 
ATOM      6  C   UNL     1     186.162 198.978 197.393  1.00  0.00     0.134 A 
ATOM      7  C   UNL     1     185.982 198.205 196.240  1.00  0.00     0.093 A 
ATOM      8  C   UNL     1     186.107 196.817 196.275  1.00  0.00     0.123 A 
ATOM      9  C   UNL     1     186.424 196.181 197.476  1.00  0.00     0.094 A 
ATOM     10  C   UNL     1     186.645 196.927 198.636  1.00  0.00     0.146 A 
ATOM     11  O   UNL     1     186.954 196.285 199.756  1.00  0.00    -0.452 OA
ENDROOT
BRANCH   1  12
ATOM     12  C   UNL     1     187.513 196.062 202.090  1.00  0.00     0.021 A 
ATOM     13  C   UNL     1     186.478 195.697 202.966  1.00  0.00     0.016 A 
ATOM     14  C   UNL     1     186.749 194.928 204.102  1.00  0.00     0.047 A 
ATOM     15  C   UNL     1     188.059 194.528 204.385  1.00  0.00     0.115 A 
ATOM     16  C   UNL     1     188.832 195.674 202.391  1.00  0.00     0.016 A 
ATOM     17  C   UNL     1     189.100 194.906 203.528  1.00  0.00     0.047 A 
BRANCH  15  18
ATOM     18  O   UNL     1     188.314 193.762 205.520  1.00  0.00    -0.508 OA
ATOM     19  H   UNL     1     188.175 194.136 206.452  1.00  0.00     0.293 HD
ENDBRANCH  15  18
ENDBRANCH   1  12
BRANCH   2  20
ATOM     20  O   UNL     1     187.555 198.959 202.145  1.00  0.00    -0.502 OA
ATOM     21  H   UNL     1     188.240 199.705 202.169  1.00  0.00     0.293 HD
ENDBRANCH   2  20
BRANCH   6  22
ATOM     22  O   UNL     1     185.920 200.350 197.270  1.00  0.00    -0.507 OA
ATOM     23  H   UNL     1     185.207 200.855 197.775  1.00  0.00     0.293 HD
ENDBRANCH   6  22
BRANCH   8  24
ATOM     24  O   UNL     1     185.905 196.079 195.112  1.00  0.00    -0.508 OA
ATOM     25  H   UNL     1     185.077 195.508 194.983  1.00  0.00     0.293 HD
ENDBRANCH   8  24
TORSDOF 5
ENDMDL
MODEL 2
REMARK VINA RESULT:    -0.066      2.886      4.375
REMARK INTER + INTRA:          -0.366
REMARK INTER:                  -0.066
REMARK INTRA:                  -0.300
REMARK UNBOUND:                -0.289
REMARK SMILES O=c1c(O)c(-c2ccc(O)cc2)oc2cc(O)cc(O)c12
REMARK SMILES IDX 5 1 3 2 2 3 1 4 21 5 19 6 18 7 16 8 15 9 14 10 13 11 6 12
REMARK SMILES IDX 7 13 8 14 9 15 12 16 11 17 10 18 4 20 20 22 17 24
REMARK H PARENT 10 19 4 21 20 23 17 25
REMARK Flexibility Score: inf
ROOT
ATOM      1  C   UNL     1     187.534 199.512 201.734  1.00  0.00     0.180 A 
ATOM      2  C   UNL     1     187.196 198.147 201.698  1.00  0.00     0.208 A 
ATOM      3  C   UNL     1     186.696 197.600 200.505  1.00  0.00     0.238 A 
ATOM      4  O   UNL     1     186.346 196.391 200.495  1.00  0.00    -0.285 OA
ATOM      5  C   UNL     1     186.556 198.419 199.360  1.00  0.00     0.111 A 
ATOM      6  C   UNL     1     186.099 197.962 198.087  1.00  0.00     0.134 A 
ATOM      7  C   UNL     1     185.875 198.887 197.060  1.00  0.00     0.093 A 
ATOM      8  C   UNL     1     186.153 200.241 197.237  1.00  0.00     0.123 A 
ATOM      9  C   UNL     1     186.657 200.691 198.458  1.00  0.00     0.094 A 
ATOM     10  C   UNL     1     186.857 199.798 199.514  1.00  0.00     0.146 A 
ATOM     11  O   UNL     1     187.328 200.267 200.662  1.00  0.00    -0.452 OA
ENDROOT
BRANCH   1  12
ATOM     12  C   UNL     1     188.088 200.154 202.947  1.00  0.00     0.021 A 
ATOM     13  C   UNL     1     187.223 200.799 203.846  1.00  0.00     0.016 A 
ATOM     14  C   UNL     1     187.727 201.432 204.986  1.00  0.00     0.047 A 
ATOM     15  C   UNL     1     189.104 201.442 205.234  1.00  0.00     0.115 A 
ATOM     16  C   UNL     1     189.474 200.185 203.192  1.00  0.00     0.016 A 
ATOM     17  C   UNL     1     189.976 200.820 204.332  1.00  0.00     0.047 A 
BRANCH  15  18
ATOM     18  O   UNL     1     189.592 202.076 206.374  1.00  0.00    -0.508 OA
ATOM     19  H   UNL     1     190.152 202.919 206.311  1.00  0.00     0.293 HD
ENDBRANCH  15  18
ENDBRANCH   1  12
BRANCH   2  20
ATOM     20  O   UNL     1     187.322 197.362 202.847  1.00  0.00    -0.502 OA
ATOM     21  H   UNL     1     186.599 197.313 203.555  1.00  0.00     0.293 HD
ENDBRANCH   2  20
BRANCH   6  22
ATOM     22  O   UNL     1     185.878 196.617 197.775  1.00  0.00    -0.507 OA
ATOM     23  H   UNL     1     186.603 195.919 197.694  1.00  0.00     0.293 HD
ENDBRANCH   6  22
BRANCH   8  24
ATOM     24  O   UNL     1     185.933 201.131 196.189  1.00  0.00    -0.508 OA
ATOM     25  H   UNL     1     185.013 201.251 195.780  1.00  0.00     0.293 HD
ENDBRANCH   8  24
TORSDOF 5
ENDMDL
MODEL 3
REMARK VINA RESULT:    -0.061      4.910      5.867
REMARK INTER + INTRA:          -0.361
REMARK INTER:                  -0.061
REMARK INTRA:                  -0.300
REMARK UNBOUND:                -0.289
REMARK SMILES O=c1c(O)c(-c2ccc(O)cc2)oc2cc(O)cc(O)c12
REMARK SMILES IDX 5 1 3 2 2 3 1 4 21 5 19 6 18 7 16 8 15 9 14 10 13 11 6 12
REMARK SMILES IDX 7 13 8 14 9 15 12 16 11 17 10 18 4 20 20 22 17 24
REMARK H PARENT 10 19 4 21 20 23 17 25
REMARK Flexibility Score: inf
ROOT
ATOM      1  C   UNL     1     190.772 198.180 197.167  1.00  0.00     0.180 A 
ATOM      2  C   UNL     1     190.239 199.438 197.501  1.00  0.00     0.208 A 
ATOM      3  C   UNL     1     188.869 199.674 197.296  1.00  0.00     0.238 A 
ATOM      4  O   UNL     1     188.410 200.818 197.547  1.00  0.00    -0.285 OA
ATOM      5  C   UNL     1     188.048 198.645 196.777  1.00  0.00     0.111 A 
ATOM      6  C   UNL     1     186.641 198.760 196.568  1.00  0.00     0.134 A 
ATOM      7  C   UNL     1     185.951 197.723 195.928  1.00  0.00     0.093 A 
ATOM      8  C   UNL     1     186.602 196.551 195.548  1.00  0.00     0.123 A 
ATOM      9  C   UNL     1     187.967 196.403 195.801  1.00  0.00     0.094 A 
ATOM     10  C   UNL     1     188.690 197.434 196.406  1.00  0.00     0.146 A 
ATOM     11  O   UNL     1     189.988 197.259 196.621  1.00  0.00    -0.452 OA
ENDROOT
BRANCH   1  12
ATOM     12  C   UNL     1     192.199 197.849 197.377  1.00  0.00     0.021 A 
ATOM     13  C   UNL     1     193.111 198.020 196.322  1.00  0.00     0.016 A 
ATOM     14  C   UNL     1     194.459 197.692 196.490  1.00  0.00     0.047 A 
ATOM     15  C   UNL     1     194.911 197.175 197.709  1.00  0.00     0.115 A 
ATOM     16  C   UNL     1     192.656 197.310 198.594  1.00  0.00     0.016 A 
ATOM     17  C   UNL     1     194.005 196.981 198.758  1.00  0.00     0.047 A 
BRANCH  15  18
ATOM     18  O   UNL     1     196.257 196.853 197.862  1.00  0.00    -0.508 OA
ATOM     19  H   UNL     1     196.923 197.524 198.229  1.00  0.00     0.293 HD
ENDBRANCH  15  18
ENDBRANCH   1  12
BRANCH   2  20
ATOM     20  O   UNL     1     191.072 200.446 197.992  1.00  0.00    -0.502 OA
ATOM     21  H   UNL     1     191.797 200.875 197.429  1.00  0.00     0.293 HD
ENDBRANCH   2  20
BRANCH   6  22
ATOM     22  O   UNL     1     185.875 199.850 196.993  1.00  0.00    -0.507 OA
ATOM     23  H   UNL     1     184.974 199.780 197.441  1.00  0.00     0.293 HD
ENDBRANCH   6  22
BRANCH   8  24
ATOM     24  O   UNL     1     185.881 195.534 194.927  1.00  0.00    -0.508 OA
ATOM     25  H   UNL     1     185.614 195.594 193.950  1.00  0.00     0.293 HD
ENDBRANCH   8  24
TORSDOF 5
ENDMDL
MODEL 4
REMARK VINA RESULT:    -0.061      2.881      3.305
REMARK INTER + INTRA:          -0.361
REMARK INTER:                  -0.072
REMARK INTRA:                  -0.289
REMARK UNBOUND:                -0.289
REMARK SMILES O=c1c(O)c(-c2ccc(O)cc2)oc2cc(O)cc(O)c12
REMARK SMILES IDX 5 1 3 2 2 3 1 4 21 5 19 6 18 7 16 8 15 9 14 10 13 11 6 12
REMARK SMILES IDX 7 13 8 14 9 15 12 16 11 17 10 18 4 20 20 22 17 24
REMARK H PARENT 10 19 4 21 20 23 17 25
REMARK Flexibility Score: inf
ROOT
ATOM      1  C   UNL     1     189.560 195.977 199.580  1.00  0.00     0.180 A 
ATOM      2  C   UNL     1     189.237 197.160 200.269  1.00  0.00     0.208 A 
ATOM      3  C   UNL     1     188.228 197.992 199.758  1.00  0.00     0.238 A 
ATOM      4  O   UNL     1     187.982 199.076 200.349  1.00  0.00    -0.285 OA
ATOM      5  C   UNL     1     187.543 197.624 198.575  1.00  0.00     0.111 A 
ATOM      6  C   UNL     1     186.477 198.371 197.991  1.00  0.00     0.134 A 
ATOM      7  C   UNL     1     185.960 197.981 196.749  1.00  0.00     0.093 A 
ATOM      8  C   UNL     1     186.425 196.837 196.102  1.00  0.00     0.123 A 
ATOM      9  C   UNL     1     187.427 196.066 196.693  1.00  0.00     0.094 A 
ATOM     10  C   UNL     1     187.987 196.449 197.914  1.00  0.00     0.146 A 
ATOM     11  O   UNL     1     188.945 195.694 198.438  1.00  0.00    -0.452 OA
ENDROOT
BRANCH   1  12
ATOM     12  C   UNL     1     190.594 195.038 200.069  1.00  0.00     0.021 A 
ATOM     13  C   UNL     1     190.236 194.024 200.972  1.00  0.00     0.016 A 
ATOM     14  C   UNL     1     191.201 193.140 201.464  1.00  0.00     0.047 A 
ATOM     15  C   UNL     1     192.538 193.268 201.073  1.00  0.00     0.115 A 
ATOM     16  C   UNL     1     191.944 195.174 199.695  1.00  0.00     0.016 A 
ATOM     17  C   UNL     1     192.907 194.290 200.190  1.00  0.00     0.047 A 
BRANCH  15  18
ATOM     18  O   UNL     1     193.488 192.380 201.571  1.00  0.00    -0.508 OA
ATOM     19  H   UNL     1     194.315 192.708 202.056  1.00  0.00     0.293 HD
ENDBRANCH  15  18
ENDBRANCH   1  12
BRANCH   2  20
ATOM     20  O   UNL     1     189.941 197.515 201.422  1.00  0.00    -0.502 OA
ATOM     21  H   UNL     1     190.940 197.373 201.516  1.00  0.00     0.293 HD
ENDBRANCH   2  20
BRANCH   6  22
ATOM     22  O   UNL     1     185.875 199.478 198.597  1.00  0.00    -0.507 OA
ATOM     23  H   UNL     1     185.679 199.557 199.584  1.00  0.00     0.293 HD
ENDBRANCH   6  22
BRANCH   8  24
ATOM     24  O   UNL     1     185.877 196.470 194.876  1.00  0.00    -0.508 OA
ATOM     25  H   UNL     1     186.334 196.702 194.001  1.00  0.00     0.293 HD
ENDBRANCH   8  24
TORSDOF 5
ENDMDL
MODEL 5
REMARK VINA RESULT:    -0.055      4.385      5.900
REMARK INTER + INTRA:          -0.353
REMARK INTER:                  -0.053
REMARK INTRA:                  -0.300
REMARK UNBOUND:                -0.289
REMARK SMILES O=c1c(O)c(-c2ccc(O)cc2)oc2cc(O)cc(O)c12
REMARK SMILES IDX 5 1 3 2 2 3 1 4 21 5 19 6 18 7 16 8 15 9 14 10 13 11 6 12
REMARK SMILES IDX 7 13 8 14 9 15 12 16 11 17 10 18 4 20 20 22 17 24
REMARK H PARENT 10 19 4 21 20 23 17 25
REMARK Flexibility Score: inf
ROOT
ATOM      1  C   UNL     1     190.521 195.332 197.816  1.00  0.00     0.180 A 
ATOM      2  C   UNL     1     189.941 194.146 197.332  1.00  0.00     0.208 A 
ATOM      3  C   UNL     1     188.621 194.179 196.855  1.00  0.00     0.238 A 
ATOM      4  O   UNL     1     188.090 193.104 196.473  1.00  0.00    -0.285 OA
ATOM      5  C   UNL     1     187.903 195.399 196.852  1.00  0.00     0.111 A 
ATOM      6  C   UNL     1     186.575 195.556 196.354  1.00  0.00     0.134 A 
ATOM      7  C   UNL     1     185.916 196.781 196.520  1.00  0.00     0.093 A 
ATOM      8  C   UNL     1     186.557 197.870 197.107  1.00  0.00     0.123 A 
ATOM      9  C   UNL     1     187.876 197.745 197.544  1.00  0.00     0.094 A 
ATOM     10  C   UNL     1     188.549 196.526 197.424  1.00  0.00     0.146 A 
ATOM     11  O   UNL     1     189.799 196.445 197.861  1.00  0.00    -0.452 OA
ENDROOT
BRANCH   1  12
ATOM     12  C   UNL     1     191.915 195.382 198.313  1.00  0.00     0.021 A 
ATOM     13  C   UNL     1     192.166 195.221 199.685  1.00  0.00     0.016 A 
ATOM     14  C   UNL     1     193.472 195.287 200.179  1.00  0.00     0.047 A 
ATOM     15  C   UNL     1     194.542 195.530 199.311  1.00  0.00     0.115 A 
ATOM     16  C   UNL     1     192.993 195.646 197.447  1.00  0.00     0.016 A 
ATOM     17  C   UNL     1     194.298 195.713 197.944  1.00  0.00     0.047 A 
BRANCH  15  18
ATOM     18  O   UNL     1     195.838 195.593 199.817  1.00  0.00    -0.508 OA
ATOM     19  H   UNL     1     196.638 195.322 199.257  1.00  0.00     0.293 HD
ENDBRANCH  15  18
ENDBRANCH   1  12
BRANCH   2  20
ATOM     20  O   UNL     1     190.660 192.949 197.364  1.00  0.00    -0.502 OA
ATOM     21  H   UNL     1     190.490 192.194 196.710  1.00  0.00     0.293 HD
ENDBRANCH   2  20
BRANCH   6  22
ATOM     22  O   UNL     1     185.875 194.559 195.668  1.00  0.00    -0.507 OA
ATOM     23  H   UNL     1     184.945 194.664 195.292  1.00  0.00     0.293 HD
ENDBRANCH   6  22
BRANCH   8  24
ATOM     24  O   UNL     1     185.875 199.077 197.243  1.00  0.00    -0.508 OA
ATOM     25  H   UNL     1     185.810 199.552 198.137  1.00  0.00     0.293 HD
ENDBRANCH   8  24
TORSDOF 5
ENDMDL
MODEL 6
REMARK VINA RESULT:    -0.049      2.834      7.016
REMARK INTER + INTRA:          -0.346
REMARK INTER:                  -0.058
REMARK INTRA:                  -0.288
REMARK UNBOUND:                -0.289
REMARK SMILES O=c1c(O)c(-c2ccc(O)cc2)oc2cc(O)cc(O)c12
REMARK SMILES IDX 5 1 3 2 2 3 1 4 21 5 19 6 18 7 16 8 15 9 14 10 13 11 6 12
REMARK SMILES IDX 7 13 8 14 9 15 12 16 11 17 10 18 4 20 20 22 17 24
REMARK H PARENT 10 19 4 21 20 23 17 25
REMARK Flexibility Score: inf
ROOT
ATOM      1  C   UNL     1     187.850 196.337 198.185  1.00  0.00     0.180 A 
ATOM      2  C   UNL     1     189.024 195.696 197.752  1.00  0.00     0.208 A 
ATOM      3  C   UNL     1     189.442 194.525 198.406  1.00  0.00     0.238 A 
ATOM      4  O   UNL     1     190.523 193.988 198.049  1.00  0.00    -0.285 OA
ATOM      5  C   UNL     1     188.673 194.001 199.471  1.00  0.00     0.111 A 
ATOM      6  C   UNL     1     188.980 192.799 200.178  1.00  0.00     0.134 A 
ATOM      7  C   UNL     1     188.221 192.444 201.300  1.00  0.00     0.093 A 
ATOM      8  C   UNL     1     187.128 193.210 201.702  1.00  0.00     0.123 A 
ATOM      9  C   UNL     1     186.783 194.355 200.983  1.00  0.00     0.094 A 
ATOM     10  C   UNL     1     187.542 194.755 199.881  1.00  0.00     0.146 A 
ATOM     11  O   UNL     1     187.187 195.856 199.230  1.00  0.00    -0.452 OA
ENDROOT
BRANCH   1  12
ATOM     12  C   UNL     1     187.333 197.560 197.532  1.00  0.00     0.021 A 
ATOM     13  C   UNL     1     186.445 197.444 196.449  1.00  0.00     0.016 A 
ATOM     14  C   UNL     1     185.963 198.585 195.803  1.00  0.00     0.047 A 
ATOM     15  C   UNL     1     186.372 199.856 196.219  1.00  0.00     0.115 A 
ATOM     16  C   UNL     1     187.757 198.841 197.933  1.00  0.00     0.016 A 
ATOM     17  C   UNL     1     187.274 199.980 197.283  1.00  0.00     0.047 A 
BRANCH  15  18
ATOM     18  O   UNL     1     185.883 200.984 195.565  1.00  0.00    -0.508 OA
ATOM     19  H   UNL     1     185.763 201.002 194.559  1.00  0.00     0.293 HD
ENDBRANCH  15  18
ENDBRANCH   1  12
BRANCH   2  20
ATOM     20  O   UNL     1     189.780 196.244 196.713  1.00  0.00    -0.502 OA
ATOM     21  H   UNL     1     189.895 195.779 195.819  1.00  0.00     0.293 HD
ENDBRANCH   2  20
BRANCH   6  22
ATOM     22  O   UNL     1     189.994 191.911 199.803  1.00  0.00    -0.507 OA
ATOM     23  H   UNL     1     189.996 191.366 198.955  1.00  0.00     0.293 HD
ENDBRANCH   6  22
BRANCH   8  24
ATOM     24  O   UNL     1     186.387 192.819 202.814  1.00  0.00    -0.508 OA
ATOM     25  H   UNL     1     186.559 191.936 203.282  1.00  0.00     0.293 HD
ENDBRANCH   8  24
TORSDOF 5
ENDMDL
MODEL 7
REMARK VINA RESULT:    -0.046      2.150      7.071
REMARK INTER + INTRA:          -0.343
REMARK INTER:                  -0.055
REMARK INTRA:                  -0.288
REMARK UNBOUND:                -0.289
REMARK SMILES O=c1c(O)c(-c2ccc(O)cc2)oc2cc(O)cc(O)c12
REMARK SMILES IDX 5 1 3 2 2 3 1 4 21 5 19 6 18 7 16 8 15 9 14 10 13 11 6 12
REMARK SMILES IDX 7 13 8 14 9 15 12 16 11 17 10 18 4 20 20 22 17 24
REMARK H PARENT 10 19 4 21 20 23 17 25
REMARK Flexibility Score: inf
ROOT
ATOM      1  C   UNL     1     188.204 196.900 199.887  1.00  0.00     0.180 A 
ATOM      2  C   UNL     1     189.179 195.887 199.925  1.00  0.00     0.208 A 
ATOM      3  C   UNL     1     189.689 195.480 201.169  1.00  0.00     0.238 A 
ATOM      4  O   UNL     1     190.600 194.611 201.192  1.00  0.00    -0.285 OA
ATOM      5  C   UNL     1     189.207 196.077 202.358  1.00  0.00     0.111 A 
ATOM      6  C   UNL     1     189.624 195.713 203.674  1.00  0.00     0.134 A 
ATOM      7  C   UNL     1     189.176 196.460 204.771  1.00  0.00     0.093 A 
ATOM      8  C   UNL     1     188.279 197.514 204.607  1.00  0.00     0.123 A 
ATOM      9  C   UNL     1     187.820 197.841 203.331  1.00  0.00     0.094 A 
ATOM     10  C   UNL     1     188.275 197.137 202.213  1.00  0.00     0.146 A 
ATOM     11  O   UNL     1     187.821 197.485 201.015  1.00  0.00    -0.452 OA
ENDROOT
BRANCH   1  12
ATOM     12  C   UNL     1     187.602 197.366 198.618  1.00  0.00     0.021 A 
ATOM     13  C   UNL     1     186.448 196.732 198.126  1.00  0.00     0.016 A 
ATOM     14  C   UNL     1     185.876 197.141 196.918  1.00  0.00     0.047 A 
ATOM     15  C   UNL     1     186.457 198.176 196.178  1.00  0.00     0.115 A 
ATOM     16  C   UNL     1     188.193 198.393 197.859  1.00  0.00     0.016 A 
ATOM     17  C   UNL     1     187.619 198.799 196.651  1.00  0.00     0.047 A 
BRANCH  15  18
ATOM     18  O   UNL     1     185.875 198.573 194.977  1.00  0.00    -0.508 OA
ATOM     19  H   UNL     1     186.430 198.964 194.224  1.00  0.00     0.293 HD
ENDBRANCH  15  18
ENDBRANCH   1  12
BRANCH   2  20
ATOM     20  O   UNL     1     189.657 195.327 198.738  1.00  0.00    -0.502 OA
ATOM     21  H   UNL     1     189.236 194.508 198.314  1.00  0.00     0.293 HD
ENDBRANCH   2  20
BRANCH   6  22
ATOM     22  O   UNL     1     190.446 194.618 203.957  1.00  0.00    -0.507 OA
ATOM     23  H   UNL     1     190.247 193.665 203.689  1.00  0.00     0.293 HD
ENDBRANCH   6  22
BRANCH   8  24
ATOM     24  O   UNL     1     187.844 198.225 205.722  1.00  0.00    -0.508 OA
ATOM     25  H   UNL     1     188.053 197.914 206.664  1.00  0.00     0.293 HD
ENDBRANCH   8  24
TORSDOF 5
ENDMDL
MODEL 8
REMARK VINA RESULT:    -0.034      3.389      7.613
REMARK INTER + INTRA:          -0.329
REMARK INTER:                  -0.041
REMARK INTRA:                  -0.288
REMARK UNBOUND:                -0.289
REMARK SMILES O=c1c(O)c(-c2ccc(O)cc2)oc2cc(O)cc(O)c12
REMARK SMILES IDX 5 1 3 2 2 3 1 4 21 5 19 6 18 7 16 8 15 9 14 10 13 11 6 12
REMARK SMILES IDX 7 13 8 14 9 15 12 16 11 17 10 18 4 20 20 22 17 24
REMARK H PARENT 10 19 4 21 20 23 17 25
REMARK Flexibility Score: inf
ROOT
ATOM      1  C   UNL     1     189.304 195.761 198.673  1.00  0.00     0.180 A 
ATOM      2  C   UNL     1     189.503 194.385 198.463  1.00  0.00     0.208 A 
ATOM      3  C   UNL     1     190.325 193.672 199.351  1.00  0.00     0.238 A 
ATOM      4  O   UNL     1     190.542 192.452 199.126  1.00  0.00    -0.285 OA
ATOM      5  C   UNL     1     190.924 194.339 200.446  1.00  0.00     0.111 A 
ATOM      6  C   UNL     1     191.741 193.707 201.431  1.00  0.00     0.134 A 
ATOM      7  C   UNL     1     192.387 194.489 202.396  1.00  0.00     0.093 A 
ATOM      8  C   UNL     1     192.196 195.868 202.453  1.00  0.00     0.123 A 
ATOM      9  C   UNL     1     191.351 196.489 201.531  1.00  0.00     0.094 A 
ATOM     10  C   UNL     1     190.720 195.741 200.534  1.00  0.00     0.146 A 
ATOM     11  O   UNL     1     189.933 196.370 199.670  1.00  0.00    -0.452 OA
ENDROOT
BRANCH   1  12
ATOM     12  C   UNL     1     188.433 196.574 197.794  1.00  0.00     0.021 A 
ATOM     13  C   UNL     1     187.058 196.656 198.068  1.00  0.00     0.016 A 
ATOM     14  C   UNL     1     186.214 197.400 197.239  1.00  0.00     0.047 A 
ATOM     15  C   UNL     1     186.729 198.058 196.117  1.00  0.00     0.115 A 
ATOM     16  C   UNL     1     188.942 197.221 196.653  1.00  0.00     0.016 A 
ATOM     17  C   UNL     1     188.095 197.963 195.825  1.00  0.00     0.047 A 
BRANCH  15  18
ATOM     18  O   UNL     1     185.875 198.795 195.301  1.00  0.00    -0.508 OA
ATOM     19  H   UNL     1     185.212 199.456 195.689  1.00  0.00     0.293 HD
ENDBRANCH  15  18
ENDBRANCH   1  12
BRANCH   2  20
ATOM     20  O   UNL     1     188.920 193.751 197.363  1.00  0.00    -0.502 OA
ATOM     21  H   UNL     1     189.192 192.822 197.062  1.00  0.00     0.293 HD
ENDBRANCH   2  20
BRANCH   6  22
ATOM     22  O   UNL     1     191.926 192.324 201.521  1.00  0.00    -0.507 OA
ATOM     23  H   UNL     1     192.523 191.867 202.193  1.00  0.00     0.293 HD
ENDBRANCH   6  22
BRANCH   8  24
ATOM     24  O   UNL     1     192.843 196.612 203.436  1.00  0.00    -0.508 OA
ATOM     25  H   UNL     1     193.803 196.421 203.700  1.00  0.00     0.293 HD
ENDBRANCH   8  24
TORSDOF 5
ENDMDL
MODEL 9
REMARK VINA RESULT:    -0.033      5.427      6.815
REMARK INTER + INTRA:          -0.329
REMARK INTER:                  -0.028
REMARK INTRA:                  -0.300
REMARK UNBOUND:                -0.289
REMARK SMILES O=c1c(O)c(-c2ccc(O)cc2)oc2cc(O)cc(O)c12
REMARK SMILES IDX 5 1 3 2 2 3 1 4 21 5 19 6 18 7 16 8 15 9 14 10 13 11 6 12
REMARK SMILES IDX 7 13 8 14 9 15 12 16 11 17 10 18 4 20 20 22 17 24
REMARK H PARENT 10 19 4 21 20 23 17 25
REMARK Flexibility Score: inf
ROOT
ATOM      1  C   UNL     1     191.267 200.587 197.393  1.00  0.00     0.180 A 
ATOM      2  C   UNL     1     190.995 201.667 196.536  1.00  0.00     0.208 A 
ATOM      3  C   UNL     1     189.687 201.843 196.055  1.00  0.00     0.238 A 
ATOM      4  O   UNL     1     189.462 202.780 195.246  1.00  0.00    -0.285 OA
ATOM      5  C   UNL     1     188.665 200.948 196.451  1.00  0.00     0.111 A 
ATOM      6  C   UNL     1     187.297 201.055 196.058  1.00  0.00     0.134 A 
ATOM      7  C   UNL     1     186.398 200.039 196.404  1.00  0.00     0.093 A 
ATOM      8  C   UNL     1     186.800 198.954 197.181  1.00  0.00     0.123 A 
ATOM      9  C   UNL     1     188.122 198.869 197.621  1.00  0.00     0.094 A 
ATOM     10  C   UNL     1     189.052 199.849 197.263  1.00  0.00     0.146 A 
ATOM     11  O   UNL     1     190.301 199.727 197.692  1.00  0.00    -0.452 OA
ENDROOT
BRANCH   1  12
ATOM     12  C   UNL     1     192.614 200.350 197.959  1.00  0.00     0.021 A 
ATOM     13  C   UNL     1     193.498 199.478 197.301  1.00  0.00     0.016 A 
ATOM     14  C   UNL     1     194.766 199.222 197.830  1.00  0.00     0.047 A 
ATOM     15  C   UNL     1     195.163 199.821 199.030  1.00  0.00     0.115 A 
ATOM     16  C   UNL     1     193.011 200.933 199.176  1.00  0.00     0.016 A 
ATOM     17  C   UNL     1     194.280 200.674 199.703  1.00  0.00     0.047 A 
BRANCH  15  18
ATOM     18  O   UNL     1     196.430 199.557 199.544  1.00  0.00    -0.508 OA
ATOM     19  H   UNL     1     196.794 200.066 200.341  1.00  0.00     0.293 HD
ENDBRANCH  15  18
ENDBRANCH   1  12
BRANCH   2  20
ATOM     20  O   UNL     1     192.024 202.526 196.141  1.00  0.00    -0.502 OA
ATOM     21  H   UNL     1     192.741 202.249 195.480  1.00  0.00     0.293 HD
ENDBRANCH   2  20
BRANCH   6  22
ATOM     22  O   UNL     1     186.770 202.144 195.358  1.00  0.00    -0.507 OA
ATOM     23  H   UNL     1     187.145 203.081 195.384  1.00  0.00     0.293 HD
ENDBRANCH   6  22
BRANCH   8  24
ATOM     24  O   UNL     1     185.875 197.969 197.518  1.00  0.00    -0.508 OA
ATOM     25  H   UNL     1     186.142 197.153 198.057  1.00  0.00     0.293 HD
ENDBRANCH   8  24
TORSDOF 5
ENDMDL
