MODEL 1
REMARK VINA RESULT:    -4.514      0.000      0.000
REMARK INTER + INTRA:          -8.333
REMARK INTER:                  -7.680
REMARK INTRA:                  -0.652
REMARK UNBOUND:                -0.652
REMARK SMILES CCCCCCCCCCCCCC(=O)[O-]
REMARK SMILES IDX 8 1 9 2 10 3 11 4 12 5 13 6 14 7 15 8 16 9 7 10 6 11 5 12
REMARK SMILES IDX 4 13 3 14 2 15 1 16
REMARK H PARENT
REMARK Flexibility Score: inf
ROOT
ATOM      1  C   UNL     1      33.936  33.098  24.428  1.00  0.00     0.000 C 
ENDROOT
BRANCH   1   2
ATOM      2  C   UNL     1      34.456  32.266  25.609  1.00  0.00     0.000 C 
BRANCH   2   3
ATOM      3  C   UNL     1      35.827  32.745  26.113  1.00  0.00     0.000 C 
BRANCH   3   4
ATOM      4  C   UNL     1      35.771  34.156  26.727  1.00  0.00     0.000 C 
BRANCH   4   5
ATOM      5  C   UNL     1      36.602  34.272  28.014  1.00  0.00     0.006 C 
BRANCH   5   6
ATOM      6  C   UNL     1      37.323  35.621  28.132  1.00  0.00     0.053 C 
BRANCH   6   7
ATOM      7  C   UNL     1      36.826  36.377  29.322  1.00  0.00     0.041 C 
ATOM      8  O   UNL     1      35.867  35.928  30.004  1.00  0.00    -0.550 OA
ATOM      9  O   UNL     1      37.388  37.604  29.651  1.00  0.00    -0.550 OA
ENDBRANCH   6   7
ENDBRANCH   5   6
ENDBRANCH   4   5
ENDBRANCH   3   4
ENDBRANCH   2   3
ENDBRANCH   1   2
BRANCH   1  10
ATOM     10  C   UNL     1      33.633  32.205  23.218  1.00  0.00     0.000 C 
BRANCH  10  11
ATOM     11  C   UNL     1      34.615  31.031  23.139  1.00  0.00    -0.000 C 
BRANCH  11  12
ATOM     12  C   UNL     1      33.921  29.770  22.601  1.00  0.00    -0.000 C 
BRANCH  12  13
ATOM     13  C   UNL     1      32.621  30.084  21.844  1.00  0.00    -0.000 C 
BRANCH  13  14
ATOM     14  C   UNL     1      32.163  28.922  20.947  1.00  0.00    -0.000 C 
BRANCH  14  15
ATOM     15  C   UNL     1      33.157  28.628  19.812  1.00  0.00    -0.003 C 
ATOM     16  C   UNL     1      33.166  29.712  18.734  1.00  0.00     0.004 C 
ENDBRANCH  14  15
ENDBRANCH  13  14
ENDBRANCH  12  13
ENDBRANCH  11  12
ENDBRANCH  10  11
ENDBRANCH   1  10
TORSDOF 12
ENDMDL
MODEL 2
REMARK VINA RESULT:    -4.483      4.030      9.025
REMARK INTER + INTRA:          -8.281
REMARK INTER:                  -7.367
REMARK INTRA:                  -0.915
REMARK UNBOUND:                -0.652
REMARK SMILES CCCCCCCCCCCCCC(=O)[O-]
REMARK SMILES IDX 8 1 9 2 10 3 11 4 12 5 13 6 14 7 15 8 16 9 7 10 6 11 5 12
REMARK SMILES IDX 4 13 3 14 2 15 1 16
REMARK H PARENT
REMARK Flexibility Score: inf
ROOT
ATOM      1  C   UNL     1      36.160  33.745  25.774  1.00  0.00     0.000 C 
ENDROOT
BRANCH   1   2
ATOM      2  C   UNL     1      35.507  32.359  25.891  1.00  0.00     0.000 C 
BRANCH   2   3
ATOM      3  C   UNL     1      33.993  32.394  25.633  1.00  0.00     0.000 C 
BRANCH   3   4
ATOM      4  C   UNL     1      33.636  33.082  24.303  1.00  0.00     0.000 C 
BRANCH   4   5
ATOM      5  C   UNL     1      34.054  32.251  23.079  1.00  0.00     0.006 C 
BRANCH   5   6
ATOM      6  C   UNL     1      32.861  31.851  22.202  1.00  0.00     0.053 C 
BRANCH   6   7
ATOM      7  C   UNL     1      32.932  30.399  21.853  1.00  0.00     0.041 C 
ATOM      8  O   UNL     1      33.666  29.623  22.518  1.00  0.00    -0.550 OA
ATOM      9  O   UNL     1      32.227  29.910  20.760  1.00  0.00    -0.550 OA
ENDBRANCH   6   7
ENDBRANCH   5   6
ENDBRANCH   4   5
ENDBRANCH   3   4
ENDBRANCH   2   3
ENDBRANCH   1   2
BRANCH   1  10
ATOM     10  C   UNL     1      36.241  34.431  27.144  1.00  0.00     0.000 C 
BRANCH  10  11
ATOM     11  C   UNL     1      35.444  35.741  27.152  1.00  0.00    -0.000 C 
BRANCH  11  12
ATOM     12  C   UNL     1      35.105  36.169  28.588  1.00  0.00    -0.000 C 
BRANCH  12  13
ATOM     13  C   UNL     1      36.349  36.288  29.482  1.00  0.00    -0.000 C 
BRANCH  13  14
ATOM     14  C   UNL     1      37.048  37.652  29.344  1.00  0.00    -0.000 C 
BRANCH  14  15
ATOM     15  C   UNL     1      38.579  37.535  29.395  1.00  0.00    -0.003 C 
ATOM     16  C   UNL     1      39.109  36.327  28.621  1.00  0.00     0.004 C 
ENDBRANCH  14  15
ENDBRANCH  13  14
ENDBRANCH  12  13
ENDBRANCH  11  12
ENDBRANCH  10  11
ENDBRANCH   1  10
TORSDOF 12
ENDMDL
MODEL 3
REMARK VINA RESULT:    -4.481      1.464      2.429
REMARK INTER + INTRA:          -8.277
REMARK INTER:                  -7.514
REMARK INTRA:                  -0.763
REMARK UNBOUND:                -0.652
REMARK SMILES CCCCCCCCCCCCCC(=O)[O-]
REMARK SMILES IDX 8 1 9 2 10 3 11 4 12 5 13 6 14 7 15 8 16 9 7 10 6 11 5 12
REMARK SMILES IDX 4 13 3 14 2 15 1 16
REMARK H PARENT
REMARK Flexibility Score: inf
ROOT
ATOM      1  C   UNL     1      35.855  32.667  26.276  1.00  0.00     0.000 C 
ENDROOT
BRANCH   1   2
ATOM      2  C   UNL     1      36.233  34.036  26.864  1.00  0.00     0.000 C 
BRANCH   2   3
ATOM      3  C   UNL     1      35.121  35.082  26.688  1.00  0.00     0.000 C 
BRANCH   3   4
ATOM      4  C   UNL     1      35.084  36.104  27.839  1.00  0.00     0.000 C 
BRANCH   4   5
ATOM      5  C   UNL     1      35.879  35.637  29.069  1.00  0.00     0.006 C 
BRANCH   5   6
ATOM      6  C   UNL     1      36.551  36.797  29.813  1.00  0.00     0.053 C 
BRANCH   6   7
ATOM      7  C   UNL     1      37.459  37.551  28.894  1.00  0.00     0.041 C 
ATOM      8  O   UNL     1      38.428  36.968  28.342  1.00  0.00    -0.550 OA
ATOM      9  O   UNL     1      37.267  38.911  28.688  1.00  0.00    -0.550 OA
ENDBRANCH   6   7
ENDBRANCH   5   6
ENDBRANCH   4   5
ENDBRANCH   3   4
ENDBRANCH   2   3
ENDBRANCH   1   2
BRANCH   1  10
ATOM     10  C   UNL     1      34.412  32.672  25.756  1.00  0.00     0.000 C 
BRANCH  10  11
ATOM     11  C   UNL     1      34.321  32.016  24.374  1.00  0.00    -0.000 C 
BRANCH  11  12
ATOM     12  C   UNL     1      33.733  32.989  23.341  1.00  0.00    -0.000 C 
BRANCH  12  13
ATOM     13  C   UNL     1      32.834  32.288  22.310  1.00  0.00    -0.000 C 
BRANCH  13  14
ATOM     14  C   UNL     1      33.389  30.921  21.874  1.00  0.00    -0.000 C 
BRANCH  14  15
ATOM     15  C   UNL     1      32.395  30.131  21.009  1.00  0.00    -0.003 C 
ATOM     16  C   UNL     1      32.533  28.617  21.176  1.00  0.00     0.004 C 
ENDBRANCH  14  15
ENDBRANCH  13  14
ENDBRANCH  12  13
ENDBRANCH  11  12
ENDBRANCH  10  11
ENDBRANCH   1  10
TORSDOF 12
ENDMDL
MODEL 4
REMARK VINA RESULT:    -4.443      4.727      9.087
REMARK INTER + INTRA:          -8.213
REMARK INTER:                  -7.474
REMARK INTRA:                  -0.739
REMARK UNBOUND:                -0.652
REMARK SMILES CCCCCCCCCCCCCC(=O)[O-]
REMARK SMILES IDX 8 1 9 2 10 3 11 4 12 5 13 6 14 7 15 8 16 9 7 10 6 11 5 12
REMARK SMILES IDX 4 13 3 14 2 15 1 16
REMARK H PARENT
REMARK Flexibility Score: inf
ROOT
ATOM      1  C   UNL     1      33.662  32.589  23.283  1.00  0.00     0.000 C 
ENDROOT
BRANCH   1   2
ATOM      2  C   UNL     1      33.238  31.544  22.239  1.00  0.00     0.000 C 
BRANCH   2   3
ATOM      3  C   UNL     1      33.960  30.200  22.421  1.00  0.00     0.000 C 
BRANCH   3   4
ATOM      4  C   UNL     1      33.040  28.994  22.158  1.00  0.00     0.000 C 
BRANCH   4   5
ATOM      5  C   UNL     1      32.397  29.036  20.763  1.00  0.00     0.006 C 
BRANCH   5   6
ATOM      6  C   UNL     1      33.389  28.689  19.645  1.00  0.00     0.053 C 
BRANCH   6   7
ATOM      7  C   UNL     1      33.597  29.866  18.747  1.00  0.00     0.041 C 
ATOM      8  O   UNL     1      34.752  30.335  18.574  1.00  0.00    -0.550 OA
ATOM      9  O   UNL     1      32.508  30.478  18.139  1.00  0.00    -0.550 OA
ENDBRANCH   6   7
ENDBRANCH   5   6
ENDBRANCH   4   5
ENDBRANCH   3   4
ENDBRANCH   2   3
ENDBRANCH   1   2
BRANCH   1  10
ATOM     10  C   UNL     1      34.350  31.922  24.480  1.00  0.00     0.000 C 
BRANCH  10  11
ATOM     11  C   UNL     1      34.426  32.878  25.676  1.00  0.00    -0.000 C 
BRANCH  11  12
ATOM     12  C   UNL     1      35.791  32.779  26.374  1.00  0.00    -0.000 C 
BRANCH  12  13
ATOM     13  C   UNL     1      36.292  34.135  26.895  1.00  0.00    -0.000 C 
BRANCH  13  14
ATOM     14  C   UNL     1      35.209  35.227  26.838  1.00  0.00    -0.000 C 
BRANCH  14  15
ATOM     15  C   UNL     1      35.093  36.008  28.156  1.00  0.00    -0.003 C 
ATOM     16  C   UNL     1      36.265  35.752  29.104  1.00  0.00     0.004 C 
ENDBRANCH  14  15
ENDBRANCH  13  14
ENDBRANCH  12  13
ENDBRANCH  11  12
ENDBRANCH  10  11
ENDBRANCH   1  10
TORSDOF 12
ENDMDL
MODEL 5
REMARK VINA RESULT:    -4.440      6.257     10.007
REMARK INTER + INTRA:          -8.207
REMARK INTER:                  -7.511
REMARK INTRA:                  -0.696
REMARK UNBOUND:                -0.652
REMARK SMILES CCCCCCCCCCCCCC(=O)[O-]
REMARK SMILES IDX 8 1 9 2 10 3 11 4 12 5 13 6 14 7 15 8 16 9 7 10 6 11 5 12
REMARK SMILES IDX 4 13 3 14 2 15 1 16
REMARK H PARENT
REMARK Flexibility Score: inf
ROOT
ATOM      1  C   UNL     1      33.569  30.555  21.859  1.00  0.00     0.000 C 
ENDROOT
BRANCH   1   2
ATOM      2  C   UNL     1      32.684  29.300  21.870  1.00  0.00     0.000 C 
BRANCH   2   3
ATOM      3  C   UNL     1      32.641  28.594  20.506  1.00  0.00     0.000 C 
BRANCH   3   4
ATOM      4  C   UNL     1      33.029  29.527  19.345  1.00  0.00     0.000 C 
BRANCH   4   5
ATOM      5  C   UNL     1      33.199  28.774  18.015  1.00  0.00     0.006 C 
BRANCH   5   6
ATOM      6  C   UNL     1      34.199  27.616  18.117  1.00  0.00     0.053 C 
BRANCH   6   7
ATOM      7  C   UNL     1      33.887  26.565  17.100  1.00  0.00     0.041 C 
ATOM      8  O   UNL     1      34.771  25.739  16.751  1.00  0.00    -0.550 OA
ATOM      9  O   UNL     1      32.636  26.530  16.497  1.00  0.00    -0.550 OA
ENDBRANCH   6   7
ENDBRANCH   5   6
ENDBRANCH   4   5
ENDBRANCH   3   4
ENDBRANCH   2   3
ENDBRANCH   1   2
BRANCH   1  10
ATOM     10  C   UNL     1      32.740  31.815  22.141  1.00  0.00     0.000 C 
BRANCH  10  11
ATOM     11  C   UNL     1      33.405  32.684  23.215  1.00  0.00    -0.000 C 
BRANCH  11  12
ATOM     12  C   UNL     1      34.238  31.824  24.179  1.00  0.00    -0.000 C 
BRANCH  12  13
ATOM     13  C   UNL     1      34.242  32.377  25.613  1.00  0.00    -0.000 C 
BRANCH  13  14
ATOM     14  C   UNL     1      35.638  32.843  26.062  1.00  0.00    -0.000 C 
BRANCH  14  15
ATOM     15  C   UNL     1      35.651  34.314  26.506  1.00  0.00    -0.003 C 
ATOM     16  C   UNL     1      35.099  35.261  25.440  1.00  0.00     0.004 C 
ENDBRANCH  14  15
ENDBRANCH  13  14
ENDBRANCH  12  13
ENDBRANCH  11  12
ENDBRANCH  10  11
ENDBRANCH   1  10
TORSDOF 12
ENDMDL
MODEL 6
REMARK VINA RESULT:    -4.411      1.564      2.843
REMARK INTER + INTRA:          -8.157
REMARK INTER:                  -7.494
REMARK INTRA:                  -0.663
REMARK UNBOUND:                -0.652
REMARK SMILES CCCCCCCCCCCCCC(=O)[O-]
REMARK SMILES IDX 8 1 9 2 10 3 11 4 12 5 13 6 14 7 15 8 16 9 7 10 6 11 5 12
REMARK SMILES IDX 4 13 3 14 2 15 1 16
REMARK H PARENT
REMARK Flexibility Score: inf
ROOT
ATOM      1  C   UNL     1      32.909  31.782  22.272  1.00  0.00     0.000 C 
ENDROOT
BRANCH   1   2
ATOM      2  C   UNL     1      33.922  32.779  22.854  1.00  0.00     0.000 C 
BRANCH   2   3
ATOM      3  C   UNL     1      33.648  33.108  24.330  1.00  0.00     0.000 C 
BRANCH   3   4
ATOM      4  C   UNL     1      34.292  32.093  25.292  1.00  0.00     0.000 C 
BRANCH   4   5
ATOM      5  C   UNL     1      35.466  32.692  26.082  1.00  0.00     0.006 C 
BRANCH   5   6
ATOM      6  C   UNL     1      35.549  34.217  25.950  1.00  0.00     0.053 C 
BRANCH   6   7
ATOM      7  C   UNL     1      35.752  34.848  27.290  1.00  0.00     0.041 C 
ATOM      8  O   UNL     1      35.052  35.834  27.639  1.00  0.00    -0.550 OA
ATOM      9  O   UNL     1      36.752  34.382  28.135  1.00  0.00    -0.550 OA
ENDBRANCH   6   7
ENDBRANCH   5   6
ENDBRANCH   4   5
ENDBRANCH   3   4
ENDBRANCH   2   3
ENDBRANCH   1   2
BRANCH   1  10
ATOM     10  C   UNL     1      33.549  30.403  22.072  1.00  0.00     0.000 C 
BRANCH  10  11
ATOM     11  C   UNL     1      32.479  29.312  21.941  1.00  0.00    -0.000 C 
BRANCH  11  12
ATOM     12  C   UNL     1      32.622  28.560  20.608  1.00  0.00    -0.000 C 
BRANCH  12  13
ATOM     13  C   UNL     1      33.652  29.206  19.669  1.00  0.00    -0.000 C 
BRANCH  13  14
ATOM     14  C   UNL     1      33.176  29.246  18.206  1.00  0.00    -0.000 C 
BRANCH  14  15
ATOM     15  C   UNL     1      33.725  28.075  17.377  1.00  0.00    -0.003 C 
ATOM     16  C   UNL     1      32.632  27.115  16.906  1.00  0.00     0.004 C 
ENDBRANCH  14  15
ENDBRANCH  13  14
ENDBRANCH  12  13
ENDBRANCH  11  12
ENDBRANCH  10  11
ENDBRANCH   1  10
TORSDOF 12
ENDMDL
MODEL 7
REMARK VINA RESULT:    -4.402      2.488      3.625
REMARK INTER + INTRA:          -8.142
REMARK INTER:                  -6.301
REMARK INTRA:                  -1.841
REMARK UNBOUND:                -0.652
REMARK SMILES CCCCCCCCCCCCCC(=O)[O-]
REMARK SMILES IDX 8 1 9 2 10 3 11 4 12 5 13 6 14 7 15 8 16 9 7 10 6 11 5 12
REMARK SMILES IDX 4 13 3 14 2 15 1 16
REMARK H PARENT
REMARK Flexibility Score: inf
ROOT
ATOM      1  C   UNL     1      37.906  33.533  25.080  1.00  0.00     0.000 C 
ENDROOT
BRANCH   1   2
ATOM      2  C   UNL     1      37.596  32.797  26.392  1.00  0.00     0.000 C 
BRANCH   2   3
ATOM      3  C   UNL     1      36.805  33.664  27.384  1.00  0.00     0.000 C 
BRANCH   3   4
ATOM      4  C   UNL     1      36.346  34.999  26.768  1.00  0.00     0.000 C 
BRANCH   4   5
ATOM      5  C   UNL     1      35.418  35.791  27.703  1.00  0.00     0.006 C 
BRANCH   5   6
ATOM      6  C   UNL     1      35.941  35.850  29.143  1.00  0.00     0.053 C 
BRANCH   6   7
ATOM      7  C   UNL     1      37.067  36.828  29.251  1.00  0.00     0.041 C 
ATOM      8  O   UNL     1      36.840  38.065  29.185  1.00  0.00    -0.550 OA
ATOM      9  O   UNL     1      38.374  36.374  29.373  1.00  0.00    -0.550 OA
ENDBRANCH   6   7
ENDBRANCH   5   6
ENDBRANCH   4   5
ENDBRANCH   3   4
ENDBRANCH   2   3
ENDBRANCH   1   2
BRANCH   1  10
ATOM     10  C   UNL     1      37.720  32.605  23.873  1.00  0.00     0.000 C 
BRANCH  10  11
ATOM     11  C   UNL     1      36.994  31.316  24.275  1.00  0.00    -0.000 C 
BRANCH  11  12
ATOM     12  C   UNL     1      35.957  30.915  23.215  1.00  0.00    -0.000 C 
BRANCH  12  13
ATOM     13  C   UNL     1      34.511  31.085  23.705  1.00  0.00    -0.000 C 
BRANCH  13  14
ATOM     14  C   UNL     1      34.428  31.784  25.073  1.00  0.00    -0.000 C 
BRANCH  14  15
ATOM     15  C   UNL     1      33.682  33.125  25.003  1.00  0.00    -0.003 C 
ATOM     16  C   UNL     1      34.229  34.054  23.918  1.00  0.00     0.004 C 
ENDBRANCH  14  15
ENDBRANCH  13  14
ENDBRANCH  12  13
ENDBRANCH  11  12
ENDBRANCH  10  11
ENDBRANCH   1  10
TORSDOF 12
ENDMDL
MODEL 8
REMARK VINA RESULT:    -4.389      4.268      8.698
REMARK INTER + INTRA:          -8.120
REMARK INTER:                  -6.803
REMARK INTRA:                  -1.317
REMARK UNBOUND:                -0.652
REMARK SMILES CCCCCCCCCCCCCC(=O)[O-]
REMARK SMILES IDX 8 1 9 2 10 3 11 4 12 5 13 6 14 7 15 8 16 9 7 10 6 11 5 12
REMARK SMILES IDX 4 13 3 14 2 15 1 16
REMARK H PARENT
REMARK Flexibility Score: inf
ROOT
ATOM      1  C   UNL     1      36.478  34.181  27.196  1.00  0.00     0.000 C 
ENDROOT
BRANCH   1   2
ATOM      2  C   UNL     1      35.463  35.049  26.437  1.00  0.00     0.000 C 
BRANCH   2   3
ATOM      3  C   UNL     1      34.828  34.313  25.246  1.00  0.00     0.000 C 
BRANCH   3   4
ATOM      4  C   UNL     1      34.031  33.069  25.677  1.00  0.00     0.000 C 
BRANCH   4   5
ATOM      5  C   UNL     1      34.371  31.830  24.834  1.00  0.00     0.006 C 
BRANCH   5   6
ATOM      6  C   UNL     1      35.792  31.879  24.259  1.00  0.00     0.053 C 
BRANCH   6   7
ATOM      7  C   UNL     1      36.053  30.679  23.406  1.00  0.00     0.041 C 
ATOM      8  O   UNL     1      35.146  30.220  22.663  1.00  0.00    -0.550 OA
ATOM      9  O   UNL     1      37.282  30.034  23.468  1.00  0.00    -0.550 OA
ENDBRANCH   6   7
ENDBRANCH   5   6
ENDBRANCH   4   5
ENDBRANCH   3   4
ENDBRANCH   2   3
ENDBRANCH   1   2
BRANCH   1  10
ATOM     10  C   UNL     1      36.635  34.659  28.645  1.00  0.00     0.000 C 
BRANCH  10  11
ATOM     11  C   UNL     1      35.706  35.843  28.938  1.00  0.00    -0.000 C 
BRANCH  11  12
ATOM     12  C   UNL     1      36.420  36.904  29.790  1.00  0.00    -0.000 C 
BRANCH  12  13
ATOM     13  C   UNL     1      37.433  37.730  28.983  1.00  0.00    -0.000 C 
BRANCH  13  14
ATOM     14  C   UNL     1      38.882  37.515  29.454  1.00  0.00    -0.000 C 
BRANCH  14  15
ATOM     15  C   UNL     1      39.721  36.728  28.435  1.00  0.00    -0.003 C 
ATOM     16  C   UNL     1      39.162  36.814  27.014  1.00  0.00     0.004 C 
ENDBRANCH  14  15
ENDBRANCH  13  14
ENDBRANCH  12  13
ENDBRANCH  11  12
ENDBRANCH  10  11
ENDBRANCH   1  10
TORSDOF 12
ENDMDL
MODEL 9
REMARK VINA RESULT:    -4.354      2.111      2.975
REMARK INTER + INTRA:          -8.061
REMARK INTER:                  -6.962
REMARK INTRA:                  -1.100
REMARK UNBOUND:                -0.652
REMARK SMILES CCCCCCCCCCCCCC(=O)[O-]
REMARK SMILES IDX 8 1 9 2 10 3 11 4 12 5 13 6 14 7 15 8 16 9 7 10 6 11 5 12
REMARK SMILES IDX 4 13 3 14 2 15 1 16
REMARK H PARENT
REMARK Flexibility Score: inf
ROOT
ATOM      1  C   UNL     1      35.197  34.427  25.212  1.00  0.00     0.000 C 
ENDROOT
BRANCH   1   2
ATOM      2  C   UNL     1      35.136  35.756  25.979  1.00  0.00     0.000 C 
BRANCH   2   3
ATOM      3  C   UNL     1      35.104  35.560  27.503  1.00  0.00     0.000 C 
BRANCH   3   4
ATOM      4  C   UNL     1      36.420  34.978  28.052  1.00  0.00     0.000 C 
BRANCH   4   5
ATOM      5  C   UNL     1      36.829  35.610  29.392  1.00  0.00     0.006 C 
BRANCH   5   6
ATOM      6  C   UNL     1      36.557  37.118  29.442  1.00  0.00     0.053 C 
BRANCH   6   7
ATOM      7  C   UNL     1      37.832  37.885  29.298  1.00  0.00     0.041 C 
ATOM      8  O   UNL     1      38.201  38.677  30.205  1.00  0.00    -0.550 OA
ATOM      9  O   UNL     1      38.590  37.766  28.140  1.00  0.00    -0.550 OA
ENDBRANCH   6   7
ENDBRANCH   5   6
ENDBRANCH   4   5
ENDBRANCH   3   4
ENDBRANCH   2   3
ENDBRANCH   1   2
BRANCH   1  10
ATOM     10  C   UNL     1      34.042  33.504  25.621  1.00  0.00     0.000 C 
BRANCH  10  11
ATOM     11  C   UNL     1      34.421  32.030  25.435  1.00  0.00    -0.000 C 
BRANCH  11  12
ATOM     12  C   UNL     1      35.660  31.891  24.537  1.00  0.00    -0.000 C 
BRANCH  12  13
ATOM     13  C   UNL     1      35.303  31.560  23.080  1.00  0.00    -0.000 C 
BRANCH  13  14
ATOM     14  C   UNL     1      33.964  30.813  22.954  1.00  0.00    -0.000 C 
BRANCH  14  15
ATOM     15  C   UNL     1      32.899  31.636  22.213  1.00  0.00    -0.003 C 
ATOM     16  C   UNL     1      33.352  33.066  21.919  1.00  0.00     0.004 C 
ENDBRANCH  14  15
ENDBRANCH  13  14
ENDBRANCH  12  13
ENDBRANCH  11  12
ENDBRANCH  10  11
ENDBRANCH   1  10
TORSDOF 12
ENDMDL
