MODEL 1
REMARK VINA RESULT:    22.059      0.000      0.000
REMARK INTER + INTRA:          56.391
REMARK INTER:                  55.587
REMARK INTRA:                   0.804
REMARK UNBOUND:                 0.804
REMARK SMILES CCCCCCCCCCCCCCCCCCCCCCCCCCCC(=O)[O-]
REMARK SMILES IDX 15 1 16 2 17 3 18 4 19 5 20 6 21 7 22 8 23 9 24 10 25 11
REMARK SMILES IDX 26 12 27 13 28 14 29 15 30 16 14 17 13 18 12 19 11 20 10 21
REMARK SMILES IDX 9 22 8 23 7 24 6 25 5 26 4 27 3 28 2 29 1 30
REMARK H PARENT
REMARK Flexibility Score: inf
ROOT
ATOM      1  C   UNL     1       8.151  47.742  10.522  1.00  0.00     0.000 C 
ENDROOT
BRANCH   1   2
ATOM      2  C   UNL     1       7.279  47.162   9.398  1.00  0.00     0.000 C 
BRANCH   2   3
ATOM      3  C   UNL     1       7.728  45.755   8.960  1.00  0.00     0.000 C 
BRANCH   3   4
ATOM      4  C   UNL     1       9.261  45.560   8.946  1.00  0.00     0.000 C 
BRANCH   4   5
ATOM      5  C   UNL     1       9.722  44.269   9.650  1.00  0.00     0.000 C 
BRANCH   5   6
ATOM      6  C   UNL     1      10.846  43.555   8.876  1.00  0.00     0.000 C 
BRANCH   6   7
ATOM      7  C   UNL     1      12.251  44.028   9.292  1.00  0.00     0.000 C 
BRANCH   7   8
ATOM      8  C   UNL     1      13.233  42.889   9.647  1.00  0.00     0.000 C 
BRANCH   8   9
ATOM      9  C   UNL     1      14.700  43.137   9.243  1.00  0.00     0.000 C 
BRANCH   9  10
ATOM     10  C   UNL     1      15.263  44.443   9.827  1.00  0.00     0.000 C 
BRANCH  10  11
ATOM     11  C   UNL     1      15.011  45.624   8.878  1.00  0.00     0.000 C 
BRANCH  11  12
ATOM     12  C   UNL     1      15.653  46.935   9.371  1.00  0.00     0.006 C 
BRANCH  12  13
ATOM     13  C   UNL     1      14.702  47.851  10.162  1.00  0.00     0.053 C 
BRANCH  13  14
ATOM     14  C   UNL     1      14.336  47.268  11.494  1.00  0.00     0.041 C 
ATOM     15  O   UNL     1      13.190  46.780  11.683  1.00  0.00    -0.550 OA
ATOM     16  O   UNL     1      15.271  47.241  12.521  1.00  0.00    -0.550 OA
ENDBRANCH  13  14
ENDBRANCH  12  13
ENDBRANCH  11  12
ENDBRANCH  10  11
ENDBRANCH   9  10
ENDBRANCH   8   9
ENDBRANCH   7   8
ENDBRANCH   6   7
ENDBRANCH   5   6
ENDBRANCH   4   5
ENDBRANCH   3   4
ENDBRANCH   2   3
ENDBRANCH   1   2
BRANCH   1  17
ATOM     17  C   UNL     1       8.032  49.270  10.571  1.00  0.00     0.000 C 
BRANCH  17  18
ATOM     18  C   UNL     1       7.286  49.805   9.341  1.00  0.00     0.000 C 
BRANCH  18  19
ATOM     19  C   UNL     1       6.114  48.905   8.910  1.00  0.00     0.000 C 
BRANCH  19  20
ATOM     20  C   UNL     1       4.726  49.342   9.417  1.00  0.00     0.000 C 
BRANCH  20  21
ATOM     21  C   UNL     1       4.500  49.018  10.906  1.00  0.00     0.000 C 
BRANCH  21  22
ATOM     22  C   UNL     1       3.393  47.970  11.126  1.00  0.00    -0.000 C 
BRANCH  22  23
ATOM     23  C   UNL     1       3.556  47.115  12.396  1.00  0.00    -0.000 C 
BRANCH  23  24
ATOM     24  C   UNL     1       4.403  47.807  13.475  1.00  0.00    -0.000 C 
BRANCH  24  25
ATOM     25  C   UNL     1       3.574  48.080  14.738  1.00  0.00    -0.000 C 
BRANCH  25  26
ATOM     26  C   UNL     1       2.618  46.924  15.079  1.00  0.00    -0.000 C 
BRANCH  26  27
ATOM     27  C   UNL     1       3.114  46.075  16.259  1.00  0.00    -0.000 C 
BRANCH  27  28
ATOM     28  C   UNL     1       3.023  46.863  17.575  1.00  0.00    -0.000 C 
BRANCH  28  29
ATOM     29  C   UNL     1       3.106  45.951  18.810  1.00  0.00    -0.003 C 
ATOM     30  C   UNL     1       1.922  46.144  19.757  1.00  0.00     0.004 C 
ENDBRANCH  28  29
ENDBRANCH  27  28
ENDBRANCH  26  27
ENDBRANCH  25  26
ENDBRANCH  24  25
ENDBRANCH  23  24
ENDBRANCH  22  23
ENDBRANCH  21  22
ENDBRANCH  20  21
ENDBRANCH  19  20
ENDBRANCH  18  19
ENDBRANCH  17  18
ENDBRANCH   1  17
TORSDOF 26
ENDMDL
MODEL 2
REMARK VINA RESULT:    23.004      4.552     10.523
REMARK INTER + INTRA:          58.773
REMARK INTER:                  59.712
REMARK INTRA:                  -0.939
REMARK UNBOUND:                 0.804
REMARK SMILES CCCCCCCCCCCCCCCCCCCCCCCCCCCC(=O)[O-]
REMARK SMILES IDX 15 1 16 2 17 3 18 4 19 5 20 6 21 7 22 8 23 9 24 10 25 11
REMARK SMILES IDX 26 12 27 13 28 14 29 15 30 16 14 17 13 18 12 19 11 20 10 21
REMARK SMILES IDX 9 22 8 23 7 24 6 25 5 26 4 27 3 28 2 29 1 30
REMARK H PARENT
REMARK Flexibility Score: inf
ROOT
ATOM      1  C   UNL     1       2.025  46.042  18.651  1.00  0.00     0.000 C 
ENDROOT
BRANCH   1   2
ATOM      2  C   UNL     1       2.590  44.886  17.812  1.00  0.00     0.000 C 
BRANCH   2   3
ATOM      3  C   UNL     1       3.238  45.363  16.498  1.00  0.00     0.000 C 
BRANCH   3   4
ATOM      4  C   UNL     1       3.466  46.890  16.427  1.00  0.00     0.000 C 
BRANCH   4   5
ATOM      5  C   UNL     1       2.784  47.557  15.216  1.00  0.00     0.000 C 
BRANCH   5   6
ATOM      6  C   UNL     1       3.069  46.806  13.902  1.00  0.00     0.000 C 
BRANCH   6   7
ATOM      7  C   UNL     1       3.808  47.674  12.866  1.00  0.00     0.000 C 
BRANCH   7   8
ATOM      8  C   UNL     1       3.256  47.564  11.427  1.00  0.00     0.000 C 
BRANCH   8   9
ATOM      9  C   UNL     1       4.310  47.686  10.309  1.00  0.00     0.000 C 
BRANCH   9  10
ATOM     10  C   UNL     1       4.958  49.079  10.254  1.00  0.00     0.000 C 
BRANCH  10  11
ATOM     11  C   UNL     1       5.581  49.342   8.875  1.00  0.00     0.000 C 
BRANCH  11  12
ATOM     12  C   UNL     1       6.960  50.024   8.962  1.00  0.00     0.006 C 
BRANCH  12  13
ATOM     13  C   UNL     1       8.155  49.057   8.875  1.00  0.00     0.053 C 
BRANCH  13  14
ATOM     14  C   UNL     1       7.947  47.828   9.709  1.00  0.00     0.041 C 
ATOM     15  O   UNL     1       8.379  47.781  10.891  1.00  0.00    -0.550 OA
ATOM     16  O   UNL     1       7.255  46.743   9.186  1.00  0.00    -0.550 OA
ENDBRANCH  13  14
ENDBRANCH  12  13
ENDBRANCH  11  12
ENDBRANCH  10  11
ENDBRANCH   9  10
ENDBRANCH   8   9
ENDBRANCH   7   8
ENDBRANCH   6   7
ENDBRANCH   5   6
ENDBRANCH   4   5
ENDBRANCH   3   4
ENDBRANCH   2   3
ENDBRANCH   1   2
BRANCH   1  17
ATOM     17  C   UNL     1       1.824  45.610  20.108  1.00  0.00     0.000 C 
BRANCH  17  18
ATOM     18  C   UNL     1       2.444  44.229  20.366  1.00  0.00     0.000 C 
BRANCH  18  19
ATOM     19  C   UNL     1       2.764  43.983  21.851  1.00  0.00     0.000 C 
BRANCH  19  20
ATOM     20  C   UNL     1       2.231  42.658  22.430  1.00  0.00     0.000 C 
BRANCH  20  21
ATOM     21  C   UNL     1       3.252  41.509  22.344  1.00  0.00     0.000 C 
BRANCH  21  22
ATOM     22  C   UNL     1       4.367  41.622  23.400  1.00  0.00    -0.000 C 
BRANCH  22  23
ATOM     23  C   UNL     1       5.793  41.404  22.859  1.00  0.00    -0.000 C 
BRANCH  23  24
ATOM     24  C   UNL     1       6.746  42.557  23.210  1.00  0.00    -0.000 C 
BRANCH  24  25
ATOM     25  C   UNL     1       8.181  42.242  22.765  1.00  0.00    -0.000 C 
BRANCH  25  26
ATOM     26  C   UNL     1       8.512  42.824  21.380  1.00  0.00    -0.000 C 
BRANCH  26  27
ATOM     27  C   UNL     1       9.041  41.763  20.404  1.00  0.00    -0.000 C 
BRANCH  27  28
ATOM     28  C   UNL     1       9.653  42.422  19.158  1.00  0.00    -0.000 C 
BRANCH  28  29
ATOM     29  C   UNL     1      10.016  41.397  18.072  1.00  0.00    -0.003 C 
ATOM     30  C   UNL     1       9.102  40.172  18.099  1.00  0.00     0.004 C 
ENDBRANCH  28  29
ENDBRANCH  27  28
ENDBRANCH  26  27
ENDBRANCH  25  26
ENDBRANCH  24  25
ENDBRANCH  23  24
ENDBRANCH  22  23
ENDBRANCH  21  22
ENDBRANCH  20  21
ENDBRANCH  19  20
ENDBRANCH  18  19
ENDBRANCH  17  18
ENDBRANCH   1  17
TORSDOF 26
ENDMDL
MODEL 3
REMARK VINA RESULT:    23.143      4.849     11.133
REMARK INTER + INTRA:          59.122
REMARK INTER:                  60.044
REMARK INTRA:                  -0.922
REMARK UNBOUND:                 0.804
REMARK SMILES CCCCCCCCCCCCCCCCCCCCCCCCCCCC(=O)[O-]
REMARK SMILES IDX 15 1 16 2 17 3 18 4 19 5 20 6 21 7 22 8 23 9 24 10 25 11
REMARK SMILES IDX 26 12 27 13 28 14 29 15 30 16 14 17 13 18 12 19 11 20 10 21
REMARK SMILES IDX 9 22 8 23 7 24 6 25 5 26 4 27 3 28 2 29 1 30
REMARK H PARENT
REMARK Flexibility Score: inf
ROOT
ATOM      1  C   UNL     1       3.328  46.071  17.470  1.00  0.00     0.000 C 
ENDROOT
BRANCH   1   2
ATOM      2  C   UNL     1       2.506  45.035  18.252  1.00  0.00     0.000 C 
BRANCH   2   3
ATOM      3  C   UNL     1       1.738  45.654  19.435  1.00  0.00     0.000 C 
BRANCH   3   4
ATOM      4  C   UNL     1       2.138  45.081  20.814  1.00  0.00     0.000 C 
BRANCH   4   5
ATOM      5  C   UNL     1       2.463  43.575  20.783  1.00  0.00     0.000 C 
BRANCH   5   6
ATOM      6  C   UNL     1       2.253  42.907  22.154  1.00  0.00     0.000 C 
BRANCH   6   7
ATOM      7  C   UNL     1       3.017  41.578  22.294  1.00  0.00     0.000 C 
BRANCH   7   8
ATOM      8  C   UNL     1       4.266  41.648  23.203  1.00  0.00     0.000 C 
BRANCH   8   9
ATOM      9  C   UNL     1       4.741  43.072  23.554  1.00  0.00     0.000 C 
BRANCH   9  10
ATOM     10  C   UNL     1       6.217  43.310  23.194  1.00  0.00     0.000 C 
BRANCH  10  11
ATOM     11  C   UNL     1       6.945  41.981  22.951  1.00  0.00     0.000 C 
BRANCH  11  12
ATOM     12  C   UNL     1       8.423  42.171  22.556  1.00  0.00     0.006 C 
BRANCH  12  13
ATOM     13  C   UNL     1       8.850  41.396  21.297  1.00  0.00     0.053 C 
BRANCH  13  14
ATOM     14  C   UNL     1       9.293  42.311  20.194  1.00  0.00     0.041 C 
ATOM     15  O   UNL     1       9.244  41.932  18.994  1.00  0.00    -0.550 OA
ATOM     16  O   UNL     1       9.738  43.593  20.493  1.00  0.00    -0.550 OA
ENDBRANCH  13  14
ENDBRANCH  12  13
ENDBRANCH  11  12
ENDBRANCH  10  11
ENDBRANCH   9  10
ENDBRANCH   8   9
ENDBRANCH   7   8
ENDBRANCH   6   7
ENDBRANCH   5   6
ENDBRANCH   4   5
ENDBRANCH   3   4
ENDBRANCH   2   3
ENDBRANCH   1   2
BRANCH   1  17
ATOM     17  C   UNL     1       3.105  45.918  15.961  1.00  0.00     0.000 C 
BRANCH  17  18
ATOM     18  C   UNL     1       3.087  47.285  15.263  1.00  0.00     0.000 C 
BRANCH  18  19
ATOM     19  C   UNL     1       3.372  47.191  13.753  1.00  0.00     0.000 C 
BRANCH  19  20
ATOM     20  C   UNL     1       4.442  48.164  13.222  1.00  0.00     0.000 C 
BRANCH  20  21
ATOM     21  C   UNL     1       4.660  48.048  11.702  1.00  0.00     0.000 C 
BRANCH  21  22
ATOM     22  C   UNL     1       3.524  48.693  10.886  1.00  0.00    -0.000 C 
BRANCH  22  23
ATOM     23  C   UNL     1       3.990  49.525   9.676  1.00  0.00    -0.000 C 
BRANCH  23  24
ATOM     24  C   UNL     1       5.168  48.881   8.929  1.00  0.00    -0.000 C 
BRANCH  24  25
ATOM     25  C   UNL     1       6.375  49.828   8.879  1.00  0.00    -0.000 C 
BRANCH  25  26
ATOM     26  C   UNL     1       7.717  49.079   8.932  1.00  0.00    -0.000 C 
BRANCH  26  27
ATOM     27  C   UNL     1       7.546  47.580   9.220  1.00  0.00    -0.000 C 
BRANCH  27  28
ATOM     28  C   UNL     1       7.221  47.341  10.702  1.00  0.00    -0.000 C 
BRANCH  28  29
ATOM     29  C   UNL     1       8.077  48.212  11.636  1.00  0.00    -0.003 C 
ATOM     30  C   UNL     1       8.256  47.583  13.017  1.00  0.00     0.004 C 
ENDBRANCH  28  29
ENDBRANCH  27  28
ENDBRANCH  26  27
ENDBRANCH  25  26
ENDBRANCH  24  25
ENDBRANCH  23  24
ENDBRANCH  22  23
ENDBRANCH  21  22
ENDBRANCH  20  21
ENDBRANCH  19  20
ENDBRANCH  18  19
ENDBRANCH  17  18
ENDBRANCH   1  17
TORSDOF 26
ENDMDL
MODEL 4
REMARK VINA RESULT:    23.808      4.711     10.405
REMARK INTER + INTRA:          60.800
REMARK INTER:                  62.281
REMARK INTRA:                  -1.481
REMARK UNBOUND:                 0.804
REMARK SMILES CCCCCCCCCCCCCCCCCCCCCCCCCCCC(=O)[O-]
REMARK SMILES IDX 15 1 16 2 17 3 18 4 19 5 20 6 21 7 22 8 23 9 24 10 25 11
REMARK SMILES IDX 26 12 27 13 28 14 29 15 30 16 14 17 13 18 12 19 11 20 10 21
REMARK SMILES IDX 9 22 8 23 7 24 6 25 5 26 4 27 3 28 2 29 1 30
REMARK H PARENT
REMARK Flexibility Score: inf
ROOT
ATOM      1  C   UNL     1       2.422  46.937  20.411  1.00  0.00     0.000 C 
ENDROOT
BRANCH   1   2
ATOM      2  C   UNL     1       1.850  46.309  19.131  1.00  0.00     0.000 C 
BRANCH   2   3
ATOM      3  C   UNL     1       2.608  45.038  18.700  1.00  0.00     0.000 C 
BRANCH   3   4
ATOM      4  C   UNL     1       3.264  45.139  17.305  1.00  0.00     0.000 C 
BRANCH   4   5
ATOM      5  C   UNL     1       2.849  46.399  16.521  1.00  0.00     0.000 C 
BRANCH   5   6
ATOM      6  C   UNL     1       3.500  46.456  15.126  1.00  0.00     0.000 C 
BRANCH   6   7
ATOM      7  C   UNL     1       3.463  47.866  14.507  1.00  0.00     0.000 C 
BRANCH   7   8
ATOM      8  C   UNL     1       4.608  48.159  13.512  1.00  0.00     0.000 C 
BRANCH   8   9
ATOM      9  C   UNL     1       4.421  47.562  12.103  1.00  0.00     0.000 C 
BRANCH   9  10
ATOM     10  C   UNL     1       3.957  48.605  11.073  1.00  0.00     0.000 C 
BRANCH  10  11
ATOM     11  C   UNL     1       5.056  48.882  10.038  1.00  0.00     0.000 C 
BRANCH  11  12
ATOM     12  C   UNL     1       5.766  47.600   9.560  1.00  0.00     0.006 C 
BRANCH  12  13
ATOM     13  C   UNL     1       7.274  47.767   9.300  1.00  0.00     0.053 C 
BRANCH  13  14
ATOM     14  C   UNL     1       7.986  48.363  10.477  1.00  0.00     0.041 C 
ATOM     15  O   UNL     1       8.253  47.657  11.485  1.00  0.00    -0.550 OA
ATOM     16  O   UNL     1       8.378  49.696  10.449  1.00  0.00    -0.550 OA
ENDBRANCH  13  14
ENDBRANCH  12  13
ENDBRANCH  11  12
ENDBRANCH  10  11
ENDBRANCH   9  10
ENDBRANCH   8   9
ENDBRANCH   7   8
ENDBRANCH   6   7
ENDBRANCH   5   6
ENDBRANCH   4   5
ENDBRANCH   3   4
ENDBRANCH   2   3
ENDBRANCH   1   2
BRANCH   1  17
ATOM     17  C   UNL     1       3.781  47.591  20.136  1.00  0.00     0.000 C 
BRANCH  17  18
ATOM     18  C   UNL     1       4.899  46.899  20.930  1.00  0.00     0.000 C 
BRANCH  18  19
ATOM     19  C   UNL     1       6.266  46.969  20.226  1.00  0.00     0.000 C 
BRANCH  19  20
ATOM     20  C   UNL     1       7.132  45.700  20.341  1.00  0.00     0.000 C 
BRANCH  20  21
ATOM     21  C   UNL     1       8.623  45.960  20.058  1.00  0.00     0.000 C 
BRANCH  21  22
ATOM     22  C   UNL     1       9.368  44.701  19.578  1.00  0.00    -0.000 C 
BRANCH  22  23
ATOM     23  C   UNL     1      10.015  43.867  20.700  1.00  0.00    -0.000 C 
BRANCH  23  24
ATOM     24  C   UNL     1       9.360  42.488  20.871  1.00  0.00    -0.000 C 
BRANCH  24  25
ATOM     25  C   UNL     1       9.057  41.848  19.509  1.00  0.00    -0.000 C 
BRANCH  25  26
ATOM     26  C   UNL     1      10.301  41.756  18.609  1.00  0.00    -0.000 C 
BRANCH  26  27
ATOM     27  C   UNL     1       9.986  41.172  17.223  1.00  0.00    -0.000 C 
BRANCH  27  28
ATOM     28  C   UNL     1      11.279  40.852  16.458  1.00  0.00    -0.000 C 
BRANCH  28  29
ATOM     29  C   UNL     1      11.923  39.536  16.923  1.00  0.00    -0.003 C 
ATOM     30  C   UNL     1      12.219  38.590  15.760  1.00  0.00     0.004 C 
ENDBRANCH  28  29
ENDBRANCH  27  28
ENDBRANCH  26  27
ENDBRANCH  25  26
ENDBRANCH  24  25
ENDBRANCH  23  24
ENDBRANCH  22  23
ENDBRANCH  21  22
ENDBRANCH  20  21
ENDBRANCH  19  20
ENDBRANCH  18  19
ENDBRANCH  17  18
ENDBRANCH   1  17
TORSDOF 26
ENDMDL
MODEL 5
REMARK VINA RESULT:    24.216      5.498     11.137
REMARK INTER + INTRA:          61.826
REMARK INTER:                  63.246
REMARK INTRA:                  -1.419
REMARK UNBOUND:                 0.804
REMARK SMILES CCCCCCCCCCCCCCCCCCCCCCCCCCCC(=O)[O-]
REMARK SMILES IDX 15 1 16 2 17 3 18 4 19 5 20 6 21 7 22 8 23 9 24 10 25 11
REMARK SMILES IDX 26 12 27 13 28 14 29 15 30 16 14 17 13 18 12 19 11 20 10 21
REMARK SMILES IDX 9 22 8 23 7 24 6 25 5 26 4 27 3 28 2 29 1 30
REMARK H PARENT
REMARK Flexibility Score: inf
ROOT
ATOM      1  C   UNL     1       3.027  45.597  19.307  1.00  0.00     0.000 C 
ENDROOT
BRANCH   1   2
ATOM      2  C   UNL     1       2.538  45.131  17.928  1.00  0.00     0.000 C 
BRANCH   2   3
ATOM      3  C   UNL     1       3.598  45.317  16.825  1.00  0.00     0.000 C 
BRANCH   3   4
ATOM      4  C   UNL     1       3.044  45.913  15.512  1.00  0.00     0.000 C 
BRANCH   4   5
ATOM      5  C   UNL     1       2.759  47.425  15.596  1.00  0.00     0.000 C 
BRANCH   5   6
ATOM      6  C   UNL     1       3.659  48.239  14.647  1.00  0.00     0.000 C 
BRANCH   6   7
ATOM      7  C   UNL     1       4.382  47.361  13.610  1.00  0.00     0.000 C 
BRANCH   7   8
ATOM      8  C   UNL     1       3.889  47.548  12.156  1.00  0.00     0.000 C 
BRANCH   8   9
ATOM      9  C   UNL     1       4.530  48.724  11.393  1.00  0.00     0.000 C 
BRANCH   9  10
ATOM     10  C   UNL     1       3.836  49.010  10.052  1.00  0.00     0.000 C 
BRANCH  10  11
ATOM     11  C   UNL     1       4.681  48.502   8.875  1.00  0.00     0.000 C 
BRANCH  11  12
ATOM     12  C   UNL     1       6.117  49.062   8.884  1.00  0.00     0.006 C 
BRANCH  12  13
ATOM     13  C   UNL     1       7.217  47.991   8.998  1.00  0.00     0.053 C 
BRANCH  13  14
ATOM     14  C   UNL     1       8.040  48.157  10.240  1.00  0.00     0.041 C 
ATOM     15  O   UNL     1       8.894  47.289  10.560  1.00  0.00    -0.550 OA
ATOM     16  O   UNL     1       7.877  49.287  11.034  1.00  0.00    -0.550 OA
ENDBRANCH  13  14
ENDBRANCH  12  13
ENDBRANCH  11  12
ENDBRANCH  10  11
ENDBRANCH   9  10
ENDBRANCH   8   9
ENDBRANCH   7   8
ENDBRANCH   6   7
ENDBRANCH   5   6
ENDBRANCH   4   5
ENDBRANCH   3   4
ENDBRANCH   2   3
ENDBRANCH   1   2
BRANCH   1  17
ATOM     17  C   UNL     1       2.201  44.950  20.425  1.00  0.00     0.000 C 
BRANCH  17  18
ATOM     18  C   UNL     1       2.651  43.505  20.679  1.00  0.00     0.000 C 
BRANCH  18  19
ATOM     19  C   UNL     1       2.462  43.065  22.142  1.00  0.00     0.000 C 
BRANCH  19  20
ATOM     20  C   UNL     1       2.981  41.654  22.479  1.00  0.00     0.000 C 
BRANCH  20  21
ATOM     21  C   UNL     1       4.250  41.672  23.350  1.00  0.00     0.000 C 
BRANCH  21  22
ATOM     22  C   UNL     1       5.506  41.217  22.583  1.00  0.00    -0.000 C 
BRANCH  22  23
ATOM     23  C   UNL     1       6.649  42.249  22.545  1.00  0.00    -0.000 C 
BRANCH  23  24
ATOM     24  C   UNL     1       8.006  41.622  22.192  1.00  0.00    -0.000 C 
BRANCH  24  25
ATOM     25  C   UNL     1       8.949  41.628  23.404  1.00  0.00    -0.000 C 
BRANCH  25  26
ATOM     26  C   UNL     1       9.118  43.029  24.015  1.00  0.00    -0.000 C 
BRANCH  26  27
ATOM     27  C   UNL     1      10.563  43.314  24.449  1.00  0.00    -0.000 C 
BRANCH  27  28
ATOM     28  C   UNL     1      10.783  42.912  25.916  1.00  0.00    -0.000 C 
BRANCH  28  29
ATOM     29  C   UNL     1       9.509  43.066  26.762  1.00  0.00    -0.003 C 
ATOM     30  C   UNL     1       9.805  43.097  28.261  1.00  0.00     0.004 C 
ENDBRANCH  28  29
ENDBRANCH  27  28
ENDBRANCH  26  27
ENDBRANCH  25  26
ENDBRANCH  24  25
ENDBRANCH  23  24
ENDBRANCH  22  23
ENDBRANCH  21  22
ENDBRANCH  20  21
ENDBRANCH  19  20
ENDBRANCH  18  19
ENDBRANCH  17  18
ENDBRANCH   1  17
TORSDOF 26
ENDMDL
MODEL 6
REMARK VINA RESULT:    24.395      4.856     10.901
REMARK INTER + INTRA:          62.278
REMARK INTER:                  63.857
REMARK INTRA:                  -1.579
REMARK UNBOUND:                 0.804
REMARK SMILES CCCCCCCCCCCCCCCCCCCCCCCCCCCC(=O)[O-]
REMARK SMILES IDX 15 1 16 2 17 3 18 4 19 5 20 6 21 7 22 8 23 9 24 10 25 11
REMARK SMILES IDX 26 12 27 13 28 14 29 15 30 16 14 17 13 18 12 19 11 20 10 21
REMARK SMILES IDX 9 22 8 23 7 24 6 25 5 26 4 27 3 28 2 29 1 30
REMARK H PARENT
REMARK Flexibility Score: inf
ROOT
ATOM      1  C   UNL     1       2.869  45.849  19.653  1.00  0.00     0.000 C 
ENDROOT
BRANCH   1   2
ATOM      2  C   UNL     1       2.206  44.526  20.066  1.00  0.00     0.000 C 
BRANCH   2   3
ATOM      3  C   UNL     1       2.831  43.918  21.337  1.00  0.00     0.000 C 
BRANCH   3   4
ATOM      4  C   UNL     1       2.167  42.601  21.797  1.00  0.00     0.000 C 
BRANCH   4   5
ATOM      5  C   UNL     1       3.171  41.561  22.331  1.00  0.00     0.000 C 
BRANCH   5   6
ATOM      6  C   UNL     1       4.082  42.142  23.428  1.00  0.00     0.000 C 
BRANCH   6   7
ATOM      7  C   UNL     1       5.493  41.527  23.421  1.00  0.00     0.000 C 
BRANCH   7   8
ATOM      8  C   UNL     1       6.636  42.545  23.203  1.00  0.00     0.000 C 
BRANCH   8   9
ATOM      9  C   UNL     1       8.041  41.931  23.050  1.00  0.00     0.000 C 
BRANCH   9  10
ATOM     10  C   UNL     1       8.504  41.866  21.585  1.00  0.00     0.000 C 
BRANCH  10  11
ATOM     11  C   UNL     1       9.142  43.192  21.150  1.00  0.00     0.000 C 
BRANCH  11  12
ATOM     12  C   UNL     1      10.032  43.047  19.900  1.00  0.00     0.006 C 
BRANCH  12  13
ATOM     13  C   UNL     1       9.290  42.560  18.643  1.00  0.00     0.053 C 
BRANCH  13  14
ATOM     14  C   UNL     1       9.844  41.267  18.126  1.00  0.00     0.041 C 
ATOM     15  O   UNL     1      11.011  41.217  17.656  1.00  0.00    -0.550 OA
ATOM     16  O   UNL     1       9.078  40.109  18.187  1.00  0.00    -0.550 OA
ENDBRANCH  13  14
ENDBRANCH  12  13
ENDBRANCH  11  12
ENDBRANCH  10  11
ENDBRANCH   9  10
ENDBRANCH   8   9
ENDBRANCH   7   8
ENDBRANCH   6   7
ENDBRANCH   5   6
ENDBRANCH   4   5
ENDBRANCH   3   4
ENDBRANCH   2   3
ENDBRANCH   1   2
BRANCH   1  17
ATOM     17  C   UNL     1       2.249  46.387  18.358  1.00  0.00     0.000 C 
BRANCH  17  18
ATOM     18  C   UNL     1       3.211  46.220  17.173  1.00  0.00     0.000 C 
BRANCH  18  19
ATOM     19  C   UNL     1       2.664  46.821  15.866  1.00  0.00     0.000 C 
BRANCH  19  20
ATOM     20  C   UNL     1       3.558  46.627  14.626  1.00  0.00     0.000 C 
BRANCH  20  21
ATOM     21  C   UNL     1       3.753  47.922  13.815  1.00  0.00     0.000 C 
BRANCH  21  22
ATOM     22  C   UNL     1       3.700  47.686  12.294  1.00  0.00    -0.000 C 
BRANCH  22  23
ATOM     23  C   UNL     1       4.239  48.850  11.442  1.00  0.00    -0.000 C 
BRANCH  23  24
ATOM     24  C   UNL     1       3.935  48.682   9.945  1.00  0.00    -0.000 C 
BRANCH  24  25
ATOM     25  C   UNL     1       5.063  47.920   9.235  1.00  0.00    -0.000 C 
BRANCH  25  26
ATOM     26  C   UNL     1       6.255  48.825   8.879  1.00  0.00    -0.000 C 
BRANCH  26  27
ATOM     27  C   UNL     1       7.606  48.200   9.258  1.00  0.00    -0.000 C 
BRANCH  27  28
ATOM     28  C   UNL     1       7.437  47.184  10.398  1.00  0.00    -0.000 C 
BRANCH  28  29
ATOM     29  C   UNL     1       7.849  47.762  11.762  1.00  0.00    -0.003 C 
ATOM     30  C   UNL     1       8.702  49.023  11.626  1.00  0.00     0.004 C 
ENDBRANCH  28  29
ENDBRANCH  27  28
ENDBRANCH  26  27
ENDBRANCH  25  26
ENDBRANCH  24  25
ENDBRANCH  23  24
ENDBRANCH  22  23
ENDBRANCH  21  22
ENDBRANCH  20  21
ENDBRANCH  19  20
ENDBRANCH  18  19
ENDBRANCH  17  18
ENDBRANCH   1  17
TORSDOF 26
ENDMDL
MODEL 7
REMARK VINA RESULT:    24.602      5.712     11.244
REMARK INTER + INTRA:          62.800
REMARK INTER:                  63.370
REMARK INTRA:                  -0.569
REMARK UNBOUND:                 0.804
REMARK SMILES CCCCCCCCCCCCCCCCCCCCCCCCCCCC(=O)[O-]
REMARK SMILES IDX 15 1 16 2 17 3 18 4 19 5 20 6 21 7 22 8 23 9 24 10 25 11
REMARK SMILES IDX 26 12 27 13 28 14 29 15 30 16 14 17 13 18 12 19 11 20 10 21
REMARK SMILES IDX 9 22 8 23 7 24 6 25 5 26 4 27 3 28 2 29 1 30
REMARK H PARENT
REMARK Flexibility Score: inf
ROOT
ATOM      1  C   UNL     1       2.355  45.903  19.530  1.00  0.00     0.000 C 
ENDROOT
BRANCH   1   2
ATOM      2  C   UNL     1       2.234  45.293  18.125  1.00  0.00     0.000 C 
BRANCH   2   3
ATOM      3  C   UNL     1       3.441  45.625  17.225  1.00  0.00     0.000 C 
BRANCH   3   4
ATOM      4  C   UNL     1       3.056  46.128  15.816  1.00  0.00     0.000 C 
BRANCH   4   5
ATOM      5  C   UNL     1       2.940  47.662  15.722  1.00  0.00     0.000 C 
BRANCH   5   6
ATOM      6  C   UNL     1       3.840  48.245  14.616  1.00  0.00     0.000 C 
BRANCH   6   7
ATOM      7  C   UNL     1       3.947  47.325  13.386  1.00  0.00     0.000 C 
BRANCH   7   8
ATOM      8  C   UNL     1       3.430  47.950  12.071  1.00  0.00     0.000 C 
BRANCH   8   9
ATOM      9  C   UNL     1       4.512  48.584  11.175  1.00  0.00     0.000 C 
BRANCH   9  10
ATOM     10  C   UNL     1       4.728  47.809   9.865  1.00  0.00     0.000 C 
BRANCH  10  11
ATOM     11  C   UNL     1       5.882  48.413   9.052  1.00  0.00     0.000 C 
BRANCH  11  12
ATOM     12  C   UNL     1       6.444  49.704   9.678  1.00  0.00     0.006 C 
BRANCH  12  13
ATOM     13  C   UNL     1       7.946  49.648  10.010  1.00  0.00     0.053 C 
BRANCH  13  14
ATOM     14  C   UNL     1       8.422  48.244  10.235  1.00  0.00     0.041 C 
ATOM     15  O   UNL     1       8.433  47.753  11.394  1.00  0.00    -0.550 OA
ATOM     16  O   UNL     1       8.833  47.470   9.156  1.00  0.00    -0.550 OA
ENDBRANCH  13  14
ENDBRANCH  12  13
ENDBRANCH  11  12
ENDBRANCH  10  11
ENDBRANCH   9  10
ENDBRANCH   8   9
ENDBRANCH   7   8
ENDBRANCH   6   7
ENDBRANCH   5   6
ENDBRANCH   4   5
ENDBRANCH   3   4
ENDBRANCH   2   3
ENDBRANCH   1   2
BRANCH   1  17
ATOM     17  C   UNL     1       1.764  44.960  20.585  1.00  0.00     0.000 C 
BRANCH  17  18
ATOM     18  C   UNL     1       2.702  43.774  20.854  1.00  0.00     0.000 C 
BRANCH  18  19
ATOM     19  C   UNL     1       2.515  43.167  22.256  1.00  0.00     0.000 C 
BRANCH  19  20
ATOM     20  C   UNL     1       3.082  41.747  22.440  1.00  0.00     0.000 C 
BRANCH  20  21
ATOM     21  C   UNL     1       4.199  41.677  23.499  1.00  0.00     0.000 C 
BRANCH  21  22
ATOM     22  C   UNL     1       5.565  41.295  22.899  1.00  0.00    -0.000 C 
BRANCH  22  23
ATOM     23  C   UNL     1       6.711  42.268  23.232  1.00  0.00    -0.000 C 
BRANCH  23  24
ATOM     24  C   UNL     1       7.794  42.308  22.143  1.00  0.00    -0.000 C 
BRANCH  24  25
ATOM     25  C   UNL     1       8.765  41.127  22.286  1.00  0.00    -0.000 C 
BRANCH  25  26
ATOM     26  C   UNL     1       8.116  39.907  22.961  1.00  0.00    -0.000 C 
BRANCH  26  27
ATOM     27  C   UNL     1       9.129  39.053  23.738  1.00  0.00    -0.000 C 
BRANCH  27  28
ATOM     28  C   UNL     1       9.183  37.623  23.178  1.00  0.00    -0.000 C 
BRANCH  28  29
ATOM     29  C   UNL     1      10.331  37.430  22.175  1.00  0.00    -0.003 C 
ATOM     30  C   UNL     1      11.169  36.189  22.480  1.00  0.00     0.004 C 
ENDBRANCH  28  29
ENDBRANCH  27  28
ENDBRANCH  26  27
ENDBRANCH  25  26
ENDBRANCH  24  25
ENDBRANCH  23  24
ENDBRANCH  22  23
ENDBRANCH  21  22
ENDBRANCH  20  21
ENDBRANCH  19  20
ENDBRANCH  18  19
ENDBRANCH  17  18
ENDBRANCH   1  17
TORSDOF 26
ENDMDL
MODEL 8
REMARK VINA RESULT:    24.780      4.333     10.130
REMARK INTER + INTRA:          63.247
REMARK INTER:                  63.321
REMARK INTRA:                  -0.074
REMARK UNBOUND:                 0.804
REMARK SMILES CCCCCCCCCCCCCCCCCCCCCCCCCCCC(=O)[O-]
REMARK SMILES IDX 15 1 16 2 17 3 18 4 19 5 20 6 21 7 22 8 23 9 24 10 25 11
REMARK SMILES IDX 26 12 27 13 28 14 29 15 30 16 14 17 13 18 12 19 11 20 10 21
REMARK SMILES IDX 9 22 8 23 7 24 6 25 5 26 4 27 3 28 2 29 1 30
REMARK H PARENT
REMARK Flexibility Score: inf
ROOT
ATOM      1  C   UNL     1       2.986  45.469  18.570  1.00  0.00     0.000 C 
ENDROOT
BRANCH   1   2
ATOM      2  C   UNL     1       2.942  45.404  17.036  1.00  0.00     0.000 C 
BRANCH   2   3
ATOM      3  C   UNL     1       3.212  46.769  16.373  1.00  0.00     0.000 C 
BRANCH   3   4
ATOM      4  C   UNL     1       3.691  46.675  14.908  1.00  0.00     0.000 C 
BRANCH   4   5
ATOM      5  C   UNL     1       2.816  47.474  13.923  1.00  0.00     0.000 C 
BRANCH   5   6
ATOM      6  C   UNL     1       3.095  47.093  12.457  1.00  0.00     0.000 C 
BRANCH   6   7
ATOM      7  C   UNL     1       3.876  48.180  11.696  1.00  0.00     0.000 C 
BRANCH   7   8
ATOM      8  C   UNL     1       4.157  47.848  10.212  1.00  0.00     0.000 C 
BRANCH   8   9
ATOM      9  C   UNL     1       3.858  48.987   9.218  1.00  0.00     0.000 C 
BRANCH   9  10
ATOM     10  C   UNL     1       5.103  49.822   8.879  1.00  0.00     0.000 C 
BRANCH  10  11
ATOM     11  C   UNL     1       6.200  49.628   9.935  1.00  0.00     0.000 C 
BRANCH  11  12
ATOM     12  C   UNL     1       7.467  48.960   9.367  1.00  0.00     0.006 C 
BRANCH  12  13
ATOM     13  C   UNL     1       8.610  48.796  10.385  1.00  0.00     0.053 C 
BRANCH  13  14
ATOM     14  C   UNL     1       8.170  48.061  11.615  1.00  0.00     0.041 C 
ATOM     15  O   UNL     1       6.947  47.844  11.824  1.00  0.00    -0.550 OA
ATOM     16  O   UNL     1       9.115  47.593  12.520  1.00  0.00    -0.550 OA
ENDBRANCH  13  14
ENDBRANCH  12  13
ENDBRANCH  11  12
ENDBRANCH  10  11
ENDBRANCH   9  10
ENDBRANCH   8   9
ENDBRANCH   7   8
ENDBRANCH   6   7
ENDBRANCH   5   6
ENDBRANCH   4   5
ENDBRANCH   3   4
ENDBRANCH   2   3
ENDBRANCH   1   2
BRANCH   1  17
ATOM     17  C   UNL     1       1.613  45.849  19.137  1.00  0.00     0.000 C 
BRANCH  17  18
ATOM     18  C   UNL     1       1.227  44.933  20.308  1.00  0.00     0.000 C 
BRANCH  18  19
ATOM     19  C   UNL     1       2.349  43.955  20.700  1.00  0.00     0.000 C 
BRANCH  19  20
ATOM     20  C   UNL     1       2.308  43.454  22.157  1.00  0.00     0.000 C 
BRANCH  20  21
ATOM     21  C   UNL     1       2.890  42.039  22.323  1.00  0.00     0.000 C 
BRANCH  21  22
ATOM     22  C   UNL     1       3.950  41.958  23.437  1.00  0.00    -0.000 C 
BRANCH  22  23
ATOM     23  C   UNL     1       5.326  41.434  22.983  1.00  0.00    -0.000 C 
BRANCH  23  24
ATOM     24  C   UNL     1       6.418  42.513  23.024  1.00  0.00    -0.000 C 
BRANCH  24  25
ATOM     25  C   UNL     1       7.818  41.885  22.986  1.00  0.00    -0.000 C 
BRANCH  25  26
ATOM     26  C   UNL     1       8.539  42.128  21.650  1.00  0.00    -0.000 C 
BRANCH  26  27
ATOM     27  C   UNL     1       9.632  43.203  21.755  1.00  0.00    -0.000 C 
BRANCH  27  28
ATOM     28  C   UNL     1       9.939  43.806  20.375  1.00  0.00    -0.000 C 
BRANCH  28  29
ATOM     29  C   UNL     1       9.710  45.326  20.337  1.00  0.00    -0.003 C 
ATOM     30  C   UNL     1       8.511  45.712  19.472  1.00  0.00     0.004 C 
ENDBRANCH  28  29
ENDBRANCH  27  28
ENDBRANCH  26  27
ENDBRANCH  25  26
ENDBRANCH  24  25
ENDBRANCH  23  24
ENDBRANCH  22  23
ENDBRANCH  21  22
ENDBRANCH  20  21
ENDBRANCH  19  20
ENDBRANCH  18  19
ENDBRANCH  17  18
ENDBRANCH   1  17
TORSDOF 26
ENDMDL
MODEL 9
REMARK VINA RESULT:    25.010      4.834     10.391
REMARK INTER + INTRA:          63.827
REMARK INTER:                  63.638
REMARK INTRA:                   0.189
REMARK UNBOUND:                 0.804
REMARK SMILES CCCCCCCCCCCCCCCCCCCCCCCCCCCC(=O)[O-]
REMARK SMILES IDX 15 1 16 2 17 3 18 4 19 5 20 6 21 7 22 8 23 9 24 10 25 11
REMARK SMILES IDX 26 12 27 13 28 14 29 15 30 16 14 17 13 18 12 19 11 20 10 21
REMARK SMILES IDX 9 22 8 23 7 24 6 25 5 26 4 27 3 28 2 29 1 30
REMARK H PARENT
REMARK Flexibility Score: inf
ROOT
ATOM      1  C   UNL     1       2.930  45.591  18.498  1.00  0.00     0.000 C 
ENDROOT
BRANCH   1   2
ATOM      2  C   UNL     1       2.571  45.606  17.005  1.00  0.00     0.000 C 
BRANCH   2   3
ATOM      3  C   UNL     1       3.564  46.429  16.161  1.00  0.00     0.000 C 
BRANCH   3   4
ATOM      4  C   UNL     1       2.902  47.538  15.313  1.00  0.00     0.000 C 
BRANCH   4   5
ATOM      5  C   UNL     1       3.881  48.246  14.356  1.00  0.00     0.000 C 
BRANCH   5   6
ATOM      6  C   UNL     1       4.046  47.486  13.027  1.00  0.00     0.000 C 
BRANCH   6   7
ATOM      7  C   UNL     1       4.581  48.379  11.892  1.00  0.00     0.000 C 
BRANCH   7   8
ATOM      8  C   UNL     1       3.590  48.595  10.725  1.00  0.00     0.000 C 
BRANCH   8   9
ATOM      9  C   UNL     1       4.238  48.751   9.335  1.00  0.00     0.000 C 
BRANCH   9  10
ATOM     10  C   UNL     1       5.763  48.556   9.365  1.00  0.00     0.000 C 
BRANCH  10  11
ATOM     11  C   UNL     1       6.148  47.153   8.875  1.00  0.00     0.000 C 
BRANCH  11  12
ATOM     12  C   UNL     1       7.601  46.775   9.222  1.00  0.00     0.006 C 
BRANCH  12  13
ATOM     13  C   UNL     1       8.553  47.976   9.368  1.00  0.00     0.053 C 
BRANCH  13  14
ATOM     14  C   UNL     1       8.436  48.627  10.714  1.00  0.00     0.041 C 
ATOM     15  O   UNL     1       8.522  49.879  10.825  1.00  0.00    -0.550 OA
ATOM     16  O   UNL     1       8.208  47.851  11.843  1.00  0.00    -0.550 OA
ENDBRANCH  13  14
ENDBRANCH  12  13
ENDBRANCH  11  12
ENDBRANCH  10  11
ENDBRANCH   9  10
ENDBRANCH   8   9
ENDBRANCH   7   8
ENDBRANCH   6   7
ENDBRANCH   5   6
ENDBRANCH   4   5
ENDBRANCH   3   4
ENDBRANCH   2   3
ENDBRANCH   1   2
BRANCH   1  17
ATOM     17  C   UNL     1       1.711  45.949  19.356  1.00  0.00     0.000 C 
BRANCH  17  18
ATOM     18  C   UNL     1       1.941  45.577  20.827  1.00  0.00     0.000 C 
BRANCH  18  19
ATOM     19  C   UNL     1       1.604  44.106  21.133  1.00  0.00     0.000 C 
BRANCH  19  20
ATOM     20  C   UNL     1       2.621  43.368  22.025  1.00  0.00     0.000 C 
BRANCH  20  21
ATOM     21  C   UNL     1       2.466  41.837  21.975  1.00  0.00     0.000 C 
BRANCH  21  22
ATOM     22  C   UNL     1       3.505  41.104  22.844  1.00  0.00    -0.000 C 
BRANCH  22  23
ATOM     23  C   UNL     1       4.613  42.004  23.422  1.00  0.00    -0.000 C 
BRANCH  23  24
ATOM     24  C   UNL     1       6.025  41.508  23.074  1.00  0.00    -0.000 C 
BRANCH  24  25
ATOM     25  C   UNL     1       7.088  42.537  23.486  1.00  0.00    -0.000 C 
BRANCH  25  26
ATOM     26  C   UNL     1       8.197  42.695  22.431  1.00  0.00    -0.000 C 
BRANCH  26  27
ATOM     27  C   UNL     1       8.729  41.345  21.926  1.00  0.00    -0.000 C 
BRANCH  27  28
ATOM     28  C   UNL     1       8.288  40.202  22.853  1.00  0.00    -0.000 C 
BRANCH  28  29
ATOM     29  C   UNL     1       9.235  38.994  22.782  1.00  0.00    -0.003 C 
ATOM     30  C   UNL     1       9.541  38.413  24.162  1.00  0.00     0.004 C 
ENDBRANCH  28  29
ENDBRANCH  27  28
ENDBRANCH  26  27
ENDBRANCH  25  26
ENDBRANCH  24  25
ENDBRANCH  23  24
ENDBRANCH  22  23
ENDBRANCH  21  22
ENDBRANCH  20  21
ENDBRANCH  19  20
ENDBRANCH  18  19
ENDBRANCH  17  18
ENDBRANCH   1  17
TORSDOF 26
ENDMDL
