MODEL 1
REMARK VINA RESULT:    72.654      0.000      0.000
REMARK INTER + INTRA:         106.014
REMARK INTER:                 104.510
REMARK INTRA:                   1.505
REMARK UNBOUND:                 1.505
REMARK SMILES O=c1cc(-c2ccc(O)c(O)c2)oc2cc(O[C@@H]3O[C@@H](CO)[C@@H](O)[C@@H](O)[C@@H]3O)cc(O)c12
REMARK SMILES IDX 17 1 16 2 4 3 3 4 13 5 2 6 14 7 1 8 32 9 15 10 30 11 29 12
REMARK SMILES IDX 5 13 6 14 7 15 8 16 12 17 10 18 9 19 11 21 31 23 18 25 27 26
REMARK SMILES IDX 19 27 25 28 20 29 23 30 28 31 26 33 21 35 22 36 24 38
REMARK H PARENT 9 20 11 22 31 24 28 32 26 34 22 37 24 39
REMARK Flexibility Score: inf
ROOT
ATOM      1  O   UNL     1     -31.501  41.125 -25.172  1.00  0.00    -0.462 OA
ENDROOT
BRANCH   1   2
ATOM      2  C   UNL     1     -31.844  40.892 -23.828  1.00  0.00     0.130 A 
ATOM      3  C   UNL     1     -35.409  40.339 -20.707  1.00  0.00     0.138 A 
ATOM      4  C   UNL     1     -34.524  40.151 -19.633  1.00  0.00     0.100 A 
ATOM      5  O   UNL     1     -34.920  40.547 -21.928  1.00  0.00    -0.456 OA
ATOM      6  C   UNL     1     -33.148  40.200 -19.860  1.00  0.00     0.197 A 
ATOM      7  C   UNL     1     -33.620  40.601 -22.194  1.00  0.00     0.146 A 
ATOM      8  O   UNL     1     -32.362  40.029 -18.889  1.00  0.00    -0.289 OA
ATOM      9  C   UNL     1     -32.667  40.432 -21.164  1.00  0.00     0.107 A 
ATOM     10  C   UNL     1     -33.202  40.828 -23.508  1.00  0.00     0.094 A 
ATOM     11  C   UNL     1     -31.291  40.496 -21.482  1.00  0.00     0.134 A 
ATOM     12  C   UNL     1     -30.890  40.727 -22.806  1.00  0.00     0.093 A 
BRANCH   3  13
ATOM     13  C   UNL     1     -36.881  40.297 -20.525  1.00  0.00     0.021 A 
ATOM     14  C   UNL     1     -37.705  40.003 -21.623  1.00  0.00     0.016 A 
ATOM     15  C   UNL     1     -39.093  39.963 -21.479  1.00  0.00     0.051 A 
ATOM     16  C   UNL     1     -39.690  40.227 -20.243  1.00  0.00     0.157 A 
ATOM     17  C   UNL     1     -37.484  40.577 -19.283  1.00  0.00     0.062 A 
ATOM     18  C   UNL     1     -38.876  40.542 -19.132  1.00  0.00     0.158 A 
BRANCH  16  19
ATOM     19  O   UNL     1     -41.083  40.166 -20.166  1.00  0.00    -0.504 OA
ATOM     20  H   UNL     1     -41.595  40.015 -19.309  1.00  0.00     0.293 HD
ENDBRANCH  16  19
BRANCH  18  21
ATOM     21  O   UNL     1     -39.401  40.832 -17.870  1.00  0.00    -0.504 OA
ATOM     22  H   UNL     1     -39.302  40.231 -17.066  1.00  0.00     0.293 HD
ENDBRANCH  18  21
ENDBRANCH   3  13
BRANCH  11  23
ATOM     23  O   UNL     1     -30.320  40.333 -20.492  1.00  0.00    -0.507 OA
ATOM     24  H   UNL     1     -29.997  41.110 -19.928  1.00  0.00     0.293 HD
ENDBRANCH  11  23
ENDBRANCH   1   2
BRANCH   1  25
ATOM     25  C   UNL     1     -31.047  40.153 -26.125  1.00  0.00     0.339 C 
ATOM     26  C   UNL     1     -29.558  39.779 -25.918  1.00  0.00     0.214 C 
ATOM     27  O   UNL     1     -31.867  38.994 -26.068  1.00  0.00    -0.332 OA
ATOM     28  C   UNL     1     -29.361  38.998 -24.603  1.00  0.00     0.180 C 
ATOM     29  C   UNL     1     -31.808  38.369 -24.794  1.00  0.00     0.179 C 
ATOM     30  C   UNL     1     -30.379  37.844 -24.498  1.00  0.00     0.177 C 
BRANCH  26  31
ATOM     31  O   UNL     1     -28.726  40.911 -25.975  1.00  0.00    -0.384 OA
ATOM     32  H   UNL     1     -28.810  41.311 -26.878  1.00  0.00     0.211 HD
ENDBRANCH  26  31
BRANCH  28  33
ATOM     33  O   UNL     1     -28.049  38.504 -24.542  1.00  0.00    -0.387 OA
ATOM     34  H   UNL     1     -28.009  37.722 -25.153  1.00  0.00     0.211 HD
ENDBRANCH  28  33
BRANCH  29  35
ATOM     35  C   UNL     1     -32.845  37.240 -24.754  1.00  0.00     0.191 C 
BRANCH  35  36
ATOM     36  O   UNL     1     -32.980  36.660 -26.023  1.00  0.00    -0.394 OA
ATOM     37  H   UNL     1     -32.304  37.101 -26.601  1.00  0.00     0.210 HD
ENDBRANCH  35  36
ENDBRANCH  29  35
BRANCH  30  38
ATOM     38  O   UNL     1     -30.022  36.770 -25.340  1.00  0.00    -0.387 OA
ATOM     39  H   UNL     1     -29.455  36.144 -24.821  1.00  0.00     0.211 HD
ENDBRANCH  30  38
ENDBRANCH   1  25
TORSDOF 11
ENDMDL
