MODEL 1
REMARK VINA RESULT:    -6.071      0.000      0.000
REMARK INTER + INTRA:          -7.618
REMARK INTER:                  -7.313
REMARK INTRA:                  -0.305
REMARK UNBOUND:                -0.305
REMARK SMILES O=c1c(O)c(-c2ccc(O)c(O)c2)oc2cc(O)cc(O)c12
REMARK SMILES IDX 5 1 3 2 2 3 1 4 22 5 20 6 19 7 17 8 16 9 15 10 14 11 6 12
REMARK SMILES IDX 7 13 8 14 9 15 13 16 11 17 10 18 12 20 4 22 21 24 18 26
REMARK H PARENT 10 19 12 21 4 23 21 25 18 27
REMARK Flexibility Score: inf
ROOT
ATOM      1  C   UNL     1      -1.582  -5.909  -2.804  1.00  0.00     0.180 A 
ATOM      2  C   UNL     1      -0.389  -5.916  -3.548  1.00  0.00     0.208 A 
ATOM      3  C   UNL     1      -0.461  -5.954  -4.949  1.00  0.00     0.238 A 
ATOM      4  O   UNL     1       0.608  -5.885  -5.610  1.00  0.00    -0.285 OA
ATOM      5  C   UNL     1      -1.722  -6.041  -5.589  1.00  0.00     0.111 A 
ATOM      6  C   UNL     1      -1.912  -6.131  -7.001  1.00  0.00     0.134 A 
ATOM      7  C   UNL     1      -3.209  -6.106  -7.527  1.00  0.00     0.093 A 
ATOM      8  C   UNL     1      -4.325  -6.057  -6.688  1.00  0.00     0.123 A 
ATOM      9  C   UNL     1      -4.152  -6.026  -5.307  1.00  0.00     0.094 A 
ATOM     10  C   UNL     1      -2.869  -6.012  -4.754  1.00  0.00     0.146 A 
ATOM     11  O   UNL     1      -2.751  -5.959  -3.433  1.00  0.00    -0.452 OA
ENDROOT
BRANCH   1  12
ATOM     12  C   UNL     1      -1.588  -5.855  -1.324  1.00  0.00     0.025 A 
ATOM     13  C   UNL     1      -1.434  -4.619  -0.678  1.00  0.00     0.016 A 
ATOM     14  C   UNL     1      -1.415  -4.547   0.717  1.00  0.00     0.051 A 
ATOM     15  C   UNL     1      -1.534  -5.709   1.486  1.00  0.00     0.157 A 
ATOM     16  C   UNL     1      -1.687  -7.024  -0.549  1.00  0.00     0.062 A 
ATOM     17  C   UNL     1      -1.666  -6.954   0.851  1.00  0.00     0.158 A 
BRANCH  15  18
ATOM     18  O   UNL     1      -1.514  -5.605   2.877  1.00  0.00    -0.504 OA
ATOM     19  H   UNL     1      -2.251  -5.990   3.455  1.00  0.00     0.293 HD
ENDBRANCH  15  18
BRANCH  17  20
ATOM     20  O   UNL     1      -1.770  -8.118   1.613  1.00  0.00    -0.504 OA
ATOM     21  H   UNL     1      -1.952  -8.087   2.609  1.00  0.00     0.293 HD
ENDBRANCH  17  20
ENDBRANCH   1  12
BRANCH   2  22
ATOM     22  O   UNL     1       0.846  -5.907  -2.895  1.00  0.00    -0.502 OA
ATOM     23  H   UNL     1       1.609  -5.306  -3.183  1.00  0.00     0.293 HD
ENDBRANCH   2  22
BRANCH   6  24
ATOM     24  O   UNL     1      -0.871  -6.272  -7.924  1.00  0.00    -0.507 OA
ATOM     25  H   UNL     1      -0.242  -7.059  -7.972  1.00  0.00     0.293 HD
ENDBRANCH   6  24
BRANCH   8  26
ATOM     26  O   UNL     1      -5.614  -6.050  -7.219  1.00  0.00    -0.508 OA
ATOM     27  H   UNL     1      -6.432  -6.085  -6.623  1.00  0.00     0.293 HD
ENDBRANCH   8  26
TORSDOF 6
ENDMDL
MODEL 2
REMARK VINA RESULT:    -6.036      2.825      8.025
REMARK INTER + INTRA:          -7.576
REMARK INTER:                  -7.255
REMARK INTRA:                  -0.322
REMARK UNBOUND:                -0.305
REMARK SMILES O=c1c(O)c(-c2ccc(O)c(O)c2)oc2cc(O)cc(O)c12
REMARK SMILES IDX 5 1 3 2 2 3 1 4 22 5 20 6 19 7 17 8 16 9 15 10 14 11 6 12
REMARK SMILES IDX 7 13 8 14 9 15 13 16 11 17 10 18 12 20 4 22 21 24 18 26
REMARK H PARENT 10 19 12 21 4 23 21 25 18 27
REMARK Flexibility Score: inf
ROOT
ATOM      1  C   UNL     1      -0.235  -6.509  -0.268  1.00  0.00     0.180 A 
ATOM      2  C   UNL     1      -1.422  -6.913   0.369  1.00  0.00     0.208 A 
ATOM      3  C   UNL     1      -1.341  -7.569   1.607  1.00  0.00     0.238 A 
ATOM      4  O   UNL     1      -2.409  -7.860   2.206  1.00  0.00    -0.285 OA
ATOM      5  C   UNL     1      -0.074  -7.865   2.168  1.00  0.00     0.111 A 
ATOM      6  C   UNL     1       0.128  -8.566   3.395  1.00  0.00     0.134 A 
ATOM      7  C   UNL     1       1.424  -8.709   3.905  1.00  0.00     0.093 A 
ATOM      8  C   UNL     1       2.531  -8.231   3.200  1.00  0.00     0.123 A 
ATOM      9  C   UNL     1       2.350  -7.596   1.974  1.00  0.00     0.094 A 
ATOM     10  C   UNL     1       1.066  -7.404   1.459  1.00  0.00     0.146 A 
ATOM     11  O   UNL     1       0.938  -6.773   0.298  1.00  0.00    -0.452 OA
ENDROOT
BRANCH   1  12
ATOM     12  C   UNL     1      -0.239  -5.800  -1.567  1.00  0.00     0.025 A 
ATOM     13  C   UNL     1      -0.358  -4.402  -1.589  1.00  0.00     0.016 A 
ATOM     14  C   UNL     1      -0.387  -3.713  -2.805  1.00  0.00     0.051 A 
ATOM     15  C   UNL     1      -0.312  -4.411  -4.014  1.00  0.00     0.157 A 
ATOM     16  C   UNL     1      -0.185  -6.501  -2.785  1.00  0.00     0.062 A 
ATOM     17  C   UNL     1      -0.215  -5.812  -4.006  1.00  0.00     0.158 A 
BRANCH  15  18
ATOM     18  O   UNL     1      -0.339  -3.696  -5.211  1.00  0.00    -0.504 OA
ATOM     19  H   UNL     1       0.503  -3.488  -5.733  1.00  0.00     0.293 HD
ENDBRANCH  15  18
BRANCH  17  20
ATOM     20  O   UNL     1      -0.155  -6.514  -5.208  1.00  0.00    -0.504 OA
ATOM     21  H   UNL     1      -0.810  -6.338  -5.960  1.00  0.00     0.293 HD
ENDBRANCH  17  20
ENDBRANCH   1  12
BRANCH   2  22
ATOM     22  O   UNL     1      -2.659  -6.679  -0.237  1.00  0.00    -0.502 OA
ATOM     23  H   UNL     1      -3.332  -7.418  -0.400  1.00  0.00     0.293 HD
ENDBRANCH   2  22
BRANCH   6  24
ATOM     24  O   UNL     1      -0.899  -9.160   4.135  1.00  0.00    -0.507 OA
ATOM     25  H   UNL     1      -1.854  -8.836   4.164  1.00  0.00     0.293 HD
ENDBRANCH   6  24
BRANCH   8  26
ATOM     26  O   UNL     1       3.820  -8.393   3.705  1.00  0.00    -0.508 OA
ATOM     27  H   UNL     1       4.431  -7.600   3.861  1.00  0.00     0.293 HD
ENDBRANCH   8  26
TORSDOF 6
ENDMDL
MODEL 3
REMARK VINA RESULT:    -6.036      2.843      8.347
REMARK INTER + INTRA:          -7.576
REMARK INTER:                  -7.269
REMARK INTRA:                  -0.308
REMARK UNBOUND:                -0.305
REMARK SMILES O=c1c(O)c(-c2ccc(O)c(O)c2)oc2cc(O)cc(O)c12
REMARK SMILES IDX 5 1 3 2 2 3 1 4 22 5 20 6 19 7 17 8 16 9 15 10 14 11 6 12
REMARK SMILES IDX 7 13 8 14 9 15 13 16 11 17 10 18 12 20 4 22 21 24 18 26
REMARK H PARENT 10 19 12 21 4 23 21 25 18 27
REMARK Flexibility Score: inf
ROOT
ATOM      1  C   UNL     1      -0.797  -6.011   1.178  1.00  0.00     0.180 A 
ATOM      2  C   UNL     1       0.290  -6.763   1.658  1.00  0.00     0.208 A 
ATOM      3  C   UNL     1       0.359  -7.062   3.027  1.00  0.00     0.238 A 
ATOM      4  O   UNL     1       1.294  -7.798   3.437  1.00  0.00    -0.285 OA
ATOM      5  C   UNL     1      -0.628  -6.560   3.910  1.00  0.00     0.111 A 
ATOM      6  C   UNL     1      -0.634  -6.763   5.324  1.00  0.00     0.134 A 
ATOM      7  C   UNL     1      -1.719  -6.308   6.083  1.00  0.00     0.093 A 
ATOM      8  C   UNL     1      -2.768  -5.603   5.489  1.00  0.00     0.123 A 
ATOM      9  C   UNL     1      -2.745  -5.351   4.120  1.00  0.00     0.094 A 
ATOM     10  C   UNL     1      -1.695  -5.825   3.330  1.00  0.00     0.146 A 
ATOM     11  O   UNL     1      -1.725  -5.581   2.025  1.00  0.00    -0.452 OA
ENDROOT
BRANCH   1  12
ATOM     12  C   UNL     1      -0.947  -5.668  -0.254  1.00  0.00     0.025 A 
ATOM     13  C   UNL     1      -1.743  -6.478  -1.078  1.00  0.00     0.016 A 
ATOM     14  C   UNL     1      -1.882  -6.185  -2.438  1.00  0.00     0.051 A 
ATOM     15  C   UNL     1      -1.215  -5.090  -2.996  1.00  0.00     0.157 A 
ATOM     16  C   UNL     1      -0.261  -4.579  -0.822  1.00  0.00     0.062 A 
ATOM     17  C   UNL     1      -0.398  -4.285  -2.187  1.00  0.00     0.158 A 
BRANCH  15  18
ATOM     18  O   UNL     1      -1.375  -4.821  -4.355  1.00  0.00    -0.504 OA
ATOM     19  H   UNL     1      -0.938  -4.024  -4.801  1.00  0.00     0.293 HD
ENDBRANCH  15  18
BRANCH  17  20
ATOM     20  O   UNL     1       0.280  -3.200  -2.741  1.00  0.00    -0.504 OA
ATOM     21  H   UNL     1       0.621  -3.217  -3.695  1.00  0.00     0.293 HD
ENDBRANCH  17  20
ENDBRANCH   1  12
BRANCH   2  22
ATOM     22  O   UNL     1       1.294  -7.184   0.782  1.00  0.00    -0.502 OA
ATOM     23  H   UNL     1       1.660  -8.129   0.788  1.00  0.00     0.293 HD
ENDBRANCH   2  22
BRANCH   6  24
ATOM     24  O   UNL     1       0.405  -7.377   6.030  1.00  0.00    -0.507 OA
ATOM     25  H   UNL     1       1.271  -7.696   5.624  1.00  0.00     0.293 HD
ENDBRANCH   6  24
BRANCH   8  26
ATOM     26  O   UNL     1      -3.836  -5.138   6.255  1.00  0.00    -0.508 OA
ATOM     27  H   UNL     1      -4.524  -5.772   6.643  1.00  0.00     0.293 HD
ENDBRANCH   8  26
TORSDOF 6
ENDMDL
MODEL 4
REMARK VINA RESULT:    -5.991      2.498      3.809
REMARK INTER + INTRA:          -7.521
REMARK INTER:                  -7.214
REMARK INTRA:                  -0.307
REMARK UNBOUND:                -0.305
REMARK SMILES O=c1c(O)c(-c2ccc(O)c(O)c2)oc2cc(O)cc(O)c12
REMARK SMILES IDX 5 1 3 2 2 3 1 4 22 5 20 6 19 7 17 8 16 9 15 10 14 11 6 12
REMARK SMILES IDX 7 13 8 14 9 15 13 16 11 17 10 18 12 20 4 22 21 24 18 26
REMARK H PARENT 10 19 12 21 4 23 21 25 18 27
REMARK Flexibility Score: inf
ROOT
ATOM      1  C   UNL     1      -1.023  -4.852  -4.021  1.00  0.00     0.180 A 
ATOM      2  C   UNL     1      -2.117  -5.340  -4.758  1.00  0.00     0.208 A 
ATOM      3  C   UNL     1      -2.213  -5.025  -6.122  1.00  0.00     0.238 A 
ATOM      4  O   UNL     1      -3.153  -5.527  -6.792  1.00  0.00    -0.285 OA
ATOM      5  C   UNL     1      -1.247  -4.181  -6.721  1.00  0.00     0.111 A 
ATOM      6  C   UNL     1      -1.270  -3.759  -8.085  1.00  0.00     0.134 A 
ATOM      7  C   UNL     1      -0.202  -3.009  -8.595  1.00  0.00     0.093 A 
ATOM      8  C   UNL     1       0.855  -2.612  -7.774  1.00  0.00     0.123 A 
ATOM      9  C   UNL     1       0.859  -2.970  -6.429  1.00  0.00     0.094 A 
ATOM     10  C   UNL     1      -0.172  -3.751  -5.900  1.00  0.00     0.146 A 
ATOM     11  O   UNL     1      -0.116  -4.088  -4.618  1.00  0.00    -0.452 OA
ENDROOT
BRANCH   1  12
ATOM     12  C   UNL     1      -0.846  -5.152  -2.582  1.00  0.00     0.025 A 
ATOM     13  C   UNL     1      -0.031  -6.228  -2.198  1.00  0.00     0.016 A 
ATOM     14  C   UNL     1       0.134  -6.544  -0.846  1.00  0.00     0.051 A 
ATOM     15  C   UNL     1      -0.523  -5.800   0.138  1.00  0.00     0.157 A 
ATOM     16  C   UNL     1      -1.522  -4.419  -1.591  1.00  0.00     0.062 A 
ATOM     17  C   UNL     1      -1.359  -4.735  -0.235  1.00  0.00     0.158 A 
BRANCH  15  18
ATOM     18  O   UNL     1      -0.336  -6.137   1.479  1.00  0.00    -0.504 OA
ATOM     19  H   UNL     1      -0.149  -7.087   1.774  1.00  0.00     0.293 HD
ENDBRANCH  15  18
BRANCH  17  20
ATOM     20  O   UNL     1      -2.028  -3.998   0.742  1.00  0.00    -0.504 OA
ATOM     21  H   UNL     1      -1.566  -3.261   1.261  1.00  0.00     0.293 HD
ENDBRANCH  17  20
ENDBRANCH   1  12
BRANCH   2  22
ATOM     22  O   UNL     1      -3.101  -6.108  -4.130  1.00  0.00    -0.502 OA
ATOM     23  H   UNL     1      -3.946  -6.402  -4.605  1.00  0.00     0.293 HD
ENDBRANCH   2  22
BRANCH   6  24
ATOM     24  O   UNL     1      -2.320  -4.026  -8.969  1.00  0.00    -0.507 OA
ATOM     25  H   UNL     1      -2.653  -3.392  -9.680  1.00  0.00     0.293 HD
ENDBRANCH   6  24
BRANCH   8  26
ATOM     26  O   UNL     1       1.905  -1.850  -8.285  1.00  0.00    -0.508 OA
ATOM     27  H   UNL     1       2.644  -2.270  -8.836  1.00  0.00     0.293 HD
ENDBRANCH   8  26
TORSDOF 6
ENDMDL
MODEL 5
REMARK VINA RESULT:    -5.882      1.741      2.144
REMARK INTER + INTRA:          -7.391
REMARK INTER:                  -7.065
REMARK INTRA:                  -0.326
REMARK UNBOUND:                -0.305
REMARK SMILES O=c1c(O)c(-c2ccc(O)c(O)c2)oc2cc(O)cc(O)c12
REMARK SMILES IDX 5 1 3 2 2 3 1 4 22 5 20 6 19 7 17 8 16 9 15 10 14 11 6 12
REMARK SMILES IDX 7 13 8 14 9 15 13 16 11 17 10 18 12 20 4 22 21 24 18 26
REMARK H PARENT 10 19 12 21 4 23 21 25 18 27
REMARK Flexibility Score: inf
ROOT
ATOM      1  C   UNL     1      -1.234  -5.090  -3.796  1.00  0.00     0.180 A 
ATOM      2  C   UNL     1      -0.539  -4.105  -4.519  1.00  0.00     0.208 A 
ATOM      3  C   UNL     1      -0.817  -3.940  -5.886  1.00  0.00     0.238 A 
ATOM      4  O   UNL     1      -0.246  -3.008  -6.509  1.00  0.00    -0.285 OA
ATOM      5  C   UNL     1      -1.743  -4.799  -6.526  1.00  0.00     0.111 A 
ATOM      6  C   UNL     1      -2.068  -4.753  -7.915  1.00  0.00     0.134 A 
ATOM      7  C   UNL     1      -3.078  -5.583  -8.417  1.00  0.00     0.093 A 
ATOM      8  C   UNL     1      -3.731  -6.502  -7.592  1.00  0.00     0.123 A 
ATOM      9  C   UNL     1      -3.383  -6.594  -6.247  1.00  0.00     0.094 A 
ATOM     10  C   UNL     1      -2.406  -5.752  -5.709  1.00  0.00     0.146 A 
ATOM     11  O   UNL     1      -2.121  -5.859  -4.417  1.00  0.00    -0.452 OA
ENDROOT
BRANCH   1  12
ATOM     12  C   UNL     1      -1.008  -5.313  -2.350  1.00  0.00     0.025 A 
ATOM     13  C   UNL     1      -0.153  -6.348  -1.938  1.00  0.00     0.016 A 
ATOM     14  C   UNL     1       0.058  -6.591  -0.578  1.00  0.00     0.051 A 
ATOM     15  C   UNL     1      -0.590  -5.816   0.388  1.00  0.00     0.157 A 
ATOM     16  C   UNL     1      -1.675  -4.548  -1.377  1.00  0.00     0.062 A 
ATOM     17  C   UNL     1      -1.464  -4.792  -0.012  1.00  0.00     0.158 A 
BRANCH  15  18
ATOM     18  O   UNL     1      -0.356  -6.080   1.737  1.00  0.00    -0.504 OA
ATOM     19  H   UNL     1      -1.112  -6.185   2.403  1.00  0.00     0.293 HD
ENDBRANCH  15  18
BRANCH  17  20
ATOM     20  O   UNL     1      -2.125  -4.025   0.946  1.00  0.00    -0.504 OA
ATOM     21  H   UNL     1      -2.285  -3.033   0.815  1.00  0.00     0.293 HD
ENDBRANCH  17  20
ENDBRANCH   1  12
BRANCH   2  22
ATOM     22  O   UNL     1       0.427  -3.319  -3.886  1.00  0.00    -0.502 OA
ATOM     23  H   UNL     1       0.873  -3.598  -3.020  1.00  0.00     0.293 HD
ENDBRANCH   2  22
BRANCH   6  24
ATOM     24  O   UNL     1      -1.417  -3.936  -8.845  1.00  0.00    -0.507 OA
ATOM     25  H   UNL     1      -1.280  -2.942  -8.745  1.00  0.00     0.293 HD
ENDBRANCH   6  24
BRANCH   8  26
ATOM     26  O   UNL     1      -4.723  -7.336  -8.103  1.00  0.00    -0.508 OA
ATOM     27  H   UNL     1      -4.844  -8.284  -7.765  1.00  0.00     0.293 HD
ENDBRANCH   8  26
TORSDOF 6
ENDMDL
MODEL 6
REMARK VINA RESULT:    -5.813      2.827      8.483
REMARK INTER + INTRA:          -7.307
REMARK INTER:                  -6.985
REMARK INTRA:                  -0.322
REMARK UNBOUND:                -0.305
REMARK SMILES O=c1c(O)c(-c2ccc(O)c(O)c2)oc2cc(O)cc(O)c12
REMARK SMILES IDX 5 1 3 2 2 3 1 4 22 5 20 6 19 7 17 8 16 9 15 10 14 11 6 12
REMARK SMILES IDX 7 13 8 14 9 15 13 16 11 17 10 18 12 20 4 22 21 24 18 26
REMARK H PARENT 10 19 12 21 4 23 21 25 18 27
REMARK Flexibility Score: inf
ROOT
ATOM      1  C   UNL     1      -0.631  -6.094   0.846  1.00  0.00     0.180 A 
ATOM      2  C   UNL     1      -1.384  -5.518   1.885  1.00  0.00     0.208 A 
ATOM      3  C   UNL     1      -1.170  -5.953   3.202  1.00  0.00     0.238 A 
ATOM      4  O   UNL     1      -1.793  -5.381   4.134  1.00  0.00    -0.285 OA
ATOM      5  C   UNL     1      -0.248  -6.996   3.460  1.00  0.00     0.111 A 
ATOM      6  C   UNL     1       0.015  -7.547   4.751  1.00  0.00     0.134 A 
ATOM      7  C   UNL     1       1.027  -8.505   4.900  1.00  0.00     0.093 A 
ATOM      8  C   UNL     1       1.740  -8.977   3.796  1.00  0.00     0.123 A 
ATOM      9  C   UNL     1       1.452  -8.487   2.525  1.00  0.00     0.094 A 
ATOM     10  C   UNL     1       0.475  -7.504   2.349  1.00  0.00     0.146 A 
ATOM     11  O   UNL     1       0.250  -7.049   1.123  1.00  0.00    -0.452 OA
ENDROOT
BRANCH   1  12
ATOM     12  C   UNL     1      -0.790  -5.679  -0.566  1.00  0.00     0.025 A 
ATOM     13  C   UNL     1      -1.577  -6.456  -1.429  1.00  0.00     0.016 A 
ATOM     14  C   UNL     1      -1.723  -6.096  -2.771  1.00  0.00     0.051 A 
ATOM     15  C   UNL     1      -1.074  -4.964  -3.274  1.00  0.00     0.157 A 
ATOM     16  C   UNL     1      -0.121  -4.553  -1.078  1.00  0.00     0.062 A 
ATOM     17  C   UNL     1      -0.265  -4.191  -2.425  1.00  0.00     0.158 A 
BRANCH  15  18
ATOM     18  O   UNL     1      -1.241  -4.627  -4.617  1.00  0.00    -0.504 OA
ATOM     19  H   UNL     1      -1.066  -3.692  -4.963  1.00  0.00     0.293 HD
ENDBRANCH  15  18
BRANCH  17  20
ATOM     20  O   UNL     1       0.396  -3.069  -2.924  1.00  0.00    -0.504 OA
ATOM     21  H   UNL     1       1.181  -2.654  -2.435  1.00  0.00     0.293 HD
ENDBRANCH  17  20
ENDBRANCH   1  12
BRANCH   2  22
ATOM     22  O   UNL     1      -2.344  -4.544   1.600  1.00  0.00    -0.502 OA
ATOM     23  H   UNL     1      -2.430  -4.116   0.685  1.00  0.00     0.293 HD
ENDBRANCH   2  22
BRANCH   6  24
ATOM     24  O   UNL     1      -0.697  -7.211   5.906  1.00  0.00    -0.507 OA
ATOM     25  H   UNL     1      -1.696  -7.083   5.952  1.00  0.00     0.293 HD
ENDBRANCH   6  24
BRANCH   8  26
ATOM     26  O   UNL     1       2.732  -9.943   3.951  1.00  0.00    -0.508 OA
ATOM     27  H   UNL     1       3.712  -9.721   3.821  1.00  0.00     0.293 HD
ENDBRANCH   8  26
TORSDOF 6
ENDMDL
MODEL 7
REMARK VINA RESULT:    -5.621      2.073      6.874
REMARK INTER + INTRA:          -7.075
REMARK INTER:                  -6.781
REMARK INTRA:                  -0.294
REMARK UNBOUND:                -0.305
REMARK SMILES O=c1c(O)c(-c2ccc(O)c(O)c2)oc2cc(O)cc(O)c12
REMARK SMILES IDX 5 1 3 2 2 3 1 4 22 5 20 6 19 7 17 8 16 9 15 10 14 11 6 12
REMARK SMILES IDX 7 13 8 14 9 15 13 16 11 17 10 18 12 20 4 22 21 24 18 26
REMARK H PARENT 10 19 12 21 4 23 21 25 18 27
REMARK Flexibility Score: inf
ROOT
ATOM      1  C   UNL     1      -1.728  -5.916  -5.603  1.00  0.00     0.180 A 
ATOM      2  C   UNL     1      -0.874  -4.821  -5.827  1.00  0.00     0.208 A 
ATOM      3  C   UNL     1      -0.364  -4.119  -4.724  1.00  0.00     0.238 A 
ATOM      4  O   UNL     1       0.458  -3.188  -4.930  1.00  0.00    -0.285 OA
ATOM      5  C   UNL     1      -0.756  -4.483  -3.413  1.00  0.00     0.111 A 
ATOM      6  C   UNL     1      -0.337  -3.813  -2.224  1.00  0.00     0.134 A 
ATOM      7  C   UNL     1      -0.705  -4.328  -0.974  1.00  0.00     0.093 A 
ATOM      8  C   UNL     1      -1.529  -5.451  -0.872  1.00  0.00     0.123 A 
ATOM      9  C   UNL     1      -1.990  -6.078  -2.027  1.00  0.00     0.094 A 
ATOM     10  C   UNL     1      -1.608  -5.611  -3.287  1.00  0.00     0.146 A 
ATOM     11  O   UNL     1      -2.052  -6.254  -4.361  1.00  0.00    -0.452 OA
ENDROOT
BRANCH   1  12
ATOM     12  C   UNL     1      -2.294  -6.714  -6.714  1.00  0.00     0.025 A 
ATOM     13  C   UNL     1      -3.644  -6.552  -7.062  1.00  0.00     0.016 A 
ATOM     14  C   UNL     1      -4.206  -7.310  -8.092  1.00  0.00     0.051 A 
ATOM     15  C   UNL     1      -3.433  -8.251  -8.779  1.00  0.00     0.157 A 
ATOM     16  C   UNL     1      -1.524  -7.676  -7.392  1.00  0.00     0.062 A 
ATOM     17  C   UNL     1      -2.087  -8.439  -8.426  1.00  0.00     0.158 A 
BRANCH  15  18
ATOM     18  O   UNL     1      -4.020  -8.991  -9.806  1.00  0.00    -0.504 OA
ATOM     19  H   UNL     1      -4.523  -8.550 -10.566  1.00  0.00     0.293 HD
ENDBRANCH  15  18
BRANCH  17  20
ATOM     20  O   UNL     1      -1.315  -9.386  -9.098  1.00  0.00    -0.504 OA
ATOM     21  H   UNL     1      -0.585  -9.907  -8.627  1.00  0.00     0.293 HD
ENDBRANCH  17  20
ENDBRANCH   1  12
BRANCH   2  22
ATOM     22  O   UNL     1      -0.561  -4.431  -7.132  1.00  0.00    -0.502 OA
ATOM     23  H   UNL     1       0.303  -3.954  -7.364  1.00  0.00     0.293 HD
ENDBRANCH   2  22
BRANCH   6  24
ATOM     24  O   UNL     1       0.414  -2.634  -2.213  1.00  0.00    -0.507 OA
ATOM     25  H   UNL     1       1.211  -2.461  -1.620  1.00  0.00     0.293 HD
ENDBRANCH   6  24
BRANCH   8  26
ATOM     26  O   UNL     1      -1.905  -5.946   0.375  1.00  0.00    -0.508 OA
ATOM     27  H   UNL     1      -2.825  -6.341   0.532  1.00  0.00     0.293 HD
ENDBRANCH   8  26
TORSDOF 6
ENDMDL
MODEL 8
REMARK VINA RESULT:    -5.372      3.742      9.235
REMARK INTER + INTRA:          -6.776
REMARK INTER:                  -6.612
REMARK INTRA:                  -0.164
REMARK UNBOUND:                -0.305
REMARK SMILES O=c1c(O)c(-c2ccc(O)c(O)c2)oc2cc(O)cc(O)c12
REMARK SMILES IDX 5 1 3 2 2 3 1 4 22 5 20 6 19 7 17 8 16 9 15 10 14 11 6 12
REMARK SMILES IDX 7 13 8 14 9 15 13 16 11 17 10 18 12 20 4 22 21 24 18 26
REMARK H PARENT 10 19 12 21 4 23 21 25 18 27
REMARK Flexibility Score: inf
ROOT
ATOM      1  C   UNL     1      -1.388  -7.055   2.760  1.00  0.00     0.180 A 
ATOM      2  C   UNL     1      -1.123  -8.277   3.403  1.00  0.00     0.208 A 
ATOM      3  C   UNL     1      -1.581  -8.469   4.715  1.00  0.00     0.238 A 
ATOM      4  O   UNL     1      -1.405  -9.591   5.257  1.00  0.00    -0.285 OA
ATOM      5  C   UNL     1      -2.250  -7.419   5.390  1.00  0.00     0.111 A 
ATOM      6  C   UNL     1      -2.718  -7.487   6.737  1.00  0.00     0.134 A 
ATOM      7  C   UNL     1      -3.460  -6.423   7.266  1.00  0.00     0.093 A 
ATOM      8  C   UNL     1      -3.696  -5.268   6.517  1.00  0.00     0.123 A 
ATOM      9  C   UNL     1      -3.196  -5.169   5.222  1.00  0.00     0.094 A 
ATOM     10  C   UNL     1      -2.485  -6.229   4.653  1.00  0.00     0.146 A 
ATOM     11  O   UNL     1      -2.046  -6.100   3.407  1.00  0.00    -0.452 OA
ENDROOT
BRANCH   1  12
ATOM     12  C   UNL     1      -0.950  -6.782   1.372  1.00  0.00     0.025 A 
ATOM     13  C   UNL     1       0.422  -6.683   1.089  1.00  0.00     0.016 A 
ATOM     14  C   UNL     1       0.858  -6.405  -0.209  1.00  0.00     0.051 A 
ATOM     15  C   UNL     1      -0.068  -6.208  -1.239  1.00  0.00     0.157 A 
ATOM     16  C   UNL     1      -1.879  -6.563   0.340  1.00  0.00     0.062 A 
ATOM     17  C   UNL     1      -1.443  -6.282  -0.963  1.00  0.00     0.158 A 
BRANCH  15  18
ATOM     18  O   UNL     1       0.398  -5.935  -2.525  1.00  0.00    -0.504 OA
ATOM     19  H   UNL     1       0.915  -6.617  -3.065  1.00  0.00     0.293 HD
ENDBRANCH  15  18
BRANCH  17  20
ATOM     20  O   UNL     1      -2.371  -6.072  -1.982  1.00  0.00    -0.504 OA
ATOM     21  H   UNL     1      -2.175  -5.454  -2.760  1.00  0.00     0.293 HD
ENDBRANCH  17  20
ENDBRANCH   1  12
BRANCH   2  22
ATOM     22  O   UNL     1      -0.394  -9.272   2.746  1.00  0.00    -0.502 OA
ATOM     23  H   UNL     1       0.203  -9.925   3.241  1.00  0.00     0.293 HD
ENDBRANCH   2  22
BRANCH   6  24
ATOM     24  O   UNL     1      -2.463  -8.556   7.602  1.00  0.00    -0.507 OA
ATOM     25  H   UNL     1      -2.211  -8.466   8.574  1.00  0.00     0.293 HD
ENDBRANCH   6  24
BRANCH   8  26
ATOM     26  O   UNL     1      -4.421  -4.207   7.056  1.00  0.00    -0.508 OA
ATOM     27  H   UNL     1      -4.703  -3.416   6.489  1.00  0.00     0.293 HD
ENDBRANCH   8  26
TORSDOF 6
ENDMDL
MODEL 9
REMARK VINA RESULT:    -5.266      4.293      9.406
REMARK INTER + INTRA:          -6.648
REMARK INTER:                  -6.473
REMARK INTRA:                  -0.175
REMARK UNBOUND:                -0.305
REMARK SMILES O=c1c(O)c(-c2ccc(O)c(O)c2)oc2cc(O)cc(O)c12
REMARK SMILES IDX 5 1 3 2 2 3 1 4 22 5 20 6 19 7 17 8 16 9 15 10 14 11 6 12
REMARK SMILES IDX 7 13 8 14 9 15 13 16 11 17 10 18 12 20 4 22 21 24 18 26
REMARK H PARENT 10 19 12 21 4 23 21 25 18 27
REMARK Flexibility Score: inf
ROOT
ATOM      1  C   UNL     1       0.526  -7.163   2.187  1.00  0.00     0.180 A 
ATOM      2  C   UNL     1       0.126  -6.746   3.469  1.00  0.00     0.208 A 
ATOM      3  C   UNL     1       0.913  -7.098   4.577  1.00  0.00     0.238 A 
ATOM      4  O   UNL     1       0.589  -6.658   5.711  1.00  0.00    -0.285 OA
ATOM      5  C   UNL     1       2.060  -7.909   4.398  1.00  0.00     0.111 A 
ATOM      6  C   UNL     1       2.906  -8.365   5.454  1.00  0.00     0.134 A 
ATOM      7  C   UNL     1       4.073  -9.076   5.147  1.00  0.00     0.093 A 
ATOM      8  C   UNL     1       4.391  -9.401   3.826  1.00  0.00     0.123 A 
ATOM      9  C   UNL     1       3.543  -9.010   2.794  1.00  0.00     0.094 A 
ATOM     10  C   UNL     1       2.392  -8.268   3.065  1.00  0.00     0.146 A 
ATOM     11  O   UNL     1       1.624  -7.896   2.048  1.00  0.00    -0.452 OA
ENDROOT
BRANCH   1  12
ATOM     12  C   UNL     1      -0.243  -6.819   0.971  1.00  0.00     0.025 A 
ATOM     13  C   UNL     1      -1.521  -7.370   0.784  1.00  0.00     0.016 A 
ATOM     14  C   UNL     1      -2.256  -7.077  -0.368  1.00  0.00     0.051 A 
ATOM     15  C   UNL     1      -1.722  -6.243  -1.354  1.00  0.00     0.157 A 
ATOM     16  C   UNL     1       0.300  -5.997  -0.032  1.00  0.00     0.062 A 
ATOM     17  C   UNL     1      -0.436  -5.703  -1.189  1.00  0.00     0.158 A 
BRANCH  15  18
ATOM     18  O   UNL     1      -2.481  -5.966  -2.491  1.00  0.00    -0.504 OA
ATOM     19  H   UNL     1      -2.544  -5.034  -2.882  1.00  0.00     0.293 HD
ENDBRANCH  15  18
BRANCH  17  20
ATOM     20  O   UNL     1       0.108  -4.882  -2.176  1.00  0.00    -0.504 OA
ATOM     21  H   UNL     1       1.107  -4.734  -2.254  1.00  0.00     0.293 HD
ENDBRANCH  17  20
ENDBRANCH   1  12
BRANCH   2  22
ATOM     22  O   UNL     1      -1.051  -6.010   3.633  1.00  0.00    -0.502 OA
ATOM     23  H   UNL     1      -1.360  -5.673   4.537  1.00  0.00     0.293 HD
ENDBRANCH   2  22
BRANCH   6  24
ATOM     24  O   UNL     1       2.636  -8.171   6.812  1.00  0.00    -0.507 OA
ATOM     25  H   UNL     1       2.516  -7.273   7.255  1.00  0.00     0.293 HD
ENDBRANCH   6  24
BRANCH   8  26
ATOM     26  O   UNL     1       5.546 -10.124   3.531  1.00  0.00    -0.508 OA
ATOM     27  H   UNL     1       6.305 -10.204   4.197  1.00  0.00     0.293 HD
ENDBRANCH   8  26
TORSDOF 6
ENDMDL
