MODEL 1
REMARK VINA RESULT:    -6.950      0.000      0.000
REMARK INTER + INTRA:         -13.715
REMARK INTER:                 -11.419
REMARK INTRA:                  -2.296
REMARK UNBOUND:                -2.296
REMARK SMILES C[C@@H]1O[C@@H](OC[C@@H]2O[C@@H](Oc3c(-c4ccc(O)c(O)c4)oc4cc(O)cc(O)c4c3=O)[C@H](O)[C@H](O)[C@@H]2O)[C@@H](O)[C@H](O)[C@@H]1O
REMARK SMILES IDX 7 1 36 2 34 3 32 4 9 5 8 6 6 7 5 8 4 9 1 10 2 11 42 12 3 13
REMARK SMILES IDX 40 14 38 15 43 16 41 18 39 20 37 22 35 24 10 26 11 27 12 28
REMARK SMILES IDX 30 29 21 30 29 31 31 32 22 33 27 34 23 35 26 36 24 37 13 38
REMARK SMILES IDX 20 39 14 40 18 41 15 42 16 43 19 44 17 46 28 48 25 50 33 52
REMARK H PARENT 43 17 41 19 39 21 37 23 35 25 19 45 17 47 28 49 25 51 33 53
REMARK Flexibility Score: inf
ROOT
ATOM      1  C   UNL     1     -25.222 -63.154  55.433  1.00  0.00     0.180 C 
ATOM      2  C   UNL     1     -25.241 -61.672  54.984  1.00  0.00     0.177 C 
ATOM      3  C   UNL     1     -23.879 -61.030  55.303  1.00  0.00     0.180 C 
ATOM      4  C   UNL     1     -23.493 -61.275  56.770  1.00  0.00     0.214 C 
ATOM      5  C   UNL     1     -23.638 -62.769  57.125  1.00  0.00     0.339 C 
ATOM      6  O   UNL     1     -24.936 -63.259  56.820  1.00  0.00    -0.332 OA
ENDROOT
BRANCH   1   7
ATOM      7  C   UNL     1     -26.558 -63.855  55.159  1.00  0.00     0.198 C 
BRANCH   7   8
ATOM      8  O   UNL     1     -26.764 -64.884  56.103  1.00  0.00    -0.347 OA
BRANCH   8   9
ATOM      9  C   UNL     1     -26.705 -66.164  55.484  1.00  0.00     0.281 C 
ATOM     10  C   UNL     1     -30.019 -66.127  53.869  1.00  0.00     0.041 C 
ATOM     11  C   UNL     1     -29.008 -66.150  55.018  1.00  0.00     0.150 C 
ATOM     12  C   UNL     1     -29.311 -67.299  56.007  1.00  0.00     0.174 C 
ATOM     13  O   UNL     1     -27.702 -66.279  54.477  1.00  0.00    -0.344 OA
ATOM     14  C   UNL     1     -28.270 -67.273  57.138  1.00  0.00     0.179 C 
ATOM     15  C   UNL     1     -26.849 -67.272  56.548  1.00  0.00     0.202 C 
BRANCH  12  16
ATOM     16  O   UNL     1     -29.257 -68.543  55.349  1.00  0.00    -0.388 OA
ATOM     17  H   UNL     1     -28.690 -69.142  55.901  1.00  0.00     0.211 HD
ENDBRANCH  12  16
BRANCH  14  18
ATOM     18  O   UNL     1     -28.431 -68.391  57.972  1.00  0.00    -0.387 OA
ATOM     19  H   UNL     1     -27.736 -69.049  57.707  1.00  0.00     0.211 HD
ENDBRANCH  14  18
BRANCH  15  20
ATOM     20  O   UNL     1     -25.901 -67.065  57.564  1.00  0.00    -0.385 OA
ATOM     21  H   UNL     1     -25.337 -66.300  57.280  1.00  0.00     0.211 HD
ENDBRANCH  15  20
ENDBRANCH   8   9
ENDBRANCH   7   8
ENDBRANCH   1   7
BRANCH   2  22
ATOM     22  O   UNL     1     -26.266 -60.967  55.641  1.00  0.00    -0.387 OA
ATOM     23  H   UNL     1     -26.929 -61.638  55.951  1.00  0.00     0.211 HD
ENDBRANCH   2  22
BRANCH   3  24
ATOM     24  O   UNL     1     -23.913 -59.651  55.044  1.00  0.00    -0.387 OA
ATOM     25  H   UNL     1     -23.110 -59.441  54.503  1.00  0.00     0.211 HD
ENDBRANCH   3  24
BRANCH   5  26
ATOM     26  O   UNL     1     -22.628 -63.542  56.473  1.00  0.00    -0.454 OA
BRANCH  26  27
ATOM     27  C   UNL     1     -21.827 -64.446  57.179  1.00  0.00     0.214 A 
ATOM     28  C   UNL     1     -20.544 -64.070  57.621  1.00  0.00     0.180 A 
ATOM     29  C   UNL     1     -22.303 -65.729  57.481  1.00  0.00     0.239 A 
ATOM     30  O   UNL     1     -19.828 -64.913  58.359  1.00  0.00    -0.452 OA
ATOM     31  C   UNL     1     -21.507 -66.601  58.252  1.00  0.00     0.111 A 
ATOM     32  O   UNL     1     -23.439 -66.081  57.064  1.00  0.00    -0.285 OA
ATOM     33  C   UNL     1     -20.246 -66.130  58.689  1.00  0.00     0.146 A 
ATOM     34  C   UNL     1     -21.919 -67.908  58.613  1.00  0.00     0.134 A 
ATOM     35  C   UNL     1     -19.422 -66.946  59.471  1.00  0.00     0.094 A 
ATOM     36  C   UNL     1     -21.078 -68.710  59.396  1.00  0.00     0.093 A 
ATOM     37  C   UNL     1     -19.836 -68.234  59.825  1.00  0.00     0.123 A 
BRANCH  28  38
ATOM     38  C   UNL     1     -19.967 -62.744  57.309  1.00  0.00     0.025 A 
ATOM     39  C   UNL     1     -19.431 -62.504  56.035  1.00  0.00     0.062 A 
ATOM     40  C   UNL     1     -19.991 -61.699  58.249  1.00  0.00     0.016 A 
ATOM     41  C   UNL     1     -18.896 -61.252  55.710  1.00  0.00     0.158 A 
ATOM     42  C   UNL     1     -19.458 -60.449  57.928  1.00  0.00     0.051 A 
ATOM     43  C   UNL     1     -18.906 -60.219  56.662  1.00  0.00     0.157 A 
BRANCH  41  44
ATOM     44  O   UNL     1     -18.361 -61.053  54.437  1.00  0.00    -0.504 OA
ATOM     45  H   UNL     1     -17.698 -61.700  54.027  1.00  0.00     0.293 HD
ENDBRANCH  41  44
BRANCH  43  46
ATOM     46  O   UNL     1     -18.376 -58.969  56.346  1.00  0.00    -0.504 OA
ATOM     47  H   UNL     1     -18.881 -58.308  55.768  1.00  0.00     0.293 HD
ENDBRANCH  43  46
ENDBRANCH  28  38
BRANCH  34  48
ATOM     48  O   UNL     1     -23.153 -68.410  58.199  1.00  0.00    -0.507 OA
ATOM     49  H   UNL     1     -23.581 -68.120  57.326  1.00  0.00     0.293 HD
ENDBRANCH  34  48
BRANCH  37  50
ATOM     50  O   UNL     1     -19.020 -69.052  60.604  1.00  0.00    -0.508 OA
ATOM     51  H   UNL     1     -18.793 -69.998  60.318  1.00  0.00     0.293 HD
ENDBRANCH  37  50
ENDBRANCH  26  27
ENDBRANCH   5  26
BRANCH   4  52
ATOM     52  O   UNL     1     -24.308 -60.502  57.613  1.00  0.00    -0.384 OA
ATOM     53  H   UNL     1     -24.144 -60.819  58.542  1.00  0.00     0.211 HD
ENDBRANCH   4  52
TORSDOF 16
ENDMDL
MODEL 2
REMARK VINA RESULT:    -6.445      2.071      8.200
REMARK INTER + INTRA:         -12.885
REMARK INTER:                  -9.875
REMARK INTRA:                  -3.010
REMARK UNBOUND:                -2.296
REMARK SMILES C[C@@H]1O[C@@H](OC[C@@H]2O[C@@H](Oc3c(-c4ccc(O)c(O)c4)oc4cc(O)cc(O)c4c3=O)[C@H](O)[C@H](O)[C@@H]2O)[C@@H](O)[C@H](O)[C@@H]1O
REMARK SMILES IDX 7 1 36 2 34 3 32 4 9 5 8 6 6 7 5 8 4 9 1 10 2 11 42 12 3 13
REMARK SMILES IDX 40 14 38 15 43 16 41 18 39 20 37 22 35 24 10 26 11 27 12 28
REMARK SMILES IDX 30 29 21 30 29 31 31 32 22 33 27 34 23 35 26 36 24 37 13 38
REMARK SMILES IDX 20 39 14 40 18 41 15 42 16 43 19 44 17 46 28 48 25 50 33 52
REMARK H PARENT 43 17 41 19 39 21 37 23 35 25 19 45 17 47 28 49 25 51 33 53
REMARK Flexibility Score: inf
ROOT
ATOM      1  C   UNL     1     -22.247 -65.051  55.583  1.00  0.00     0.180 C 
ATOM      2  C   UNL     1     -21.463 -66.359  55.855  1.00  0.00     0.177 C 
ATOM      3  C   UNL     1     -22.459 -67.481  56.197  1.00  0.00     0.180 C 
ATOM      4  C   UNL     1     -23.417 -67.036  57.313  1.00  0.00     0.214 C 
ATOM      5  C   UNL     1     -24.033 -65.662  56.981  1.00  0.00     0.339 C 
ATOM      6  O   UNL     1     -23.034 -64.690  56.708  1.00  0.00    -0.332 OA
ENDROOT
BRANCH   1   7
ATOM      7  C   UNL     1     -21.313 -63.881  55.249  1.00  0.00     0.198 C 
BRANCH   7   8
ATOM      8  O   UNL     1     -20.804 -63.317  56.439  1.00  0.00    -0.347 OA
BRANCH   8   9
ATOM      9  C   UNL     1     -20.949 -61.901  56.436  1.00  0.00     0.281 C 
ATOM     10  C   UNL     1     -17.396 -61.002  56.035  1.00  0.00     0.041 C 
ATOM     11  C   UNL     1     -18.641 -61.568  56.723  1.00  0.00     0.150 C 
ATOM     12  C   UNL     1     -18.805 -60.988  58.147  1.00  0.00     0.174 C 
ATOM     13  O   UNL     1     -19.778 -61.279  55.924  1.00  0.00    -0.344 OA
ATOM     14  C   UNL     1     -20.066 -61.591  58.789  1.00  0.00     0.179 C 
ATOM     15  C   UNL     1     -21.275 -61.401  57.859  1.00  0.00     0.202 C 
BRANCH  12  16
ATOM     16  O   UNL     1     -18.929 -59.587  58.096  1.00  0.00    -0.388 OA
ATOM     17  H   UNL     1     -19.863 -59.385  57.823  1.00  0.00     0.211 HD
ENDBRANCH  12  16
BRANCH  14  18
ATOM     18  O   UNL     1     -20.322 -60.975  60.025  1.00  0.00    -0.387 OA
ATOM     19  H   UNL     1     -20.137 -61.654  60.727  1.00  0.00     0.211 HD
ENDBRANCH  14  18
BRANCH  15  20
ATOM     20  O   UNL     1     -22.385 -62.105  58.354  1.00  0.00    -0.385 OA
ATOM     21  H   UNL     1     -22.162 -62.380  59.281  1.00  0.00     0.211 HD
ENDBRANCH  15  20
ENDBRANCH   8   9
ENDBRANCH   7   8
ENDBRANCH   1   7
BRANCH   2  22
ATOM     22  O   UNL     1     -20.558 -66.184  56.917  1.00  0.00    -0.387 OA
ATOM     23  H   UNL     1     -20.660 -65.249  57.236  1.00  0.00     0.211 HD
ENDBRANCH   2  22
BRANCH   3  24
ATOM     24  O   UNL     1     -21.775 -68.642  56.592  1.00  0.00    -0.387 OA
ATOM     25  H   UNL     1     -22.293 -69.041  57.336  1.00  0.00     0.211 HD
ENDBRANCH   3  24
BRANCH   5  26
ATOM     26  O   UNL     1     -24.956 -65.773  55.895  1.00  0.00    -0.454 OA
BRANCH  26  27
ATOM     27  C   UNL     1     -26.322 -65.525  56.066  1.00  0.00     0.214 A 
ATOM     28  C   UNL     1     -26.838 -64.225  55.901  1.00  0.00     0.180 A 
ATOM     29  C   UNL     1     -27.200 -66.572  56.374  1.00  0.00     0.239 A 
ATOM     30  O   UNL     1     -28.150 -64.020  55.988  1.00  0.00    -0.452 OA
ATOM     31  C   UNL     1     -28.583 -66.313  56.474  1.00  0.00     0.111 A 
ATOM     32  O   UNL     1     -26.741 -67.733  56.551  1.00  0.00    -0.285 OA
ATOM     33  C   UNL     1     -29.022 -64.985  56.256  1.00  0.00     0.146 A 
ATOM     34  C   UNL     1     -29.538 -67.317  56.768  1.00  0.00     0.134 A 
ATOM     35  C   UNL     1     -30.383 -64.674  56.326  1.00  0.00     0.094 A 
ATOM     36  C   UNL     1     -30.898 -66.983  56.835  1.00  0.00     0.093 A 
ATOM     37  C   UNL     1     -31.321 -65.670  56.614  1.00  0.00     0.123 A 
BRANCH  28  38
ATOM     38  C   UNL     1     -25.964 -63.068  55.608  1.00  0.00     0.025 A 
ATOM     39  C   UNL     1     -25.687 -62.135  56.618  1.00  0.00     0.062 A 
ATOM     40  C   UNL     1     -25.360 -62.911  54.348  1.00  0.00     0.016 A 
ATOM     41  C   UNL     1     -24.848 -61.042  56.371  1.00  0.00     0.158 A 
ATOM     42  C   UNL     1     -24.523 -61.822  54.097  1.00  0.00     0.051 A 
ATOM     43  C   UNL     1     -24.265 -60.882  55.103  1.00  0.00     0.157 A 
BRANCH  41  44
ATOM     44  O   UNL     1     -24.605 -60.129  57.396  1.00  0.00    -0.504 OA
ATOM     45  H   UNL     1     -23.673 -59.788  57.603  1.00  0.00     0.293 HD
ENDBRANCH  41  44
BRANCH  43  46
ATOM     46  O   UNL     1     -23.427 -59.798  54.848  1.00  0.00    -0.504 OA
ATOM     47  H   UNL     1     -22.874 -59.370  55.580  1.00  0.00     0.293 HD
ENDBRANCH  43  46
ENDBRANCH  28  38
BRANCH  34  48
ATOM     48  O   UNL     1     -29.145 -68.637  56.994  1.00  0.00    -0.507 OA
ATOM     49  H   UNL     1     -29.651 -69.419  56.594  1.00  0.00     0.293 HD
ENDBRANCH  34  48
BRANCH  37  50
ATOM     50  O   UNL     1     -32.680 -65.367  56.685  1.00  0.00    -0.508 OA
ATOM     51  H   UNL     1     -33.002 -64.414  56.811  1.00  0.00     0.293 HD
ENDBRANCH  37  50
ENDBRANCH  26  27
ENDBRANCH   5  26
BRANCH   4  52
ATOM     52  O   UNL     1     -22.727 -66.967  58.535  1.00  0.00    -0.384 OA
ATOM     53  H   UNL     1     -22.459 -67.897  58.767  1.00  0.00     0.211 HD
ENDBRANCH   4  52
TORSDOF 16
ENDMDL
MODEL 3
REMARK VINA RESULT:    -6.355      4.794      8.171
REMARK INTER + INTRA:         -12.737
REMARK INTER:                 -10.677
REMARK INTRA:                  -2.061
REMARK UNBOUND:                -2.296
REMARK SMILES C[C@@H]1O[C@@H](OC[C@@H]2O[C@@H](Oc3c(-c4ccc(O)c(O)c4)oc4cc(O)cc(O)c4c3=O)[C@H](O)[C@H](O)[C@@H]2O)[C@@H](O)[C@H](O)[C@@H]1O
REMARK SMILES IDX 7 1 36 2 34 3 32 4 9 5 8 6 6 7 5 8 4 9 1 10 2 11 42 12 3 13
REMARK SMILES IDX 40 14 38 15 43 16 41 18 39 20 37 22 35 24 10 26 11 27 12 28
REMARK SMILES IDX 30 29 21 30 29 31 31 32 22 33 27 34 23 35 26 36 24 37 13 38
REMARK SMILES IDX 20 39 14 40 18 41 15 42 16 43 19 44 17 46 28 48 25 50 33 52
REMARK H PARENT 43 17 41 19 39 21 37 23 35 25 19 45 17 47 28 49 25 51 33 53
REMARK Flexibility Score: inf
ROOT
ATOM      1  C   UNL     1     -30.668 -61.876  57.615  1.00  0.00     0.180 C 
ATOM      2  C   UNL     1     -31.658 -62.505  56.603  1.00  0.00     0.177 C 
ATOM      3  C   UNL     1     -30.917 -63.560  55.762  1.00  0.00     0.180 C 
ATOM      4  C   UNL     1     -29.633 -62.970  55.157  1.00  0.00     0.214 C 
ATOM      5  C   UNL     1     -28.799 -62.262  56.244  1.00  0.00     0.339 C 
ATOM      6  O   UNL     1     -29.562 -61.290  56.944  1.00  0.00    -0.332 OA
ENDROOT
BRANCH   1   7
ATOM      7  C   UNL     1     -31.336 -60.800  58.479  1.00  0.00     0.198 C 
BRANCH   7   8
ATOM      8  O   UNL     1     -30.564 -60.565  59.637  1.00  0.00    -0.347 OA
BRANCH   8   9
ATOM      9  C   UNL     1     -30.644 -61.666  60.536  1.00  0.00     0.281 C 
ATOM     10  C   UNL     1     -33.670 -60.635  62.374  1.00  0.00     0.041 C 
ATOM     11  C   UNL     1     -32.218 -60.568  61.892  1.00  0.00     0.150 C 
ATOM     12  C   UNL     1     -31.240 -60.432  63.081  1.00  0.00     0.174 C 
ATOM     13  O   UNL     1     -31.932 -61.733  61.132  1.00  0.00    -0.344 OA
ATOM     14  C   UNL     1     -29.801 -60.367  62.540  1.00  0.00     0.179 C 
ATOM     15  C   UNL     1     -29.535 -61.558  61.604  1.00  0.00     0.202 C 
BRANCH  12  16
ATOM     16  O   UNL     1     -31.364 -61.533  63.950  1.00  0.00    -0.388 OA
ATOM     17  H   UNL     1     -31.389 -62.350  63.386  1.00  0.00     0.211 HD
ENDBRANCH  12  16
BRANCH  14  18
ATOM     18  O   UNL     1     -28.882 -60.389  63.602  1.00  0.00    -0.387 OA
ATOM     19  H   UNL     1     -28.122 -60.957  63.310  1.00  0.00     0.211 HD
ENDBRANCH  14  18
BRANCH  15  20
ATOM     20  O   UNL     1     -28.292 -61.407  60.967  1.00  0.00    -0.385 OA
ATOM     21  H   UNL     1     -28.002 -60.470  61.119  1.00  0.00     0.211 HD
ENDBRANCH  15  20
ENDBRANCH   8   9
ENDBRANCH   7   8
ENDBRANCH   1   7
BRANCH   2  22
ATOM     22  O   UNL     1     -32.200 -61.518  55.760  1.00  0.00    -0.387 OA
ATOM     23  H   UNL     1     -32.231 -61.901  54.845  1.00  0.00     0.211 HD
ENDBRANCH   2  22
BRANCH   3  24
ATOM     24  O   UNL     1     -31.746 -64.043  54.738  1.00  0.00    -0.387 OA
ATOM     25  H   UNL     1     -32.125 -64.901  55.056  1.00  0.00     0.211 HD
ENDBRANCH   3  24
BRANCH   5  26
ATOM     26  O   UNL     1     -28.230 -63.216  57.143  1.00  0.00    -0.454 OA
BRANCH  26  27
ATOM     27  C   UNL     1     -26.853 -63.460  57.179  1.00  0.00     0.214 A 
ATOM     28  C   UNL     1     -26.311 -64.592  56.542  1.00  0.00     0.180 A 
ATOM     29  C   UNL     1     -25.991 -62.563  57.824  1.00  0.00     0.239 A 
ATOM     30  O   UNL     1     -24.992 -64.767  56.517  1.00  0.00    -0.452 OA
ATOM     31  C   UNL     1     -24.600 -62.791  57.791  1.00  0.00     0.111 A 
ATOM     32  O   UNL     1     -26.472 -61.563  58.421  1.00  0.00    -0.285 OA
ATOM     33  C   UNL     1     -24.136 -63.933  57.095  1.00  0.00     0.146 A 
ATOM     34  C   UNL     1     -23.660 -61.928  58.406  1.00  0.00     0.134 A 
ATOM     35  C   UNL     1     -22.765 -64.199  57.015  1.00  0.00     0.094 A 
ATOM     36  C   UNL     1     -22.290 -62.213  58.314  1.00  0.00     0.093 A 
ATOM     37  C   UNL     1     -21.843 -63.341  57.622  1.00  0.00     0.123 A 
BRANCH  28  38
ATOM     38  C   UNL     1     -27.166 -65.596  55.871  1.00  0.00     0.025 A 
ATOM     39  C   UNL     1     -27.728 -66.640  56.620  1.00  0.00     0.062 A 
ATOM     40  C   UNL     1     -27.469 -65.496  54.502  1.00  0.00     0.016 A 
ATOM     41  C   UNL     1     -28.556 -67.591  56.012  1.00  0.00     0.158 A 
ATOM     42  C   UNL     1     -28.293 -66.443  53.891  1.00  0.00     0.051 A 
ATOM     43  C   UNL     1     -28.838 -67.495  54.639  1.00  0.00     0.157 A 
BRANCH  41  44
ATOM     44  O   UNL     1     -29.088 -68.622  56.786  1.00  0.00    -0.504 OA
ATOM     45  H   UNL     1     -30.068 -68.874  56.743  1.00  0.00     0.293 HD
ENDBRANCH  41  44
BRANCH  43  46
ATOM     46  O   UNL     1     -29.661 -68.437  54.024  1.00  0.00    -0.504 OA
ATOM     47  H   UNL     1     -29.279 -69.221  53.509  1.00  0.00     0.293 HD
ENDBRANCH  43  46
ENDBRANCH  28  38
BRANCH  34  48
ATOM     48  O   UNL     1     -24.078 -60.794  59.104  1.00  0.00    -0.507 OA
ATOM     49  H   UNL     1     -24.179 -59.894  58.647  1.00  0.00     0.293 HD
ENDBRANCH  34  48
BRANCH  37  50
ATOM     50  O   UNL     1     -20.475 -63.600  57.546  1.00  0.00    -0.508 OA
ATOM     51  H   UNL     1     -20.051 -63.951  56.694  1.00  0.00     0.293 HD
ENDBRANCH  37  50
ENDBRANCH  26  27
ENDBRANCH   5  26
BRANCH   4  52
ATOM     52  O   UNL     1     -29.960 -62.059  54.138  1.00  0.00    -0.384 OA
ATOM     53  H   UNL     1     -30.258 -61.222  54.585  1.00  0.00     0.211 HD
ENDBRANCH   4  52
TORSDOF 16
ENDMDL
MODEL 4
REMARK VINA RESULT:    -6.306      2.296      7.896
REMARK INTER + INTRA:         -12.657
REMARK INTER:                 -10.183
REMARK INTRA:                  -2.474
REMARK UNBOUND:                -2.296
REMARK SMILES C[C@@H]1O[C@@H](OC[C@@H]2O[C@@H](Oc3c(-c4ccc(O)c(O)c4)oc4cc(O)cc(O)c4c3=O)[C@H](O)[C@H](O)[C@@H]2O)[C@@H](O)[C@H](O)[C@@H]1O
REMARK SMILES IDX 7 1 36 2 34 3 32 4 9 5 8 6 6 7 5 8 4 9 1 10 2 11 42 12 3 13
REMARK SMILES IDX 40 14 38 15 43 16 41 18 39 20 37 22 35 24 10 26 11 27 12 28
REMARK SMILES IDX 30 29 21 30 29 31 31 32 22 33 27 34 23 35 26 36 24 37 13 38
REMARK SMILES IDX 20 39 14 40 18 41 15 42 16 43 19 44 17 46 28 48 25 50 33 52
REMARK H PARENT 43 17 41 19 39 21 37 23 35 25 19 45 17 47 28 49 25 51 33 53
REMARK Flexibility Score: inf
ROOT
ATOM      1  C   UNL     1     -22.505 -64.389  54.442  1.00  0.00     0.180 C 
ATOM      2  C   UNL     1     -22.806 -63.601  53.143  1.00  0.00     0.177 C 
ATOM      3  C   UNL     1     -24.307 -63.715  52.821  1.00  0.00     0.180 C 
ATOM      4  C   UNL     1     -24.754 -65.184  52.825  1.00  0.00     0.214 C 
ATOM      5  C   UNL     1     -24.282 -65.890  54.113  1.00  0.00     0.339 C 
ATOM      6  O   UNL     1     -22.882 -65.751  54.306  1.00  0.00    -0.332 OA
ENDROOT
BRANCH   1   7
ATOM      7  C   UNL     1     -21.019 -64.332  54.817  1.00  0.00     0.198 C 
BRANCH   7   8
ATOM      8  O   UNL     1     -20.872 -63.833  56.129  1.00  0.00    -0.347 OA
BRANCH   8   9
ATOM      9  C   UNL     1     -21.082 -62.425  56.167  1.00  0.00     0.281 C 
ATOM     10  C   UNL     1     -17.556 -61.358  55.994  1.00  0.00     0.041 C 
ATOM     11  C   UNL     1     -18.810 -62.003  56.593  1.00  0.00     0.150 C 
ATOM     12  C   UNL     1     -19.078 -61.483  58.023  1.00  0.00     0.174 C 
ATOM     13  O   UNL     1     -19.914 -61.735  55.742  1.00  0.00    -0.344 OA
ATOM     14  C   UNL     1     -20.342 -62.164  58.574  1.00  0.00     0.179 C 
ATOM     15  C   UNL     1     -21.507 -61.992  57.585  1.00  0.00     0.202 C 
BRANCH  12  16
ATOM     16  O   UNL     1     -19.262 -60.088  58.014  1.00  0.00    -0.388 OA
ATOM     17  H   UNL     1     -20.237 -59.920  58.113  1.00  0.00     0.211 HD
ENDBRANCH  12  16
BRANCH  14  18
ATOM     18  O   UNL     1     -20.692 -61.605  59.814  1.00  0.00    -0.387 OA
ATOM     19  H   UNL     1     -21.624 -61.891  60.003  1.00  0.00     0.211 HD
ENDBRANCH  14  18
BRANCH  15  20
ATOM     20  O   UNL     1     -22.609 -62.762  57.993  1.00  0.00    -0.385 OA
ATOM     21  H   UNL     1     -22.609 -62.762  58.986  1.00  0.00     0.211 HD
ENDBRANCH  15  20
ENDBRANCH   8   9
ENDBRANCH   7   8
ENDBRANCH   1   7
BRANCH   2  22
ATOM     22  O   UNL     1     -22.049 -64.104  52.070  1.00  0.00    -0.387 OA
ATOM     23  H   UNL     1     -21.292 -64.614  52.461  1.00  0.00     0.211 HD
ENDBRANCH   2  22
BRANCH   3  24
ATOM     24  O   UNL     1     -24.587 -63.136  51.573  1.00  0.00    -0.387 OA
ATOM     25  H   UNL     1     -25.538 -63.331  51.373  1.00  0.00     0.211 HD
ENDBRANCH   3  24
BRANCH   5  26
ATOM     26  O   UNL     1     -25.010 -65.409  55.245  1.00  0.00    -0.454 OA
BRANCH  26  27
ATOM     27  C   UNL     1     -25.980 -66.192  55.880  1.00  0.00     0.214 A 
ATOM     28  C   UNL     1     -25.607 -67.156  56.836  1.00  0.00     0.180 A 
ATOM     29  C   UNL     1     -27.339 -66.006  55.595  1.00  0.00     0.239 A 
ATOM     30  O   UNL     1     -26.545 -67.836  57.489  1.00  0.00    -0.452 OA
ATOM     31  C   UNL     1     -28.305 -66.758  56.296  1.00  0.00     0.111 A 
ATOM     32  O   UNL     1     -27.679 -65.165  54.720  1.00  0.00    -0.285 OA
ATOM     33  C   UNL     1     -27.845 -67.678  57.268  1.00  0.00     0.146 A 
ATOM     34  C   UNL     1     -29.698 -66.622  56.078  1.00  0.00     0.134 A 
ATOM     35  C   UNL     1     -28.759 -68.438  58.004  1.00  0.00     0.094 A 
ATOM     36  C   UNL     1     -30.598 -67.394  56.826  1.00  0.00     0.093 A 
ATOM     37  C   UNL     1     -30.134 -68.297  57.786  1.00  0.00     0.123 A 
BRANCH  28  38
ATOM     38  C   UNL     1     -24.189 -67.427  57.161  1.00  0.00     0.025 A 
ATOM     39  C   UNL     1     -23.370 -66.382  57.616  1.00  0.00     0.062 A 
ATOM     40  C   UNL     1     -23.656 -68.724  57.073  1.00  0.00     0.016 A 
ATOM     41  C   UNL     1     -22.031 -66.617  57.948  1.00  0.00     0.158 A 
ATOM     42  C   UNL     1     -22.320 -68.963  57.402  1.00  0.00     0.051 A 
ATOM     43  C   UNL     1     -21.501 -67.914  57.837  1.00  0.00     0.157 A 
BRANCH  41  44
ATOM     44  O   UNL     1     -21.244 -65.552  58.385  1.00  0.00    -0.504 OA
ATOM     45  H   UNL     1     -21.573 -64.892  59.080  1.00  0.00     0.293 HD
ENDBRANCH  41  44
BRANCH  43  46
ATOM     46  O   UNL     1     -20.168 -68.157  58.166  1.00  0.00    -0.504 OA
ATOM     47  H   UNL     1     -19.649 -67.535  58.773  1.00  0.00     0.293 HD
ENDBRANCH  43  46
ENDBRANCH  28  38
BRANCH  34  48
ATOM     48  O   UNL     1     -30.191 -65.728  55.125  1.00  0.00    -0.507 OA
ATOM     49  H   UNL     1     -30.825 -64.978  55.377  1.00  0.00     0.293 HD
ENDBRANCH  34  48
BRANCH  37  50
ATOM     50  O   UNL     1     -31.050 -69.051  58.517  1.00  0.00    -0.508 OA
ATOM     51  H   UNL     1     -31.444 -69.909  58.146  1.00  0.00     0.293 HD
ENDBRANCH  37  50
ENDBRANCH  26  27
ENDBRANCH   5  26
BRANCH   4  52
ATOM     52  O   UNL     1     -24.232 -65.845  51.701  1.00  0.00    -0.384 OA
ATOM     53  H   UNL     1     -23.727 -66.633  52.038  1.00  0.00     0.211 HD
ENDBRANCH   4  52
TORSDOF 16
ENDMDL
MODEL 5
REMARK VINA RESULT:    -6.252      2.221      6.050
REMARK INTER + INTRA:         -12.568
REMARK INTER:                  -9.857
REMARK INTRA:                  -2.711
REMARK UNBOUND:                -2.296
REMARK SMILES C[C@@H]1O[C@@H](OC[C@@H]2O[C@@H](Oc3c(-c4ccc(O)c(O)c4)oc4cc(O)cc(O)c4c3=O)[C@H](O)[C@H](O)[C@@H]2O)[C@@H](O)[C@H](O)[C@@H]1O
REMARK SMILES IDX 7 1 36 2 34 3 32 4 9 5 8 6 6 7 5 8 4 9 1 10 2 11 42 12 3 13
REMARK SMILES IDX 40 14 38 15 43 16 41 18 39 20 37 22 35 24 10 26 11 27 12 28
REMARK SMILES IDX 30 29 21 30 29 31 31 32 22 33 27 34 23 35 26 36 24 37 13 38
REMARK SMILES IDX 20 39 14 40 18 41 15 42 16 43 19 44 17 46 28 48 25 50 33 52
REMARK H PARENT 43 17 41 19 39 21 37 23 35 25 19 45 17 47 28 49 25 51 33 53
REMARK Flexibility Score: inf
ROOT
ATOM      1  C   UNL     1     -24.273 -65.983  57.132  1.00  0.00     0.180 C 
ATOM      2  C   UNL     1     -24.133 -67.440  57.639  1.00  0.00     0.177 C 
ATOM      3  C   UNL     1     -22.724 -67.635  58.228  1.00  0.00     0.180 C 
ATOM      4  C   UNL     1     -21.650 -67.172  57.233  1.00  0.00     0.214 C 
ATOM      5  C   UNL     1     -21.974 -65.759  56.706  1.00  0.00     0.339 C 
ATOM      6  O   UNL     1     -23.283 -65.688  56.159  1.00  0.00    -0.332 OA
ENDROOT
BRANCH   1   7
ATOM      7  C   UNL     1     -25.653 -65.720  56.516  1.00  0.00     0.198 C 
BRANCH   7   8
ATOM      8  O   UNL     1     -25.657 -66.114  55.160  1.00  0.00    -0.347 OA
BRANCH   8   9
ATOM      9  C   UNL     1     -25.920 -65.005  54.307  1.00  0.00     0.281 C 
ATOM     10  C   UNL     1     -29.439 -65.769  53.512  1.00  0.00     0.041 C 
ATOM     11  C   UNL     1     -27.920 -65.961  53.525  1.00  0.00     0.150 C 
ATOM     12  C   UNL     1     -27.371 -66.172  52.096  1.00  0.00     0.174 C 
ATOM     13  O   UNL     1     -27.320 -64.828  54.136  1.00  0.00    -0.344 OA
ATOM     14  C   UNL     1     -25.846 -66.360  52.169  1.00  0.00     0.179 C 
ATOM     15  C   UNL     1     -25.208 -65.201  52.952  1.00  0.00     0.202 C 
BRANCH  12  16
ATOM     16  O   UNL     1     -27.668 -65.060  51.284  1.00  0.00    -0.388 OA
ATOM     17  H   UNL     1     -27.624 -65.366  50.340  1.00  0.00     0.211 HD
ENDBRANCH  12  16
BRANCH  14  18
ATOM     18  O   UNL     1     -25.301 -66.409  50.875  1.00  0.00    -0.387 OA
ATOM     19  H   UNL     1     -24.409 -66.838  50.957  1.00  0.00     0.211 HD
ENDBRANCH  14  18
BRANCH  15  20
ATOM     20  O   UNL     1     -23.846 -65.459  53.178  1.00  0.00    -0.385 OA
ATOM     21  H   UNL     1     -23.419 -64.589  53.393  1.00  0.00     0.211 HD
ENDBRANCH  15  20
ENDBRANCH   8   9
ENDBRANCH   7   8
ENDBRANCH   1   7
BRANCH   2  22
ATOM     22  O   UNL     1     -24.343 -68.353  56.590  1.00  0.00    -0.387 OA
ATOM     23  H   UNL     1     -25.054 -67.973  56.011  1.00  0.00     0.211 HD
ENDBRANCH   2  22
BRANCH   3  24
ATOM     24  O   UNL     1     -22.514 -68.983  58.562  1.00  0.00    -0.387 OA
ATOM     25  H   UNL     1     -23.261 -69.251  59.154  1.00  0.00     0.211 HD
ENDBRANCH   3  24
BRANCH   5  26
ATOM     26  O   UNL     1     -21.792 -64.784  57.735  1.00  0.00    -0.454 OA
BRANCH  26  27
ATOM     27  C   UNL     1     -21.102 -63.590  57.501  1.00  0.00     0.214 A 
ATOM     28  C   UNL     1     -21.796 -62.369  57.408  1.00  0.00     0.180 A 
ATOM     29  C   UNL     1     -19.705 -63.589  57.385  1.00  0.00     0.239 A 
ATOM     30  O   UNL     1     -21.119 -61.234  57.265  1.00  0.00    -0.452 OA
ATOM     31  C   UNL     1     -19.022 -62.367  57.217  1.00  0.00     0.111 A 
ATOM     32  O   UNL     1     -19.079 -64.682  57.439  1.00  0.00    -0.285 OA
ATOM     33  C   UNL     1     -19.795 -61.182  57.172  1.00  0.00     0.146 A 
ATOM     34  C   UNL     1     -17.613 -62.277  57.105  1.00  0.00     0.134 A 
ATOM     35  C   UNL     1     -19.170 -59.940  57.024  1.00  0.00     0.094 A 
ATOM     36  C   UNL     1     -17.006 -61.022  56.956  1.00  0.00     0.093 A 
ATOM     37  C   UNL     1     -17.777 -59.858  56.917  1.00  0.00     0.123 A 
BRANCH  28  38
ATOM     38  C   UNL     1     -23.272 -62.302  57.488  1.00  0.00     0.025 A 
ATOM     39  C   UNL     1     -23.903 -62.369  58.740  1.00  0.00     0.062 A 
ATOM     40  C   UNL     1     -24.057 -62.118  56.336  1.00  0.00     0.016 A 
ATOM     41  C   UNL     1     -25.296 -62.288  58.842  1.00  0.00     0.158 A 
ATOM     42  C   UNL     1     -25.447 -62.038  56.435  1.00  0.00     0.051 A 
ATOM     43  C   UNL     1     -26.074 -62.125  57.684  1.00  0.00     0.157 A 
BRANCH  41  44
ATOM     44  O   UNL     1     -25.889 -62.371  60.103  1.00  0.00    -0.504 OA
ATOM     45  H   UNL     1     -26.889 -62.480  60.219  1.00  0.00     0.293 HD
ENDBRANCH  41  44
BRANCH  43  46
ATOM     46  O   UNL     1     -27.462 -62.044  57.777  1.00  0.00    -0.504 OA
ATOM     47  H   UNL     1     -27.940 -61.152  57.823  1.00  0.00     0.293 HD
ENDBRANCH  43  46
ENDBRANCH  28  38
BRANCH  34  48
ATOM     48  O   UNL     1     -16.817 -63.423  57.141  1.00  0.00    -0.507 OA
ATOM     49  H   UNL     1     -15.898 -63.419  57.570  1.00  0.00     0.293 HD
ENDBRANCH  34  48
BRANCH  37  50
ATOM     50  O   UNL     1     -17.148 -58.623  56.770  1.00  0.00    -0.508 OA
ATOM     51  H   UNL     1     -16.397 -58.489  56.102  1.00  0.00     0.293 HD
ENDBRANCH  37  50
ENDBRANCH  26  27
ENDBRANCH   5  26
BRANCH   4  52
ATOM     52  O   UNL     1     -21.573 -68.075  56.159  1.00  0.00    -0.384 OA
ATOM     53  H   UNL     1     -20.608 -68.272  56.017  1.00  0.00     0.211 HD
ENDBRANCH   4  52
TORSDOF 16
ENDMDL
MODEL 6
REMARK VINA RESULT:    -6.249      1.943      8.102
REMARK INTER + INTRA:         -12.564
REMARK INTER:                  -9.585
REMARK INTRA:                  -2.979
REMARK UNBOUND:                -2.296
REMARK SMILES C[C@@H]1O[C@@H](OC[C@@H]2O[C@@H](Oc3c(-c4ccc(O)c(O)c4)oc4cc(O)cc(O)c4c3=O)[C@H](O)[C@H](O)[C@@H]2O)[C@@H](O)[C@H](O)[C@@H]1O
REMARK SMILES IDX 7 1 36 2 34 3 32 4 9 5 8 6 6 7 5 8 4 9 1 10 2 11 42 12 3 13
REMARK SMILES IDX 40 14 38 15 43 16 41 18 39 20 37 22 35 24 10 26 11 27 12 28
REMARK SMILES IDX 30 29 21 30 29 31 31 32 22 33 27 34 23 35 26 36 24 37 13 38
REMARK SMILES IDX 20 39 14 40 18 41 15 42 16 43 19 44 17 46 28 48 25 50 33 52
REMARK H PARENT 43 17 41 19 39 21 37 23 35 25 19 45 17 47 28 49 25 51 33 53
REMARK Flexibility Score: inf
ROOT
ATOM      1  C   UNL     1     -21.243 -65.506  55.721  1.00  0.00     0.180 C 
ATOM      2  C   UNL     1     -20.356 -66.704  56.138  1.00  0.00     0.177 C 
ATOM      3  C   UNL     1     -21.258 -67.895  56.508  1.00  0.00     0.180 C 
ATOM      4  C   UNL     1     -22.326 -67.471  57.528  1.00  0.00     0.214 C 
ATOM      5  C   UNL     1     -23.049 -66.194  57.056  1.00  0.00     0.339 C 
ATOM      6  O   UNL     1     -22.134 -65.147  56.766  1.00  0.00    -0.332 OA
ENDROOT
BRANCH   1   7
ATOM      7  C   UNL     1     -20.408 -64.273  55.352  1.00  0.00     0.198 C 
BRANCH   7   8
ATOM      8  O   UNL     1     -20.066 -63.557  56.519  1.00  0.00    -0.347 OA
BRANCH   8   9
ATOM      9  C   UNL     1     -20.341 -62.168  56.365  1.00  0.00     0.281 C 
ATOM     10  C   UNL     1     -16.868 -60.930  56.423  1.00  0.00     0.041 C 
ATOM     11  C   UNL     1     -18.149 -61.571  56.964  1.00  0.00     0.150 C 
ATOM     12  C   UNL     1     -18.591 -60.905  58.287  1.00  0.00     0.174 C 
ATOM     13  O   UNL     1     -19.166 -61.466  55.980  1.00  0.00    -0.344 OA
ATOM     14  C   UNL     1     -19.876 -61.588  58.785  1.00  0.00     0.179 C 
ATOM     15  C   UNL     1     -20.934 -61.598  57.670  1.00  0.00     0.202 C 
BRANCH  12  16
ATOM     16  O   UNL     1     -18.835 -59.533  58.091  1.00  0.00    -0.388 OA
ATOM     17  H   UNL     1     -19.803 -59.433  57.887  1.00  0.00     0.211 HD
ENDBRANCH  12  16
BRANCH  14  18
ATOM     18  O   UNL     1     -20.382 -60.910  59.907  1.00  0.00    -0.387 OA
ATOM     19  H   UNL     1     -19.830 -61.191  60.683  1.00  0.00     0.211 HD
ENDBRANCH  14  18
BRANCH  15  20
ATOM     20  O   UNL     1     -22.039 -62.377  58.055  1.00  0.00    -0.385 OA
ATOM     21  H   UNL     1     -21.688 -63.116  58.617  1.00  0.00     0.211 HD
ENDBRANCH  15  20
ENDBRANCH   8   9
ENDBRANCH   7   8
ENDBRANCH   1   7
BRANCH   2  22
ATOM     22  O   UNL     1     -19.543 -66.362  57.235  1.00  0.00    -0.387 OA
ATOM     23  H   UNL     1     -19.736 -65.414  57.456  1.00  0.00     0.211 HD
ENDBRANCH   2  22
BRANCH   3  24
ATOM     24  O   UNL     1     -20.492 -68.948  57.031  1.00  0.00    -0.387 OA
ATOM     25  H   UNL     1     -19.759 -69.118  56.387  1.00  0.00     0.211 HD
ENDBRANCH   3  24
BRANCH   5  26
ATOM     26  O   UNL     1     -23.884 -66.476  55.930  1.00  0.00    -0.454 OA
BRANCH  26  27
ATOM     27  C   UNL     1     -25.236 -66.118  55.912  1.00  0.00     0.214 A 
ATOM     28  C   UNL     1     -25.660 -64.964  55.226  1.00  0.00     0.180 A 
ATOM     29  C   UNL     1     -26.191 -66.920  56.550  1.00  0.00     0.239 A 
ATOM     30  O   UNL     1     -26.958 -64.681  55.150  1.00  0.00    -0.452 OA
ATOM     31  C   UNL     1     -27.556 -66.579  56.462  1.00  0.00     0.111 A 
ATOM     32  O   UNL     1     -25.815 -67.939  57.190  1.00  0.00    -0.285 OA
ATOM     33  C   UNL     1     -27.900 -65.423  55.721  1.00  0.00     0.146 A 
ATOM     34  C   UNL     1     -28.585 -67.343  57.067  1.00  0.00     0.134 A 
ATOM     35  C   UNL     1     -29.240 -65.047  55.586  1.00  0.00     0.094 A 
ATOM     36  C   UNL     1     -29.922 -66.947  56.921  1.00  0.00     0.093 A 
ATOM     37  C   UNL     1     -30.251 -65.807  56.183  1.00  0.00     0.123 A 
BRANCH  28  38
ATOM     38  C   UNL     1     -24.703 -64.055  54.558  1.00  0.00     0.025 A 
ATOM     39  C   UNL     1     -24.420 -62.805  55.129  1.00  0.00     0.062 A 
ATOM     40  C   UNL     1     -24.029 -64.440  53.386  1.00  0.00     0.016 A 
ATOM     41  C   UNL     1     -23.504 -61.935  54.526  1.00  0.00     0.158 A 
ATOM     42  C   UNL     1     -23.114 -63.575  52.782  1.00  0.00     0.051 A 
ATOM     43  C   UNL     1     -22.849 -62.320  53.344  1.00  0.00     0.157 A 
BRANCH  41  44
ATOM     44  O   UNL     1     -23.257 -60.696  55.116  1.00  0.00    -0.504 OA
ATOM     45  H   UNL     1     -23.098 -59.861  54.565  1.00  0.00     0.293 HD
ENDBRANCH  41  44
BRANCH  43  46
ATOM     46  O   UNL     1     -21.935 -61.460  52.737  1.00  0.00    -0.504 OA
ATOM     47  H   UNL     1     -21.411 -60.779  53.272  1.00  0.00     0.293 HD
ENDBRANCH  43  46
ENDBRANCH  28  38
BRANCH  34  48
ATOM     48  O   UNL     1     -28.287 -68.486  57.809  1.00  0.00    -0.507 OA
ATOM     49  H   UNL     1     -27.336 -68.712  58.080  1.00  0.00     0.293 HD
ENDBRANCH  34  48
BRANCH  37  50
ATOM     50  O   UNL     1     -31.588 -65.438  56.052  1.00  0.00    -0.508 OA
ATOM     51  H   UNL     1     -31.924 -64.954  55.226  1.00  0.00     0.293 HD
ENDBRANCH  37  50
ENDBRANCH  26  27
ENDBRANCH   5  26
BRANCH   4  52
ATOM     52  O   UNL     1     -21.728 -67.245  58.779  1.00  0.00    -0.384 OA
ATOM     53  H   UNL     1     -20.758 -67.441  58.675  1.00  0.00     0.211 HD
ENDBRANCH   4  52
TORSDOF 16
ENDMDL
MODEL 7
REMARK VINA RESULT:    -6.237      1.889      4.757
REMARK INTER + INTRA:         -12.545
REMARK INTER:                 -10.250
REMARK INTRA:                  -2.295
REMARK UNBOUND:                -2.296
REMARK SMILES C[C@@H]1O[C@@H](OC[C@@H]2O[C@@H](Oc3c(-c4ccc(O)c(O)c4)oc4cc(O)cc(O)c4c3=O)[C@H](O)[C@H](O)[C@@H]2O)[C@@H](O)[C@H](O)[C@@H]1O
REMARK SMILES IDX 7 1 36 2 34 3 32 4 9 5 8 6 6 7 5 8 4 9 1 10 2 11 42 12 3 13
REMARK SMILES IDX 40 14 38 15 43 16 41 18 39 20 37 22 35 24 10 26 11 27 12 28
REMARK SMILES IDX 30 29 21 30 29 31 31 32 22 33 27 34 23 35 26 36 24 37 13 38
REMARK SMILES IDX 20 39 14 40 18 41 15 42 16 43 19 44 17 46 28 48 25 50 33 52
REMARK H PARENT 43 17 41 19 39 21 37 23 35 25 19 45 17 47 28 49 25 51 33 53
REMARK Flexibility Score: inf
ROOT
ATOM      1  C   UNL     1     -24.721 -63.868  57.182  1.00  0.00     0.180 C 
ATOM      2  C   UNL     1     -25.650 -62.633  57.096  1.00  0.00     0.177 C 
ATOM      3  C   UNL     1     -24.796 -61.377  56.843  1.00  0.00     0.180 C 
ATOM      4  C   UNL     1     -23.655 -61.280  57.867  1.00  0.00     0.214 C 
ATOM      5  C   UNL     1     -22.888 -62.615  57.950  1.00  0.00     0.339 C 
ATOM      6  O   UNL     1     -23.758 -63.707  58.213  1.00  0.00    -0.332 OA
ENDROOT
BRANCH   1   7
ATOM      7  C   UNL     1     -25.505 -65.159  57.450  1.00  0.00     0.198 C 
BRANCH   7   8
ATOM      8  O   UNL     1     -26.689 -65.171  56.681  1.00  0.00    -0.347 OA
BRANCH   8   9
ATOM      9  C   UNL     1     -26.679 -66.243  55.745  1.00  0.00     0.281 C 
ATOM     10  C   UNL     1     -29.429 -65.083  53.579  1.00  0.00     0.041 C 
ATOM     11  C   UNL     1     -28.758 -65.607  54.852  1.00  0.00     0.150 C 
ATOM     12  C   UNL     1     -29.479 -66.865  55.387  1.00  0.00     0.174 C 
ATOM     13  O   UNL     1     -27.395 -65.887  54.570  1.00  0.00    -0.344 OA
ATOM     14  C   UNL     1     -28.767 -67.345  56.663  1.00  0.00     0.179 C 
ATOM     15  C   UNL     1     -27.262 -67.516  56.394  1.00  0.00     0.202 C 
BRANCH  12  16
ATOM     16  O   UNL     1     -29.459 -67.892  54.424  1.00  0.00    -0.388 OA
ATOM     17  H   UNL     1     -28.968 -68.659  54.823  1.00  0.00     0.211 HD
ENDBRANCH  12  16
BRANCH  14  18
ATOM     18  O   UNL     1     -29.309 -68.568  57.091  1.00  0.00    -0.387 OA
ATOM     19  H   UNL     1     -30.018 -68.351  57.751  1.00  0.00     0.211 HD
ENDBRANCH  14  18
BRANCH  15  20
ATOM     20  O   UNL     1     -26.580 -67.777  57.595  1.00  0.00    -0.385 OA
ATOM     21  H   UNL     1     -27.256 -68.101  58.245  1.00  0.00     0.211 HD
ENDBRANCH  15  20
ENDBRANCH   8   9
ENDBRANCH   7   8
ENDBRANCH   1   7
BRANCH   2  22
ATOM     22  O   UNL     1     -26.384 -62.479  58.286  1.00  0.00    -0.387 OA
ATOM     23  H   UNL     1     -25.804 -61.988  58.925  1.00  0.00     0.211 HD
ENDBRANCH   2  22
BRANCH   3  24
ATOM     24  O   UNL     1     -25.591 -60.221  56.907  1.00  0.00    -0.387 OA
ATOM     25  H   UNL     1     -26.158 -60.307  57.714  1.00  0.00     0.211 HD
ENDBRANCH   3  24
BRANCH   5  26
ATOM     26  O   UNL     1     -22.130 -62.835  56.758  1.00  0.00    -0.454 OA
BRANCH  26  27
ATOM     27  C   UNL     1     -20.767 -63.147  56.803  1.00  0.00     0.214 A 
ATOM     28  C   UNL     1     -20.341 -64.489  56.800  1.00  0.00     0.180 A 
ATOM     29  C   UNL     1     -19.806 -62.128  56.821  1.00  0.00     0.239 A 
ATOM     30  O   UNL     1     -19.041 -64.769  56.762  1.00  0.00    -0.452 OA
ATOM     31  C   UNL     1     -18.436 -62.463  56.797  1.00  0.00     0.111 A 
ATOM     32  O   UNL     1     -20.180 -60.925  56.853  1.00  0.00    -0.285 OA
ATOM     33  C   UNL     1     -18.095 -63.836  56.756  1.00  0.00     0.146 A 
ATOM     34  C   UNL     1     -17.403 -61.495  56.800  1.00  0.00     0.134 A 
ATOM     35  C   UNL     1     -16.753 -64.227  56.713  1.00  0.00     0.094 A 
ATOM     36  C   UNL     1     -16.064 -61.907  56.758  1.00  0.00     0.093 A 
ATOM     37  C   UNL     1     -15.738 -63.265  56.714  1.00  0.00     0.123 A 
BRANCH  28  38
ATOM     38  C   UNL     1     -21.302 -65.614  56.815  1.00  0.00     0.025 A 
ATOM     39  C   UNL     1     -21.885 -66.043  55.613  1.00  0.00     0.062 A 
ATOM     40  C   UNL     1     -21.603 -66.299  58.005  1.00  0.00     0.016 A 
ATOM     41  C   UNL     1     -22.783 -67.118  55.599  1.00  0.00     0.158 A 
ATOM     42  C   UNL     1     -22.499 -67.371  57.995  1.00  0.00     0.051 A 
ATOM     43  C   UNL     1     -23.094 -67.784  56.796  1.00  0.00     0.157 A 
BRANCH  41  44
ATOM     44  O   UNL     1     -23.352 -67.509  54.388  1.00  0.00    -0.504 OA
ATOM     45  H   UNL     1     -23.299 -66.930  53.558  1.00  0.00     0.293 HD
ENDBRANCH  41  44
BRANCH  43  46
ATOM     46  O   UNL     1     -23.986 -68.855  56.792  1.00  0.00    -0.504 OA
ATOM     47  H   UNL     1     -23.664 -69.814  56.735  1.00  0.00     0.293 HD
ENDBRANCH  43  46
ENDBRANCH  28  38
BRANCH  34  48
ATOM     48  O   UNL     1     -17.698 -60.131  56.844  1.00  0.00    -0.507 OA
ATOM     49  H   UNL     1     -17.743 -59.569  56.001  1.00  0.00     0.293 HD
ENDBRANCH  34  48
BRANCH  37  50
ATOM     50  O   UNL     1     -14.398 -63.647  56.671  1.00  0.00    -0.508 OA
ATOM     51  H   UNL     1     -13.940 -64.058  57.477  1.00  0.00     0.293 HD
ENDBRANCH  37  50
ENDBRANCH  26  27
ENDBRANCH   5  26
BRANCH   4  52
ATOM     52  O   UNL     1     -24.174 -60.949  59.131  1.00  0.00    -0.384 OA
ATOM     53  H   UNL     1     -24.892 -60.278  58.980  1.00  0.00     0.211 HD
ENDBRANCH   4  52
TORSDOF 16
ENDMDL
MODEL 8
REMARK VINA RESULT:    -6.126      2.258      7.860
REMARK INTER + INTRA:         -12.361
REMARK INTER:                 -10.110
REMARK INTRA:                  -2.251
REMARK UNBOUND:                -2.296
REMARK SMILES C[C@@H]1O[C@@H](OC[C@@H]2O[C@@H](Oc3c(-c4ccc(O)c(O)c4)oc4cc(O)cc(O)c4c3=O)[C@H](O)[C@H](O)[C@@H]2O)[C@@H](O)[C@H](O)[C@@H]1O
REMARK SMILES IDX 7 1 36 2 34 3 32 4 9 5 8 6 6 7 5 8 4 9 1 10 2 11 42 12 3 13
REMARK SMILES IDX 40 14 38 15 43 16 41 18 39 20 37 22 35 24 10 26 11 27 12 28
REMARK SMILES IDX 30 29 21 30 29 31 31 32 22 33 27 34 23 35 26 36 24 37 13 38
REMARK SMILES IDX 20 39 14 40 18 41 15 42 16 43 19 44 17 46 28 48 25 50 33 52
REMARK H PARENT 43 17 41 19 39 21 37 23 35 25 19 45 17 47 28 49 25 51 33 53
REMARK Flexibility Score: inf
ROOT
ATOM      1  C   UNL     1     -23.288 -62.090  57.184  1.00  0.00     0.180 C 
ATOM      2  C   UNL     1     -24.038 -61.233  58.233  1.00  0.00     0.177 C 
ATOM      3  C   UNL     1     -25.010 -62.133  59.017  1.00  0.00     0.180 C 
ATOM      4  C   UNL     1     -25.900 -62.939  58.057  1.00  0.00     0.214 C 
ATOM      5  C   UNL     1     -25.042 -63.640  56.984  1.00  0.00     0.339 C 
ATOM      6  O   UNL     1     -24.201 -62.723  56.300  1.00  0.00    -0.332 OA
ENDROOT
BRANCH   1   7
ATOM      7  C   UNL     1     -22.309 -61.252  56.351  1.00  0.00     0.198 C 
BRANCH   7   8
ATOM      8  O   UNL     1     -21.039 -61.867  56.339  1.00  0.00    -0.347 OA
BRANCH   8   9
ATOM      9  C   UNL     1     -20.099 -61.113  57.097  1.00  0.00     0.281 C 
ATOM     10  C   UNL     1     -18.258 -59.582  54.292  1.00  0.00     0.041 C 
ATOM     11  C   UNL     1     -18.763 -60.701  55.209  1.00  0.00     0.150 C 
ATOM     12  C   UNL     1     -17.593 -61.566  55.730  1.00  0.00     0.174 C 
ATOM     13  O   UNL     1     -19.483 -60.121  56.286  1.00  0.00    -0.344 OA
ATOM     14  C   UNL     1     -18.156 -62.671  56.640  1.00  0.00     0.179 C 
ATOM     15  C   UNL     1     -19.052 -62.054  57.728  1.00  0.00     0.202 C 
BRANCH  12  16
ATOM     16  O   UNL     1     -16.683 -60.777  56.459  1.00  0.00    -0.388 OA
ATOM     17  H   UNL     1     -16.040 -61.398  56.894  1.00  0.00     0.211 HD
ENDBRANCH  12  16
BRANCH  14  18
ATOM     18  O   UNL     1     -17.107 -63.383  57.244  1.00  0.00    -0.387 OA
ATOM     19  H   UNL     1     -17.397 -63.588  58.172  1.00  0.00     0.211 HD
ENDBRANCH  14  18
BRANCH  15  20
ATOM     20  O   UNL     1     -19.711 -63.065  58.446  1.00  0.00    -0.385 OA
ATOM     21  H   UNL     1     -19.011 -63.590  58.914  1.00  0.00     0.211 HD
ENDBRANCH  15  20
ENDBRANCH   8   9
ENDBRANCH   7   8
ENDBRANCH   1   7
BRANCH   2  22
ATOM     22  O   UNL     1     -24.750 -60.194  57.607  1.00  0.00    -0.387 OA
ATOM     23  H   UNL     1     -24.248 -59.354  57.775  1.00  0.00     0.211 HD
ENDBRANCH   2  22
BRANCH   3  24
ATOM     24  O   UNL     1     -25.811 -61.362  59.874  1.00  0.00    -0.387 OA
ATOM     25  H   UNL     1     -25.556 -61.604  60.800  1.00  0.00     0.211 HD
ENDBRANCH   3  24
BRANCH   5  26
ATOM     26  O   UNL     1     -24.282 -64.703  57.564  1.00  0.00    -0.454 OA
BRANCH  26  27
ATOM     27  C   UNL     1     -23.566 -65.608  56.775  1.00  0.00     0.214 A 
ATOM     28  C   UNL     1     -24.240 -66.502  55.921  1.00  0.00     0.180 A 
ATOM     29  C   UNL     1     -22.164 -65.617  56.799  1.00  0.00     0.239 A 
ATOM     30  O   UNL     1     -23.543 -67.300  55.117  1.00  0.00    -0.452 OA
ATOM     31  C   UNL     1     -21.460 -66.490  55.945  1.00  0.00     0.111 A 
ATOM     32  O   UNL     1     -21.555 -64.840  57.582  1.00  0.00    -0.285 OA
ATOM     33  C   UNL     1     -22.216 -67.328  55.091  1.00  0.00     0.146 A 
ATOM     34  C   UNL     1     -20.045 -66.552  55.899  1.00  0.00     0.134 A 
ATOM     35  C   UNL     1     -21.570 -68.202  54.211  1.00  0.00     0.094 A 
ATOM     36  C   UNL     1     -19.417 -67.436  55.010  1.00  0.00     0.093 A 
ATOM     37  C   UNL     1     -20.172 -68.256  54.169  1.00  0.00     0.123 A 
BRANCH  28  38
ATOM     38  C   UNL     1     -25.718 -66.568  55.869  1.00  0.00     0.025 A 
ATOM     39  C   UNL     1     -26.416 -67.252  56.875  1.00  0.00     0.062 A 
ATOM     40  C   UNL     1     -26.441 -65.915  54.856  1.00  0.00     0.016 A 
ATOM     41  C   UNL     1     -27.815 -67.313  56.858  1.00  0.00     0.158 A 
ATOM     42  C   UNL     1     -27.836 -65.974  54.835  1.00  0.00     0.051 A 
ATOM     43  C   UNL     1     -28.529 -66.674  55.831  1.00  0.00     0.157 A 
BRANCH  41  44
ATOM     44  O   UNL     1     -28.475 -68.011  57.869  1.00  0.00    -0.504 OA
ATOM     45  H   UNL     1     -28.741 -68.983  57.765  1.00  0.00     0.293 HD
ENDBRANCH  41  44
BRANCH  43  46
ATOM     46  O   UNL     1     -29.922 -66.729  55.807  1.00  0.00    -0.504 OA
ATOM     47  H   UNL     1     -30.415 -67.554  55.489  1.00  0.00     0.293 HD
ENDBRANCH  43  46
ENDBRANCH  28  38
BRANCH  34  48
ATOM     48  O   UNL     1     -19.265 -65.745  56.728  1.00  0.00    -0.507 OA
ATOM     49  H   UNL     1     -19.304 -65.824  57.738  1.00  0.00     0.293 HD
ENDBRANCH  34  48
BRANCH  37  50
ATOM     50  O   UNL     1     -19.522 -69.124  53.293  1.00  0.00    -0.508 OA
ATOM     51  H   UNL     1     -19.280 -70.070  53.569  1.00  0.00     0.293 HD
ENDBRANCH  37  50
ENDBRANCH  26  27
ENDBRANCH   5  26
BRANCH   4  52
ATOM     52  O   UNL     1     -26.830 -62.086  57.440  1.00  0.00    -0.384 OA
ATOM     53  H   UNL     1     -27.702 -62.232  57.897  1.00  0.00     0.211 HD
ENDBRANCH   4  52
TORSDOF 16
ENDMDL
MODEL 9
REMARK VINA RESULT:    -6.097      2.311      5.218
REMARK INTER + INTRA:         -12.313
REMARK INTER:                  -9.617
REMARK INTRA:                  -2.696
REMARK UNBOUND:                -2.296
REMARK SMILES C[C@@H]1O[C@@H](OC[C@@H]2O[C@@H](Oc3c(-c4ccc(O)c(O)c4)oc4cc(O)cc(O)c4c3=O)[C@H](O)[C@H](O)[C@@H]2O)[C@@H](O)[C@H](O)[C@@H]1O
REMARK SMILES IDX 7 1 36 2 34 3 32 4 9 5 8 6 6 7 5 8 4 9 1 10 2 11 42 12 3 13
REMARK SMILES IDX 40 14 38 15 43 16 41 18 39 20 37 22 35 24 10 26 11 27 12 28
REMARK SMILES IDX 30 29 21 30 29 31 31 32 22 33 27 34 23 35 26 36 24 37 13 38
REMARK SMILES IDX 20 39 14 40 18 41 15 42 16 43 19 44 17 46 28 48 25 50 33 52
REMARK H PARENT 43 17 41 19 39 21 37 23 35 25 19 45 17 47 28 49 25 51 33 53
REMARK Flexibility Score: inf
ROOT
ATOM      1  C   UNL     1     -24.695 -63.724  56.542  1.00  0.00     0.180 C 
ATOM      2  C   UNL     1     -25.465 -62.387  56.679  1.00  0.00     0.177 C 
ATOM      3  C   UNL     1     -24.453 -61.232  56.788  1.00  0.00     0.180 C 
ATOM      4  C   UNL     1     -23.417 -61.518  57.885  1.00  0.00     0.214 C 
ATOM      5  C   UNL     1     -22.818 -62.928  57.709  1.00  0.00     0.339 C 
ATOM      6  O   UNL     1     -23.828 -63.925  57.648  1.00  0.00    -0.332 OA
ENDROOT
BRANCH   1   7
ATOM      7  C   UNL     1     -25.643 -64.925  56.444  1.00  0.00     0.198 C 
BRANCH   7   8
ATOM      8  O   UNL     1     -25.557 -65.504  55.159  1.00  0.00    -0.347 OA
BRANCH   8   9
ATOM      9  C   UNL     1     -25.969 -64.582  54.156  1.00  0.00     0.281 C 
ATOM     10  C   UNL     1     -29.394 -65.849  53.643  1.00  0.00     0.041 C 
ATOM     11  C   UNL     1     -27.862 -65.866  53.620  1.00  0.00     0.150 C 
ATOM     12  C   UNL     1     -27.329 -66.240  52.218  1.00  0.00     0.174 C 
ATOM     13  O   UNL     1     -27.384 -64.591  54.020  1.00  0.00    -0.344 OA
ATOM     14  C   UNL     1     -25.791 -66.244  52.254  1.00  0.00     0.179 C 
ATOM     15  C   UNL     1     -25.273 -64.910  52.819  1.00  0.00     0.202 C 
BRANCH  12  16
ATOM     16  O   UNL     1     -27.774 -65.312  51.257  1.00  0.00    -0.388 OA
ATOM     17  H   UNL     1     -26.967 -64.872  50.879  1.00  0.00     0.211 HD
ENDBRANCH  12  16
BRANCH  14  18
ATOM     18  O   UNL     1     -25.277 -66.438  50.961  1.00  0.00    -0.387 OA
ATOM     19  H   UNL     1     -25.153 -65.536  50.564  1.00  0.00     0.211 HD
ENDBRANCH  14  18
BRANCH  15  20
ATOM     20  O   UNL     1     -23.885 -64.976  53.023  1.00  0.00    -0.385 OA
ATOM     21  H   UNL     1     -23.481 -64.235  52.501  1.00  0.00     0.211 HD
ENDBRANCH  15  20
ENDBRANCH   8   9
ENDBRANCH   7   8
ENDBRANCH   1   7
BRANCH   2  22
ATOM     22  O   UNL     1     -26.292 -62.405  57.817  1.00  0.00    -0.387 OA
ATOM     23  H   UNL     1     -25.715 -62.206  58.600  1.00  0.00     0.211 HD
ENDBRANCH   2  22
BRANCH   3  24
ATOM     24  O   UNL     1     -25.114 -60.024  57.061  1.00  0.00    -0.387 OA
ATOM     25  H   UNL     1     -25.822 -59.923  56.376  1.00  0.00     0.211 HD
ENDBRANCH   3  24
BRANCH   5  26
ATOM     26  O   UNL     1     -21.974 -62.977  56.557  1.00  0.00    -0.454 OA
BRANCH  26  27
ATOM     27  C   UNL     1     -20.609 -63.262  56.659  1.00  0.00     0.214 A 
ATOM     28  C   UNL     1     -20.161 -64.595  56.733  1.00  0.00     0.180 A 
ATOM     29  C   UNL     1     -19.665 -62.225  56.658  1.00  0.00     0.239 A 
ATOM     30  O   UNL     1     -18.856 -64.852  56.749  1.00  0.00    -0.452 OA
ATOM     31  C   UNL     1     -18.291 -62.537  56.693  1.00  0.00     0.111 A 
ATOM     32  O   UNL     1     -20.061 -61.029  56.620  1.00  0.00    -0.285 OA
ATOM     33  C   UNL     1     -17.926 -63.904  56.728  1.00  0.00     0.146 A 
ATOM     34  C   UNL     1     -17.274 -61.551  56.682  1.00  0.00     0.134 A 
ATOM     35  C   UNL     1     -16.577 -64.272  56.747  1.00  0.00     0.094 A 
ATOM     36  C   UNL     1     -15.927 -61.940  56.702  1.00  0.00     0.093 A 
ATOM     37  C   UNL     1     -15.578 -63.293  56.733  1.00  0.00     0.123 A 
BRANCH  28  38
ATOM     38  C   UNL     1     -21.103 -65.735  56.772  1.00  0.00     0.025 A 
ATOM     39  C   UNL     1     -21.776 -66.117  55.602  1.00  0.00     0.062 A 
ATOM     40  C   UNL     1     -21.298 -66.479  57.948  1.00  0.00     0.016 A 
ATOM     41  C   UNL     1     -22.658 -67.205  55.610  1.00  0.00     0.158 A 
ATOM     42  C   UNL     1     -22.177 -67.564  57.960  1.00  0.00     0.051 A 
ATOM     43  C   UNL     1     -22.863 -67.931  56.795  1.00  0.00     0.157 A 
BRANCH  41  44
ATOM     44  O   UNL     1     -23.319 -67.549  54.431  1.00  0.00    -0.504 OA
ATOM     45  H   UNL     1     -24.096 -68.199  54.421  1.00  0.00     0.293 HD
ENDBRANCH  41  44
BRANCH  43  46
ATOM     46  O   UNL     1     -23.738 -69.015  56.811  1.00  0.00    -0.504 OA
ATOM     47  H   UNL     1     -24.474 -69.093  57.503  1.00  0.00     0.293 HD
ENDBRANCH  43  46
ENDBRANCH  28  38
BRANCH  34  48
ATOM     48  O   UNL     1     -17.593 -60.192  56.651  1.00  0.00    -0.507 OA
ATOM     49  H   UNL     1     -18.071 -59.741  57.422  1.00  0.00     0.293 HD
ENDBRANCH  34  48
BRANCH  37  50
ATOM     50  O   UNL     1     -14.231 -63.652  56.750  1.00  0.00    -0.508 OA
ATOM     51  H   UNL     1     -13.735 -63.800  57.623  1.00  0.00     0.293 HD
ENDBRANCH  37  50
ENDBRANCH  26  27
ENDBRANCH   5  26
BRANCH   4  52
ATOM     52  O   UNL     1     -24.019 -61.409  59.150  1.00  0.00    -0.384 OA
ATOM     53  H   UNL     1     -23.606 -60.624  59.599  1.00  0.00     0.211 HD
ENDBRANCH   4  52
TORSDOF 16
ENDMDL
