MODEL 1
REMARK VINA RESULT:    -6.303      0.000      0.000
REMARK INTER + INTRA:          -6.471
REMARK INTER:                  -6.856
REMARK INTRA:                   0.385
REMARK UNBOUND:                 0.385
REMARK SMILES C[C@@H]1[C@@H](C)CC[C@@]2(C(=O)[O-])CC[C@]3(C)C(=CC[C@H]4[C@]5(C)CC[C@@H](O)C(C)(C)[C@@H]5CC[C@@]43C)[C@@H]12
REMARK SMILES IDX 7 1 6 2 11 3 33 4 5 5 12 6 15 7 2 8 3 9 13 10 16 11 1 12
REMARK SMILES IDX 4 13 14 14 31 15 17 16 18 17 30 18 32 19 19 20 29 21 28 22
REMARK SMILES IDX 21 23 20 24 25 25 22 26 23 27 26 28 27 29 8 30 9 31 10 32
REMARK SMILES IDX 24 33
REMARK H PARENT 24 34
REMARK Flexibility Score: inf
ROOT
ATOM      1  C   UNL     1     -21.254 -67.852  58.378  1.00  0.00     0.017 C 
ATOM      2  C   UNL     1     -22.403 -68.823  58.746  1.00  0.00     0.014 C 
ATOM      3  C   UNL     1     -20.519 -68.355  57.076  1.00  0.00     0.014 C 
ATOM      4  C   UNL     1     -21.810 -66.378  58.248  1.00  0.00     0.030 C 
ATOM      5  C   UNL     1     -23.594 -68.714  57.801  1.00  0.00     0.004 C 
ATOM      6  C   UNL     1     -20.346 -67.305  55.964  1.00  0.00     0.013 C 
ATOM      7  C   UNL     1     -20.738 -65.460  57.642  1.00  0.00    -0.063 C 
ATOM      8  C   UNL     1     -23.178 -66.228  57.480  1.00  0.00    -0.003 C 
ATOM      9  C   UNL     1     -24.214 -67.317  57.887  1.00  0.00    -0.011 C 
ATOM     10  C   UNL     1     -19.850 -65.913  56.468  1.00  0.00    -0.006 C 
ATOM     11  C   UNL     1     -20.580 -64.204  58.123  1.00  0.00    -0.027 C 
ATOM     12  C   UNL     1     -23.791 -64.829  57.723  1.00  0.00     0.008 C 
ATOM     13  C   UNL     1     -25.481 -67.280  57.010  1.00  0.00     0.008 C 
ATOM     14  C   UNL     1     -18.438 -66.159  57.110  1.00  0.00     0.017 C 
ATOM     15  C   UNL     1     -19.801 -64.781  55.272  1.00  0.00    -0.020 C 
ATOM     16  C   UNL     1     -19.938 -63.149  57.253  1.00  0.00     0.032 C 
ATOM     17  C   UNL     1     -20.401 -63.417  55.798  1.00  0.00     0.006 C 
ATOM     18  C   UNL     1     -20.685 -65.144  54.041  1.00  0.00     0.008 C 
ATOM     19  C   UNL     1     -18.333 -64.646  54.751  1.00  0.00     0.012 C 
ATOM     20  C   UNL     1     -20.447 -62.183  54.812  1.00  0.00    -0.025 C 
ATOM     21  C   UNL     1     -20.768 -64.042  52.958  1.00  0.00     0.005 C 
ATOM     22  C   UNL     1     -21.150 -62.598  53.439  1.00  0.00     0.003 C 
ATOM     23  C   UNL     1     -21.251 -61.026  55.501  1.00  0.00     0.010 C 
ATOM     24  C   UNL     1     -19.015 -61.624  54.537  1.00  0.00     0.012 C 
ATOM     25  C   UNL     1     -22.694 -62.226  53.292  1.00  0.00    -0.006 C 
ATOM     26  C   UNL     1     -21.843 -60.041  54.499  1.00  0.00     0.033 C 
ATOM     27  C   UNL     1     -22.925 -60.688  53.614  1.00  0.00     0.120 C 
ATOM     28  C   UNL     1     -23.191 -62.513  51.840  1.00  0.00     0.014 C 
ATOM     29  C   UNL     1     -23.604 -63.076  54.217  1.00  0.00     0.014 C 
ENDROOT
BRANCH   1  30
ATOM     30  C   UNL     1     -20.265 -67.941  59.543  1.00  0.00     0.048 C 
ATOM     31  O   UNL     1     -19.540 -66.964  59.872  1.00  0.00    -0.550 OA
ATOM     32  O   UNL     1     -20.157 -69.125  60.266  1.00  0.00    -0.550 OA
ENDBRANCH   1  30
BRANCH  27  33
ATOM     33  O   UNL     1     -23.083 -59.905  52.452  1.00  0.00    -0.393 OA
ATOM     34  H   UNL     1     -22.276 -60.034  51.888  1.00  0.00     0.210 HD
ENDBRANCH  27  33
TORSDOF 2
ENDMDL
MODEL 2
REMARK VINA RESULT:    -6.272      3.297      5.556
REMARK INTER + INTRA:          -6.436
REMARK INTER:                  -6.189
REMARK INTRA:                  -0.247
REMARK UNBOUND:                 0.385
REMARK SMILES C[C@@H]1[C@@H](C)CC[C@@]2(C(=O)[O-])CC[C@]3(C)C(=CC[C@H]4[C@]5(C)CC[C@@H](O)C(C)(C)[C@@H]5CC[C@@]43C)[C@@H]12
REMARK SMILES IDX 7 1 6 2 11 3 33 4 5 5 12 6 15 7 2 8 3 9 13 10 16 11 1 12
REMARK SMILES IDX 4 13 14 14 31 15 17 16 18 17 30 18 32 19 19 20 29 21 28 22
REMARK SMILES IDX 21 23 20 24 25 25 22 26 23 27 26 28 27 29 8 30 9 31 10 32
REMARK SMILES IDX 24 33
REMARK H PARENT 24 34
REMARK Flexibility Score: inf
ROOT
ATOM      1  C   UNL     1     -20.690 -65.840  56.278  1.00  0.00     0.017 C 
ATOM      2  C   UNL     1     -19.969 -66.967  57.061  1.00  0.00     0.014 C 
ATOM      3  C   UNL     1     -20.831 -66.244  54.760  1.00  0.00     0.014 C 
ATOM      4  C   UNL     1     -22.074 -65.503  56.964  1.00  0.00     0.030 C 
ATOM      5  C   UNL     1     -20.847 -68.194  57.272  1.00  0.00     0.004 C 
ATOM      6  C   UNL     1     -22.246 -66.115  54.168  1.00  0.00     0.013 C 
ATOM      7  C   UNL     1     -22.900 -64.576  56.061  1.00  0.00    -0.063 C 
ATOM      8  C   UNL     1     -22.927 -66.744  57.428  1.00  0.00    -0.003 C 
ATOM      9  C   UNL     1     -22.064 -67.835  58.127  1.00  0.00    -0.011 C 
ATOM     10  C   UNL     1     -22.976 -64.785  54.536  1.00  0.00    -0.006 C 
ATOM     11  C   UNL     1     -23.610 -63.563  56.609  1.00  0.00    -0.027 C 
ATOM     12  C   UNL     1     -24.060 -66.302  58.385  1.00  0.00     0.008 C 
ATOM     13  C   UNL     1     -22.865 -69.121  58.417  1.00  0.00     0.008 C 
ATOM     14  C   UNL     1     -22.104 -63.627  53.933  1.00  0.00     0.017 C 
ATOM     15  C   UNL     1     -24.532 -64.740  53.996  1.00  0.00    -0.020 C 
ATOM     16  C   UNL     1     -24.789 -62.989  55.860  1.00  0.00     0.032 C 
ATOM     17  C   UNL     1     -25.478 -64.168  55.125  1.00  0.00     0.006 C 
ATOM     18  C   UNL     1     -25.117 -66.148  53.677  1.00  0.00     0.008 C 
ATOM     19  C   UNL     1     -24.592 -63.914  52.669  1.00  0.00     0.012 C 
ATOM     20  C   UNL     1     -27.022 -64.030  54.819  1.00  0.00    -0.025 C 
ATOM     21  C   UNL     1     -26.616 -66.154  53.295  1.00  0.00     0.005 C 
ATOM     22  C   UNL     1     -27.601 -65.412  54.265  1.00  0.00     0.003 C 
ATOM     23  C   UNL     1     -27.758 -63.628  56.144  1.00  0.00     0.010 C 
ATOM     24  C   UNL     1     -27.295 -62.882  53.795  1.00  0.00     0.012 C 
ATOM     25  C   UNL     1     -28.333 -66.349  55.328  1.00  0.00    -0.006 C 
ATOM     26  C   UNL     1     -29.235 -64.006  56.136  1.00  0.00     0.033 C 
ATOM     27  C   UNL     1     -29.447 -65.531  56.112  1.00  0.00     0.120 C 
ATOM     28  C   UNL     1     -29.013 -67.560  54.614  1.00  0.00     0.014 C 
ATOM     29  C   UNL     1     -27.350 -66.971  56.354  1.00  0.00     0.014 C 
ENDROOT
BRANCH   1  30
ATOM     30  C   UNL     1     -19.753 -64.632  56.360  1.00  0.00     0.048 C 
ATOM     31  O   UNL     1     -18.951 -64.352  55.429  1.00  0.00    -0.550 OA
ATOM     32  O   UNL     1     -19.780 -63.814  57.485  1.00  0.00    -0.550 OA
ENDBRANCH   1  30
BRANCH  27  33
ATOM     33  O   UNL     1     -30.750 -65.796  55.645  1.00  0.00    -0.393 OA
ATOM     34  H   UNL     1     -31.206 -64.924  55.507  1.00  0.00     0.210 HD
ENDBRANCH  27  33
TORSDOF 2
ENDMDL
MODEL 3
REMARK VINA RESULT:    -6.271      4.682      8.449
REMARK INTER + INTRA:          -6.436
REMARK INTER:                  -6.190
REMARK INTRA:                  -0.246
REMARK UNBOUND:                 0.385
REMARK SMILES C[C@@H]1[C@@H](C)CC[C@@]2(C(=O)[O-])CC[C@]3(C)C(=CC[C@H]4[C@]5(C)CC[C@@H](O)C(C)(C)[C@@H]5CC[C@@]43C)[C@@H]12
REMARK SMILES IDX 7 1 6 2 11 3 33 4 5 5 12 6 15 7 2 8 3 9 13 10 16 11 1 12
REMARK SMILES IDX 4 13 14 14 31 15 17 16 18 17 30 18 32 19 19 20 29 21 28 22
REMARK SMILES IDX 21 23 20 24 25 25 22 26 23 27 26 28 27 29 8 30 9 31 10 32
REMARK SMILES IDX 24 33
REMARK H PARENT 24 34
REMARK Flexibility Score: inf
ROOT
ATOM      1  C   UNL     1     -30.884 -64.658  55.560  1.00  0.00     0.017 C 
ATOM      2  C   UNL     1     -32.032 -65.285  56.391  1.00  0.00     0.014 C 
ATOM      3  C   UNL     1     -30.251 -63.444  56.345  1.00  0.00     0.014 C 
ATOM      4  C   UNL     1     -29.826 -65.767  55.172  1.00  0.00     0.030 C 
ATOM      5  C   UNL     1     -31.527 -66.077  57.591  1.00  0.00     0.004 C 
ATOM      6  C   UNL     1     -28.718 -63.470  56.483  1.00  0.00     0.013 C 
ATOM      7  C   UNL     1     -28.572 -65.115  54.572  1.00  0.00    -0.063 C 
ATOM      8  C   UNL     1     -29.442 -66.777  56.320  1.00  0.00    -0.003 C 
ATOM      9  C   UNL     1     -30.682 -67.264  57.126  1.00  0.00    -0.011 C 
ATOM     10  C   UNL     1     -27.962 -63.831  55.166  1.00  0.00    -0.006 C 
ATOM     11  C   UNL     1     -27.957 -65.691  53.513  1.00  0.00    -0.027 C 
ATOM     12  C   UNL     1     -28.698 -68.004  55.741  1.00  0.00     0.008 C 
ATOM     13  C   UNL     1     -30.288 -68.107  58.355  1.00  0.00     0.008 C 
ATOM     14  C   UNL     1     -28.324 -62.705  54.133  1.00  0.00     0.017 C 
ATOM     15  C   UNL     1     -26.335 -63.977  55.383  1.00  0.00    -0.020 C 
ATOM     16  C   UNL     1     -26.501 -65.392  53.244  1.00  0.00     0.032 C 
ATOM     17  C   UNL     1     -25.803 -65.254  54.621  1.00  0.00     0.006 C 
ATOM     18  C   UNL     1     -25.929 -64.213  56.868  1.00  0.00     0.008 C 
ATOM     19  C   UNL     1     -25.635 -62.655  54.927  1.00  0.00     0.012 C 
ATOM     20  C   UNL     1     -24.260 -65.585  54.689  1.00  0.00    -0.025 C 
ATOM     21  C   UNL     1     -24.422 -64.487  57.090  1.00  0.00     0.005 C 
ATOM     22  C   UNL     1     -23.764 -65.606  56.207  1.00  0.00     0.003 C 
ATOM     23  C   UNL     1     -24.021 -66.986  54.025  1.00  0.00     0.010 C 
ATOM     24  C   UNL     1     -23.423 -64.557  53.863  1.00  0.00     0.012 C 
ATOM     25  C   UNL     1     -23.664 -67.039  56.900  1.00  0.00    -0.006 C 
ATOM     26  C   UNL     1     -22.742 -67.659  54.509  1.00  0.00     0.033 C 
ATOM     27  C   UNL     1     -22.806 -68.029  56.002  1.00  0.00     0.120 C 
ATOM     28  C   UNL     1     -22.988 -66.923  58.303  1.00  0.00     0.014 C 
ATOM     29  C   UNL     1     -25.055 -67.674  57.162  1.00  0.00     0.014 C 
ENDROOT
BRANCH   1  30
ATOM     30  C   UNL     1     -31.556 -64.106  54.300  1.00  0.00     0.048 C 
ATOM     31  O   UNL     1     -31.903 -62.897  54.211  1.00  0.00    -0.550 OA
ATOM     32  O   UNL     1     -31.791 -64.949  53.219  1.00  0.00    -0.550 OA
ENDBRANCH   1  30
BRANCH  27  33
ATOM     33  O   UNL     1     -21.491 -68.199  56.480  1.00  0.00    -0.393 OA
ATOM     34  H   UNL     1     -21.221 -69.138  56.299  1.00  0.00     0.210 HD
ENDBRANCH  27  33
TORSDOF 2
ENDMDL
MODEL 4
REMARK VINA RESULT:    -6.151      7.436     11.262
REMARK INTER + INTRA:          -6.305
REMARK INTER:                  -6.057
REMARK INTRA:                  -0.248
REMARK UNBOUND:                 0.385
REMARK SMILES C[C@@H]1[C@@H](C)CC[C@@]2(C(=O)[O-])CC[C@]3(C)C(=CC[C@H]4[C@]5(C)CC[C@@H](O)C(C)(C)[C@@H]5CC[C@@]43C)[C@@H]12
REMARK SMILES IDX 7 1 6 2 11 3 33 4 5 5 12 6 15 7 2 8 3 9 13 10 16 11 1 12
REMARK SMILES IDX 4 13 14 14 31 15 17 16 18 17 30 18 32 19 19 20 29 21 28 22
REMARK SMILES IDX 21 23 20 24 25 25 22 26 23 27 26 28 27 29 8 30 9 31 10 32
REMARK SMILES IDX 24 33
REMARK H PARENT 24 34
REMARK Flexibility Score: inf
ROOT
ATOM      1  C   UNL     1     -29.272 -61.264  55.091  1.00  0.00     0.017 C 
ATOM      2  C   UNL     1     -28.369 -62.289  55.823  1.00  0.00     0.014 C 
ATOM      3  C   UNL     1     -30.213 -60.539  56.128  1.00  0.00     0.014 C 
ATOM      4  C   UNL     1     -28.385 -60.263  54.249  1.00  0.00     0.030 C 
ATOM      5  C   UNL     1     -27.269 -61.626  56.644  1.00  0.00     0.004 C 
ATOM      6  C   UNL     1     -30.216 -59.001  56.059  1.00  0.00     0.013 C 
ATOM      7  C   UNL     1     -29.247 -59.102  53.729  1.00  0.00    -0.063 C 
ATOM      8  C   UNL     1     -27.091 -59.725  54.968  1.00  0.00    -0.003 C 
ATOM      9  C   UNL     1     -26.323 -60.844  55.731  1.00  0.00    -0.011 C 
ATOM     10  C   UNL     1     -30.313 -58.425  54.611  1.00  0.00    -0.006 C 
ATOM     11  C   UNL     1     -29.053 -58.631  52.476  1.00  0.00    -0.027 C 
ATOM     12  C   UNL     1     -26.136 -59.059  53.949  1.00  0.00     0.008 C 
ATOM     13  C   UNL     1     -25.162 -60.287  56.579  1.00  0.00     0.008 C 
ATOM     14  C   UNL     1     -31.683 -58.927  54.033  1.00  0.00     0.017 C 
ATOM     15  C   UNL     1     -30.182 -56.783  54.567  1.00  0.00    -0.020 C 
ATOM     16  C   UNL     1     -29.486 -57.226  52.132  1.00  0.00     0.032 C 
ATOM     17  C   UNL     1     -29.225 -56.352  53.385  1.00  0.00     0.006 C 
ATOM     18  C   UNL     1     -29.519 -56.182  55.842  1.00  0.00     0.008 C 
ATOM     19  C   UNL     1     -31.610 -56.156  54.460  1.00  0.00     0.012 C 
ATOM     20  C   UNL     1     -28.960 -54.811  53.153  1.00  0.00    -0.025 C 
ATOM     21  C   UNL     1     -29.259 -54.657  55.777  1.00  0.00     0.005 C 
ATOM     22  C   UNL     1     -28.496 -54.118  54.516  1.00  0.00     0.003 C 
ATOM     23  C   UNL     1     -27.844 -54.657  52.062  1.00  0.00     0.010 C 
ATOM     24  C   UNL     1     -30.230 -54.097  52.590  1.00  0.00     0.012 C 
ATOM     25  C   UNL     1     -26.926 -53.920  54.711  1.00  0.00    -0.006 C 
ATOM     26  C   UNL     1     -27.114 -53.322  52.150  1.00  0.00     0.033 C 
ATOM     27  C   UNL     1     -26.300 -53.185  53.450  1.00  0.00     0.120 C 
ATOM     28  C   UNL     1     -26.636 -53.064  55.984  1.00  0.00     0.014 C 
ATOM     29  C   UNL     1     -26.178 -55.261  54.935  1.00  0.00     0.014 C 
ENDROOT
BRANCH   1  30
ATOM     30  C   UNL     1     -30.153 -62.101  54.159  1.00  0.00     0.048 C 
ATOM     31  O   UNL     1     -31.329 -62.428  54.477  1.00  0.00    -0.550 OA
ATOM     32  O   UNL     1     -29.656 -62.513  52.927  1.00  0.00    -0.550 OA
ENDBRANCH   1  30
BRANCH  27  33
ATOM     33  O   UNL     1     -26.052 -51.817  53.683  1.00  0.00    -0.393 OA
ATOM     34  H   UNL     1     -26.884 -51.416  54.051  1.00  0.00     0.210 HD
ENDBRANCH  27  33
TORSDOF 2
ENDMDL
MODEL 5
REMARK VINA RESULT:    -6.110      6.446     10.636
REMARK INTER + INTRA:          -6.261
REMARK INTER:                  -6.025
REMARK INTRA:                  -0.236
REMARK UNBOUND:                 0.385
REMARK SMILES C[C@@H]1[C@@H](C)CC[C@@]2(C(=O)[O-])CC[C@]3(C)C(=CC[C@H]4[C@]5(C)CC[C@@H](O)C(C)(C)[C@@H]5CC[C@@]43C)[C@@H]12
REMARK SMILES IDX 7 1 6 2 11 3 33 4 5 5 12 6 15 7 2 8 3 9 13 10 16 11 1 12
REMARK SMILES IDX 4 13 14 14 31 15 17 16 18 17 30 18 32 19 19 20 29 21 28 22
REMARK SMILES IDX 21 23 20 24 25 25 22 26 23 27 26 28 27 29 8 30 9 31 10 32
REMARK SMILES IDX 24 33
REMARK H PARENT 24 34
REMARK Flexibility Score: inf
ROOT
ATOM      1  C   UNL     1     -25.335 -60.681  54.202  1.00  0.00     0.017 C 
ATOM      2  C   UNL     1     -23.877 -61.120  53.915  1.00  0.00     0.014 C 
ATOM      3  C   UNL     1     -25.439 -60.075  55.654  1.00  0.00     0.014 C 
ATOM      4  C   UNL     1     -25.834 -59.689  53.076  1.00  0.00     0.030 C 
ATOM      5  C   UNL     1     -22.937 -59.941  53.696  1.00  0.00     0.004 C 
ATOM      6  C   UNL     1     -26.122 -58.698  55.752  1.00  0.00     0.013 C 
ATOM      7  C   UNL     1     -27.174 -59.058  53.484  1.00  0.00    -0.063 C 
ATOM      8  C   UNL     1     -24.803 -58.584  52.633  1.00  0.00    -0.003 C 
ATOM      9  C   UNL     1     -23.361 -59.147  52.459  1.00  0.00    -0.011 C 
ATOM     10  C   UNL     1     -27.440 -58.577  54.923  1.00  0.00    -0.006 C 
ATOM     11  C   UNL     1     -28.144 -58.885  52.556  1.00  0.00    -0.027 C 
ATOM     12  C   UNL     1     -25.251 -57.918  51.309  1.00  0.00     0.008 C 
ATOM     13  C   UNL     1     -22.324 -58.036  52.202  1.00  0.00     0.008 C 
ATOM     14  C   UNL     1     -28.430 -59.639  55.520  1.00  0.00     0.017 C 
ATOM     15  C   UNL     1     -28.071 -57.055  54.946  1.00  0.00    -0.020 C 
ATOM     16  C   UNL     1     -29.214 -57.843  52.783  1.00  0.00     0.032 C 
ATOM     17  C   UNL     1     -28.536 -56.644  53.493  1.00  0.00     0.006 C 
ATOM     18  C   UNL     1     -27.035 -55.963  55.346  1.00  0.00     0.008 C 
ATOM     19  C   UNL     1     -29.224 -56.993  56.000  1.00  0.00     0.012 C 
ATOM     20  C   UNL     1     -29.182 -55.217  53.284  1.00  0.00    -0.025 C 
ATOM     21  C   UNL     1     -27.559 -54.509  55.249  1.00  0.00     0.005 C 
ATOM     22  C   UNL     1     -28.236 -54.085  53.898  1.00  0.00     0.003 C 
ATOM     23  C   UNL     1     -29.377 -54.979  51.746  1.00  0.00     0.010 C 
ATOM     24  C   UNL     1     -30.604 -55.138  53.927  1.00  0.00     0.012 C 
ATOM     25  C   UNL     1     -27.277 -53.329  52.872  1.00  0.00    -0.006 C 
ATOM     26  C   UNL     1     -29.445 -53.501  51.381  1.00  0.00     0.033 C 
ATOM     27  C   UNL     1     -28.113 -52.773  51.641  1.00  0.00     0.120 C 
ATOM     28  C   UNL     1     -26.562 -52.131  53.573  1.00  0.00     0.014 C 
ATOM     29  C   UNL     1     -26.139 -54.237  52.338  1.00  0.00     0.014 C 
ENDROOT
BRANCH   1  30
ATOM     30  C   UNL     1     -26.157 -61.972  54.170  1.00  0.00     0.048 C 
ATOM     31  O   UNL     1     -26.558 -62.528  55.228  1.00  0.00    -0.550 OA
ATOM     32  O   UNL     1     -26.478 -62.554  52.948  1.00  0.00    -0.550 OA
ENDBRANCH   1  30
BRANCH  27  33
ATOM     33  O   UNL     1     -28.369 -51.390  51.735  1.00  0.00    -0.393 OA
ATOM     34  H   UNL     1     -28.423 -51.028  50.811  1.00  0.00     0.210 HD
ENDBRANCH  27  33
TORSDOF 2
ENDMDL
MODEL 6
REMARK VINA RESULT:    -6.103      4.351      7.070
REMARK INTER + INTRA:          -6.252
REMARK INTER:                  -6.016
REMARK INTRA:                  -0.237
REMARK UNBOUND:                 0.385
REMARK SMILES C[C@@H]1[C@@H](C)CC[C@@]2(C(=O)[O-])CC[C@]3(C)C(=CC[C@H]4[C@]5(C)CC[C@@H](O)C(C)(C)[C@@H]5CC[C@@]43C)[C@@H]12
REMARK SMILES IDX 7 1 6 2 11 3 33 4 5 5 12 6 15 7 2 8 3 9 13 10 16 11 1 12
REMARK SMILES IDX 4 13 14 14 31 15 17 16 18 17 30 18 32 19 19 20 29 21 28 22
REMARK SMILES IDX 21 23 20 24 25 25 22 26 23 27 26 28 27 29 8 30 9 31 10 32
REMARK SMILES IDX 24 33
REMARK H PARENT 24 34
REMARK Flexibility Score: inf
ROOT
ATOM      1  C   UNL     1     -23.185 -62.505  56.849  1.00  0.00     0.017 C 
ATOM      2  C   UNL     1     -23.152 -61.992  58.311  1.00  0.00     0.014 C 
ATOM      3  C   UNL     1     -23.009 -64.072  56.824  1.00  0.00     0.014 C 
ATOM      4  C   UNL     1     -24.506 -62.015  56.132  1.00  0.00     0.030 C 
ATOM      5  C   UNL     1     -24.418 -62.337  59.086  1.00  0.00     0.004 C 
ATOM      6  C   UNL     1     -24.059 -64.844  56.004  1.00  0.00     0.013 C 
ATOM      7  C   UNL     1     -24.665 -62.722  54.778  1.00  0.00    -0.063 C 
ATOM      8  C   UNL     1     -25.827 -62.125  56.983  1.00  0.00    -0.003 C 
ATOM      9  C   UNL     1     -25.631 -61.652  58.454  1.00  0.00    -0.011 C 
ATOM     10  C   UNL     1     -24.363 -64.222  54.605  1.00  0.00    -0.006 C 
ATOM     11  C   UNL     1     -25.112 -62.026  53.706  1.00  0.00    -0.027 C 
ATOM     12  C   UNL     1     -26.966 -61.302  56.334  1.00  0.00     0.008 C 
ATOM     13  C   UNL     1     -26.870 -61.928  59.329  1.00  0.00     0.008 C 
ATOM     14  C   UNL     1     -23.013 -64.266  53.805  1.00  0.00     0.017 C 
ATOM     15  C   UNL     1     -25.582 -64.998  53.813  1.00  0.00    -0.020 C 
ATOM     16  C   UNL     1     -25.753 -62.763  52.555  1.00  0.00     0.032 C 
ATOM     17  C   UNL     1     -26.559 -63.941  53.161  1.00  0.00     0.006 C 
ATOM     18  C   UNL     1     -26.493 -65.840  54.754  1.00  0.00     0.008 C 
ATOM     19  C   UNL     1     -24.968 -65.990  52.771  1.00  0.00     0.012 C 
ATOM     20  C   UNL     1     -27.803 -64.468  52.342  1.00  0.00    -0.025 C 
ATOM     21  C   UNL     1     -27.725 -66.474  54.064  1.00  0.00     0.005 C 
ATOM     22  C   UNL     1     -28.634 -65.519  53.212  1.00  0.00     0.003 C 
ATOM     23  C   UNL     1     -28.708 -63.242  51.968  1.00  0.00     0.010 C 
ATOM     24  C   UNL     1     -27.359 -65.116  50.992  1.00  0.00     0.012 C 
ATOM     25  C   UNL     1     -29.916 -64.953  53.972  1.00  0.00    -0.006 C 
ATOM     26  C   UNL     1     -30.155 -63.638  51.698  1.00  0.00     0.033 C 
ATOM     27  C   UNL     1     -30.859 -64.172  52.960  1.00  0.00     0.120 C 
ATOM     28  C   UNL     1     -30.731 -66.120  54.615  1.00  0.00     0.014 C 
ATOM     29  C   UNL     1     -29.547 -64.009  55.146  1.00  0.00     0.014 C 
ENDROOT
BRANCH   1  30
ATOM     30  C   UNL     1     -21.958 -61.882  56.179  1.00  0.00     0.048 C 
ATOM     31  O   UNL     1     -21.987 -60.717  55.698  1.00  0.00    -0.550 OA
ATOM     32  O   UNL     1     -20.775 -62.608  56.094  1.00  0.00    -0.550 OA
ENDBRANCH   1  30
BRANCH  27  33
ATOM     33  O   UNL     1     -31.979 -64.930  52.562  1.00  0.00    -0.393 OA
ATOM     34  H   UNL     1     -31.990 -65.763  53.104  1.00  0.00     0.210 HD
ENDBRANCH  27  33
TORSDOF 2
ENDMDL
MODEL 7
REMARK VINA RESULT:    -6.087      3.070      4.632
REMARK INTER + INTRA:          -6.236
REMARK INTER:                  -6.042
REMARK INTRA:                  -0.194
REMARK UNBOUND:                 0.385
REMARK SMILES C[C@@H]1[C@@H](C)CC[C@@]2(C(=O)[O-])CC[C@]3(C)C(=CC[C@H]4[C@]5(C)CC[C@@H](O)C(C)(C)[C@@H]5CC[C@@]43C)[C@@H]12
REMARK SMILES IDX 7 1 6 2 11 3 33 4 5 5 12 6 15 7 2 8 3 9 13 10 16 11 1 12
REMARK SMILES IDX 4 13 14 14 31 15 17 16 18 17 30 18 32 19 19 20 29 21 28 22
REMARK SMILES IDX 21 23 20 24 25 25 22 26 23 27 26 28 27 29 8 30 9 31 10 32
REMARK SMILES IDX 24 33
REMARK H PARENT 24 34
REMARK Flexibility Score: inf
ROOT
ATOM      1  C   UNL     1     -21.163 -67.679  56.106  1.00  0.00     0.017 C 
ATOM      2  C   UNL     1     -21.035 -68.691  57.272  1.00  0.00     0.014 C 
ATOM      3  C   UNL     1     -21.684 -68.413  54.811  1.00  0.00     0.014 C 
ATOM      4  C   UNL     1     -22.075 -66.463  56.541  1.00  0.00     0.030 C 
ATOM      5  C   UNL     1     -22.385 -69.124  57.830  1.00  0.00     0.004 C 
ATOM      6  C   UNL     1     -22.891 -67.757  54.116  1.00  0.00     0.013 C 
ATOM      7  C   UNL     1     -22.410 -65.591  55.322  1.00  0.00    -0.063 C 
ATOM      8  C   UNL     1     -23.380 -66.838  57.341  1.00  0.00    -0.003 C 
ATOM      9  C   UNL     1     -23.123 -67.925  58.427  1.00  0.00    -0.011 C 
ATOM     10  C   UNL     1     -22.776 -66.208  53.959  1.00  0.00    -0.006 C 
ATOM     11  C   UNL     1     -22.420 -64.243  55.443  1.00  0.00    -0.027 C 
ATOM     12  C   UNL     1     -23.989 -65.584  58.012  1.00  0.00     0.008 C 
ATOM     13  C   UNL     1     -24.427 -68.419  59.083  1.00  0.00     0.008 C 
ATOM     14  C   UNL     1     -21.517 -65.953  53.057  1.00  0.00     0.017 C 
ATOM     15  C   UNL     1     -24.139 -65.527  53.332  1.00  0.00    -0.020 C 
ATOM     16  C   UNL     1     -23.218 -63.413  54.466  1.00  0.00     0.032 C 
ATOM     17  C   UNL     1     -24.502 -64.214  54.132  1.00  0.00     0.006 C 
ATOM     18  C   UNL     1     -25.402 -66.429  53.473  1.00  0.00     0.008 C 
ATOM     19  C   UNL     1     -23.932 -65.276  51.803  1.00  0.00     0.012 C 
ATOM     20  C   UNL     1     -25.778 -63.391  53.694  1.00  0.00    -0.025 C 
ATOM     21  C   UNL     1     -26.724 -65.767  53.016  1.00  0.00     0.005 C 
ATOM     22  C   UNL     1     -27.052 -64.350  53.607  1.00  0.00     0.003 C 
ATOM     23  C   UNL     1     -26.027 -62.258  54.750  1.00  0.00     0.010 C 
ATOM     24  C   UNL     1     -25.547 -62.676  52.324  1.00  0.00     0.012 C 
ATOM     25  C   UNL     1     -28.021 -64.357  54.874  1.00  0.00    -0.006 C 
ATOM     26  C   UNL     1     -27.473 -61.780  54.772  1.00  0.00     0.033 C 
ATOM     27  C   UNL     1     -28.443 -62.874  55.255  1.00  0.00     0.120 C 
ATOM     28  C   UNL     1     -29.312 -65.182  54.571  1.00  0.00     0.014 C 
ATOM     29  C   UNL     1     -27.379 -65.033  56.113  1.00  0.00     0.014 C 
ENDROOT
BRANCH   1  30
ATOM     30  C   UNL     1     -19.736 -67.197  55.834  1.00  0.00     0.048 C 
ATOM     31  O   UNL     1     -19.127 -67.497  54.772  1.00  0.00    -0.550 OA
ATOM     32  O   UNL     1     -19.085 -66.405  56.775  1.00  0.00    -0.550 OA
ENDBRANCH   1  30
BRANCH  27  33
ATOM     33  O   UNL     1     -29.743 -62.547  54.819  1.00  0.00    -0.393 OA
ATOM     34  H   UNL     1     -30.389 -63.021  55.408  1.00  0.00     0.210 HD
ENDBRANCH  27  33
TORSDOF 2
ENDMDL
MODEL 8
REMARK VINA RESULT:    -6.043      2.103      7.689
REMARK INTER + INTRA:          -6.188
REMARK INTER:                  -5.975
REMARK INTRA:                  -0.214
REMARK UNBOUND:                 0.385
REMARK SMILES C[C@@H]1[C@@H](C)CC[C@@]2(C(=O)[O-])CC[C@]3(C)C(=CC[C@H]4[C@]5(C)CC[C@@H](O)C(C)(C)[C@@H]5CC[C@@]43C)[C@@H]12
REMARK SMILES IDX 7 1 6 2 11 3 33 4 5 5 12 6 15 7 2 8 3 9 13 10 16 11 1 12
REMARK SMILES IDX 4 13 14 14 31 15 17 16 18 17 30 18 32 19 19 20 29 21 28 22
REMARK SMILES IDX 21 23 20 24 25 25 22 26 23 27 26 28 27 29 8 30 9 31 10 32
REMARK SMILES IDX 24 33
REMARK H PARENT 24 34
REMARK Flexibility Score: inf
ROOT
ATOM      1  C   UNL     1     -24.457 -60.370  54.412  1.00  0.00     0.017 C 
ATOM      2  C   UNL     1     -23.502 -59.226  53.986  1.00  0.00     0.014 C 
ATOM      3  C   UNL     1     -24.820 -61.263  53.164  1.00  0.00     0.014 C 
ATOM      4  C   UNL     1     -23.820 -61.193  55.602  1.00  0.00     0.030 C 
ATOM      5  C   UNL     1     -22.091 -59.717  53.687  1.00  0.00     0.004 C 
ATOM      6  C   UNL     1     -24.627 -62.778  53.353  1.00  0.00     0.013 C 
ATOM      7  C   UNL     1     -24.637 -62.468  55.859  1.00  0.00    -0.063 C 
ATOM      8  C   UNL     1     -22.287 -61.525  55.460  1.00  0.00    -0.003 C 
ATOM      9  C   UNL     1     -21.457 -60.312  54.946  1.00  0.00    -0.011 C 
ATOM     10  C   UNL     1     -25.180 -63.331  54.704  1.00  0.00    -0.006 C 
ATOM     11  C   UNL     1     -24.866 -62.873  57.130  1.00  0.00    -0.027 C 
ATOM     12  C   UNL     1     -21.703 -62.003  56.811  1.00  0.00     0.008 C 
ATOM     13  C   UNL     1     -19.995 -60.688  54.637  1.00  0.00     0.008 C 
ATOM     14  C   UNL     1     -26.725 -63.049  54.691  1.00  0.00     0.017 C 
ATOM     15  C   UNL     1     -24.839 -64.927  54.929  1.00  0.00    -0.020 C 
ATOM     16  C   UNL     1     -25.189 -64.324  57.402  1.00  0.00     0.032 C 
ATOM     17  C   UNL     1     -24.350 -65.170  56.411  1.00  0.00     0.006 C 
ATOM     18  C   UNL     1     -23.664 -65.438  54.043  1.00  0.00     0.008 C 
ATOM     19  C   UNL     1     -26.095 -65.779  54.550  1.00  0.00     0.012 C 
ATOM     20  C   UNL     1     -23.973 -66.640  56.850  1.00  0.00    -0.025 C 
ATOM     21  C   UNL     1     -23.230 -66.897  54.324  1.00  0.00     0.005 C 
ATOM     22  C   UNL     1     -22.933 -67.276  55.818  1.00  0.00     0.003 C 
ATOM     23  C   UNL     1     -23.342 -66.585  58.286  1.00  0.00     0.010 C 
ATOM     24  C   UNL     1     -25.244 -67.542  56.960  1.00  0.00     0.012 C 
ATOM     25  C   UNL     1     -21.394 -67.217  56.234  1.00  0.00    -0.006 C 
ATOM     26  C   UNL     1     -22.449 -67.783  58.584  1.00  0.00     0.033 C 
ATOM     27  C   UNL     1     -21.193 -67.812  57.693  1.00  0.00     0.120 C 
ATOM     28  C   UNL     1     -20.524 -68.041  55.234  1.00  0.00     0.014 C 
ATOM     29  C   UNL     1     -20.820 -65.777  56.194  1.00  0.00     0.014 C 
ENDROOT
BRANCH   1  30
ATOM     30  C   UNL     1     -25.736 -59.670  54.880  1.00  0.00     0.048 C 
ATOM     31  O   UNL     1     -25.898 -59.319  56.080  1.00  0.00    -0.550 OA
ATOM     32  O   UNL     1     -26.752 -59.407  53.966  1.00  0.00    -0.550 OA
ENDBRANCH   1  30
BRANCH  27  33
ATOM     33  O   UNL     1     -20.680 -69.125  57.682  1.00  0.00    -0.393 OA
ATOM     34  H   UNL     1     -20.303 -69.311  58.582  1.00  0.00     0.210 HD
ENDBRANCH  27  33
TORSDOF 2
ENDMDL
MODEL 9
REMARK VINA RESULT:    -5.974      2.318      7.359
REMARK INTER + INTRA:          -6.113
REMARK INTER:                  -5.871
REMARK INTRA:                  -0.242
REMARK UNBOUND:                 0.385
REMARK SMILES C[C@@H]1[C@@H](C)CC[C@@]2(C(=O)[O-])CC[C@]3(C)C(=CC[C@H]4[C@]5(C)CC[C@@H](O)C(C)(C)[C@@H]5CC[C@@]43C)[C@@H]12
REMARK SMILES IDX 7 1 6 2 11 3 33 4 5 5 12 6 15 7 2 8 3 9 13 10 16 11 1 12
REMARK SMILES IDX 4 13 14 14 31 15 17 16 18 17 30 18 32 19 19 20 29 21 28 22
REMARK SMILES IDX 21 23 20 24 25 25 22 26 23 27 26 28 27 29 8 30 9 31 10 32
REMARK SMILES IDX 24 33
REMARK H PARENT 24 34
REMARK Flexibility Score: inf
ROOT
ATOM      1  C   UNL     1     -25.779 -62.188  52.617  1.00  0.00     0.017 C 
ATOM      2  C   UNL     1     -26.799 -62.649  51.545  1.00  0.00     0.014 C 
ATOM      3  C   UNL     1     -26.500 -62.014  54.008  1.00  0.00     0.014 C 
ATOM      4  C   UNL     1     -24.559 -63.192  52.670  1.00  0.00     0.030 C 
ATOM      5  C   UNL     1     -27.226 -64.101  51.721  1.00  0.00     0.004 C 
ATOM      6  C   UNL     1     -25.832 -62.727  55.197  1.00  0.00     0.013 C 
ATOM      7  C   UNL     1     -23.677 -62.887  53.890  1.00  0.00    -0.063 C 
ATOM      8  C   UNL     1     -24.929 -64.723  52.611  1.00  0.00    -0.003 C 
ATOM      9  C   UNL     1     -26.024 -65.032  51.548  1.00  0.00    -0.011 C 
ATOM     10  C   UNL     1     -24.283 -62.544  55.264  1.00  0.00    -0.006 C 
ATOM     11  C   UNL     1     -22.330 -62.950  53.777  1.00  0.00    -0.027 C 
ATOM     12  C   UNL     1     -23.675 -65.577  52.311  1.00  0.00     0.008 C 
ATOM     13  C   UNL     1     -26.512 -66.492  51.616  1.00  0.00     0.008 C 
ATOM     14  C   UNL     1     -24.032 -61.004  55.435  1.00  0.00     0.017 C 
ATOM     15  C   UNL     1     -23.588 -63.426  56.470  1.00  0.00    -0.020 C 
ATOM     16  C   UNL     1     -21.487 -63.167  55.011  1.00  0.00     0.032 C 
ATOM     17  C   UNL     1     -22.277 -64.128  55.936  1.00  0.00     0.006 C 
ATOM     18  C   UNL     1     -24.481 -64.601  56.970  1.00  0.00     0.008 C 
ATOM     19  C   UNL     1     -23.328 -62.499  57.702  1.00  0.00     0.012 C 
ATOM     20  C   UNL     1     -21.441 -65.026  56.933  1.00  0.00    -0.025 C 
ATOM     21  C   UNL     1     -23.805 -65.529  58.008  1.00  0.00     0.005 C 
ATOM     22  C   UNL     1     -22.390 -66.099  57.639  1.00  0.00     0.003 C 
ATOM     23  C   UNL     1     -20.313 -65.754  56.122  1.00  0.00     0.010 C 
ATOM     24  C   UNL     1     -20.719 -64.154  58.010  1.00  0.00     0.012 C 
ATOM     25  C   UNL     1     -22.398 -67.563  57.006  1.00  0.00    -0.006 C 
ATOM     26  C   UNL     1     -19.824 -67.025  56.804  1.00  0.00     0.033 C 
ATOM     27  C   UNL     1     -20.914 -68.112  56.865  1.00  0.00     0.120 C 
ATOM     28  C   UNL     1     -23.210 -68.546  57.907  1.00  0.00     0.014 C 
ATOM     29  C   UNL     1     -23.086 -67.610  55.617  1.00  0.00     0.014 C 
ENDROOT
BRANCH   1  30
ATOM     30  C   UNL     1     -25.306 -60.808  52.154  1.00  0.00     0.048 C 
ATOM     31  O   UNL     1     -24.425 -60.675  51.262  1.00  0.00    -0.550 OA
ATOM     32  O   UNL     1     -25.858 -59.664  52.721  1.00  0.00    -0.550 OA
ENDBRANCH   1  30
BRANCH  27  33
ATOM     33  O   UNL     1     -20.574 -69.033  57.876  1.00  0.00    -0.393 OA
ATOM     34  H   UNL     1     -20.107 -68.533  58.597  1.00  0.00     0.210 HD
ENDBRANCH  27  33
TORSDOF 2
ENDMDL
