MODEL 1
REMARK VINA RESULT:    -4.872      0.000      0.000
REMARK INTER + INTRA:          -5.156
REMARK INTER:                  -5.156
REMARK INTRA:                   0.000
REMARK UNBOUND:                 0.000
REMARK SMILES O=c1ccc2cc(O)c(O)cc2o1
REMARK SMILES IDX 4 1 3 2 2 3 1 4 13 5 12 6 11 7 9 8 7 9 6 10 5 11 8 12 10 14
REMARK H PARENT 8 13 10 15
REMARK Flexibility Score: inf
ROOT
ATOM      1  C   UNL     1      43.750  20.917  -4.799  1.00  0.00     0.019 A 
ATOM      2  C   UNL     1      44.433  20.074  -5.676  1.00  0.00     0.094 A 
ATOM      3  C   UNL     1      44.569  18.721  -5.347  1.00  0.00     0.336 A 
ATOM      4  O   UNL     1      45.181  17.944  -6.125  1.00  0.00    -0.246 OA
ATOM      5  O   UNL     1      44.053  18.247  -4.215  1.00  0.00    -0.423 OA
ATOM      6  C   UNL     1      43.394  19.017  -3.353  1.00  0.00     0.142 A 
ATOM      7  C   UNL     1      42.873  18.464  -2.179  1.00  0.00     0.098 A 
ATOM      8  C   UNL     1      42.178  19.271  -1.265  1.00  0.00     0.161 A 
ATOM      9  C   UNL     1      42.003  20.637  -1.529  1.00  0.00     0.158 A 
ATOM     10  C   UNL     1      42.523  21.199  -2.704  1.00  0.00     0.062 A 
ATOM     11  C   UNL     1      43.217  20.393  -3.617  1.00  0.00     0.022 A 
ENDROOT
BRANCH   9  12
ATOM     12  O   UNL     1      41.310  21.432  -0.616  1.00  0.00    -0.504 OA
ATOM     13  H   UNL     1      41.782  22.141  -0.066  1.00  0.00     0.293 HD
ENDBRANCH   9  12
BRANCH   8  14
ATOM     14  O   UNL     1      41.657  18.722  -0.094  1.00  0.00    -0.504 OA
ATOM     15  H   UNL     1      41.687  17.725   0.082  1.00  0.00     0.293 HD
ENDBRANCH   8  14
TORSDOF 2
ENDMDL
MODEL 2
REMARK VINA RESULT:    -4.566      1.587      2.534
REMARK INTER + INTRA:          -4.833
REMARK INTER:                  -4.833
REMARK INTRA:                   0.000
REMARK UNBOUND:                 0.000
REMARK SMILES O=c1ccc2cc(O)c(O)cc2o1
REMARK SMILES IDX 4 1 3 2 2 3 1 4 13 5 12 6 11 7 9 8 7 9 6 10 5 11 8 12 10 14
REMARK H PARENT 8 13 10 15
REMARK Flexibility Score: inf
ROOT
ATOM      1  C   UNL     1      44.155  18.493  -4.887  1.00  0.00     0.019 A 
ATOM      2  C   UNL     1      44.555  19.561  -5.691  1.00  0.00     0.094 A 
ATOM      3  C   UNL     1      44.217  20.863  -5.307  1.00  0.00     0.336 A 
ATOM      4  O   UNL     1      44.569  21.840  -6.019  1.00  0.00    -0.246 OA
ATOM      5  O   UNL     1      43.524  21.078  -4.192  1.00  0.00    -0.423 OA
ATOM      6  C   UNL     1      43.124  20.089  -3.396  1.00  0.00     0.142 A 
ATOM      7  C   UNL     1      42.398  20.375  -2.236  1.00  0.00     0.098 A 
ATOM      8  C   UNL     1      41.973  19.336  -1.395  1.00  0.00     0.161 A 
ATOM      9  C   UNL     1      42.275  18.005  -1.716  1.00  0.00     0.158 A 
ATOM     10  C   UNL     1      43.002  17.711  -2.879  1.00  0.00     0.062 A 
ATOM     11  C   UNL     1      43.428  18.748  -3.720  1.00  0.00     0.022 A 
ENDROOT
BRANCH   9  12
ATOM     12  O   UNL     1      41.850  16.978  -0.875  1.00  0.00    -0.504 OA
ATOM     13  H   UNL     1      42.487  16.261  -0.548  1.00  0.00     0.293 HD
ENDBRANCH   9  12
BRANCH   8  14
ATOM     14  O   UNL     1      41.250  19.618  -0.236  1.00  0.00    -0.504 OA
ATOM     15  H   UNL     1      41.104  18.918   0.481  1.00  0.00     0.293 HD
ENDBRANCH   8  14
TORSDOF 2
ENDMDL
MODEL 3
REMARK VINA RESULT:    -4.194      5.735      7.707
REMARK INTER + INTRA:          -4.439
REMARK INTER:                  -4.439
REMARK INTRA:                   0.000
REMARK UNBOUND:                 0.000
REMARK SMILES O=c1ccc2cc(O)c(O)cc2o1
REMARK SMILES IDX 4 1 3 2 2 3 1 4 13 5 12 6 11 7 9 8 7 9 6 10 5 11 8 12 10 14
REMARK H PARENT 8 13 10 15
REMARK Flexibility Score: inf
ROOT
ATOM      1  C   UNL     1      46.676  16.390  -3.976  1.00  0.00     0.019 A 
ATOM      2  C   UNL     1      45.345  16.540  -3.585  1.00  0.00     0.094 A 
ATOM      3  C   UNL     1      44.746  15.536  -2.817  1.00  0.00     0.336 A 
ATOM      4  O   UNL     1      43.547  15.654  -2.454  1.00  0.00    -0.246 OA
ATOM      5  O   UNL     1      45.437  14.454  -2.465  1.00  0.00    -0.423 OA
ATOM      6  C   UNL     1      46.708  14.272  -2.817  1.00  0.00     0.142 A 
ATOM      7  C   UNL     1      47.384  13.115  -2.418  1.00  0.00     0.098 A 
ATOM      8  C   UNL     1      48.723  12.917  -2.786  1.00  0.00     0.161 A 
ATOM      9  C   UNL     1      49.389  13.881  -3.556  1.00  0.00     0.158 A 
ATOM     10  C   UNL     1      48.716  15.044  -3.960  1.00  0.00     0.062 A 
ATOM     11  C   UNL     1      47.378  15.243  -3.592  1.00  0.00     0.022 A 
ENDROOT
BRANCH   9  12
ATOM     12  O   UNL     1      50.719  13.677  -3.917  1.00  0.00    -0.504 OA
ATOM     13  H   UNL     1      51.473  14.196  -3.481  1.00  0.00     0.293 HD
ENDBRANCH   9  12
BRANCH   8  14
ATOM     14  O   UNL     1      49.400  11.764  -2.390  1.00  0.00    -0.504 OA
ATOM     15  H   UNL     1      50.306  11.524  -2.773  1.00  0.00     0.293 HD
ENDBRANCH   8  14
TORSDOF 2
ENDMDL
MODEL 4
REMARK VINA RESULT:    -4.146      2.105      3.292
REMARK INTER + INTRA:          -4.388
REMARK INTER:                  -4.388
REMARK INTRA:                   0.000
REMARK UNBOUND:                 0.000
REMARK SMILES O=c1ccc2cc(O)c(O)cc2o1
REMARK SMILES IDX 4 1 3 2 2 3 1 4 13 5 12 6 11 7 9 8 7 9 6 10 5 11 8 12 10 14
REMARK H PARENT 8 13 10 15
REMARK Flexibility Score: inf
ROOT
ATOM      1  C   UNL     1      42.124  20.155  -2.661  1.00  0.00     0.019 A 
ATOM      2  C   UNL     1      42.845  20.936  -3.565  1.00  0.00     0.094 A 
ATOM      3  C   UNL     1      43.743  20.309  -4.436  1.00  0.00     0.336 A 
ATOM      4  O   UNL     1      44.402  20.997  -5.260  1.00  0.00    -0.246 OA
ATOM      5  O   UNL     1      43.905  18.989  -4.402  1.00  0.00    -0.423 OA
ATOM      6  C   UNL     1      43.237  18.208  -3.556  1.00  0.00     0.142 A 
ATOM      7  C   UNL     1      43.448  16.826  -3.566  1.00  0.00     0.098 A 
ATOM      8  C   UNL     1      42.747  15.998  -2.676  1.00  0.00     0.161 A 
ATOM      9  C   UNL     1      41.831  16.556  -1.773  1.00  0.00     0.158 A 
ATOM     10  C   UNL     1      41.615  17.942  -1.758  1.00  0.00     0.062 A 
ATOM     11  C   UNL     1      42.314  18.769  -2.647  1.00  0.00     0.022 A 
ENDROOT
BRANCH   9  12
ATOM     12  O   UNL     1      41.138  15.726  -0.893  1.00  0.00    -0.504 OA
ATOM     13  H   UNL     1      41.276  14.722  -0.890  1.00  0.00     0.293 HD
ENDBRANCH   9  12
BRANCH   8  14
ATOM     14  O   UNL     1      42.956  14.619  -2.684  1.00  0.00    -0.504 OA
ATOM     15  H   UNL     1      43.584  14.175  -2.026  1.00  0.00     0.293 HD
ENDBRANCH   8  14
TORSDOF 2
ENDMDL
MODEL 5
REMARK VINA RESULT:    -4.130      6.396      9.097
REMARK INTER + INTRA:          -4.372
REMARK INTER:                  -4.372
REMARK INTRA:                   0.000
REMARK UNBOUND:                 0.000
REMARK SMILES O=c1ccc2cc(O)c(O)cc2o1
REMARK SMILES IDX 4 1 3 2 2 3 1 4 13 5 12 6 11 7 9 8 7 9 6 10 5 11 8 12 10 14
REMARK H PARENT 8 13 10 15
REMARK Flexibility Score: inf
ROOT
ATOM      1  C   UNL     1      48.510  13.098  -3.057  1.00  0.00     0.019 A 
ATOM      2  C   UNL     1      47.227  13.432  -2.622  1.00  0.00     0.094 A 
ATOM      3  C   UNL     1      46.698  14.681  -2.966  1.00  0.00     0.336 A 
ATOM      4  O   UNL     1      45.542  15.001  -2.584  1.00  0.00    -0.246 OA
ATOM      5  O   UNL     1      47.409  15.536  -3.698  1.00  0.00    -0.423 OA
ATOM      6  C   UNL     1      48.636  15.256  -4.133  1.00  0.00     0.142 A 
ATOM      7  C   UNL     1      49.336  16.193  -4.899  1.00  0.00     0.098 A 
ATOM      8  C   UNL     1      50.630  15.904  -5.359  1.00  0.00     0.161 A 
ATOM      9  C   UNL     1      51.224  14.671  -5.053  1.00  0.00     0.158 A 
ATOM     10  C   UNL     1      50.527  13.727  -4.285  1.00  0.00     0.062 A 
ATOM     11  C   UNL     1      49.234  14.015  -3.825  1.00  0.00     0.022 A 
ENDROOT
BRANCH   9  12
ATOM     12  O   UNL     1      52.509  14.392  -5.515  1.00  0.00    -0.504 OA
ATOM     13  H   UNL     1      53.333  14.729  -5.030  1.00  0.00     0.293 HD
ENDBRANCH   9  12
BRANCH   8  14
ATOM     14  O   UNL     1      51.330  16.837  -6.123  1.00  0.00    -0.504 OA
ATOM     15  H   UNL     1      51.185  17.833  -6.007  1.00  0.00     0.293 HD
ENDBRANCH   8  14
TORSDOF 2
ENDMDL
MODEL 6
REMARK VINA RESULT:    -4.118      1.960      2.262
REMARK INTER + INTRA:          -4.359
REMARK INTER:                  -4.359
REMARK INTRA:                   0.000
REMARK UNBOUND:                 0.000
REMARK SMILES O=c1ccc2cc(O)c(O)cc2o1
REMARK SMILES IDX 4 1 3 2 2 3 1 4 13 5 12 6 11 7 9 8 7 9 6 10 5 11 8 12 10 14
REMARK H PARENT 8 13 10 15
REMARK Flexibility Score: inf
ROOT
ATOM      1  C   UNL     1      41.296  20.695  -5.270  1.00  0.00     0.019 A 
ATOM      2  C   UNL     1      42.432  21.153  -5.937  1.00  0.00     0.094 A 
ATOM      3  C   UNL     1      43.674  21.063  -5.299  1.00  0.00     0.336 A 
ATOM      4  O   UNL     1      44.712  21.471  -5.885  1.00  0.00    -0.246 OA
ATOM      5  O   UNL     1      43.768  20.548  -4.076  1.00  0.00    -0.423 OA
ATOM      6  C   UNL     1      42.709  20.100  -3.405  1.00  0.00     0.142 A 
ATOM      7  C   UNL     1      42.869  19.569  -2.122  1.00  0.00     0.098 A 
ATOM      8  C   UNL     1      41.756  19.096  -1.410  1.00  0.00     0.161 A 
ATOM      9  C   UNL     1      40.478  19.153  -1.986  1.00  0.00     0.158 A 
ATOM     10  C   UNL     1      40.312  19.685  -3.274  1.00  0.00     0.062 A 
ATOM     11  C   UNL     1      41.423  20.158  -3.985  1.00  0.00     0.022 A 
ENDROOT
BRANCH   9  12
ATOM     12  O   UNL     1      39.378  18.680  -1.273  1.00  0.00    -0.504 OA
ATOM     13  H   UNL     1      38.436  18.990  -1.483  1.00  0.00     0.293 HD
ENDBRANCH   9  12
BRANCH   8  14
ATOM     14  O   UNL     1      41.912  18.565  -0.130  1.00  0.00    -0.504 OA
ATOM     15  H   UNL     1      41.980  17.566   0.024  1.00  0.00     0.293 HD
ENDBRANCH   8  14
TORSDOF 2
ENDMDL
MODEL 7
REMARK VINA RESULT:    -4.070      1.770      4.635
REMARK INTER + INTRA:          -4.308
REMARK INTER:                  -4.308
REMARK INTRA:                   0.000
REMARK UNBOUND:                 0.000
REMARK SMILES O=c1ccc2cc(O)c(O)cc2o1
REMARK SMILES IDX 4 1 3 2 2 3 1 4 13 5 12 6 11 7 9 8 7 9 6 10 5 11 8 12 10 14
REMARK H PARENT 8 13 10 15
REMARK Flexibility Score: inf
ROOT
ATOM      1  C   UNL     1      42.772  20.606  -2.344  1.00  0.00     0.019 A 
ATOM      2  C   UNL     1      41.790  21.221  -1.568  1.00  0.00     0.094 A 
ATOM      3  C   UNL     1      40.895  20.422  -0.848  1.00  0.00     0.336 A 
ATOM      4  O   UNL     1      40.002  20.958  -0.142  1.00  0.00    -0.246 OA
ATOM      5  O   UNL     1      40.983  19.095  -0.902  1.00  0.00    -0.423 OA
ATOM      6  C   UNL     1      41.906  18.469  -1.629  1.00  0.00     0.142 A 
ATOM      7  C   UNL     1      41.950  17.071  -1.647  1.00  0.00     0.098 A 
ATOM      8  C   UNL     1      42.920  16.406  -2.412  1.00  0.00     0.161 A 
ATOM      9  C   UNL     1      43.850  17.142  -3.160  1.00  0.00     0.158 A 
ATOM     10  C   UNL     1      43.810  18.544  -3.146  1.00  0.00     0.062 A 
ATOM     11  C   UNL     1      42.842  19.210  -2.382  1.00  0.00     0.022 A 
ENDROOT
BRANCH   9  12
ATOM     12  O   UNL     1      44.811  16.473  -3.917  1.00  0.00    -0.504 OA
ATOM     13  H   UNL     1      45.714  16.225  -3.529  1.00  0.00     0.293 HD
ENDBRANCH   9  12
BRANCH   8  14
ATOM     14  O   UNL     1      42.967  15.012  -2.432  1.00  0.00    -0.504 OA
ATOM     15  H   UNL     1      42.908  14.468  -1.580  1.00  0.00     0.293 HD
ENDBRANCH   8  14
TORSDOF 2
ENDMDL
MODEL 8
REMARK VINA RESULT:    -4.008      6.870      9.145
REMARK INTER + INTRA:          -4.242
REMARK INTER:                  -4.242
REMARK INTRA:                   0.000
REMARK UNBOUND:                 0.000
REMARK SMILES O=c1ccc2cc(O)c(O)cc2o1
REMARK SMILES IDX 4 1 3 2 2 3 1 4 13 5 12 6 11 7 9 8 7 9 6 10 5 11 8 12 10 14
REMARK H PARENT 8 13 10 15
REMARK Flexibility Score: inf
ROOT
ATOM      1  C   UNL     1      47.581  15.660  -3.874  1.00  0.00     0.019 A 
ATOM      2  C   UNL     1      46.789  14.786  -3.130  1.00  0.00     0.094 A 
ATOM      3  C   UNL     1      47.301  13.529  -2.791  1.00  0.00     0.336 A 
ATOM      4  O   UNL     1      46.601  12.726  -2.119  1.00  0.00    -0.246 OA
ATOM      5  O   UNL     1      48.526  13.175  -3.172  1.00  0.00    -0.423 OA
ATOM      6  C   UNL     1      49.314  13.979  -3.882  1.00  0.00     0.142 A 
ATOM      7  C   UNL     1      50.593  13.553  -4.254  1.00  0.00     0.098 A 
ATOM      8  C   UNL     1      51.428  14.395  -5.003  1.00  0.00     0.161 A 
ATOM      9  C   UNL     1      50.981  15.671  -5.380  1.00  0.00     0.158 A 
ATOM     10  C   UNL     1      49.700  16.104  -5.009  1.00  0.00     0.062 A 
ATOM     11  C   UNL     1      48.865  15.262  -4.261  1.00  0.00     0.022 A 
ENDROOT
BRANCH   9  12
ATOM     12  O   UNL     1      51.818  16.502  -6.123  1.00  0.00    -0.504 OA
ATOM     13  H   UNL     1      51.465  17.331  -6.587  1.00  0.00     0.293 HD
ENDBRANCH   9  12
BRANCH   8  14
ATOM     14  O   UNL     1      52.703  13.973  -5.376  1.00  0.00    -0.504 OA
ATOM     15  H   UNL     1      53.444  13.861  -4.694  1.00  0.00     0.293 HD
ENDBRANCH   8  14
TORSDOF 2
ENDMDL
