MODEL 1
REMARK VINA RESULT:    -3.914      0.000      0.000
REMARK INTER + INTRA:         -15.665
REMARK INTER:                  -9.863
REMARK INTRA:                  -5.802
REMARK UNBOUND:                -5.802
REMARK SMILES CCCCCCCCCCCCCCCCCCCCCCCCCCCC(=O)[O-]
REMARK SMILES IDX 15 1 16 2 17 3 18 4 19 5 20 6 21 7 22 8 23 9 24 10 25 11
REMARK SMILES IDX 26 12 27 13 28 14 29 15 30 16 14 17 13 18 12 19 11 20 10 21
REMARK SMILES IDX 9 22 8 23 7 24 6 25 5 26 4 27 3 28 2 29 1 30
REMARK H PARENT
REMARK Flexibility Score: inf
ROOT
ATOM      1  C   UNL     1     -21.911 120.583  -0.511  1.00  0.00     0.000 C 
ENDROOT
BRANCH   1   2
ATOM      2  C   UNL     1     -23.092 121.292  -1.199  1.00  0.00     0.000 C 
BRANCH   2   3
ATOM      3  C   UNL     1     -23.495 120.710  -2.568  1.00  0.00     0.000 C 
BRANCH   3   4
ATOM      4  C   UNL     1     -24.277 119.384  -2.512  1.00  0.00     0.000 C 
BRANCH   4   5
ATOM      5  C   UNL     1     -25.429 119.409  -1.499  1.00  0.00     0.000 C 
BRANCH   5   6
ATOM      6  C   UNL     1     -25.262 118.290  -0.460  1.00  0.00     0.000 C 
BRANCH   6   7
ATOM      7  C   UNL     1     -23.917 117.555  -0.582  1.00  0.00     0.000 C 
BRANCH   7   8
ATOM      8  C   UNL     1     -23.146 117.509   0.747  1.00  0.00     0.000 C 
BRANCH   8   9
ATOM      9  C   UNL     1     -21.951 116.550   0.659  1.00  0.00     0.000 C 
BRANCH   9  10
ATOM     10  C   UNL     1     -22.175 115.493  -0.430  1.00  0.00     0.000 C 
BRANCH  10  11
ATOM     11  C   UNL     1     -20.911 114.673  -0.740  1.00  0.00     0.000 C 
BRANCH  11  12
ATOM     12  C   UNL     1     -19.616 115.300  -0.181  1.00  0.00     0.006 C 
BRANCH  12  13
ATOM     13  C   UNL     1     -18.420 114.343  -0.271  1.00  0.00     0.053 C 
BRANCH  13  14
ATOM     14  C   UNL     1     -17.348 114.927  -1.136  1.00  0.00     0.041 C 
ATOM     15  O   UNL     1     -16.447 114.189  -1.616  1.00  0.00    -0.550 OA
ATOM     16  O   UNL     1     -17.368 116.281  -1.449  1.00  0.00    -0.550 OA
ENDBRANCH  13  14
ENDBRANCH  12  13
ENDBRANCH  11  12
ENDBRANCH  10  11
ENDBRANCH   9  10
ENDBRANCH   8   9
ENDBRANCH   7   8
ENDBRANCH   6   7
ENDBRANCH   5   6
ENDBRANCH   4   5
ENDBRANCH   3   4
ENDBRANCH   2   3
ENDBRANCH   1   2
BRANCH   1  17
ATOM     17  C   UNL     1     -20.544 121.134  -0.952  1.00  0.00     0.000 C 
BRANCH  17  18
ATOM     18  C   UNL     1     -19.824 120.207  -1.945  1.00  0.00     0.000 C 
BRANCH  18  19
ATOM     19  C   UNL     1     -20.103 118.715  -1.674  1.00  0.00     0.000 C 
BRANCH  19  20
ATOM     20  C   UNL     1     -20.918 118.041  -2.797  1.00  0.00     0.000 C 
BRANCH  20  21
ATOM     21  C   UNL     1     -20.183 116.886  -3.506  1.00  0.00     0.000 C 
BRANCH  21  22
ATOM     22  C   UNL     1     -20.549 116.681  -4.988  1.00  0.00    -0.000 C 
BRANCH  22  23
ATOM     23  C   UNL     1     -21.828 115.860  -5.243  1.00  0.00    -0.000 C 
BRANCH  23  24
ATOM     24  C   UNL     1     -22.143 114.785  -4.184  1.00  0.00    -0.000 C 
BRANCH  24  25
ATOM     25  C   UNL     1     -23.585 114.839  -3.638  1.00  0.00    -0.000 C 
BRANCH  25  26
ATOM     26  C   UNL     1     -24.351 116.100  -4.081  1.00  0.00    -0.000 C 
BRANCH  26  27
ATOM     27  C   UNL     1     -25.789 116.131  -3.519  1.00  0.00    -0.000 C 
BRANCH  27  28
ATOM     28  C   UNL     1     -26.233 114.795  -2.897  1.00  0.00    -0.000 C 
BRANCH  28  29
ATOM     29  C   UNL     1     -27.059 114.980  -1.616  1.00  0.00    -0.003 C 
ATOM     30  C   UNL     1     -26.198 114.768  -0.374  1.00  0.00     0.004 C 
ENDBRANCH  28  29
ENDBRANCH  27  28
ENDBRANCH  26  27
ENDBRANCH  25  26
ENDBRANCH  24  25
ENDBRANCH  23  24
ENDBRANCH  22  23
ENDBRANCH  21  22
ENDBRANCH  20  21
ENDBRANCH  19  20
ENDBRANCH  18  19
ENDBRANCH  17  18
ENDBRANCH   1  17
TORSDOF 26
ENDMDL
MODEL 2
REMARK VINA RESULT:    -3.831      3.084      5.534
REMARK INTER + INTRA:         -15.456
REMARK INTER:                 -10.067
REMARK INTRA:                  -5.389
REMARK UNBOUND:                -5.802
REMARK SMILES CCCCCCCCCCCCCCCCCCCCCCCCCCCC(=O)[O-]
REMARK SMILES IDX 15 1 16 2 17 3 18 4 19 5 20 6 21 7 22 8 23 9 24 10 25 11
REMARK SMILES IDX 26 12 27 13 28 14 29 15 30 16 14 17 13 18 12 19 11 20 10 21
REMARK SMILES IDX 9 22 8 23 7 24 6 25 5 26 4 27 3 28 2 29 1 30
REMARK H PARENT
REMARK Flexibility Score: inf
ROOT
ATOM      1  C   UNL     1     -19.982 118.978  -1.560  1.00  0.00     0.000 C 
ENDROOT
BRANCH   1   2
ATOM      2  C   UNL     1     -19.900 120.480  -1.885  1.00  0.00     0.000 C 
BRANCH   2   3
ATOM      3  C   UNL     1     -20.727 121.395  -0.960  1.00  0.00     0.000 C 
BRANCH   3   4
ATOM      4  C   UNL     1     -22.076 120.812  -0.497  1.00  0.00     0.000 C 
BRANCH   4   5
ATOM      5  C   UNL     1     -23.173 120.919  -1.564  1.00  0.00     0.000 C 
BRANCH   5   6
ATOM      6  C   UNL     1     -24.559 120.695  -0.940  1.00  0.00     0.000 C 
BRANCH   6   7
ATOM      7  C   UNL     1     -25.051 119.245  -1.078  1.00  0.00     0.000 C 
BRANCH   7   8
ATOM      8  C   UNL     1     -25.347 118.856  -2.536  1.00  0.00     0.000 C 
BRANCH   8   9
ATOM      9  C   UNL     1     -25.229 117.340  -2.738  1.00  0.00     0.000 C 
BRANCH   9  10
ATOM     10  C   UNL     1     -26.042 116.580  -1.681  1.00  0.00     0.000 C 
BRANCH  10  11
ATOM     11  C   UNL     1     -25.173 115.674  -0.793  1.00  0.00     0.000 C 
BRANCH  11  12
ATOM     12  C   UNL     1     -25.900 115.173   0.474  1.00  0.00     0.006 C 
BRANCH  12  13
ATOM     13  C   UNL     1     -26.918 116.193   1.002  1.00  0.00     0.053 C 
BRANCH  13  14
ATOM     14  C   UNL     1     -26.971 116.152   2.497  1.00  0.00     0.041 C 
ATOM     15  O   UNL     1     -26.881 115.053   3.105  1.00  0.00    -0.550 OA
ATOM     16  O   UNL     1     -27.076 117.333   3.222  1.00  0.00    -0.550 OA
ENDBRANCH  13  14
ENDBRANCH  12  13
ENDBRANCH  11  12
ENDBRANCH  10  11
ENDBRANCH   9  10
ENDBRANCH   8   9
ENDBRANCH   7   8
ENDBRANCH   6   7
ENDBRANCH   5   6
ENDBRANCH   4   5
ENDBRANCH   3   4
ENDBRANCH   2   3
ENDBRANCH   1   2
BRANCH   1  17
ATOM     17  C   UNL     1     -20.763 118.179  -2.618  1.00  0.00     0.000 C 
BRANCH  17  18
ATOM     18  C   UNL     1     -21.899 117.341  -2.009  1.00  0.00     0.000 C 
BRANCH  18  19
ATOM     19  C   UNL     1     -21.855 117.312  -0.469  1.00  0.00     0.000 C 
BRANCH  19  20
ATOM     20  C   UNL     1     -21.570 115.906   0.100  1.00  0.00     0.000 C 
BRANCH  20  21
ATOM     21  C   UNL     1     -21.373 114.817  -0.974  1.00  0.00     0.000 C 
BRANCH  21  22
ATOM     22  C   UNL     1     -19.978 114.164  -1.005  1.00  0.00    -0.000 C 
BRANCH  22  23
ATOM     23  C   UNL     1     -18.798 115.118  -0.732  1.00  0.00    -0.000 C 
BRANCH  23  24
ATOM     24  C   UNL     1     -18.161 115.751  -1.985  1.00  0.00    -0.000 C 
BRANCH  24  25
ATOM     25  C   UNL     1     -18.226 114.864  -3.245  1.00  0.00    -0.000 C 
BRANCH  25  26
ATOM     26  C   UNL     1     -18.988 115.524  -4.409  1.00  0.00    -0.000 C 
BRANCH  26  27
ATOM     27  C   UNL     1     -20.367 114.870  -4.644  1.00  0.00    -0.000 C 
BRANCH  27  28
ATOM     28  C   UNL     1     -21.280 115.685  -5.576  1.00  0.00    -0.000 C 
BRANCH  28  29
ATOM     29  C   UNL     1     -22.737 115.729  -5.093  1.00  0.00    -0.003 C 
ATOM     30  C   UNL     1     -23.063 114.517  -4.225  1.00  0.00     0.004 C 
ENDBRANCH  28  29
ENDBRANCH  27  28
ENDBRANCH  26  27
ENDBRANCH  25  26
ENDBRANCH  24  25
ENDBRANCH  23  24
ENDBRANCH  22  23
ENDBRANCH  21  22
ENDBRANCH  20  21
ENDBRANCH  19  20
ENDBRANCH  18  19
ENDBRANCH  17  18
ENDBRANCH   1  17
TORSDOF 26
ENDMDL
MODEL 3
REMARK VINA RESULT:    -3.824      1.308      2.236
REMARK INTER + INTRA:         -15.439
REMARK INTER:                  -9.926
REMARK INTRA:                  -5.514
REMARK UNBOUND:                -5.802
REMARK SMILES CCCCCCCCCCCCCCCCCCCCCCCCCCCC(=O)[O-]
REMARK SMILES IDX 15 1 16 2 17 3 18 4 19 5 20 6 21 7 22 8 23 9 24 10 25 11
REMARK SMILES IDX 26 12 27 13 28 14 29 15 30 16 14 17 13 18 12 19 11 20 10 21
REMARK SMILES IDX 9 22 8 23 7 24 6 25 5 26 4 27 3 28 2 29 1 30
REMARK H PARENT
REMARK Flexibility Score: inf
ROOT
ATOM      1  C   UNL     1     -19.633 119.937  -1.714  1.00  0.00     0.000 C 
ENDROOT
BRANCH   1   2
ATOM      2  C   UNL     1     -20.371 120.621  -0.550  1.00  0.00     0.000 C 
BRANCH   2   3
ATOM      3  C   UNL     1     -21.479 121.609  -0.969  1.00  0.00     0.000 C 
BRANCH   3   4
ATOM      4  C   UNL     1     -22.715 120.967  -1.626  1.00  0.00     0.000 C 
BRANCH   4   5
ATOM      5  C   UNL     1     -23.708 120.394  -0.605  1.00  0.00     0.000 C 
BRANCH   5   6
ATOM      6  C   UNL     1     -24.229 119.025  -1.066  1.00  0.00     0.000 C 
BRANCH   6   7
ATOM      7  C   UNL     1     -23.965 117.908  -0.042  1.00  0.00     0.000 C 
BRANCH   7   8
ATOM      8  C   UNL     1     -22.654 118.114   0.733  1.00  0.00     0.000 C 
BRANCH   8   9
ATOM      9  C   UNL     1     -21.872 116.799   0.855  1.00  0.00     0.000 C 
BRANCH   9  10
ATOM     10  C   UNL     1     -22.486 115.711  -0.036  1.00  0.00     0.000 C 
BRANCH  10  11
ATOM     11  C   UNL     1     -21.429 114.878  -0.780  1.00  0.00     0.000 C 
BRANCH  11  12
ATOM     12  C   UNL     1     -19.988 115.124  -0.285  1.00  0.00     0.006 C 
BRANCH  12  13
ATOM     13  C   UNL     1     -19.025 114.011  -0.721  1.00  0.00     0.053 C 
BRANCH  13  14
ATOM     14  C   UNL     1     -17.935 114.571  -1.580  1.00  0.00     0.041 C 
ATOM     15  O   UNL     1     -18.071 114.612  -2.831  1.00  0.00    -0.550 OA
ATOM     16  O   UNL     1     -16.785 115.088  -0.995  1.00  0.00    -0.550 OA
ENDBRANCH  13  14
ENDBRANCH  12  13
ENDBRANCH  11  12
ENDBRANCH  10  11
ENDBRANCH   9  10
ENDBRANCH   8   9
ENDBRANCH   7   8
ENDBRANCH   6   7
ENDBRANCH   5   6
ENDBRANCH   4   5
ENDBRANCH   3   4
ENDBRANCH   2   3
ENDBRANCH   1   2
BRANCH   1  17
ATOM     17  C   UNL     1     -19.838 118.412  -1.739  1.00  0.00     0.000 C 
BRANCH  17  18
ATOM     18  C   UNL     1     -20.978 117.983  -2.678  1.00  0.00     0.000 C 
BRANCH  18  19
ATOM     19  C   UNL     1     -20.516 116.981  -3.754  1.00  0.00     0.000 C 
BRANCH  19  20
ATOM     20  C   UNL     1     -21.065 117.308  -5.159  1.00  0.00     0.000 C 
BRANCH  20  21
ATOM     21  C   UNL     1     -20.564 116.364  -6.269  1.00  0.00     0.000 C 
BRANCH  21  22
ATOM     22  C   UNL     1     -21.348 116.427  -7.594  1.00  0.00    -0.000 C 
BRANCH  22  23
ATOM     23  C   UNL     1     -22.521 115.435  -7.714  1.00  0.00    -0.000 C 
BRANCH  23  24
ATOM     24  C   UNL     1     -23.915 116.026  -7.425  1.00  0.00    -0.000 C 
BRANCH  24  25
ATOM     25  C   UNL     1     -24.569 115.499  -6.131  1.00  0.00    -0.000 C 
BRANCH  25  26
ATOM     26  C   UNL     1     -23.779 114.348  -5.481  1.00  0.00    -0.000 C 
BRANCH  26  27
ATOM     27  C   UNL     1     -23.371 114.672  -4.027  1.00  0.00    -0.000 C 
BRANCH  27  28
ATOM     28  C   UNL     1     -24.119 115.881  -3.438  1.00  0.00    -0.000 C 
BRANCH  28  29
ATOM     29  C   UNL     1     -25.196 115.477  -2.421  1.00  0.00    -0.003 C 
ATOM     30  C   UNL     1     -26.416 116.388  -2.524  1.00  0.00     0.004 C 
ENDBRANCH  28  29
ENDBRANCH  27  28
ENDBRANCH  26  27
ENDBRANCH  25  26
ENDBRANCH  24  25
ENDBRANCH  23  24
ENDBRANCH  22  23
ENDBRANCH  21  22
ENDBRANCH  20  21
ENDBRANCH  19  20
ENDBRANCH  18  19
ENDBRANCH  17  18
ENDBRANCH   1  17
TORSDOF 26
ENDMDL
MODEL 4
REMARK VINA RESULT:    -3.746      1.872      4.678
REMARK INTER + INTRA:         -15.243
REMARK INTER:                 -10.018
REMARK INTRA:                  -5.225
REMARK UNBOUND:                -5.802
REMARK SMILES CCCCCCCCCCCCCCCCCCCCCCCCCCCC(=O)[O-]
REMARK SMILES IDX 15 1 16 2 17 3 18 4 19 5 20 6 21 7 22 8 23 9 24 10 25 11
REMARK SMILES IDX 26 12 27 13 28 14 29 15 30 16 14 17 13 18 12 19 11 20 10 21
REMARK SMILES IDX 9 22 8 23 7 24 6 25 5 26 4 27 3 28 2 29 1 30
REMARK H PARENT
REMARK Flexibility Score: inf
ROOT
ATOM      1  C   UNL     1     -21.297 119.659   0.542  1.00  0.00     0.000 C 
ENDROOT
BRANCH   1   2
ATOM      2  C   UNL     1     -21.197 118.185   0.109  1.00  0.00     0.000 C 
BRANCH   2   3
ATOM      3  C   UNL     1     -22.173 117.227   0.822  1.00  0.00     0.000 C 
BRANCH   3   4
ATOM      4  C   UNL     1     -22.481 115.922   0.065  1.00  0.00     0.000 C 
BRANCH   4   5
ATOM      5  C   UNL     1     -21.483 115.635  -1.065  1.00  0.00     0.000 C 
BRANCH   5   6
ATOM      6  C   UNL     1     -20.534 114.492  -0.674  1.00  0.00     0.000 C 
BRANCH   6   7
ATOM      7  C   UNL     1     -19.062 114.931  -0.612  1.00  0.00     0.000 C 
BRANCH   7   8
ATOM      8  C   UNL     1     -18.745 116.079  -1.583  1.00  0.00     0.000 C 
BRANCH   8   9
ATOM      9  C   UNL     1     -17.612 115.693  -2.543  1.00  0.00     0.000 C 
BRANCH   9  10
ATOM     10  C   UNL     1     -17.850 114.300  -3.141  1.00  0.00     0.000 C 
BRANCH  10  11
ATOM     11  C   UNL     1     -18.619 114.341  -4.473  1.00  0.00     0.000 C 
BRANCH  11  12
ATOM     12  C   UNL     1     -20.138 114.124  -4.314  1.00  0.00     0.006 C 
BRANCH  12  13
ATOM     13  C   UNL     1     -20.948 114.885  -5.373  1.00  0.00     0.053 C 
BRANCH  13  14
ATOM     14  C   UNL     1     -20.556 116.330  -5.391  1.00  0.00     0.041 C 
ATOM     15  O   UNL     1     -20.122 116.857  -6.448  1.00  0.00    -0.550 OA
ATOM     16  O   UNL     1     -20.714 117.106  -4.248  1.00  0.00    -0.550 OA
ENDBRANCH  13  14
ENDBRANCH  12  13
ENDBRANCH  11  12
ENDBRANCH  10  11
ENDBRANCH   9  10
ENDBRANCH   8   9
ENDBRANCH   7   8
ENDBRANCH   6   7
ENDBRANCH   5   6
ENDBRANCH   4   5
ENDBRANCH   3   4
ENDBRANCH   2   3
ENDBRANCH   1   2
BRANCH   1  17
ATOM     17  C   UNL     1     -20.661 120.625  -0.473  1.00  0.00     0.000 C 
BRANCH  17  18
ATOM     18  C   UNL     1     -20.199 119.915  -1.756  1.00  0.00     0.000 C 
BRANCH  18  19
ATOM     19  C   UNL     1     -21.039 120.308  -2.987  1.00  0.00     0.000 C 
BRANCH  19  20
ATOM     20  C   UNL     1     -22.507 119.841  -2.890  1.00  0.00     0.000 C 
BRANCH  20  21
ATOM     21  C   UNL     1     -23.530 120.989  -2.786  1.00  0.00     0.000 C 
BRANCH  21  22
ATOM     22  C   UNL     1     -24.518 120.889  -1.608  1.00  0.00    -0.000 C 
BRANCH  22  23
ATOM     23  C   UNL     1     -24.518 119.541  -0.861  1.00  0.00    -0.000 C 
BRANCH  23  24
ATOM     24  C   UNL     1     -25.876 118.812  -0.819  1.00  0.00    -0.000 C 
BRANCH  24  25
ATOM     25  C   UNL     1     -25.918 117.611   0.150  1.00  0.00    -0.000 C 
BRANCH  25  26
ATOM     26  C   UNL     1     -26.764 116.438  -0.379  1.00  0.00    -0.000 C 
BRANCH  26  27
ATOM     27  C   UNL     1     -25.890 115.332  -1.010  1.00  0.00    -0.000 C 
BRANCH  27  28
ATOM     28  C   UNL     1     -26.062 115.211  -2.534  1.00  0.00    -0.000 C 
BRANCH  28  29
ATOM     29  C   UNL     1     -24.727 115.258  -3.290  1.00  0.00    -0.003 C 
ATOM     30  C   UNL     1     -24.175 116.680  -3.341  1.00  0.00     0.004 C 
ENDBRANCH  28  29
ENDBRANCH  27  28
ENDBRANCH  26  27
ENDBRANCH  25  26
ENDBRANCH  24  25
ENDBRANCH  23  24
ENDBRANCH  22  23
ENDBRANCH  21  22
ENDBRANCH  20  21
ENDBRANCH  19  20
ENDBRANCH  18  19
ENDBRANCH  17  18
ENDBRANCH   1  17
TORSDOF 26
ENDMDL
MODEL 5
REMARK VINA RESULT:    -3.675      2.545      5.506
REMARK INTER + INTRA:         -15.063
REMARK INTER:                 -10.419
REMARK INTRA:                  -4.644
REMARK UNBOUND:                -5.802
REMARK SMILES CCCCCCCCCCCCCCCCCCCCCCCCCCCC(=O)[O-]
REMARK SMILES IDX 15 1 16 2 17 3 18 4 19 5 20 6 21 7 22 8 23 9 24 10 25 11
REMARK SMILES IDX 26 12 27 13 28 14 29 15 30 16 14 17 13 18 12 19 11 20 10 21
REMARK SMILES IDX 9 22 8 23 7 24 6 25 5 26 4 27 3 28 2 29 1 30
REMARK H PARENT
REMARK Flexibility Score: inf
ROOT
ATOM      1  C   UNL     1     -19.773 118.338  -1.738  1.00  0.00     0.000 C 
ENDROOT
BRANCH   1   2
ATOM      2  C   UNL     1     -20.087 119.841  -1.630  1.00  0.00     0.000 C 
BRANCH   2   3
ATOM      3  C   UNL     1     -21.158 120.211  -0.584  1.00  0.00     0.000 C 
BRANCH   3   4
ATOM      4  C   UNL     1     -22.355 121.014  -1.127  1.00  0.00     0.000 C 
BRANCH   4   5
ATOM      5  C   UNL     1     -22.917 120.441  -2.435  1.00  0.00     0.000 C 
BRANCH   5   6
ATOM      6  C   UNL     1     -24.103 121.283  -2.930  1.00  0.00     0.000 C 
BRANCH   6   7
ATOM      7  C   UNL     1     -25.322 121.207  -1.997  1.00  0.00     0.000 C 
BRANCH   7   8
ATOM      8  C   UNL     1     -25.726 119.761  -1.667  1.00  0.00     0.000 C 
BRANCH   8   9
ATOM      9  C   UNL     1     -26.394 119.085  -2.871  1.00  0.00     0.000 C 
BRANCH   9  10
ATOM     10  C   UNL     1     -25.734 117.734  -3.178  1.00  0.00     0.000 C 
BRANCH  10  11
ATOM     11  C   UNL     1     -24.745 117.287  -2.088  1.00  0.00     0.000 C 
BRANCH  11  12
ATOM     12  C   UNL     1     -25.135 115.957  -1.409  1.00  0.00     0.006 C 
BRANCH  12  13
ATOM     13  C   UNL     1     -24.632 115.874   0.039  1.00  0.00     0.053 C 
BRANCH  13  14
ATOM     14  C   UNL     1     -24.820 117.187   0.733  1.00  0.00     0.041 C 
ATOM     15  O   UNL     1     -23.834 117.941   0.943  1.00  0.00    -0.550 OA
ATOM     16  O   UNL     1     -26.094 117.597   1.111  1.00  0.00    -0.550 OA
ENDBRANCH  13  14
ENDBRANCH  12  13
ENDBRANCH  11  12
ENDBRANCH  10  11
ENDBRANCH   9  10
ENDBRANCH   8   9
ENDBRANCH   7   8
ENDBRANCH   6   7
ENDBRANCH   5   6
ENDBRANCH   4   5
ENDBRANCH   3   4
ENDBRANCH   2   3
ENDBRANCH   1   2
BRANCH   1  17
ATOM     17  C   UNL     1     -21.026 117.454  -1.609  1.00  0.00     0.000 C 
BRANCH  17  18
ATOM     18  C   UNL     1     -20.942 116.474  -0.427  1.00  0.00     0.000 C 
BRANCH  18  19
ATOM     19  C   UNL     1     -21.259 115.022  -0.836  1.00  0.00     0.000 C 
BRANCH  19  20
ATOM     20  C   UNL     1     -20.003 114.128  -0.908  1.00  0.00     0.000 C 
BRANCH  20  21
ATOM     21  C   UNL     1     -18.857 114.572   0.023  1.00  0.00     0.000 C 
BRANCH  21  22
ATOM     22  C   UNL     1     -17.458 114.609  -0.623  1.00  0.00    -0.000 C 
BRANCH  22  23
ATOM     23  C   UNL     1     -17.328 115.518  -1.860  1.00  0.00    -0.000 C 
BRANCH  23  24
ATOM     24  C   UNL     1     -16.948 114.798  -3.170  1.00  0.00    -0.000 C 
BRANCH  24  25
ATOM     25  C   UNL     1     -18.156 114.336  -4.010  1.00  0.00    -0.000 C 
BRANCH  25  26
ATOM     26  C   UNL     1     -19.123 115.482  -4.358  1.00  0.00    -0.000 C 
BRANCH  26  27
ATOM     27  C   UNL     1     -20.582 114.991  -4.487  1.00  0.00    -0.000 C 
BRANCH  27  28
ATOM     28  C   UNL     1     -21.558 116.088  -4.947  1.00  0.00    -0.000 C 
BRANCH  28  29
ATOM     29  C   UNL     1     -21.086 116.811  -6.217  1.00  0.00    -0.003 C 
ATOM     30  C   UNL     1     -21.934 116.413  -7.422  1.00  0.00     0.004 C 
ENDBRANCH  28  29
ENDBRANCH  27  28
ENDBRANCH  26  27
ENDBRANCH  25  26
ENDBRANCH  24  25
ENDBRANCH  23  24
ENDBRANCH  22  23
ENDBRANCH  21  22
ENDBRANCH  20  21
ENDBRANCH  19  20
ENDBRANCH  18  19
ENDBRANCH  17  18
ENDBRANCH   1  17
TORSDOF 26
ENDMDL
MODEL 6
REMARK VINA RESULT:    -3.667      2.434      6.730
REMARK INTER + INTRA:         -15.041
REMARK INTER:                 -10.572
REMARK INTRA:                  -4.470
REMARK UNBOUND:                -5.802
REMARK SMILES CCCCCCCCCCCCCCCCCCCCCCCCCCCC(=O)[O-]
REMARK SMILES IDX 15 1 16 2 17 3 18 4 19 5 20 6 21 7 22 8 23 9 24 10 25 11
REMARK SMILES IDX 26 12 27 13 28 14 29 15 30 16 14 17 13 18 12 19 11 20 10 21
REMARK SMILES IDX 9 22 8 23 7 24 6 25 5 26 4 27 3 28 2 29 1 30
REMARK H PARENT
REMARK Flexibility Score: inf
ROOT
ATOM      1  C   UNL     1     -21.292 116.673   0.113  1.00  0.00     0.000 C 
ENDROOT
BRANCH   1   2
ATOM      2  C   UNL     1     -21.623 115.315  -0.531  1.00  0.00     0.000 C 
BRANCH   2   3
ATOM      3  C   UNL     1     -20.411 114.391  -0.767  1.00  0.00     0.000 C 
BRANCH   3   4
ATOM      4  C   UNL     1     -19.070 114.917  -0.221  1.00  0.00     0.000 C 
BRANCH   4   5
ATOM      5  C   UNL     1     -17.944 113.876  -0.293  1.00  0.00     0.000 C 
BRANCH   5   6
ATOM      6  C   UNL     1     -16.709 114.461  -0.995  1.00  0.00     0.000 C 
BRANCH   6   7
ATOM      7  C   UNL     1     -17.046 115.136  -2.335  1.00  0.00     0.000 C 
BRANCH   7   8
ATOM      8  C   UNL     1     -17.401 114.123  -3.435  1.00  0.00     0.000 C 
BRANCH   8   9
ATOM      9  C   UNL     1     -18.557 114.636  -4.305  1.00  0.00     0.000 C 
BRANCH   9  10
ATOM     10  C   UNL     1     -19.051 116.002  -3.811  1.00  0.00     0.000 C 
BRANCH  10  11
ATOM     11  C   UNL     1     -20.565 116.197  -4.001  1.00  0.00     0.000 C 
BRANCH  11  12
ATOM     12  C   UNL     1     -20.921 117.263  -5.059  1.00  0.00     0.006 C 
BRANCH  12  13
ATOM     13  C   UNL     1     -20.523 116.831  -6.476  1.00  0.00     0.053 C 
BRANCH  13  14
ATOM     14  C   UNL     1     -21.639 116.073  -7.124  1.00  0.00     0.041 C 
ATOM     15  O   UNL     1     -22.251 116.563  -8.111  1.00  0.00    -0.550 OA
ATOM     16  O   UNL     1     -21.976 114.805  -6.666  1.00  0.00    -0.550 OA
ENDBRANCH  13  14
ENDBRANCH  12  13
ENDBRANCH  11  12
ENDBRANCH  10  11
ENDBRANCH   9  10
ENDBRANCH   8   9
ENDBRANCH   7   8
ENDBRANCH   6   7
ENDBRANCH   5   6
ENDBRANCH   4   5
ENDBRANCH   3   4
ENDBRANCH   2   3
ENDBRANCH   1   2
BRANCH   1  17
ATOM     17  C   UNL     1     -22.527 117.369   0.711  1.00  0.00     0.000 C 
BRANCH  17  18
ATOM     18  C   UNL     1     -23.848 116.749   0.227  1.00  0.00     0.000 C 
BRANCH  18  19
ATOM     19  C   UNL     1     -25.072 117.623   0.562  1.00  0.00     0.000 C 
BRANCH  19  20
ATOM     20  C   UNL     1     -26.213 117.485  -0.468  1.00  0.00     0.000 C 
BRANCH  20  21
ATOM     21  C   UNL     1     -25.756 116.987  -1.854  1.00  0.00     0.000 C 
BRANCH  21  22
ATOM     22  C   UNL     1     -25.728 118.056  -2.963  1.00  0.00    -0.000 C 
BRANCH  22  23
ATOM     23  C   UNL     1     -26.274 119.439  -2.559  1.00  0.00    -0.000 C 
BRANCH  23  24
ATOM     24  C   UNL     1     -25.698 120.631  -3.350  1.00  0.00    -0.000 C 
BRANCH  24  25
ATOM     25  C   UNL     1     -24.680 121.480  -2.561  1.00  0.00    -0.000 C 
BRANCH  25  26
ATOM     26  C   UNL     1     -24.287 120.852  -1.211  1.00  0.00    -0.000 C 
BRANCH  26  27
ATOM     27  C   UNL     1     -22.769 120.589  -1.113  1.00  0.00    -0.000 C 
BRANCH  27  28
ATOM     28  C   UNL     1     -22.213 119.770  -2.292  1.00  0.00    -0.000 C 
BRANCH  28  29
ATOM     29  C   UNL     1     -20.700 119.527  -2.186  1.00  0.00    -0.003 C 
ATOM     30  C   UNL     1     -19.961 120.816  -1.836  1.00  0.00     0.004 C 
ENDBRANCH  28  29
ENDBRANCH  27  28
ENDBRANCH  26  27
ENDBRANCH  25  26
ENDBRANCH  24  25
ENDBRANCH  23  24
ENDBRANCH  22  23
ENDBRANCH  21  22
ENDBRANCH  20  21
ENDBRANCH  19  20
ENDBRANCH  18  19
ENDBRANCH  17  18
ENDBRANCH   1  17
TORSDOF 26
ENDMDL
MODEL 7
REMARK VINA RESULT:    -3.644      2.434      6.023
REMARK INTER + INTRA:         -14.986
REMARK INTER:                  -9.433
REMARK INTRA:                  -5.553
REMARK UNBOUND:                -5.802
REMARK SMILES CCCCCCCCCCCCCCCCCCCCCCCCCCCC(=O)[O-]
REMARK SMILES IDX 15 1 16 2 17 3 18 4 19 5 20 6 21 7 22 8 23 9 24 10 25 11
REMARK SMILES IDX 26 12 27 13 28 14 29 15 30 16 14 17 13 18 12 19 11 20 10 21
REMARK SMILES IDX 9 22 8 23 7 24 6 25 5 26 4 27 3 28 2 29 1 30
REMARK H PARENT
REMARK Flexibility Score: inf
ROOT
ATOM      1  C   UNL     1     -23.669 121.085  -2.147  1.00  0.00     0.000 C 
ENDROOT
BRANCH   1   2
ATOM      2  C   UNL     1     -23.478 120.593  -0.701  1.00  0.00     0.000 C 
BRANCH   2   3
ATOM      3  C   UNL     1     -22.013 120.380  -0.271  1.00  0.00     0.000 C 
BRANCH   3   4
ATOM      4  C   UNL     1     -20.981 121.256  -1.006  1.00  0.00     0.000 C 
BRANCH   4   5
ATOM      5  C   UNL     1     -19.963 120.437  -1.811  1.00  0.00     0.000 C 
BRANCH   5   6
ATOM      6  C   UNL     1     -20.004 118.959  -1.393  1.00  0.00     0.000 C 
BRANCH   6   7
ATOM      7  C   UNL     1     -20.042 117.998  -2.593  1.00  0.00     0.000 C 
BRANCH   7   8
ATOM      8  C   UNL     1     -21.269 118.221  -3.491  1.00  0.00     0.000 C 
BRANCH   8   9
ATOM      9  C   UNL     1     -21.128 117.462  -4.817  1.00  0.00     0.000 C 
BRANCH   9  10
ATOM     10  C   UNL     1     -20.008 116.416  -4.735  1.00  0.00     0.000 C 
BRANCH  10  11
ATOM     11  C   UNL     1     -20.533 114.992  -4.484  1.00  0.00     0.000 C 
BRANCH  11  12
ATOM     12  C   UNL     1     -22.006 114.797  -4.900  1.00  0.00     0.006 C 
BRANCH  12  13
ATOM     13  C   UNL     1     -22.930 114.599  -3.690  1.00  0.00     0.053 C 
BRANCH  13  14
ATOM     14  C   UNL     1     -24.257 115.247  -3.934  1.00  0.00     0.041 C 
ATOM     15  O   UNL     1     -24.381 116.120  -4.834  1.00  0.00    -0.550 OA
ATOM     16  O   UNL     1     -25.368 114.856  -3.196  1.00  0.00    -0.550 OA
ENDBRANCH  13  14
ENDBRANCH  12  13
ENDBRANCH  11  12
ENDBRANCH  10  11
ENDBRANCH   9  10
ENDBRANCH   8   9
ENDBRANCH   7   8
ENDBRANCH   6   7
ENDBRANCH   5   6
ENDBRANCH   4   5
ENDBRANCH   3   4
ENDBRANCH   2   3
ENDBRANCH   1   2
BRANCH   1  17
ATOM     17  C   UNL     1     -24.804 120.353  -2.884  1.00  0.00     0.000 C 
BRANCH  17  18
ATOM     18  C   UNL     1     -24.869 118.857  -2.534  1.00  0.00     0.000 C 
BRANCH  18  19
ATOM     19  C   UNL     1     -26.282 118.268  -2.706  1.00  0.00     0.000 C 
BRANCH  19  20
ATOM     20  C   UNL     1     -26.823 117.611  -1.418  1.00  0.00     0.000 C 
BRANCH  20  21
ATOM     21  C   UNL     1     -26.052 117.999  -0.140  1.00  0.00     0.000 C 
BRANCH  21  22
ATOM     22  C   UNL     1     -25.223 116.869   0.500  1.00  0.00    -0.000 C 
BRANCH  22  23
ATOM     23  C   UNL     1     -23.709 117.139   0.602  1.00  0.00    -0.000 C 
BRANCH  23  24
ATOM     24  C   UNL     1     -22.867 116.622  -0.582  1.00  0.00    -0.000 C 
BRANCH  24  25
ATOM     25  C   UNL     1     -22.059 115.345  -0.273  1.00  0.00    -0.000 C 
BRANCH  25  26
ATOM     26  C   UNL     1     -20.547 115.607  -0.137  1.00  0.00    -0.000 C 
BRANCH  26  27
ATOM     27  C   UNL     1     -19.713 114.666  -1.035  1.00  0.00    -0.000 C 
BRANCH  27  28
ATOM     28  C   UNL     1     -18.223 114.619  -0.654  1.00  0.00    -0.000 C 
BRANCH  28  29
ATOM     29  C   UNL     1     -17.367 115.589  -1.481  1.00  0.00    -0.003 C 
ATOM     30  C   UNL     1     -17.090 115.026  -2.872  1.00  0.00     0.004 C 
ENDBRANCH  28  29
ENDBRANCH  27  28
ENDBRANCH  26  27
ENDBRANCH  25  26
ENDBRANCH  24  25
ENDBRANCH  23  24
ENDBRANCH  22  23
ENDBRANCH  21  22
ENDBRANCH  20  21
ENDBRANCH  19  20
ENDBRANCH  18  19
ENDBRANCH  17  18
ENDBRANCH   1  17
TORSDOF 26
ENDMDL
MODEL 8
REMARK VINA RESULT:    -3.579      1.807      6.008
REMARK INTER + INTRA:         -14.821
REMARK INTER:                  -9.429
REMARK INTRA:                  -5.392
REMARK UNBOUND:                -5.802
REMARK SMILES CCCCCCCCCCCCCCCCCCCCCCCCCCCC(=O)[O-]
REMARK SMILES IDX 15 1 16 2 17 3 18 4 19 5 20 6 21 7 22 8 23 9 24 10 25 11
REMARK SMILES IDX 26 12 27 13 28 14 29 15 30 16 14 17 13 18 12 19 11 20 10 21
REMARK SMILES IDX 9 22 8 23 7 24 6 25 5 26 4 27 3 28 2 29 1 30
REMARK H PARENT
REMARK Flexibility Score: inf
ROOT
ATOM      1  C   UNL     1     -19.620 116.280  -3.805  1.00  0.00     0.000 C 
ENDROOT
BRANCH   1   2
ATOM      2  C   UNL     1     -19.091 114.940  -4.349  1.00  0.00     0.000 C 
BRANCH   2   3
ATOM      3  C   UNL     1     -17.869 114.369  -3.602  1.00  0.00     0.000 C 
BRANCH   3   4
ATOM      4  C   UNL     1     -17.086 115.387  -2.752  1.00  0.00     0.000 C 
BRANCH   4   5
ATOM      5  C   UNL     1     -16.976 114.978  -1.277  1.00  0.00     0.000 C 
BRANCH   5   6
ATOM      6  C   UNL     1     -18.180 114.120  -0.860  1.00  0.00     0.000 C 
BRANCH   6   7
ATOM      7  C   UNL     1     -19.321 114.947  -0.246  1.00  0.00     0.000 C 
BRANCH   7   8
ATOM      8  C   UNL     1     -20.703 114.539  -0.781  1.00  0.00     0.000 C 
BRANCH   8   9
ATOM      9  C   UNL     1     -21.766 115.586  -0.423  1.00  0.00     0.000 C 
BRANCH   9  10
ATOM     10  C   UNL     1     -21.118 116.944  -0.121  1.00  0.00     0.000 C 
BRANCH  10  11
ATOM     11  C   UNL     1     -21.969 118.134  -0.596  1.00  0.00     0.000 C 
BRANCH  11  12
ATOM     12  C   UNL     1     -21.716 119.430   0.203  1.00  0.00     0.006 C 
BRANCH  12  13
ATOM     13  C   UNL     1     -21.572 120.656  -0.710  1.00  0.00     0.053 C 
BRANCH  13  14
ATOM     14  C   UNL     1     -20.672 120.344  -1.864  1.00  0.00     0.041 C 
ATOM     15  O   UNL     1     -21.144 120.237  -3.027  1.00  0.00    -0.550 OA
ATOM     16  O   UNL     1     -19.303 120.215  -1.663  1.00  0.00    -0.550 OA
ENDBRANCH  13  14
ENDBRANCH  12  13
ENDBRANCH  11  12
ENDBRANCH  10  11
ENDBRANCH   9  10
ENDBRANCH   8   9
ENDBRANCH   7   8
ENDBRANCH   6   7
ENDBRANCH   5   6
ENDBRANCH   4   5
ENDBRANCH   3   4
ENDBRANCH   2   3
ENDBRANCH   1   2
BRANCH   1  17
ATOM     17  C   UNL     1     -21.123 116.481  -4.069  1.00  0.00     0.000 C 
BRANCH  17  18
ATOM     18  C   UNL     1     -21.852 115.162  -4.374  1.00  0.00     0.000 C 
BRANCH  18  19
ATOM     19  C   UNL     1     -23.220 115.064  -3.671  1.00  0.00     0.000 C 
BRANCH  19  20
ATOM     20  C   UNL     1     -23.860 116.442  -3.401  1.00  0.00     0.000 C 
BRANCH  20  21
ATOM     21  C   UNL     1     -25.388 116.402  -3.201  1.00  0.00     0.000 C 
BRANCH  21  22
ATOM     22  C   UNL     1     -25.910 115.240  -2.335  1.00  0.00    -0.000 C 
BRANCH  22  23
ATOM     23  C   UNL     1     -26.379 115.632  -0.920  1.00  0.00    -0.000 C 
BRANCH  23  24
ATOM     24  C   UNL     1     -25.270 116.137   0.025  1.00  0.00    -0.000 C 
BRANCH  24  25
ATOM     25  C   UNL     1     -25.489 117.573   0.544  1.00  0.00    -0.000 C 
BRANCH  25  26
ATOM     26  C   UNL     1     -26.809 118.197   0.056  1.00  0.00    -0.000 C 
BRANCH  26  27
ATOM     27  C   UNL     1     -26.593 119.145  -1.144  1.00  0.00    -0.000 C 
BRANCH  27  28
ATOM     28  C   UNL     1     -25.231 119.862  -1.120  1.00  0.00    -0.000 C 
BRANCH  28  29
ATOM     29  C   UNL     1     -24.615 120.015  -2.518  1.00  0.00    -0.003 C 
ATOM     30  C   UNL     1     -24.915 121.394  -3.101  1.00  0.00     0.004 C 
ENDBRANCH  28  29
ENDBRANCH  27  28
ENDBRANCH  26  27
ENDBRANCH  25  26
ENDBRANCH  24  25
ENDBRANCH  23  24
ENDBRANCH  22  23
ENDBRANCH  21  22
ENDBRANCH  20  21
ENDBRANCH  19  20
ENDBRANCH  18  19
ENDBRANCH  17  18
ENDBRANCH   1  17
TORSDOF 26
ENDMDL
