MODEL 1
REMARK VINA RESULT:    -4.854      0.000      0.000
REMARK INTER + INTRA:         -11.809
REMARK INTER:                  -9.393
REMARK INTRA:                  -2.416
REMARK UNBOUND:                -2.416
REMARK SMILES CCCCCCCCCCCCCCCCCC(=O)[O-]
REMARK SMILES IDX 10 1 11 2 12 3 13 4 14 5 15 6 16 7 17 8 18 9 19 10 20 11
REMARK SMILES IDX 9 12 8 13 7 14 6 15 5 16 4 17 3 18 2 19 1 20
REMARK H PARENT
REMARK Flexibility Score: inf
ROOT
ATOM      1  C   UNL     1      31.781  -9.940  12.664  1.00  0.00     0.000 C 
ENDROOT
BRANCH   1   2
ATOM      2  C   UNL     1      31.681  -9.624  14.165  1.00  0.00     0.000 C 
BRANCH   2   3
ATOM      3  C   UNL     1      30.591 -10.444  14.879  1.00  0.00     0.000 C 
BRANCH   3   4
ATOM      4  C   UNL     1      29.409  -9.566  15.340  1.00  0.00     0.000 C 
BRANCH   4   5
ATOM      5  C   UNL     1      28.054 -10.010  14.763  1.00  0.00     0.000 C 
BRANCH   5   6
ATOM      6  C   UNL     1      28.155 -11.295  13.925  1.00  0.00     0.000 C 
BRANCH   6   7
ATOM      7  C   UNL     1      27.130 -12.358  14.350  1.00  0.00     0.006 C 
BRANCH   7   8
ATOM      8  C   UNL     1      27.201 -12.680  15.849  1.00  0.00     0.053 C 
BRANCH   8   9
ATOM      9  C   UNL     1      28.457 -13.428  16.163  1.00  0.00     0.041 C 
ATOM     10  O   UNL     1      29.302 -12.945  16.963  1.00  0.00    -0.550 OA
ATOM     11  O   UNL     1      28.716 -14.642  15.538  1.00  0.00    -0.550 OA
ENDBRANCH   8   9
ENDBRANCH   7   8
ENDBRANCH   6   7
ENDBRANCH   5   6
ENDBRANCH   4   5
ENDBRANCH   3   4
ENDBRANCH   2   3
ENDBRANCH   1   2
BRANCH   1  12
ATOM     12  C   UNL     1      31.023  -8.924  11.793  1.00  0.00     0.000 C 
BRANCH  12  13
ATOM     13  C   UNL     1      30.815  -7.579  12.508  1.00  0.00    -0.000 C 
BRANCH  13  14
ATOM     14  C   UNL     1      30.919  -6.378  11.551  1.00  0.00    -0.000 C 
BRANCH  14  15
ATOM     15  C   UNL     1      31.315  -6.786  10.121  1.00  0.00    -0.000 C 
BRANCH  15  16
ATOM     16  C   UNL     1      32.612  -6.143   9.593  1.00  0.00    -0.000 C 
BRANCH  16  17
ATOM     17  C   UNL     1      33.383  -5.372  10.679  1.00  0.00    -0.000 C 
BRANCH  17  18
ATOM     18  C   UNL     1      34.745  -6.007  11.015  1.00  0.00    -0.000 C 
BRANCH  18  19
ATOM     19  C   UNL     1      34.697  -7.500  11.384  1.00  0.00    -0.003 C 
ATOM     20  C   UNL     1      34.665  -7.743  12.894  1.00  0.00     0.004 C 
ENDBRANCH  18  19
ENDBRANCH  17  18
ENDBRANCH  16  17
ENDBRANCH  15  16
ENDBRANCH  14  15
ENDBRANCH  13  14
ENDBRANCH  12  13
ENDBRANCH   1  12
TORSDOF 16
ENDMDL
MODEL 2
REMARK VINA RESULT:    -4.799      1.374      2.628
REMARK INTER + INTRA:         -11.704
REMARK INTER:                  -9.466
REMARK INTRA:                  -2.238
REMARK UNBOUND:                -2.416
REMARK SMILES CCCCCCCCCCCCCCCCCC(=O)[O-]
REMARK SMILES IDX 10 1 11 2 12 3 13 4 14 5 15 6 16 7 17 8 18 9 19 10 20 11
REMARK SMILES IDX 9 12 8 13 7 14 6 15 5 16 4 17 3 18 2 19 1 20
REMARK H PARENT
REMARK Flexibility Score: inf
ROOT
ATOM      1  C   UNL     1      31.572  -8.107  12.502  1.00  0.00     0.000 C 
ENDROOT
BRANCH   1   2
ATOM      2  C   UNL     1      31.018  -9.519  12.250  1.00  0.00     0.000 C 
BRANCH   2   3
ATOM      3  C   UNL     1      30.648 -10.258  13.549  1.00  0.00     0.000 C 
BRANCH   3   4
ATOM      4  C   UNL     1      31.024  -9.448  14.807  1.00  0.00     0.000 C 
BRANCH   4   5
ATOM      5  C   UNL     1      29.817  -9.096  15.693  1.00  0.00     0.000 C 
BRANCH   5   6
ATOM      6  C   UNL     1      28.493  -9.070  14.913  1.00  0.00     0.000 C 
BRANCH   6   7
ATOM      7  C   UNL     1      27.493 -10.125  15.413  1.00  0.00     0.006 C 
BRANCH   7   8
ATOM      8  C   UNL     1      27.223 -11.220  14.373  1.00  0.00     0.053 C 
BRANCH   8   9
ATOM      9  C   UNL     1      27.938 -12.480  14.745  1.00  0.00     0.041 C 
ATOM     10  O   UNL     1      28.611 -12.538  15.809  1.00  0.00    -0.550 OA
ATOM     11  O   UNL     1      27.898 -13.578  13.894  1.00  0.00    -0.550 OA
ENDBRANCH   8   9
ENDBRANCH   7   8
ENDBRANCH   6   7
ENDBRANCH   5   6
ENDBRANCH   4   5
ENDBRANCH   3   4
ENDBRANCH   2   3
ENDBRANCH   1   2
BRANCH   1  12
ATOM     12  C   UNL     1      30.624  -7.002  12.007  1.00  0.00     0.000 C 
BRANCH  12  13
ATOM     13  C   UNL     1      31.381  -5.788  11.446  1.00  0.00    -0.000 C 
BRANCH  13  14
ATOM     14  C   UNL     1      32.879  -5.809  11.800  1.00  0.00    -0.000 C 
BRANCH  14  15
ATOM     15  C   UNL     1      33.762  -5.195  10.699  1.00  0.00    -0.000 C 
BRANCH  15  16
ATOM     16  C   UNL     1      34.676  -6.192   9.962  1.00  0.00    -0.000 C 
BRANCH  16  17
ATOM     17  C   UNL     1      33.897  -7.155   9.049  1.00  0.00    -0.000 C 
BRANCH  17  18
ATOM     18  C   UNL     1      32.928  -6.430   8.097  1.00  0.00    -0.000 C 
BRANCH  18  19
ATOM     19  C   UNL     1      31.560  -7.111   7.915  1.00  0.00    -0.003 C 
ATOM     20  C   UNL     1      31.437  -8.425   8.687  1.00  0.00     0.004 C 
ENDBRANCH  18  19
ENDBRANCH  17  18
ENDBRANCH  16  17
ENDBRANCH  15  16
ENDBRANCH  14  15
ENDBRANCH  13  14
ENDBRANCH  12  13
ENDBRANCH   1  12
TORSDOF 16
ENDMDL
MODEL 3
REMARK VINA RESULT:    -4.645      1.731      3.490
REMARK INTER + INTRA:         -11.406
REMARK INTER:                  -9.713
REMARK INTRA:                  -1.693
REMARK UNBOUND:                -2.416
REMARK SMILES CCCCCCCCCCCCCCCCCC(=O)[O-]
REMARK SMILES IDX 10 1 11 2 12 3 13 4 14 5 15 6 16 7 17 8 18 9 19 10 20 11
REMARK SMILES IDX 9 12 8 13 7 14 6 15 5 16 4 17 3 18 2 19 1 20
REMARK H PARENT
REMARK Flexibility Score: inf
ROOT
ATOM      1  C   UNL     1      28.241  -9.479  15.066  1.00  0.00     0.000 C 
ENDROOT
BRANCH   1   2
ATOM      2  C   UNL     1      27.053 -10.427  14.838  1.00  0.00     0.000 C 
BRANCH   2   3
ATOM      3  C   UNL     1      27.298 -11.429  13.695  1.00  0.00     0.000 C 
BRANCH   3   4
ATOM      4  C   UNL     1      26.886 -12.866  14.080  1.00  0.00     0.000 C 
BRANCH   4   5
ATOM      5  C   UNL     1      27.127 -13.196  15.562  1.00  0.00     0.000 C 
BRANCH   5   6
ATOM      6  C   UNL     1      28.565 -13.660  15.844  1.00  0.00     0.000 C 
BRANCH   6   7
ATOM      7  C   UNL     1      29.369 -12.630  16.654  1.00  0.00     0.006 C 
BRANCH   7   8
ATOM      8  C   UNL     1      30.866 -12.966  16.715  1.00  0.00     0.053 C 
BRANCH   8   9
ATOM      9  C   UNL     1      31.684 -11.778  16.322  1.00  0.00     0.041 C 
ATOM     10  O   UNL     1      32.447 -11.835  15.321  1.00  0.00    -0.550 OA
ATOM     11  O   UNL     1      31.636 -10.618  17.087  1.00  0.00    -0.550 OA
ENDBRANCH   8   9
ENDBRANCH   7   8
ENDBRANCH   6   7
ENDBRANCH   5   6
ENDBRANCH   4   5
ENDBRANCH   3   4
ENDBRANCH   2   3
ENDBRANCH   1   2
BRANCH   1  12
ATOM     12  C   UNL     1      29.461  -9.838  14.201  1.00  0.00     0.000 C 
BRANCH  12  13
ATOM     13  C   UNL     1      30.518  -8.722  14.184  1.00  0.00    -0.000 C 
BRANCH  13  14
ATOM     14  C   UNL     1      31.744  -9.080  13.325  1.00  0.00    -0.000 C 
BRANCH  14  15
ATOM     15  C   UNL     1      32.118  -7.970  12.326  1.00  0.00    -0.000 C 
BRANCH  15  16
ATOM     16  C   UNL     1      30.970  -7.014  11.951  1.00  0.00    -0.000 C 
BRANCH  16  17
ATOM     17  C   UNL     1      31.426  -5.861  11.040  1.00  0.00    -0.000 C 
BRANCH  17  18
ATOM     18  C   UNL     1      32.778  -5.257  11.465  1.00  0.00    -0.000 C 
BRANCH  18  19
ATOM     19  C   UNL     1      33.964  -5.601  10.546  1.00  0.00    -0.003 C 
ATOM     20  C   UNL     1      33.538  -6.292   9.251  1.00  0.00     0.004 C 
ENDBRANCH  18  19
ENDBRANCH  17  18
ENDBRANCH  16  17
ENDBRANCH  15  16
ENDBRANCH  14  15
ENDBRANCH  13  14
ENDBRANCH  12  13
ENDBRANCH   1  12
TORSDOF 16
ENDMDL
MODEL 4
REMARK VINA RESULT:    -4.628      3.207      7.578
REMARK INTER + INTRA:         -11.374
REMARK INTER:                  -9.385
REMARK INTRA:                  -1.989
REMARK UNBOUND:                -2.416
REMARK SMILES CCCCCCCCCCCCCCCCCC(=O)[O-]
REMARK SMILES IDX 10 1 11 2 12 3 13 4 14 5 15 6 16 7 17 8 18 9 19 10 20 11
REMARK SMILES IDX 9 12 8 13 7 14 6 15 5 16 4 17 3 18 2 19 1 20
REMARK H PARENT
REMARK Flexibility Score: inf
ROOT
ATOM      1  C   UNL     1      31.498  -8.301  12.284  1.00  0.00     0.000 C 
ENDROOT
BRANCH   1   2
ATOM      2  C   UNL     1      30.650  -7.028  12.131  1.00  0.00     0.000 C 
BRANCH   2   3
ATOM      3  C   UNL     1      31.248  -6.027  11.126  1.00  0.00     0.000 C 
BRANCH   3   4
ATOM      4  C   UNL     1      32.490  -5.306  11.690  1.00  0.00     0.000 C 
BRANCH   4   5
ATOM      5  C   UNL     1      33.663  -5.238  10.699  1.00  0.00     0.000 C 
BRANCH   5   6
ATOM      6  C   UNL     1      33.661  -6.401   9.692  1.00  0.00     0.000 C 
BRANCH   6   7
ATOM      7  C   UNL     1      34.779  -7.420   9.966  1.00  0.00     0.006 C 
BRANCH   7   8
ATOM      8  C   UNL     1      35.858  -6.871  10.910  1.00  0.00     0.053 C 
BRANCH   8   9
ATOM      9  C   UNL     1      35.925  -7.692  12.158  1.00  0.00     0.041 C 
ATOM     10  O   UNL     1      36.946  -8.389  12.406  1.00  0.00    -0.550 OA
ATOM     11  O   UNL     1      34.843  -7.723  13.029  1.00  0.00    -0.550 OA
ENDBRANCH   8   9
ENDBRANCH   7   8
ENDBRANCH   6   7
ENDBRANCH   5   6
ENDBRANCH   4   5
ENDBRANCH   3   4
ENDBRANCH   2   3
ENDBRANCH   1   2
BRANCH   1  12
ATOM     12  C   UNL     1      31.365  -8.938  13.678  1.00  0.00     0.000 C 
BRANCH  12  13
ATOM     13  C   UNL     1      31.138 -10.457  13.610  1.00  0.00    -0.000 C 
BRANCH  13  14
ATOM     14  C   UNL     1      29.741 -10.823  13.077  1.00  0.00    -0.000 C 
BRANCH  14  15
ATOM     15  C   UNL     1      28.802 -11.349  14.177  1.00  0.00    -0.000 C 
BRANCH  15  16
ATOM     16  C   UNL     1      27.596 -10.445  14.494  1.00  0.00    -0.000 C 
BRANCH  16  17
ATOM     17  C   UNL     1      27.983  -9.189  15.295  1.00  0.00    -0.000 C 
BRANCH  17  18
ATOM     18  C   UNL     1      28.757  -9.515  16.586  1.00  0.00    -0.000 C 
BRANCH  18  19
ATOM     19  C   UNL     1      29.768  -8.442  17.029  1.00  0.00    -0.003 C 
ATOM     20  C   UNL     1      31.120  -9.027  17.440  1.00  0.00     0.004 C 
ENDBRANCH  18  19
ENDBRANCH  17  18
ENDBRANCH  16  17
ENDBRANCH  15  16
ENDBRANCH  14  15
ENDBRANCH  13  14
ENDBRANCH  12  13
ENDBRANCH   1  12
TORSDOF 16
ENDMDL
MODEL 5
REMARK VINA RESULT:    -4.620      3.315      7.417
REMARK INTER + INTRA:         -11.357
REMARK INTER:                  -8.815
REMARK INTRA:                  -2.541
REMARK UNBOUND:                -2.416
REMARK SMILES CCCCCCCCCCCCCCCCCC(=O)[O-]
REMARK SMILES IDX 10 1 11 2 12 3 13 4 14 5 15 6 16 7 17 8 18 9 19 10 20 11
REMARK SMILES IDX 9 12 8 13 7 14 6 15 5 16 4 17 3 18 2 19 1 20
REMARK H PARENT
REMARK Flexibility Score: inf
ROOT
ATOM      1  C   UNL     1      30.579  -7.927  13.134  1.00  0.00     0.000 C 
ENDROOT
BRANCH   1   2
ATOM      2  C   UNL     1      30.520  -6.785  12.106  1.00  0.00     0.000 C 
BRANCH   2   3
ATOM      3  C   UNL     1      31.109  -7.179  10.739  1.00  0.00     0.000 C 
BRANCH   3   4
ATOM      4  C   UNL     1      31.990  -6.063  10.141  1.00  0.00     0.000 C 
BRANCH   4   5
ATOM      5  C   UNL     1      32.813  -5.301  11.192  1.00  0.00     0.000 C 
BRANCH   5   6
ATOM      6  C   UNL     1      34.316  -5.615  11.116  1.00  0.00     0.000 C 
BRANCH   6   7
ATOM      7  C   UNL     1      34.646  -7.039  11.591  1.00  0.00     0.006 C 
BRANCH   7   8
ATOM      8  C   UNL     1      35.441  -7.839  10.549  1.00  0.00     0.053 C 
BRANCH   8   9
ATOM      9  C   UNL     1      34.524  -8.705   9.746  1.00  0.00     0.041 C 
ATOM     10  O   UNL     1      34.216  -8.382   8.567  1.00  0.00    -0.550 OA
ATOM     11  O   UNL     1      33.973  -9.848  10.313  1.00  0.00    -0.550 OA
ENDBRANCH   8   9
ENDBRANCH   7   8
ENDBRANCH   6   7
ENDBRANCH   5   6
ENDBRANCH   4   5
ENDBRANCH   3   4
ENDBRANCH   2   3
ENDBRANCH   1   2
BRANCH   1  12
ATOM     12  C   UNL     1      31.682  -8.951  12.820  1.00  0.00     0.000 C 
BRANCH  12  13
ATOM     13  C   UNL     1      31.321 -10.367  13.298  1.00  0.00    -0.000 C 
BRANCH  13  14
ATOM     14  C   UNL     1      29.869 -10.753  12.964  1.00  0.00    -0.000 C 
BRANCH  14  15
ATOM     15  C   UNL     1      29.084 -11.246  14.192  1.00  0.00    -0.000 C 
BRANCH  15  16
ATOM     16  C   UNL     1      27.783 -10.477  14.488  1.00  0.00    -0.000 C 
BRANCH  16  17
ATOM     17  C   UNL     1      27.995  -9.285  15.438  1.00  0.00    -0.000 C 
BRANCH  17  18
ATOM     18  C   UNL     1      28.931  -9.614  16.616  1.00  0.00    -0.000 C 
BRANCH  18  19
ATOM     19  C   UNL     1      30.150  -8.685  16.760  1.00  0.00    -0.003 C 
ATOM     20  C   UNL     1      31.464  -9.445  16.942  1.00  0.00     0.004 C 
ENDBRANCH  18  19
ENDBRANCH  17  18
ENDBRANCH  16  17
ENDBRANCH  15  16
ENDBRANCH  14  15
ENDBRANCH  13  14
ENDBRANCH  12  13
ENDBRANCH   1  12
TORSDOF 16
ENDMDL
MODEL 6
REMARK VINA RESULT:    -4.611      1.465      3.438
REMARK INTER + INTRA:         -11.341
REMARK INTER:                  -8.949
REMARK INTRA:                  -2.392
REMARK UNBOUND:                -2.416
REMARK SMILES CCCCCCCCCCCCCCCCCC(=O)[O-]
REMARK SMILES IDX 10 1 11 2 12 3 13 4 14 5 15 6 16 7 17 8 18 9 19 10 20 11
REMARK SMILES IDX 9 12 8 13 7 14 6 15 5 16 4 17 3 18 2 19 1 20
REMARK H PARENT
REMARK Flexibility Score: inf
ROOT
ATOM      1  C   UNL     1      31.339  -5.978  11.381  1.00  0.00     0.000 C 
ENDROOT
BRANCH   1   2
ATOM      2  C   UNL     1      30.589  -7.051  12.186  1.00  0.00     0.000 C 
BRANCH   2   3
ATOM      3  C   UNL     1      31.300  -8.416  12.174  1.00  0.00     0.000 C 
BRANCH   3   4
ATOM      4  C   UNL     1      30.782  -9.354  13.284  1.00  0.00     0.000 C 
BRANCH   4   5
ATOM      5  C   UNL     1      30.239  -8.607  14.513  1.00  0.00     0.000 C 
BRANCH   5   6
ATOM      6  C   UNL     1      28.793  -9.000  14.860  1.00  0.00     0.000 C 
BRANCH   6   7
ATOM      7  C   UNL     1      28.471 -10.454  14.480  1.00  0.00     0.006 C 
BRANCH   7   8
ATOM      8  C   UNL     1      27.830 -11.237  15.634  1.00  0.00     0.053 C 
BRANCH   8   9
ATOM      9  C   UNL     1      28.794 -12.242  16.180  1.00  0.00     0.041 C 
ATOM     10  O   UNL     1      29.994 -11.922  16.393  1.00  0.00    -0.550 OA
ATOM     11  O   UNL     1      28.378 -13.548  16.415  1.00  0.00    -0.550 OA
ENDBRANCH   8   9
ENDBRANCH   7   8
ENDBRANCH   6   7
ENDBRANCH   5   6
ENDBRANCH   4   5
ENDBRANCH   3   4
ENDBRANCH   2   3
ENDBRANCH   1   2
BRANCH   1  12
ATOM     12  C   UNL     1      32.823  -5.875  11.770  1.00  0.00     0.000 C 
BRANCH  12  13
ATOM     13  C   UNL     1      33.678  -5.239  10.662  1.00  0.00    -0.000 C 
BRANCH  13  14
ATOM     14  C   UNL     1      34.758  -6.195  10.125  1.00  0.00    -0.000 C 
BRANCH  14  15
ATOM     15  C   UNL     1      34.725  -7.575  10.805  1.00  0.00    -0.000 C 
BRANCH  15  16
ATOM     16  C   UNL     1      34.280  -8.740   9.900  1.00  0.00    -0.000 C 
BRANCH  16  17
ATOM     17  C   UNL     1      33.665  -8.264   8.572  1.00  0.00    -0.000 C 
BRANCH  17  18
ATOM     18  C   UNL     1      32.148  -8.520   8.486  1.00  0.00    -0.000 C 
BRANCH  18  19
ATOM     19  C   UNL     1      31.294  -7.280   8.168  1.00  0.00    -0.003 C 
ATOM     20  C   UNL     1      32.065  -6.200   7.409  1.00  0.00     0.004 C 
ENDBRANCH  18  19
ENDBRANCH  17  18
ENDBRANCH  16  17
ENDBRANCH  15  16
ENDBRANCH  14  15
ENDBRANCH  13  14
ENDBRANCH  12  13
ENDBRANCH   1  12
TORSDOF 16
ENDMDL
MODEL 7
REMARK VINA RESULT:    -4.555      3.477      8.210
REMARK INTER + INTRA:         -11.232
REMARK INTER:                  -9.699
REMARK INTRA:                  -1.533
REMARK UNBOUND:                -2.416
REMARK SMILES CCCCCCCCCCCCCCCCCC(=O)[O-]
REMARK SMILES IDX 10 1 11 2 12 3 13 4 14 5 15 6 16 7 17 8 18 9 19 10 20 11
REMARK SMILES IDX 9 12 8 13 7 14 6 15 5 16 4 17 3 18 2 19 1 20
REMARK H PARENT
REMARK Flexibility Score: inf
ROOT
ATOM      1  C   UNL     1      31.041  -9.049  13.761  1.00  0.00     0.000 C 
ENDROOT
BRANCH   1   2
ATOM      2  C   UNL     1      31.056  -8.520  12.317  1.00  0.00     0.000 C 
BRANCH   2   3
ATOM      3  C   UNL     1      30.587  -7.057  12.211  1.00  0.00     0.000 C 
BRANCH   3   4
ATOM      4  C   UNL     1      31.270  -6.310  11.046  1.00  0.00     0.000 C 
BRANCH   4   5
ATOM      5  C   UNL     1      32.208  -5.183  11.508  1.00  0.00     0.000 C 
BRANCH   5   6
ATOM      6  C   UNL     1      33.617  -5.292  10.901  1.00  0.00     0.000 C 
BRANCH   6   7
ATOM      7  C   UNL     1      34.421  -6.465  11.485  1.00  0.00     0.006 C 
BRANCH   7   8
ATOM      8  C   UNL     1      35.817  -6.591  10.859  1.00  0.00     0.053 C 
BRANCH   8   9
ATOM      9  C   UNL     1      36.177  -8.031  10.676  1.00  0.00     0.041 C 
ATOM     10  O   UNL     1      35.316  -8.931  10.866  1.00  0.00    -0.550 OA
ATOM     11  O   UNL     1      37.478  -8.384  10.336  1.00  0.00    -0.550 OA
ENDBRANCH   8   9
ENDBRANCH   7   8
ENDBRANCH   6   7
ENDBRANCH   5   6
ENDBRANCH   4   5
ENDBRANCH   3   4
ENDBRANCH   2   3
ENDBRANCH   1   2
BRANCH   1  12
ATOM     12  C   UNL     1      29.897 -10.046  14.014  1.00  0.00     0.000 C 
BRANCH  12  13
ATOM     13  C   UNL     1      28.805  -9.466  14.927  1.00  0.00    -0.000 C 
BRANCH  13  14
ATOM     14  C   UNL     1      27.494 -10.272  14.867  1.00  0.00    -0.000 C 
BRANCH  14  15
ATOM     15  C   UNL     1      27.461 -11.272  13.698  1.00  0.00    -0.000 C 
BRANCH  15  16
ATOM     16  C   UNL     1      27.016 -12.699  14.071  1.00  0.00    -0.000 C 
BRANCH  16  17
ATOM     17  C   UNL     1      27.157 -12.997  15.574  1.00  0.00    -0.000 C 
BRANCH  17  18
ATOM     18  C   UNL     1      28.516 -13.624  15.938  1.00  0.00    -0.000 C 
BRANCH  18  19
ATOM     19  C   UNL     1      29.400 -12.773  16.867  1.00  0.00    -0.003 C 
ATOM     20  C   UNL     1      30.846 -12.663  16.382  1.00  0.00     0.004 C 
ENDBRANCH  18  19
ENDBRANCH  17  18
ENDBRANCH  16  17
ENDBRANCH  15  16
ENDBRANCH  14  15
ENDBRANCH  13  14
ENDBRANCH  12  13
ENDBRANCH   1  12
TORSDOF 16
ENDMDL
MODEL 8
REMARK VINA RESULT:    -4.551      1.640      2.844
REMARK INTER + INTRA:         -11.224
REMARK INTER:                  -8.808
REMARK INTRA:                  -2.416
REMARK UNBOUND:                -2.416
REMARK SMILES CCCCCCCCCCCCCCCCCC(=O)[O-]
REMARK SMILES IDX 10 1 11 2 12 3 13 4 14 5 15 6 16 7 17 8 18 9 19 10 20 11
REMARK SMILES IDX 9 12 8 13 7 14 6 15 5 16 4 17 3 18 2 19 1 20
REMARK H PARENT
REMARK Flexibility Score: inf
ROOT
ATOM      1  C   UNL     1      31.342  -9.267  11.885  1.00  0.00     0.000 C 
ENDROOT
BRANCH   1   2
ATOM      2  C   UNL     1      31.075 -10.423  12.862  1.00  0.00     0.000 C 
BRANCH   2   3
ATOM      3  C   UNL     1      31.994 -10.388  14.097  1.00  0.00     0.000 C 
BRANCH   3   4
ATOM      4  C   UNL     1      31.306 -10.967  15.352  1.00  0.00     0.000 C 
BRANCH   4   5
ATOM      5  C   UNL     1      31.117  -9.938  16.477  1.00  0.00     0.000 C 
BRANCH   5   6
ATOM      6  C   UNL     1      30.195  -8.776  16.074  1.00  0.00     0.000 C 
BRANCH   6   7
ATOM      7  C   UNL     1      28.706  -9.120  16.239  1.00  0.00     0.006 C 
BRANCH   7   8
ATOM      8  C   UNL     1      28.007  -9.377  14.897  1.00  0.00     0.053 C 
BRANCH   8   9
ATOM      9  C   UNL     1      27.574 -10.805  14.800  1.00  0.00     0.041 C 
ATOM     10  O   UNL     1      27.005 -11.227  13.757  1.00  0.00    -0.550 OA
ATOM     11  O   UNL     1      27.760 -11.662  15.878  1.00  0.00    -0.550 OA
ENDBRANCH   8   9
ENDBRANCH   7   8
ENDBRANCH   6   7
ENDBRANCH   5   6
ENDBRANCH   4   5
ENDBRANCH   3   4
ENDBRANCH   2   3
ENDBRANCH   1   2
BRANCH   1  12
ATOM     12  C   UNL     1      31.558  -7.923  12.602  1.00  0.00     0.000 C 
BRANCH  12  13
ATOM     13  C   UNL     1      30.591  -6.834  12.108  1.00  0.00    -0.000 C 
BRANCH  13  14
ATOM     14  C   UNL     1      31.288  -5.778  11.231  1.00  0.00    -0.000 C 
BRANCH  14  15
ATOM     15  C   UNL     1      32.694  -5.413  11.739  1.00  0.00    -0.000 C 
BRANCH  15  16
ATOM     16  C   UNL     1      33.770  -5.280  10.644  1.00  0.00    -0.000 C 
BRANCH  16  17
ATOM     17  C   UNL     1      34.778  -6.443  10.651  1.00  0.00    -0.000 C 
BRANCH  17  18
ATOM     18  C   UNL     1      34.262  -7.690   9.909  1.00  0.00    -0.000 C 
BRANCH  18  19
ATOM     19  C   UNL     1      33.560  -7.408   8.569  1.00  0.00    -0.003 C 
ATOM     20  C   UNL     1      32.157  -8.011   8.489  1.00  0.00     0.004 C 
ENDBRANCH  18  19
ENDBRANCH  17  18
ENDBRANCH  16  17
ENDBRANCH  15  16
ENDBRANCH  14  15
ENDBRANCH  13  14
ENDBRANCH  12  13
ENDBRANCH   1  12
TORSDOF 16
ENDMDL
MODEL 9
REMARK VINA RESULT:    -4.467      1.798      2.917
REMARK INTER + INTRA:         -11.061
REMARK INTER:                  -8.890
REMARK INTRA:                  -2.171
REMARK UNBOUND:                -2.416
REMARK SMILES CCCCCCCCCCCCCCCCCC(=O)[O-]
REMARK SMILES IDX 10 1 11 2 12 3 13 4 14 5 15 6 16 7 17 8 18 9 19 10 20 11
REMARK SMILES IDX 9 12 8 13 7 14 6 15 5 16 4 17 3 18 2 19 1 20
REMARK H PARENT
REMARK Flexibility Score: inf
ROOT
ATOM      1  C   UNL     1      31.132  -9.669  12.168  1.00  0.00     0.000 C 
ENDROOT
BRANCH   1   2
ATOM      2  C   UNL     1      30.674 -10.607  13.296  1.00  0.00     0.000 C 
BRANCH   2   3
ATOM      3  C   UNL     1      29.158 -10.872  13.277  1.00  0.00     0.000 C 
BRANCH   3   4
ATOM      4  C   UNL     1      28.723 -11.852  14.387  1.00  0.00     0.000 C 
BRANCH   4   5
ATOM      5  C   UNL     1      27.932 -11.182  15.522  1.00  0.00     0.000 C 
BRANCH   5   6
ATOM      6  C   UNL     1      27.968  -9.647  15.448  1.00  0.00     0.000 C 
BRANCH   6   7
ATOM      7  C   UNL     1      28.707  -9.016  16.640  1.00  0.00     0.006 C 
BRANCH   7   8
ATOM      8  C   UNL     1      30.155  -8.635  16.301  1.00  0.00     0.053 C 
BRANCH   8   9
ATOM      9  C   UNL     1      31.112  -9.503  17.053  1.00  0.00     0.041 C 
ATOM     10  O   UNL     1      31.264 -10.712  16.728  1.00  0.00    -0.550 OA
ATOM     11  O   UNL     1      31.807  -8.990  18.142  1.00  0.00    -0.550 OA
ENDBRANCH   8   9
ENDBRANCH   7   8
ENDBRANCH   6   7
ENDBRANCH   5   6
ENDBRANCH   4   5
ENDBRANCH   3   4
ENDBRANCH   2   3
ENDBRANCH   1   2
BRANCH   1  12
ATOM     12  C   UNL     1      31.705  -8.343  12.697  1.00  0.00     0.000 C 
BRANCH  12  13
ATOM     13  C   UNL     1      30.954  -7.119  12.147  1.00  0.00    -0.000 C 
BRANCH  13  14
ATOM     14  C   UNL     1      31.037  -7.013  10.614  1.00  0.00    -0.000 C 
BRANCH  14  15
ATOM     15  C   UNL     1      32.082  -5.986  10.142  1.00  0.00    -0.000 C 
BRANCH  15  16
ATOM     16  C   UNL     1      32.899  -5.320  11.265  1.00  0.00    -0.000 C 
BRANCH  16  17
ATOM     17  C   UNL     1      34.334  -5.866  11.366  1.00  0.00    -0.000 C 
BRANCH  17  18
ATOM     18  C   UNL     1      34.773  -6.639  10.108  1.00  0.00    -0.000 C 
BRANCH  18  19
ATOM     19  C   UNL     1      35.204  -8.096  10.355  1.00  0.00    -0.003 C 
ATOM     20  C   UNL     1      34.158  -9.115   9.901  1.00  0.00     0.004 C 
ENDBRANCH  18  19
ENDBRANCH  17  18
ENDBRANCH  16  17
ENDBRANCH  15  16
ENDBRANCH  14  15
ENDBRANCH  13  14
ENDBRANCH  12  13
ENDBRANCH   1  12
TORSDOF 16
ENDMDL
